# generated using pymatgen
data_ZnH14C19Br(N3O)2
_symmetry_space_group_name_H-M   'P 1'
_cell_length_a   18.19800000
_cell_length_b   18.19800000
_cell_length_c   28.87200000
_cell_angle_alpha   90.00000000
_cell_angle_beta   90.00000000
_cell_angle_gamma   90.00000000
_symmetry_Int_Tables_number   1
_chemical_formula_structural   ZnH14C19Br(N3O)2
_chemical_formula_sum   'Zn16 H224 C304 Br16 N96 O32'
_cell_volume   9561.45951389
_cell_formula_units_Z   16
loop_
 _symmetry_equiv_pos_site_id
 _symmetry_equiv_pos_as_xyz
  1  'x, y, z'
loop_
 _atom_site_type_symbol
 _atom_site_label
 _atom_site_symmetry_multiplicity
 _atom_site_fract_x
 _atom_site_fract_y
 _atom_site_fract_z
 _atom_site_occupancy
 _atom_site_charge
  Zn  Zn1  1  0.242310  0.055310  0.392580  1.0  0.8308
  Zn  Zn2  1  0.257690  0.444690  0.392580  1.0  0.8315
  Zn  Zn3  1  0.444690  0.242310  0.892580  1.0  0.8292
  Zn  Zn4  1  0.055310  0.257690  0.892580  1.0  0.8287
  Zn  Zn5  1  0.257690  0.055310  0.607420  1.0  0.8311
  Zn  Zn6  1  0.242310  0.444690  0.607420  1.0  0.8313
  Zn  Zn7  1  0.055310  0.242310  0.107420  1.0  0.8291
  Zn  Zn8  1  0.444690  0.257690  0.107420  1.0  0.8292
  Zn  Zn9  1  0.757690  0.944690  0.607420  1.0  0.8316
  Zn  Zn10  1  0.742310  0.555310  0.607420  1.0  0.8309
  Zn  Zn11  1  0.555310  0.757690  0.107420  1.0  0.8289
  Zn  Zn12  1  0.944690  0.742310  0.107420  1.0  0.8294
  Zn  Zn13  1  0.742310  0.944690  0.392580  1.0  0.8312
  Zn  Zn14  1  0.757690  0.555310  0.392580  1.0  0.8309
  Zn  Zn15  1  0.944690  0.757690  0.892580  1.0  0.8291
  Zn  Zn16  1  0.555310  0.742310  0.892580  1.0  0.8288
  H  H17  1  0.102000  0.933200  0.201000  1.0  0.1198
  H  H18  1  0.230600  0.112800  0.203700  1.0  0.1176
  H  H19  1  0.178100  0.018400  0.082200  1.0  0.1113
  H  H20  1  0.255100  0.073100  0.280500  1.0  0.0916
  H  H21  1  0.092900  0.993600  0.354200  1.0  0.088
  H  H22  1  0.062000  0.972700  0.273900  1.0  0.1196
  H  H23  1  0.326800  0.161700  0.165200  1.0  0.0915
  H  H24  1  0.325900  0.206500  0.033300  1.0  0.0891
  H  H25  1  0.227300  0.118900  0.046600  1.0  0.1206
  H  H26  1  0.011300  0.884000  0.154200  1.0  0.0941
  H  H27  1  0.075700  0.793400  0.037700  1.0  0.0806
  H  H28  1  0.159600  0.894400  0.053700  1.0  0.1219
  H  H29  1  0.088000  0.086900  0.517700  1.0  0.0951
  H  H30  1  0.985000  0.076500  0.564200  1.0  0.3121
  H  H31  1  0.398000  0.566800  0.201000  1.0  0.1195
  H  H32  1  0.269400  0.387200  0.203700  1.0  0.1184
  H  H33  1  0.321900  0.481600  0.082200  1.0  0.1113
  H  H34  1  0.244900  0.426900  0.280500  1.0  0.0916
  H  H35  1  0.407100  0.506400  0.354200  1.0  0.0882
  H  H36  1  0.438000  0.527300  0.273900  1.0  0.1191
  H  H37  1  0.173200  0.338300  0.165200  1.0  0.0916
  H  H38  1  0.174100  0.293500  0.033300  1.0  0.0898
  H  H39  1  0.272700  0.381100  0.046600  1.0  0.1209
  H  H40  1  0.488700  0.616000  0.154200  1.0  0.0943
  H  H41  1  0.424300  0.706600  0.037700  1.0  0.0815
  H  H42  1  0.340400  0.605600  0.053700  1.0  0.1216
  H  H43  1  0.412000  0.413100  0.517700  1.0  0.0954
  H  H44  1  0.515000  0.423500  0.564200  1.0  0.3127
  H  H45  1  0.566800  0.102000  0.701000  1.0  0.1195
  H  H46  1  0.387200  0.230600  0.703700  1.0  0.1185
  H  H47  1  0.481600  0.178100  0.582200  1.0  0.1104
  H  H48  1  0.426900  0.255100  0.780500  1.0  0.0917
  H  H49  1  0.506400  0.092900  0.854200  1.0  0.0873
  H  H50  1  0.527300  0.062000  0.773900  1.0  0.1184
  H  H51  1  0.338300  0.326800  0.665200  1.0  0.0909
  H  H52  1  0.293500  0.325900  0.533300  1.0  0.0895
  H  H53  1  0.381100  0.227300  0.546600  1.0  0.1207
  H  H54  1  0.616000  0.011300  0.654200  1.0  0.094
  H  H55  1  0.706600  0.075700  0.537700  1.0  0.0815
  H  H56  1  0.605600  0.159600  0.553700  1.0  0.1242
  H  H57  1  0.413100  0.088000  0.017700  1.0  0.0952
  H  H58  1  0.423500  0.985000  0.064200  1.0  0.3154
  H  H59  1  0.933200  0.398000  0.701000  1.0  0.1194
  H  H60  1  0.112800  0.269400  0.703700  1.0  0.1186
  H  H61  1  0.018400  0.321900  0.582200  1.0  0.1115
  H  H62  1  0.073100  0.244900  0.780500  1.0  0.092
  H  H63  1  0.993600  0.407100  0.854200  1.0  0.0876
  H  H64  1  0.972700  0.438000  0.773900  1.0  0.1185
  H  H65  1  0.161700  0.173200  0.665200  1.0  0.0915
  H  H66  1  0.206500  0.174100  0.533300  1.0  0.0895
  H  H67  1  0.118900  0.272700  0.546600  1.0  0.1209
  H  H68  1  0.884000  0.488700  0.654200  1.0  0.0938
  H  H69  1  0.793400  0.424300  0.537700  1.0  0.0818
  H  H70  1  0.894400  0.340400  0.553700  1.0  0.1213
  H  H71  1  0.086900  0.412000  0.017700  1.0  0.095
  H  H72  1  0.076500  0.515000  0.064200  1.0  0.316
  H  H73  1  0.398000  0.933200  0.799000  1.0  0.1202
  H  H74  1  0.269400  0.112800  0.796300  1.0  0.1189
  H  H75  1  0.321900  0.018400  0.917800  1.0  0.1102
  H  H76  1  0.244900  0.073100  0.719500  1.0  0.0914
  H  H77  1  0.407100  0.993600  0.645800  1.0  0.0876
  H  H78  1  0.438000  0.972700  0.726100  1.0  0.1199
  H  H79  1  0.173200  0.161700  0.834800  1.0  0.0914
  H  H80  1  0.174100  0.206500  0.966700  1.0  0.0896
  H  H81  1  0.272700  0.118900  0.953400  1.0  0.1215
  H  H82  1  0.488700  0.884000  0.845800  1.0  0.094
  H  H83  1  0.424300  0.793400  0.962300  1.0  0.0816
  H  H84  1  0.340400  0.894400  0.946300  1.0  0.1218
  H  H85  1  0.412000  0.086900  0.482300  1.0  0.0955
  H  H86  1  0.515000  0.076500  0.435800  1.0  0.3126
  H  H87  1  0.102000  0.566800  0.799000  1.0  0.1203
  H  H88  1  0.230600  0.387200  0.796300  1.0  0.1184
  H  H89  1  0.178100  0.481600  0.917800  1.0  0.1101
  H  H90  1  0.255100  0.426900  0.719500  1.0  0.0913
  H  H91  1  0.092900  0.506400  0.645800  1.0  0.0884
  H  H92  1  0.062000  0.527300  0.726100  1.0  0.1187
  H  H93  1  0.326800  0.338300  0.834800  1.0  0.0914
  H  H94  1  0.325900  0.293500  0.966700  1.0  0.0904
  H  H95  1  0.227300  0.381100  0.953400  1.0  0.1206
  H  H96  1  0.011300  0.616000  0.845800  1.0  0.0934
  H  H97  1  0.075700  0.706600  0.962300  1.0  0.0806
  H  H98  1  0.159600  0.605600  0.946300  1.0  0.1223
  H  H99  1  0.088000  0.413100  0.482300  1.0  0.0956
  H  H100  1  0.985000  0.423500  0.435800  1.0  0.3117
  H  H101  1  0.933200  0.102000  0.299000  1.0  0.1198
  H  H102  1  0.112800  0.230600  0.296300  1.0  0.1191
  H  H103  1  0.018400  0.178100  0.417800  1.0  0.1101
  H  H104  1  0.073100  0.255100  0.219500  1.0  0.0916
  H  H105  1  0.993600  0.092900  0.145800  1.0  0.0867
  H  H106  1  0.972700  0.062000  0.226100  1.0  0.1175
  H  H107  1  0.161700  0.326800  0.334800  1.0  0.0912
  H  H108  1  0.206500  0.325900  0.466700  1.0  0.0902
  H  H109  1  0.118900  0.227300  0.453400  1.0  0.121
  H  H110  1  0.884000  0.011300  0.345800  1.0  0.0931
  H  H111  1  0.793400  0.075700  0.462300  1.0  0.0823
  H  H112  1  0.894400  0.159600  0.446300  1.0  0.1233
  H  H113  1  0.086900  0.088000  0.982300  1.0  0.0949
  H  H114  1  0.076500  0.985000  0.935800  1.0  0.3159
  H  H115  1  0.566800  0.398000  0.299000  1.0  0.1198
  H  H116  1  0.387200  0.269400  0.296300  1.0  0.1192
  H  H117  1  0.481600  0.321900  0.417800  1.0  0.1102
  H  H118  1  0.426900  0.244900  0.219500  1.0  0.0914
  H  H119  1  0.506400  0.407100  0.145800  1.0  0.0876
  H  H120  1  0.527300  0.438000  0.226100  1.0  0.118
  H  H121  1  0.338300  0.173200  0.334800  1.0  0.0909
  H  H122  1  0.293500  0.174100  0.466700  1.0  0.0898
  H  H123  1  0.381100  0.272700  0.453400  1.0  0.1206
  H  H124  1  0.616000  0.488700  0.345800  1.0  0.0935
  H  H125  1  0.706600  0.424300  0.462300  1.0  0.0821
  H  H126  1  0.605600  0.340400  0.446300  1.0  0.1233
  H  H127  1  0.413100  0.412000  0.982300  1.0  0.0952
  H  H128  1  0.423500  0.515000  0.935800  1.0  0.3149
  H  H129  1  0.898000  0.066800  0.799000  1.0  0.1201
  H  H130  1  0.769400  0.887200  0.796300  1.0  0.1187
  H  H131  1  0.821900  0.981600  0.917800  1.0  0.1099
  H  H132  1  0.744900  0.926900  0.719500  1.0  0.0914
  H  H133  1  0.907100  0.006400  0.645800  1.0  0.0879
  H  H134  1  0.938000  0.027300  0.726100  1.0  0.1191
  H  H135  1  0.673200  0.838300  0.834800  1.0  0.0914
  H  H136  1  0.674100  0.793500  0.966700  1.0  0.0897
  H  H137  1  0.772700  0.881100  0.953400  1.0  0.1209
  H  H138  1  0.988700  0.116000  0.845800  1.0  0.0941
  H  H139  1  0.924300  0.206600  0.962300  1.0  0.0813
  H  H140  1  0.840400  0.105600  0.946300  1.0  0.122
  H  H141  1  0.912000  0.913100  0.482300  1.0  0.0954
  H  H142  1  0.015000  0.923500  0.435800  1.0  0.312
  H  H143  1  0.602000  0.433200  0.799000  1.0  0.1198
  H  H144  1  0.730600  0.612800  0.796300  1.0  0.1185
  H  H145  1  0.678100  0.518400  0.917800  1.0  0.1106
  H  H146  1  0.755100  0.573100  0.719500  1.0  0.0913
  H  H147  1  0.592900  0.493600  0.645800  1.0  0.0878
  H  H148  1  0.562000  0.472700  0.726100  1.0  0.1192
  H  H149  1  0.826800  0.661700  0.834800  1.0  0.0914
  H  H150  1  0.825900  0.706500  0.966700  1.0  0.0897
  H  H151  1  0.727300  0.618900  0.953400  1.0  0.1211
  H  H152  1  0.511300  0.384000  0.845800  1.0  0.0932
  H  H153  1  0.575700  0.293400  0.962300  1.0  0.0805
  H  H154  1  0.659600  0.394400  0.946300  1.0  0.1223
  H  H155  1  0.588000  0.586900  0.482300  1.0  0.0953
  H  H156  1  0.485000  0.576500  0.435800  1.0  0.3129
  H  H157  1  0.433200  0.898000  0.299000  1.0  0.1199
  H  H158  1  0.612800  0.769400  0.296300  1.0  0.1188
  H  H159  1  0.518400  0.821900  0.417800  1.0  0.1105
  H  H160  1  0.573100  0.744900  0.219500  1.0  0.0919
  H  H161  1  0.493600  0.907100  0.145800  1.0  0.087
  H  H162  1  0.472700  0.938000  0.226100  1.0  0.1181
  H  H163  1  0.661700  0.673200  0.334800  1.0  0.0909
  H  H164  1  0.706500  0.674100  0.466700  1.0  0.0901
  H  H165  1  0.618900  0.772700  0.453400  1.0  0.1207
  H  H166  1  0.384000  0.988700  0.345800  1.0  0.0934
  H  H167  1  0.293400  0.924300  0.462300  1.0  0.0825
  H  H168  1  0.394400  0.840400  0.446300  1.0  0.1222
  H  H169  1  0.586900  0.912000  0.982300  1.0  0.0951
  H  H170  1  0.576500  0.015000  0.935800  1.0  0.3165
  H  H171  1  0.066800  0.602000  0.299000  1.0  0.1199
  H  H172  1  0.887200  0.730600  0.296300  1.0  0.1194
  H  H173  1  0.981600  0.678100  0.417800  1.0  0.1095
  H  H174  1  0.926900  0.755100  0.219500  1.0  0.0913
  H  H175  1  0.006400  0.592900  0.145800  1.0  0.0872
  H  H176  1  0.027300  0.562000  0.226100  1.0  0.1179
  H  H177  1  0.838300  0.826800  0.334800  1.0  0.0912
  H  H178  1  0.793500  0.825900  0.466700  1.0  0.0895
  H  H179  1  0.881100  0.727300  0.453400  1.0  0.1209
  H  H180  1  0.116000  0.511300  0.345800  1.0  0.0935
  H  H181  1  0.206600  0.575700  0.462300  1.0  0.0816
  H  H182  1  0.105600  0.659600  0.446300  1.0  0.1239
  H  H183  1  0.913100  0.588000  0.982300  1.0  0.0952
  H  H184  1  0.923500  0.485000  0.935800  1.0  0.3148
  H  H185  1  0.602000  0.066800  0.201000  1.0  0.1198
  H  H186  1  0.730600  0.887200  0.203700  1.0  0.1179
  H  H187  1  0.678100  0.981600  0.082200  1.0  0.1111
  H  H188  1  0.755100  0.926900  0.280500  1.0  0.0915
  H  H189  1  0.592900  0.006400  0.354200  1.0  0.0885
  H  H190  1  0.562000  0.027300  0.273900  1.0  0.1191
  H  H191  1  0.826800  0.838300  0.165200  1.0  0.0915
  H  H192  1  0.825900  0.793500  0.033300  1.0  0.0899
  H  H193  1  0.727300  0.881100  0.046600  1.0  0.1209
  H  H194  1  0.511300  0.116000  0.154200  1.0  0.0939
  H  H195  1  0.575700  0.206600  0.037700  1.0  0.0811
  H  H196  1  0.659600  0.105600  0.053700  1.0  0.1219
  H  H197  1  0.588000  0.913100  0.517700  1.0  0.0955
  H  H198  1  0.485000  0.923500  0.564200  1.0  0.3118
  H  H199  1  0.898000  0.433200  0.201000  1.0  0.12
  H  H200  1  0.769400  0.612800  0.203700  1.0  0.1181
  H  H201  1  0.821900  0.518400  0.082200  1.0  0.1113
  H  H202  1  0.744900  0.573100  0.280500  1.0  0.0915
  H  H203  1  0.907100  0.493600  0.354200  1.0  0.0879
  H  H204  1  0.938000  0.472700  0.273900  1.0  0.12
  H  H205  1  0.673200  0.661700  0.165200  1.0  0.0916
  H  H206  1  0.674100  0.706500  0.033300  1.0  0.0894
  H  H207  1  0.772700  0.618900  0.046600  1.0  0.1208
  H  H208  1  0.988700  0.384000  0.154200  1.0  0.0945
  H  H209  1  0.924300  0.293400  0.037700  1.0  0.0811
  H  H210  1  0.840400  0.394400  0.053700  1.0  0.1215
  H  H211  1  0.912000  0.586900  0.517700  1.0  0.0954
  H  H212  1  0.015000  0.576500  0.564200  1.0  0.3127
  H  H213  1  0.066800  0.898000  0.701000  1.0  0.1191
  H  H214  1  0.887200  0.769400  0.703700  1.0  0.1187
  H  H215  1  0.981600  0.821900  0.582200  1.0  0.1108
  H  H216  1  0.926900  0.744900  0.780500  1.0  0.0915
  H  H217  1  0.006400  0.907100  0.854200  1.0  0.0877
  H  H218  1  0.027300  0.938000  0.773900  1.0  0.1182
  H  H219  1  0.838300  0.673200  0.665200  1.0  0.0908
  H  H220  1  0.793500  0.674100  0.533300  1.0  0.0894
  H  H221  1  0.881100  0.772700  0.546600  1.0  0.1206
  H  H222  1  0.116000  0.988700  0.654200  1.0  0.0936
  H  H223  1  0.206600  0.924300  0.537700  1.0  0.0819
  H  H224  1  0.105600  0.840400  0.553700  1.0  0.1222
  H  H225  1  0.913100  0.912000  0.017700  1.0  0.0951
  H  H226  1  0.923500  0.015000  0.064200  1.0  0.3151
  H  H227  1  0.433200  0.602000  0.701000  1.0  0.1199
  H  H228  1  0.612800  0.730600  0.703700  1.0  0.1186
  H  H229  1  0.518400  0.678100  0.582200  1.0  0.1114
  H  H230  1  0.573100  0.755100  0.780500  1.0  0.0921
  H  H231  1  0.493600  0.592900  0.854200  1.0  0.0872
  H  H232  1  0.472700  0.562000  0.773900  1.0  0.1179
  H  H233  1  0.661700  0.826800  0.665200  1.0  0.0915
  H  H234  1  0.706500  0.825900  0.533300  1.0  0.0895
  H  H235  1  0.618900  0.727300  0.546600  1.0  0.1208
  H  H236  1  0.384000  0.511300  0.654200  1.0  0.0941
  H  H237  1  0.293400  0.575700  0.537700  1.0  0.0821
  H  H238  1  0.394400  0.659600  0.553700  1.0  0.1234
  H  H239  1  0.586900  0.588000  0.017700  1.0  0.0948
  H  H240  1  0.576500  0.485000  0.064200  1.0  0.3161
  C  C241  1  0.129100  0.968800  0.185400  1.0  -0.226
  C  C242  1  0.165500  0.023600  0.209470  1.0  0.1472
  C  C243  1  0.206900  0.075900  0.187120  1.0  -0.2448
  C  C244  1  0.212560  0.072600  0.139230  1.0  0.133
  C  C245  1  0.175300  0.019600  0.114350  1.0  -0.2319
  C  C246  1  0.133800  0.968300  0.137850  1.0  0.1482
  C  C247  1  0.211200  0.051000  0.289130  1.0  0.1442
  C  C248  1  0.121800  0.006800  0.329010  1.0  -0.0064
  C  C249  1  0.104100  0.995600  0.285030  1.0  -0.1649
  C  C250  1  0.314500  0.162400  0.133950  1.0  0.1437
  C  C251  1  0.313600  0.186200  0.061850  1.0  0.0267
  C  C252  1  0.258900  0.138300  0.068850  1.0  -0.1565
  C  C253  1  0.037700  0.873700  0.127380  1.0  0.1449
  C  C254  1  0.073400  0.824300  0.063260  1.0  0.0103
  C  C255  1  0.120000  0.879800  0.071900  1.0  -0.1435
  C  C256  1  0.133800  0.009000  0.445760  1.0  0.647
  C  C257  1  0.063400  0.005000  0.472970  1.0  -0.1222
  C  C258  1  0.052800  0.051600  0.510610  1.0  -0.1102
  C  C259  1  0.990500  0.045700  0.537400  1.0  -0.1424
  C  C260  1  0.370900  0.531200  0.185400  1.0  -0.2241
  C  C261  1  0.334500  0.476400  0.209470  1.0  0.1472
  C  C262  1  0.293100  0.424100  0.187120  1.0  -0.2474
  C  C263  1  0.287440  0.427400  0.139230  1.0  0.1325
  C  C264  1  0.324700  0.480400  0.114350  1.0  -0.2335
  C  C265  1  0.366200  0.531700  0.137850  1.0  0.1488
  C  C266  1  0.288800  0.449000  0.289130  1.0  0.1453
  C  C267  1  0.378200  0.493200  0.329010  1.0  -0.0059
  C  C268  1  0.395900  0.504400  0.285030  1.0  -0.165
  C  C269  1  0.185500  0.337600  0.133950  1.0  0.1432
  C  C270  1  0.186400  0.313800  0.061850  1.0  0.0259
  C  C271  1  0.241100  0.361700  0.068850  1.0  -0.1546
  C  C272  1  0.462300  0.626300  0.127380  1.0  0.145
  C  C273  1  0.426600  0.675700  0.063260  1.0  0.0112
  C  C274  1  0.380000  0.620200  0.071900  1.0  -0.1428
  C  C275  1  0.366200  0.491000  0.445760  1.0  0.6453
  C  C276  1  0.436600  0.495000  0.472970  1.0  -0.1222
  C  C277  1  0.447200  0.448400  0.510610  1.0  -0.1091
  C  C278  1  0.509500  0.454300  0.537400  1.0  -0.1419
  C  C279  1  0.531200  0.129100  0.685400  1.0  -0.2283
  C  C280  1  0.476400  0.165500  0.709470  1.0  0.1476
  C  C281  1  0.424100  0.206900  0.687120  1.0  -0.2476
  C  C282  1  0.427400  0.212560  0.639230  1.0  0.1319
  C  C283  1  0.480400  0.175300  0.614350  1.0  -0.2322
  C  C284  1  0.531700  0.133800  0.637850  1.0  0.151
  C  C285  1  0.449000  0.211200  0.789130  1.0  0.1448
  C  C286  1  0.493200  0.121800  0.829010  1.0  -0.0056
  C  C287  1  0.504400  0.104100  0.785030  1.0  -0.1675
  C  C288  1  0.337600  0.314500  0.633950  1.0  0.1426
  C  C289  1  0.313800  0.313600  0.561850  1.0  0.0274
  C  C290  1  0.361700  0.258900  0.568850  1.0  -0.1571
  C  C291  1  0.626300  0.037700  0.627380  1.0  0.1457
  C  C292  1  0.675700  0.073400  0.563260  1.0  0.011
  C  C293  1  0.620200  0.120000  0.571900  1.0  -0.1448
  C  C294  1  0.491000  0.133800  0.945760  1.0  0.6483
  C  C295  1  0.495000  0.063400  0.972970  1.0  -0.1211
  C  C296  1  0.448400  0.052800  0.010610  1.0  -0.1086
  C  C297  1  0.454300  0.990500  0.037400  1.0  -0.1453
  C  C298  1  0.968800  0.370900  0.685400  1.0  -0.2293
  C  C299  1  0.023600  0.334500  0.709470  1.0  0.147
  C  C300  1  0.075900  0.293100  0.687120  1.0  -0.2502
  C  C301  1  0.072600  0.287440  0.639230  1.0  0.1323
  C  C302  1  0.019600  0.324700  0.614350  1.0  -0.233
  C  C303  1  0.968300  0.366200  0.637850  1.0  0.1509
  C  C304  1  0.051000  0.288800  0.789130  1.0  0.1445
  C  C305  1  0.006800  0.378200  0.829010  1.0  -0.0077
  C  C306  1  0.995600  0.395900  0.785030  1.0  -0.1675
  C  C307  1  0.162400  0.185500  0.633950  1.0  0.1437
  C  C308  1  0.186200  0.186400  0.561850  1.0  0.0277
  C  C309  1  0.138300  0.241100  0.568850  1.0  -0.1584
  C  C310  1  0.873700  0.462300  0.627380  1.0  0.1455
  C  C311  1  0.824300  0.426600  0.563260  1.0  0.0109
  C  C312  1  0.879800  0.380000  0.571900  1.0  -0.1417
  C  C313  1  0.009000  0.366200  0.945760  1.0  0.6491
  C  C314  1  0.005000  0.436600  0.972970  1.0  -0.1215
  C  C315  1  0.051600  0.447200  0.010610  1.0  -0.1104
  C  C316  1  0.045700  0.509500  0.037400  1.0  -0.1431
  C  C317  1  0.370900  0.968800  0.814600  1.0  -0.2275
  C  C318  1  0.334500  0.023600  0.790530  1.0  0.1466
  C  C319  1  0.293100  0.075900  0.812880  1.0  -0.2481
  C  C320  1  0.287440  0.072600  0.860770  1.0  0.1324
  C  C321  1  0.324700  0.019600  0.885650  1.0  -0.2346
  C  C322  1  0.366200  0.968300  0.862150  1.0  0.1483
  C  C323  1  0.288800  0.051000  0.710870  1.0  0.1449
  C  C324  1  0.378200  0.006800  0.670990  1.0  -0.0087
  C  C325  1  0.395900  0.995600  0.714970  1.0  -0.1657
  C  C326  1  0.185500  0.162400  0.866050  1.0  0.1443
  C  C327  1  0.186400  0.186200  0.938150  1.0  0.026
  C  C328  1  0.241100  0.138300  0.931150  1.0  -0.155
  C  C329  1  0.462300  0.873700  0.872620  1.0  0.1439
  C  C330  1  0.426600  0.824300  0.936740  1.0  0.0111
  C  C331  1  0.380000  0.879800  0.928100  1.0  -0.1442
  C  C332  1  0.366200  0.009000  0.554240  1.0  0.6453
  C  C333  1  0.436600  0.005000  0.527030  1.0  -0.1218
  C  C334  1  0.447200  0.051600  0.489390  1.0  -0.1089
  C  C335  1  0.509500  0.045700  0.462600  1.0  -0.144
  C  C336  1  0.129100  0.531200  0.814600  1.0  -0.2262
  C  C337  1  0.165500  0.476400  0.790530  1.0  0.147
  C  C338  1  0.206900  0.424100  0.812880  1.0  -0.2457
  C  C339  1  0.212560  0.427400  0.860770  1.0  0.133
  C  C340  1  0.175300  0.480400  0.885650  1.0  -0.2336
  C  C341  1  0.133800  0.531700  0.862150  1.0  0.1479
  C  C342  1  0.211200  0.449000  0.710870  1.0  0.1451
  C  C343  1  0.121800  0.493200  0.670990  1.0  -0.0088
  C  C344  1  0.104100  0.504400  0.714970  1.0  -0.166
  C  C345  1  0.314500  0.337600  0.866050  1.0  0.1431
  C  C346  1  0.313600  0.313800  0.938150  1.0  0.0266
  C  C347  1  0.258900  0.361700  0.931150  1.0  -0.1567
  C  C348  1  0.037700  0.626300  0.872620  1.0  0.1451
  C  C349  1  0.073400  0.675700  0.936740  1.0  0.0111
  C  C350  1  0.120000  0.620200  0.928100  1.0  -0.1412
  C  C351  1  0.133800  0.491000  0.554240  1.0  0.6463
  C  C352  1  0.063400  0.495000  0.527030  1.0  -0.122
  C  C353  1  0.052800  0.448400  0.489390  1.0  -0.1102
  C  C354  1  0.990500  0.454300  0.462600  1.0  -0.1429
  C  C355  1  0.968800  0.129100  0.314600  1.0  -0.2291
  C  C356  1  0.023600  0.165500  0.290530  1.0  0.1477
  C  C357  1  0.075900  0.206900  0.312880  1.0  -0.2489
  C  C358  1  0.072600  0.212560  0.360770  1.0  0.1319
  C  C359  1  0.019600  0.175300  0.385650  1.0  -0.2346
  C  C360  1  0.968300  0.133800  0.362150  1.0  0.1518
  C  C361  1  0.051000  0.211200  0.210870  1.0  0.1455
  C  C362  1  0.006800  0.121800  0.170990  1.0  -0.008
  C  C363  1  0.995600  0.104100  0.214970  1.0  -0.1673
  C  C364  1  0.162400  0.314500  0.366050  1.0  0.1434
  C  C365  1  0.186200  0.313600  0.438150  1.0  0.0273
  C  C366  1  0.138300  0.258900  0.431150  1.0  -0.1587
  C  C367  1  0.873700  0.037700  0.372620  1.0  0.1443
  C  C368  1  0.824300  0.073400  0.436740  1.0  0.0105
  C  C369  1  0.879800  0.120000  0.428100  1.0  -0.1435
  C  C370  1  0.009000  0.133800  0.054240  1.0  0.6486
  C  C371  1  0.005000  0.063400  0.027030  1.0  -0.1212
  C  C372  1  0.051600  0.052800  0.989390  1.0  -0.1098
  C  C373  1  0.045700  0.990500  0.962600  1.0  -0.1441
  C  C374  1  0.531200  0.370900  0.314600  1.0  -0.2295
  C  C375  1  0.476400  0.334500  0.290530  1.0  0.1471
  C  C376  1  0.424100  0.293100  0.312880  1.0  -0.2499
  C  C377  1  0.427400  0.287440  0.360770  1.0  0.132
  C  C378  1  0.480400  0.324700  0.385650  1.0  -0.2335
  C  C379  1  0.531700  0.366200  0.362150  1.0  0.1499
  C  C380  1  0.449000  0.288800  0.210870  1.0  0.1453
  C  C381  1  0.493200  0.378200  0.170990  1.0  -0.0072
  C  C382  1  0.504400  0.395900  0.214970  1.0  -0.1682
  C  C383  1  0.337600  0.185500  0.366050  1.0  0.1434
  C  C384  1  0.313800  0.186400  0.438150  1.0  0.0281
  C  C385  1  0.361700  0.241100  0.431150  1.0  -0.1573
  C  C386  1  0.626300  0.462300  0.372620  1.0  0.1451
  C  C387  1  0.675700  0.426600  0.436740  1.0  0.0114
  C  C388  1  0.620200  0.380000  0.428100  1.0  -0.1414
  C  C389  1  0.491000  0.366200  0.054240  1.0  0.6488
  C  C390  1  0.495000  0.436600  0.027030  1.0  -0.1206
  C  C391  1  0.448400  0.447200  0.989390  1.0  -0.1084
  C  C392  1  0.454300  0.509500  0.962600  1.0  -0.1468
  C  C393  1  0.870900  0.031200  0.814600  1.0  -0.2252
  C  C394  1  0.834500  0.976400  0.790530  1.0  0.1471
  C  C395  1  0.793100  0.924100  0.812880  1.0  -0.2479
  C  C396  1  0.787440  0.927400  0.860770  1.0  0.1323
  C  C397  1  0.824700  0.980400  0.885650  1.0  -0.2342
  C  C398  1  0.866200  0.031700  0.862150  1.0  0.1488
  C  C399  1  0.788800  0.949000  0.710870  1.0  0.1451
  C  C400  1  0.878200  0.993200  0.670990  1.0  -0.0087
  C  C401  1  0.895900  0.004400  0.714970  1.0  -0.1652
  C  C402  1  0.685500  0.837600  0.866050  1.0  0.1443
  C  C403  1  0.686400  0.813800  0.938150  1.0  0.0259
  C  C404  1  0.741100  0.861700  0.931150  1.0  -0.1552
  C  C405  1  0.962300  0.126300  0.872620  1.0  0.1443
  C  C406  1  0.926600  0.175700  0.936740  1.0  0.0108
  C  C407  1  0.880000  0.120200  0.928100  1.0  -0.1434
  C  C408  1  0.866200  0.991000  0.554240  1.0  0.6434
  C  C409  1  0.936600  0.995000  0.527030  1.0  -0.1218
  C  C410  1  0.947200  0.948400  0.489390  1.0  -0.1088
  C  C411  1  0.009500  0.954300  0.462600  1.0  -0.1428
  C  C412  1  0.629100  0.468800  0.814600  1.0  -0.2266
  C  C413  1  0.665500  0.523600  0.790530  1.0  0.1468
  C  C414  1  0.706900  0.575900  0.812880  1.0  -0.2457
  C  C415  1  0.712560  0.572600  0.860770  1.0  0.1328
  C  C416  1  0.675300  0.519600  0.885650  1.0  -0.2339
  C  C417  1  0.633800  0.468300  0.862150  1.0  0.1479
  C  C418  1  0.711200  0.551000  0.710870  1.0  0.1446
  C  C419  1  0.621800  0.506800  0.670990  1.0  -0.0086
  C  C420  1  0.604100  0.495600  0.714970  1.0  -0.1655
  C  C421  1  0.814500  0.662400  0.866050  1.0  0.1432
  C  C422  1  0.813600  0.686200  0.938150  1.0  0.027
  C  C423  1  0.758900  0.638300  0.931150  1.0  -0.1566
  C  C424  1  0.537700  0.373700  0.872620  1.0  0.1447
  C  C425  1  0.573400  0.324300  0.936740  1.0  0.0111
  C  C426  1  0.620000  0.379800  0.928100  1.0  -0.1425
  C  C427  1  0.633800  0.509000  0.554240  1.0  0.6459
  C  C428  1  0.563400  0.505000  0.527030  1.0  -0.1218
  C  C429  1  0.552800  0.551600  0.489390  1.0  -0.1098
  C  C430  1  0.490500  0.545700  0.462600  1.0  -0.1436
  C  C431  1  0.468800  0.870900  0.314600  1.0  -0.2297
  C  C432  1  0.523600  0.834500  0.290530  1.0  0.1466
  C  C433  1  0.575900  0.793100  0.312880  1.0  -0.2509
  C  C434  1  0.572600  0.787440  0.360770  1.0  0.132
  C  C435  1  0.519600  0.824700  0.385650  1.0  -0.2351
  C  C436  1  0.468300  0.866200  0.362150  1.0  0.1509
  C  C437  1  0.551000  0.788800  0.210870  1.0  0.1449
  C  C438  1  0.506800  0.878200  0.170990  1.0  -0.0087
  C  C439  1  0.495600  0.895900  0.214970  1.0  -0.1682
  C  C440  1  0.662400  0.685500  0.366050  1.0  0.1438
  C  C441  1  0.686200  0.686400  0.438150  1.0  0.0281
  C  C442  1  0.638300  0.741100  0.431150  1.0  -0.1588
  C  C443  1  0.373700  0.962300  0.372620  1.0  0.1452
  C  C444  1  0.324300  0.926600  0.436740  1.0  0.0114
  C  C445  1  0.379800  0.880000  0.428100  1.0  -0.1419
  C  C446  1  0.509000  0.866200  0.054240  1.0  0.6476
  C  C447  1  0.505000  0.936600  0.027030  1.0  -0.121
  C  C448  1  0.551600  0.947200  0.989390  1.0  -0.1102
  C  C449  1  0.545700  0.009500  0.962600  1.0  -0.1442
  C  C450  1  0.031200  0.629100  0.314600  1.0  -0.2289
  C  C451  1  0.976400  0.665500  0.290530  1.0  0.1478
  C  C452  1  0.924100  0.706900  0.312880  1.0  -0.2485
  C  C453  1  0.927400  0.712560  0.360770  1.0  0.1318
  C  C454  1  0.980400  0.675300  0.385650  1.0  -0.2333
  C  C455  1  0.031700  0.633800  0.362150  1.0  0.1508
  C  C456  1  0.949000  0.711200  0.210870  1.0  0.145
  C  C457  1  0.993200  0.621800  0.170990  1.0  -0.0064
  C  C458  1  0.004400  0.604100  0.214970  1.0  -0.168
  C  C459  1  0.837600  0.814500  0.366050  1.0  0.143
  C  C460  1  0.813800  0.813600  0.438150  1.0  0.0273
  C  C461  1  0.861700  0.758900  0.431150  1.0  -0.1572
  C  C462  1  0.126300  0.537700  0.372620  1.0  0.1447
  C  C463  1  0.175700  0.573400  0.436740  1.0  0.0107
  C  C464  1  0.120200  0.620000  0.428100  1.0  -0.1426
  C  C465  1  0.991000  0.633800  0.054240  1.0  0.6468
  C  C466  1  0.995000  0.563400  0.027030  1.0  -0.121
  C  C467  1  0.948400  0.552800  0.989390  1.0  -0.1083
  C  C468  1  0.954300  0.490500  0.962600  1.0  -0.1465
  C  C469  1  0.629100  0.031200  0.185400  1.0  -0.2255
  C  C470  1  0.665500  0.976400  0.209470  1.0  0.1469
  C  C471  1  0.706900  0.924100  0.187120  1.0  -0.2451
  C  C472  1  0.712560  0.927400  0.139230  1.0  0.1332
  C  C473  1  0.675300  0.980400  0.114350  1.0  -0.2327
  C  C474  1  0.633800  0.031700  0.137850  1.0  0.148
  C  C475  1  0.711200  0.949000  0.289130  1.0  0.1448
  C  C476  1  0.621800  0.993200  0.329010  1.0  -0.0059
  C  C477  1  0.604100  0.004400  0.285030  1.0  -0.1656
  C  C478  1  0.814500  0.837600  0.133950  1.0  0.1435
  C  C479  1  0.813600  0.813800  0.061850  1.0  0.026
  C  C480  1  0.758900  0.861700  0.068850  1.0  -0.1562
  C  C481  1  0.537700  0.126300  0.127380  1.0  0.1451
  C  C482  1  0.573400  0.175700  0.063260  1.0  0.0116
  C  C483  1  0.620000  0.120200  0.071900  1.0  -0.1416
  C  C484  1  0.633800  0.991000  0.445760  1.0  0.6452
  C  C485  1  0.563400  0.995000  0.472970  1.0  -0.1222
  C  C486  1  0.552800  0.948400  0.510610  1.0  -0.1104
  C  C487  1  0.490500  0.954300  0.537400  1.0  -0.1421
  C  C488  1  0.870900  0.468800  0.185400  1.0  -0.2264
  C  C489  1  0.834500  0.523600  0.209470  1.0  0.147
  C  C490  1  0.793100  0.575900  0.187120  1.0  -0.2472
  C  C491  1  0.787440  0.572600  0.139230  1.0  0.1327
  C  C492  1  0.824700  0.519600  0.114350  1.0  -0.2327
  C  C493  1  0.866200  0.468300  0.137850  1.0  0.1483
  C  C494  1  0.788800  0.551000  0.289130  1.0  0.1449
  C  C495  1  0.878200  0.506800  0.329010  1.0  -0.0067
  C  C496  1  0.895900  0.495600  0.285030  1.0  -0.1651
  C  C497  1  0.685500  0.662400  0.133950  1.0  0.143
  C  C498  1  0.686400  0.686200  0.061850  1.0  0.0265
  C  C499  1  0.741100  0.638300  0.068850  1.0  -0.1549
  C  C500  1  0.962300  0.373700  0.127380  1.0  0.1448
  C  C501  1  0.926600  0.324300  0.063260  1.0  0.0102
  C  C502  1  0.880000  0.379800  0.071900  1.0  -0.1443
  C  C503  1  0.866200  0.509000  0.445760  1.0  0.6446
  C  C504  1  0.936600  0.505000  0.472970  1.0  -0.1223
  C  C505  1  0.947200  0.551600  0.510610  1.0  -0.1095
  C  C506  1  0.009500  0.545700  0.537400  1.0  -0.1431
  C  C507  1  0.031200  0.870900  0.685400  1.0  -0.2289
  C  C508  1  0.976400  0.834500  0.709470  1.0  0.1473
  C  C509  1  0.924100  0.793100  0.687120  1.0  -0.249
  C  C510  1  0.927400  0.787440  0.639230  1.0  0.1324
  C  C511  1  0.980400  0.824700  0.614350  1.0  -0.2315
  C  C512  1  0.031700  0.866200  0.637850  1.0  0.1503
  C  C513  1  0.949000  0.788800  0.789130  1.0  0.1452
  C  C514  1  0.993200  0.878200  0.829010  1.0  -0.0059
  C  C515  1  0.004400  0.895900  0.785030  1.0  -0.1677
  C  C516  1  0.837600  0.685500  0.633950  1.0  0.1434
  C  C517  1  0.813800  0.686400  0.561850  1.0  0.0274
  C  C518  1  0.861700  0.741100  0.568850  1.0  -0.1569
  C  C519  1  0.126300  0.962300  0.627380  1.0  0.1456
  C  C520  1  0.175700  0.926600  0.563260  1.0  0.0107
  C  C521  1  0.120200  0.880000  0.571900  1.0  -0.1416
  C  C522  1  0.991000  0.866200  0.945760  1.0  0.6477
  C  C523  1  0.995000  0.936600  0.972970  1.0  -0.1212
  C  C524  1  0.948400  0.947200  0.010610  1.0  -0.1088
  C  C525  1  0.954300  0.009500  0.037400  1.0  -0.1459
  C  C526  1  0.468800  0.629100  0.685400  1.0  -0.2284
  C  C527  1  0.523600  0.665500  0.709470  1.0  0.1478
  C  C528  1  0.575900  0.706900  0.687120  1.0  -0.248
  C  C529  1  0.572600  0.712560  0.639230  1.0  0.1321
  C  C530  1  0.519600  0.675300  0.614350  1.0  -0.2336
  C  C531  1  0.468300  0.633800  0.637850  1.0  0.1517
  C  C532  1  0.551000  0.711200  0.789130  1.0  0.1452
  C  C533  1  0.506800  0.621800  0.829010  1.0  -0.0076
  C  C534  1  0.495600  0.604100  0.785030  1.0  -0.1667
  C  C535  1  0.662400  0.814500  0.633950  1.0  0.1426
  C  C536  1  0.686200  0.813600  0.561850  1.0  0.0277
  C  C537  1  0.638300  0.758900  0.568850  1.0  -0.1588
  C  C538  1  0.373700  0.537700  0.627380  1.0  0.1448
  C  C539  1  0.324300  0.573400  0.563260  1.0  0.0108
  C  C540  1  0.379800  0.620000  0.571900  1.0  -0.1455
  C  C541  1  0.509000  0.633800  0.945760  1.0  0.648
  C  C542  1  0.505000  0.563400  0.972970  1.0  -0.1212
  C  C543  1  0.551600  0.552800  0.010610  1.0  -0.1099
  C  C544  1  0.545700  0.490500  0.037400  1.0  -0.1429
  Br  Br545  1  0.995260  0.105910  0.596160  1.0  -0.1597
  Br  Br546  1  0.504740  0.394090  0.596160  1.0  -0.1604
  Br  Br547  1  0.394090  0.995260  0.096160  1.0  -0.1576
  Br  Br548  1  0.105910  0.504740  0.096160  1.0  -0.161
  Br  Br549  1  0.504740  0.105910  0.403840  1.0  -0.1588
  Br  Br550  1  0.995260  0.394090  0.403840  1.0  -0.1592
  Br  Br551  1  0.105910  0.995260  0.903840  1.0  -0.1584
  Br  Br552  1  0.394090  0.504740  0.903840  1.0  -0.1574
  Br  Br553  1  0.004740  0.894090  0.403840  1.0  -0.1576
  Br  Br554  1  0.495260  0.605910  0.403840  1.0  -0.1571
  Br  Br555  1  0.605910  0.004740  0.903840  1.0  -0.1576
  Br  Br556  1  0.894090  0.495260  0.903840  1.0  -0.1549
  Br  Br557  1  0.495260  0.894090  0.596160  1.0  -0.1576
  Br  Br558  1  0.004740  0.605910  0.596160  1.0  -0.1589
  Br  Br559  1  0.894090  0.004740  0.096160  1.0  -0.1568
  Br  Br560  1  0.605910  0.495260  0.096160  1.0  -0.1589
  N  N561  1  0.189840  0.040910  0.331980  1.0  -0.401
  N  N562  1  0.160330  0.024740  0.259050  1.0  0.0316
  N  N563  1  0.349310  0.201120  0.102960  1.0  -0.3816
  N  N564  1  0.258710  0.123730  0.115600  1.0  0.0402
  N  N565  1  0.021740  0.820080  0.097850  1.0  -0.3945
  N  N566  1  0.097390  0.911150  0.113300  1.0  0.0159
  N  N567  1  0.310160  0.459090  0.331980  1.0  -0.4015
  N  N568  1  0.339670  0.475260  0.259050  1.0  0.0323
  N  N569  1  0.150690  0.298880  0.102960  1.0  -0.3812
  N  N570  1  0.241290  0.376270  0.115600  1.0  0.0399
  N  N571  1  0.478260  0.679920  0.097850  1.0  -0.3926
  N  N572  1  0.402610  0.588850  0.113300  1.0  0.0159
  N  N573  1  0.459090  0.189840  0.831980  1.0  -0.4026
  N  N574  1  0.475260  0.160330  0.759050  1.0  0.0331
  N  N575  1  0.298880  0.349310  0.602960  1.0  -0.3812
  N  N576  1  0.376270  0.258710  0.615600  1.0  0.0402
  N  N577  1  0.679920  0.021740  0.597850  1.0  -0.393
  N  N578  1  0.588850  0.097390  0.613300  1.0  0.0153
  N  N579  1  0.040910  0.310160  0.831980  1.0  -0.4004
  N  N580  1  0.024740  0.339670  0.759050  1.0  0.032
  N  N581  1  0.201120  0.150690  0.602960  1.0  -0.3802
  N  N582  1  0.123730  0.241290  0.615600  1.0  0.04
  N  N583  1  0.820080  0.478260  0.597850  1.0  -0.3951
  N  N584  1  0.911150  0.402610  0.613300  1.0  0.016
  N  N585  1  0.310160  0.040910  0.668020  1.0  -0.401
  N  N586  1  0.339670  0.024740  0.740950  1.0  0.0317
  N  N587  1  0.150690  0.201120  0.897040  1.0  -0.3822
  N  N588  1  0.241290  0.123730  0.884400  1.0  0.0401
  N  N589  1  0.478260  0.820080  0.902150  1.0  -0.3925
  N  N590  1  0.402610  0.911150  0.886700  1.0  0.016
  N  N591  1  0.189840  0.459090  0.668020  1.0  -0.4014
  N  N592  1  0.160330  0.475260  0.740950  1.0  0.0317
  N  N593  1  0.349310  0.298880  0.897040  1.0  -0.3797
  N  N594  1  0.258710  0.376270  0.884400  1.0  0.0405
  N  N595  1  0.021740  0.679920  0.902150  1.0  -0.3933
  N  N596  1  0.097390  0.588850  0.886700  1.0  0.0167
  N  N597  1  0.040910  0.189840  0.168020  1.0  -0.4007
  N  N598  1  0.024740  0.160330  0.240950  1.0  0.034
  N  N599  1  0.201120  0.349310  0.397040  1.0  -0.3814
  N  N600  1  0.123730  0.258710  0.384400  1.0  0.0403
  N  N601  1  0.820080  0.021740  0.402150  1.0  -0.395
  N  N602  1  0.911150  0.097390  0.386700  1.0  0.0157
  N  N603  1  0.459090  0.310160  0.168020  1.0  -0.4026
  N  N604  1  0.475260  0.339670  0.240950  1.0  0.032
  N  N605  1  0.298880  0.150690  0.397040  1.0  -0.3807
  N  N606  1  0.376270  0.241290  0.384400  1.0  0.0402
  N  N607  1  0.679920  0.478260  0.402150  1.0  -0.3935
  N  N608  1  0.588850  0.402610  0.386700  1.0  0.0155
  N  N609  1  0.810160  0.959090  0.668020  1.0  -0.4007
  N  N610  1  0.839670  0.975260  0.740950  1.0  0.0327
  N  N611  1  0.650690  0.798880  0.897040  1.0  -0.3814
  N  N612  1  0.741290  0.876270  0.884400  1.0  0.0402
  N  N613  1  0.978260  0.179920  0.902150  1.0  -0.3923
  N  N614  1  0.902610  0.088850  0.886700  1.0  0.0158
  N  N615  1  0.689840  0.540910  0.668020  1.0  -0.4015
  N  N616  1  0.660330  0.524740  0.740950  1.0  0.0314
  N  N617  1  0.849310  0.701120  0.897040  1.0  -0.3815
  N  N618  1  0.758710  0.623730  0.884400  1.0  0.0403
  N  N619  1  0.521740  0.320080  0.902150  1.0  -0.3943
  N  N620  1  0.597390  0.411150  0.886700  1.0  0.0164
  N  N621  1  0.540910  0.810160  0.168020  1.0  -0.4012
  N  N622  1  0.524740  0.839670  0.240950  1.0  0.0325
  N  N623  1  0.701120  0.650690  0.397040  1.0  -0.3803
  N  N624  1  0.623730  0.741290  0.384400  1.0  0.04
  N  N625  1  0.320080  0.978260  0.402150  1.0  -0.3951
  N  N626  1  0.411150  0.902610  0.386700  1.0  0.0157
  N  N627  1  0.959090  0.689840  0.168020  1.0  -0.4023
  N  N628  1  0.975260  0.660330  0.240950  1.0  0.0329
  N  N629  1  0.798880  0.849310  0.397040  1.0  -0.3808
  N  N630  1  0.876270  0.758710  0.384400  1.0  0.0405
  N  N631  1  0.179920  0.521740  0.402150  1.0  -0.3932
  N  N632  1  0.088850  0.597390  0.386700  1.0  0.0154
  N  N633  1  0.689840  0.959090  0.331980  1.0  -0.401
  N  N634  1  0.660330  0.975260  0.259050  1.0  0.0316
  N  N635  1  0.849310  0.798880  0.102960  1.0  -0.3796
  N  N636  1  0.758710  0.876270  0.115600  1.0  0.0403
  N  N637  1  0.521740  0.179920  0.097850  1.0  -0.3934
  N  N638  1  0.597390  0.088850  0.113300  1.0  0.0163
  N  N639  1  0.810160  0.540910  0.331980  1.0  -0.4016
  N  N640  1  0.839670  0.524740  0.259050  1.0  0.0317
  N  N641  1  0.650690  0.701120  0.102960  1.0  -0.3821
  N  N642  1  0.741290  0.623730  0.115600  1.0  0.0399
  N  N643  1  0.978260  0.320080  0.097850  1.0  -0.3928
  N  N644  1  0.902610  0.411150  0.113300  1.0  0.0159
  N  N645  1  0.959090  0.810160  0.831980  1.0  -0.4023
  N  N646  1  0.975260  0.839670  0.759050  1.0  0.032
  N  N647  1  0.798880  0.650690  0.602960  1.0  -0.3808
  N  N648  1  0.876270  0.741290  0.615600  1.0  0.0397
  N  N649  1  0.179920  0.978260  0.597850  1.0  -0.3934
  N  N650  1  0.088850  0.902610  0.613300  1.0  0.0154
  N  N651  1  0.540910  0.689840  0.831980  1.0  -0.4008
  N  N652  1  0.524740  0.660330  0.759050  1.0  0.0337
  N  N653  1  0.701120  0.849310  0.602960  1.0  -0.3816
  N  N654  1  0.623730  0.758710  0.615600  1.0  0.0405
  N  N655  1  0.320080  0.521740  0.597850  1.0  -0.3952
  N  N656  1  0.411150  0.597390  0.613300  1.0  0.0156
  O  O657  1  0.164800  0.069700  0.440740  1.0  -0.6123
  O  O658  1  0.158940  0.951270  0.428640  1.0  -0.6185
  O  O659  1  0.335200  0.430300  0.440740  1.0  -0.6105
  O  O660  1  0.341060  0.548730  0.428640  1.0  -0.6183
  O  O661  1  0.430300  0.164800  0.940740  1.0  -0.6098
  O  O662  1  0.548730  0.158940  0.928640  1.0  -0.6177
  O  O663  1  0.069700  0.335200  0.940740  1.0  -0.6105
  O  O664  1  0.951270  0.341060  0.928640  1.0  -0.6208
  O  O665  1  0.335200  0.069700  0.559260  1.0  -0.6112
  O  O666  1  0.341060  0.951270  0.571360  1.0  -0.6178
  O  O667  1  0.164800  0.430300  0.559260  1.0  -0.6112
  O  O668  1  0.158940  0.548730  0.571360  1.0  -0.6179
  O  O669  1  0.069700  0.164800  0.059260  1.0  -0.6108
  O  O670  1  0.951270  0.158940  0.071360  1.0  -0.6207
  O  O671  1  0.430300  0.335200  0.059260  1.0  -0.6094
  O  O672  1  0.548730  0.341060  0.071360  1.0  -0.6181
  O  O673  1  0.835200  0.930300  0.559260  1.0  -0.6103
  O  O674  1  0.841060  0.048730  0.571360  1.0  -0.6198
  O  O675  1  0.664800  0.569700  0.559260  1.0  -0.6121
  O  O676  1  0.658940  0.451270  0.571360  1.0  -0.6183
  O  O677  1  0.569700  0.835200  0.059260  1.0  -0.6103
  O  O678  1  0.451270  0.841060  0.071360  1.0  -0.6206
  O  O679  1  0.930300  0.664800  0.059260  1.0  -0.6097
  O  O680  1  0.048730  0.658940  0.071360  1.0  -0.6191
  O  O681  1  0.664800  0.930300  0.440740  1.0  -0.6113
  O  O682  1  0.658940  0.048730  0.428640  1.0  -0.6176
  O  O683  1  0.835200  0.569700  0.440740  1.0  -0.6115
  O  O684  1  0.841060  0.451270  0.428640  1.0  -0.6194
  O  O685  1  0.930300  0.835200  0.940740  1.0  -0.6096
  O  O686  1  0.048730  0.841060  0.928640  1.0  -0.6188
  O  O687  1  0.569700  0.664800  0.940740  1.0  -0.6111
  O  O688  1  0.451270  0.658940  0.928640  1.0  -0.6206
