# generated using pymatgen
data_CdH12C16(NO2)3
_symmetry_space_group_name_H-M   'P 1'
_cell_length_a   10.61500000
_cell_length_b   14.58890000
_cell_length_c   29.85600000
_cell_angle_alpha   90.00000000
_cell_angle_beta   90.39500000
_cell_angle_gamma   90.00000000
_symmetry_Int_Tables_number   1
_chemical_formula_structural   CdH12C16(NO2)3
_chemical_formula_sum   'Cd8 H96 C128 N24 O48'
_cell_volume   4623.42532292
_cell_formula_units_Z   8
loop_
 _symmetry_equiv_pos_site_id
 _symmetry_equiv_pos_as_xyz
  1  'x, y, z'
loop_
 _atom_site_type_symbol
 _atom_site_label
 _atom_site_symmetry_multiplicity
 _atom_site_fract_x
 _atom_site_fract_y
 _atom_site_fract_z
 _atom_site_occupancy
 _atom_site_charge
  Cd  Cd1  1  0.354570  0.166250  0.224680  1.0  0.951
  Cd  Cd2  1  0.814760  0.958730  0.250480  1.0  0.9912
  Cd  Cd3  1  0.645430  0.666250  0.275320  1.0  0.9526
  Cd  Cd4  1  0.185240  0.458730  0.249520  1.0  0.9931
  Cd  Cd5  1  0.645430  0.833750  0.775320  1.0  0.9528
  Cd  Cd6  1  0.185240  0.041270  0.749520  1.0  0.9931
  Cd  Cd7  1  0.354570  0.333750  0.724680  1.0  0.9512
  Cd  Cd8  1  0.814760  0.541270  0.750480  1.0  0.9912
  H  H9  1  0.107400  0.874900  0.157200  1.0  0.1132
  H  H10  1  0.140100  0.027700  0.174100  1.0  0.0929
  H  H11  1  0.698000  0.427900  0.206000  1.0  0.104
  H  H12  1  0.884300  0.503200  0.220800  1.0  0.0888
  H  H13  1  0.472100  0.347100  0.182200  1.0  0.0752
  H  H14  1  0.562800  0.402500  0.117200  1.0  0.112
  H  H15  1  0.354700  0.218400  0.050500  1.0  0.1296
  H  H16  1  0.279600  0.167900  0.118800  1.0  0.0916
  H  H17  1  0.345900  0.364500  0.999400  1.0  0.137
  H  H18  1  0.786400  0.418600  0.988800  1.0  0.1222
  H  H19  1  0.549400  0.362700  0.868500  1.0  0.1196
  H  H20  1  0.619800  0.411400  0.800100  1.0  0.0777
  H  H21  1  0.873600  0.567000  0.856600  1.0  0.0676
  H  H22  1  0.810300  0.521100  0.926400  1.0  0.1136
  H  H23  1  0.254800  0.362900  0.942400  1.0  0.0829
  H  H24  1  0.264900  0.456200  0.969300  1.0  0.0623
  H  H25  1  0.254400  0.447900  0.873900  1.0  0.0608
  H  H26  1  0.256700  0.539900  0.901800  1.0  0.0683
  H  H27  1  0.068300  0.415900  0.905000  1.0  0.4107
  H  H28  1  0.937400  0.163600  0.114300  1.0  0.3914
  H  H29  1  0.905100  0.403300  0.055900  1.0  0.083
  H  H30  1  0.880300  0.321000  0.023900  1.0  0.0692
  H  H31  1  0.923900  0.301400  0.114200  1.0  0.0538
  H  H32  1  0.031700  0.303400  0.079900  1.0  0.074
  H  H33  1  0.892600  0.374900  0.342800  1.0  0.113
  H  H34  1  0.859900  0.527700  0.325900  1.0  0.094
  H  H35  1  0.302000  0.927900  0.294000  1.0  0.1038
  H  H36  1  0.115700  0.003200  0.279200  1.0  0.0888
  H  H37  1  0.527900  0.847100  0.317800  1.0  0.0755
  H  H38  1  0.437200  0.902500  0.382800  1.0  0.1122
  H  H39  1  0.645300  0.718400  0.449500  1.0  0.1309
  H  H40  1  0.720400  0.667900  0.381200  1.0  0.0928
  H  H41  1  0.654100  0.864500  0.500600  1.0  0.1331
  H  H42  1  0.213600  0.918600  0.511200  1.0  0.1227
  H  H43  1  0.450600  0.862700  0.631500  1.0  0.1209
  H  H44  1  0.380200  0.911400  0.699900  1.0  0.0781
  H  H45  1  0.126400  0.067000  0.643400  1.0  0.0681
  H  H46  1  0.189700  0.021100  0.573600  1.0  0.1137
  H  H47  1  0.745200  0.862900  0.557600  1.0  0.0835
  H  H48  1  0.735100  0.956200  0.530700  1.0  0.0623
  H  H49  1  0.745600  0.947900  0.626100  1.0  0.0617
  H  H50  1  0.743300  0.039900  0.598200  1.0  0.0663
  H  H51  1  0.931700  0.915900  0.595000  1.0  0.4112
  H  H52  1  0.062600  0.663600  0.385700  1.0  0.3922
  H  H53  1  0.094900  0.903300  0.444100  1.0  0.0845
  H  H54  1  0.119700  0.821000  0.476100  1.0  0.0708
  H  H55  1  0.076100  0.801400  0.385800  1.0  0.0538
  H  H56  1  0.968300  0.803400  0.420100  1.0  0.0661
  H  H57  1  0.892600  0.125100  0.842800  1.0  0.1132
  H  H58  1  0.859900  0.972300  0.825900  1.0  0.0942
  H  H59  1  0.302000  0.572100  0.794000  1.0  0.1038
  H  H60  1  0.115700  0.496800  0.779200  1.0  0.0908
  H  H61  1  0.527900  0.652900  0.817800  1.0  0.0757
  H  H62  1  0.437200  0.597500  0.882800  1.0  0.1116
  H  H63  1  0.645300  0.781600  0.949500  1.0  0.1304
  H  H64  1  0.720400  0.832100  0.881200  1.0  0.0921
  H  H65  1  0.654100  0.635500  0.000600  1.0  0.1323
  H  H66  1  0.213600  0.581400  0.011200  1.0  0.1221
  H  H67  1  0.450600  0.637300  0.131500  1.0  0.1204
  H  H68  1  0.380200  0.588600  0.199900  1.0  0.0778
  H  H69  1  0.126400  0.433000  0.143400  1.0  0.0684
  H  H70  1  0.189700  0.478900  0.073600  1.0  0.1139
  H  H71  1  0.745200  0.637100  0.057600  1.0  0.0848
  H  H72  1  0.735100  0.543800  0.030700  1.0  0.0624
  H  H73  1  0.745600  0.552100  0.126100  1.0  0.0612
  H  H74  1  0.743300  0.460100  0.098200  1.0  0.0631
  H  H75  1  0.931700  0.584100  0.095000  1.0  0.4096
  H  H76  1  0.062600  0.836400  0.885700  1.0  0.3919
  H  H77  1  0.094900  0.596700  0.944100  1.0  0.0823
  H  H78  1  0.119700  0.679000  0.976100  1.0  0.0694
  H  H79  1  0.076100  0.698600  0.885800  1.0  0.0537
  H  H80  1  0.968300  0.696600  0.920100  1.0  0.0675
  H  H81  1  0.107400  0.625100  0.657200  1.0  0.113
  H  H82  1  0.140100  0.472300  0.674100  1.0  0.0929
  H  H83  1  0.698000  0.072100  0.706000  1.0  0.1037
  H  H84  1  0.884300  0.996800  0.720800  1.0  0.091
  H  H85  1  0.472100  0.152900  0.682200  1.0  0.0753
  H  H86  1  0.562800  0.097500  0.617200  1.0  0.1116
  H  H87  1  0.354700  0.281600  0.550500  1.0  0.1325
  H  H88  1  0.279600  0.332100  0.618800  1.0  0.0921
  H  H89  1  0.345900  0.135500  0.499400  1.0  0.1367
  H  H90  1  0.786400  0.081400  0.488800  1.0  0.122
  H  H91  1  0.549400  0.137300  0.368500  1.0  0.1198
  H  H92  1  0.619800  0.088600  0.300100  1.0  0.0778
  H  H93  1  0.873600  0.933000  0.356600  1.0  0.0682
  H  H94  1  0.810300  0.978900  0.426400  1.0  0.1138
  H  H95  1  0.254800  0.137100  0.442400  1.0  0.0847
  H  H96  1  0.264900  0.043800  0.469300  1.0  0.0626
  H  H97  1  0.254400  0.052100  0.373900  1.0  0.0616
  H  H98  1  0.256700  0.960100  0.401800  1.0  0.0639
  H  H99  1  0.068300  0.084100  0.405000  1.0  0.4107
  H  H100  1  0.937400  0.336400  0.614300  1.0  0.3918
  H  H101  1  0.905100  0.096700  0.555900  1.0  0.0822
  H  H102  1  0.880300  0.179000  0.523900  1.0  0.0686
  H  H103  1  0.923900  0.198600  0.614200  1.0  0.0536
  H  H104  1  0.031700  0.196600  0.579900  1.0  0.0779
  C  C105  1  0.411500  0.956400  0.199770  1.0  0.0426
  C  C106  1  0.398600  0.863500  0.191600  1.0  0.141
  C  C107  1  0.184900  0.894400  0.168300  1.0  0.0991
  C  C108  1  0.205400  0.986100  0.178450  1.0  0.0859
  C  C109  1  0.534000  0.997200  0.217420  1.0  0.607
  C  C110  1  0.499700  0.792700  0.201770  1.0  0.6405
  C  C111  1  0.993500  0.303800  0.218610  1.0  0.0613
  C  C112  1  0.883500  0.254500  0.210700  1.0  0.1122
  C  C113  1  0.772000  0.394500  0.209700  1.0  0.1118
  C  C114  1  0.884500  0.439700  0.218230  1.0  0.0924
  C  C115  1  0.122000  0.258000  0.220700  1.0  0.5946
  C  C116  1  0.879500  0.151300  0.205500  1.0  0.6448
  C  C117  1  0.463700  0.313700  0.155800  1.0  0.2054
  C  C118  1  0.508300  0.352600  0.116300  1.0  -0.2232
  C  C119  1  0.470300  0.315700  0.075600  1.0  0.1476
  C  C120  1  0.385800  0.243300  0.077000  1.0  -0.2072
  C  C121  1  0.347500  0.208100  0.117800  1.0  0.1386
  C  C122  1  0.501400  0.398800  0.960400  1.0  0.2535
  C  C123  1  0.630200  0.402900  0.949900  1.0  -0.0454
  C  C124  1  0.517300  0.351800  0.033600  1.0  -0.0217
  C  C125  1  0.433100  0.370300  0.998100  1.0  -0.2692
  C  C126  1  0.703500  0.398000  0.988400  1.0  -0.2258
  C  C127  1  0.647500  0.360500  0.026500  1.0  0.2126
  C  C128  1  0.672500  0.435300  0.905900  1.0  0.1282
  C  C129  1  0.616000  0.404100  0.867000  1.0  -0.1935
  C  C130  1  0.658300  0.434200  0.825880  1.0  0.1889
  C  C131  1  0.807500  0.525500  0.858900  1.0  0.1844
  C  C132  1  0.769900  0.497700  0.901100  1.0  -0.1982
  C  C133  1  0.283800  0.425900  0.941300  1.0  0.0472
  C  C134  1  0.229600  0.476400  0.901900  1.0  0.1133
  C  C135  1  0.869000  0.342000  0.054300  1.0  0.0501
  C  C136  1  0.947000  0.281400  0.084000  1.0  0.1449
  C  C137  1  0.588500  0.456400  0.300230  1.0  0.0425
  C  C138  1  0.601400  0.363500  0.308400  1.0  0.143
  C  C139  1  0.815100  0.394400  0.331700  1.0  0.0991
  C  C140  1  0.794600  0.486100  0.321550  1.0  0.0853
  C  C141  1  0.466000  0.497200  0.282580  1.0  0.6041
  C  C142  1  0.500300  0.292700  0.298230  1.0  0.6395
  C  C143  1  0.006500  0.803800  0.281390  1.0  0.0589
  C  C144  1  0.116500  0.754500  0.289300  1.0  0.1123
  C  C145  1  0.228000  0.894500  0.290300  1.0  0.1115
  C  C146  1  0.115500  0.939700  0.281770  1.0  0.0918
  C  C147  1  0.878000  0.758000  0.279300  1.0  0.5928
  C  C148  1  0.120500  0.651300  0.294500  1.0  0.6449
  C  C149  1  0.536300  0.813700  0.344200  1.0  0.2032
  C  C150  1  0.491700  0.852600  0.383700  1.0  -0.2241
  C  C151  1  0.529700  0.815700  0.424400  1.0  0.1476
  C  C152  1  0.614200  0.743300  0.423000  1.0  -0.2097
  C  C153  1  0.652500  0.708100  0.382200  1.0  0.1367
  C  C154  1  0.498600  0.898800  0.539600  1.0  0.253
  C  C155  1  0.369800  0.902900  0.550100  1.0  -0.0401
  C  C156  1  0.482700  0.851800  0.466400  1.0  -0.0229
  C  C157  1  0.566900  0.870300  0.501900  1.0  -0.2719
  C  C158  1  0.296500  0.898000  0.511600  1.0  -0.2194
  C  C159  1  0.352500  0.860500  0.473500  1.0  0.2122
  C  C160  1  0.327500  0.935300  0.594100  1.0  0.1272
  C  C161  1  0.384000  0.904100  0.633000  1.0  -0.1944
  C  C162  1  0.341700  0.934200  0.674120  1.0  0.1891
  C  C163  1  0.192500  0.025500  0.641100  1.0  0.184
  C  C164  1  0.230100  0.997700  0.598900  1.0  -0.1992
  C  C165  1  0.716200  0.925900  0.558700  1.0  0.0492
  C  C166  1  0.770400  0.976400  0.598100  1.0  0.11
  C  C167  1  0.131000  0.842000  0.445700  1.0  0.0526
  C  C168  1  0.053000  0.781400  0.416000  1.0  0.1434
  C  C169  1  0.588500  0.043600  0.800230  1.0  0.0422
  C  C170  1  0.601400  0.136500  0.808400  1.0  0.1431
  C  C171  1  0.815100  0.105600  0.831700  1.0  0.1001
  C  C172  1  0.794600  0.013900  0.821550  1.0  0.0845
  C  C173  1  0.466000  0.002800  0.782580  1.0  0.6043
  C  C174  1  0.500300  0.207300  0.798230  1.0  0.6378
  C  C175  1  0.006500  0.696200  0.781390  1.0  0.0597
  C  C176  1  0.116500  0.745500  0.789300  1.0  0.1117
  C  C177  1  0.228000  0.605500  0.790300  1.0  0.1114
  C  C178  1  0.115500  0.560300  0.781770  1.0  0.0911
  C  C179  1  0.878000  0.742000  0.779300  1.0  0.5943
  C  C180  1  0.120500  0.848700  0.794500  1.0  0.6427
  C  C181  1  0.536300  0.686300  0.844200  1.0  0.2039
  C  C182  1  0.491700  0.647400  0.883700  1.0  -0.2237
  C  C183  1  0.529700  0.684300  0.924400  1.0  0.1475
  C  C184  1  0.614200  0.756700  0.923000  1.0  -0.2078
  C  C185  1  0.652500  0.791900  0.882200  1.0  0.137
  C  C186  1  0.498600  0.601200  0.039600  1.0  0.2516
  C  C187  1  0.369800  0.597100  0.050100  1.0  -0.0453
  C  C188  1  0.482700  0.648200  0.966400  1.0  -0.0263
  C  C189  1  0.566900  0.629700  0.001900  1.0  -0.2728
  C  C190  1  0.296500  0.602000  0.011600  1.0  -0.2237
  C  C191  1  0.352500  0.639500  0.973500  1.0  0.2126
  C  C192  1  0.327500  0.564700  0.094100  1.0  0.1269
  C  C193  1  0.384000  0.595900  0.133000  1.0  -0.1954
  C  C194  1  0.341700  0.565800  0.174120  1.0  0.1892
  C  C195  1  0.192500  0.474500  0.141100  1.0  0.1832
  C  C196  1  0.230100  0.502300  0.098900  1.0  -0.1999
  C  C197  1  0.716200  0.574100  0.058700  1.0  0.0489
  C  C198  1  0.770400  0.523600  0.098100  1.0  0.107
  C  C199  1  0.131000  0.658000  0.945700  1.0  0.0513
  C  C200  1  0.053000  0.718600  0.916000  1.0  0.1428
  C  C201  1  0.411500  0.543600  0.699770  1.0  0.0425
  C  C202  1  0.398600  0.636500  0.691600  1.0  0.1412
  C  C203  1  0.184900  0.605600  0.668300  1.0  0.1006
  C  C204  1  0.205400  0.513900  0.678450  1.0  0.0854
  C  C205  1  0.534000  0.502800  0.717420  1.0  0.6072
  C  C206  1  0.499700  0.707300  0.701770  1.0  0.6397
  C  C207  1  0.993500  0.196200  0.718610  1.0  0.061
  C  C208  1  0.883500  0.245500  0.710700  1.0  0.1107
  C  C209  1  0.772000  0.105500  0.709700  1.0  0.1119
  C  C210  1  0.884500  0.060300  0.718230  1.0  0.0916
  C  C211  1  0.122000  0.242000  0.720700  1.0  0.5936
  C  C212  1  0.879500  0.348700  0.705500  1.0  0.6422
  C  C213  1  0.463700  0.186300  0.655800  1.0  0.2051
  C  C214  1  0.508300  0.147400  0.616300  1.0  -0.2235
  C  C215  1  0.470300  0.184300  0.575600  1.0  0.1465
  C  C216  1  0.385800  0.256700  0.577000  1.0  -0.2031
  C  C217  1  0.347500  0.291900  0.617800  1.0  0.1389
  C  C218  1  0.501400  0.101200  0.460400  1.0  0.252
  C  C219  1  0.630200  0.097100  0.449900  1.0  -0.0476
  C  C220  1  0.517300  0.148200  0.533600  1.0  -0.0252
  C  C221  1  0.433100  0.129700  0.498100  1.0  -0.2705
  C  C222  1  0.703500  0.102000  0.488400  1.0  -0.2273
  C  C223  1  0.647500  0.139500  0.526500  1.0  0.2118
  C  C224  1  0.672500  0.064700  0.405900  1.0  0.1276
  C  C225  1  0.616000  0.095900  0.367000  1.0  -0.1945
  C  C226  1  0.658300  0.065800  0.325880  1.0  0.1898
  C  C227  1  0.807500  0.974500  0.358900  1.0  0.1839
  C  C228  1  0.769900  0.002300  0.401100  1.0  -0.1984
  C  C229  1  0.283800  0.074100  0.441300  1.0  0.047
  C  C230  1  0.229600  0.023600  0.401900  1.0  0.1119
  C  C231  1  0.869000  0.158000  0.554300  1.0  0.0507
  C  C232  1  0.947000  0.218600  0.584000  1.0  0.1449
  N  N233  1  0.316200  0.016700  0.194210  1.0  -0.3163
  N  N234  1  0.282300  0.832100  0.175200  1.0  -0.3437
  N  N235  1  0.993600  0.394500  0.222830  1.0  -0.3102
  N  N236  1  0.769600  0.301400  0.206800  1.0  -0.2907
  N  N237  1  0.410500  0.232700  0.157900  1.0  -0.3252
  N  N238  1  0.752800  0.495200  0.821510  1.0  -0.3661
  N  N239  1  0.683800  0.516700  0.305790  1.0  -0.3171
  N  N240  1  0.717700  0.332100  0.324800  1.0  -0.3441
  N  N241  1  0.006400  0.894500  0.277170  1.0  -0.311
  N  N242  1  0.230400  0.801400  0.293200  1.0  -0.2885
  N  N243  1  0.589500  0.732700  0.342100  1.0  -0.3257
  N  N244  1  0.247200  0.995200  0.678490  1.0  -0.366
  N  N245  1  0.683800  0.983300  0.805790  1.0  -0.3164
  N  N246  1  0.717700  0.167900  0.824800  1.0  -0.3445
  N  N247  1  0.006400  0.605500  0.777170  1.0  -0.3114
  N  N248  1  0.230400  0.698600  0.793200  1.0  -0.2898
  N  N249  1  0.589500  0.767300  0.842100  1.0  -0.3255
  N  N250  1  0.247200  0.504800  0.178490  1.0  -0.3646
  N  N251  1  0.316200  0.483300  0.694210  1.0  -0.3149
  N  N252  1  0.282300  0.667900  0.675200  1.0  -0.3447
  N  N253  1  0.993600  0.105500  0.722830  1.0  -0.3088
  N  N254  1  0.769600  0.198600  0.706800  1.0  -0.2906
  N  N255  1  0.410500  0.267300  0.657900  1.0  -0.3258
  N  N256  1  0.752800  0.004800  0.321510  1.0  -0.3671
  O  O257  1  0.538300  0.079700  0.227670  1.0  -0.5634
  O  O258  1  0.624600  0.941600  0.219330  1.0  -0.5844
  O  O259  1  0.503400  0.764500  0.241010  1.0  -0.5858
  O  O260  1  0.563400  0.762700  0.169250  1.0  -0.6163
  O  O261  1  0.215700  0.305400  0.233280  1.0  -0.5808
  O  O262  1  0.130400  0.176200  0.209430  1.0  -0.5437
  O  O263  1  0.868400  0.118000  0.166850  1.0  -0.5739
  O  O264  1  0.879800  0.108500  0.241760  1.0  -0.6036
  O  O265  1  0.420200  0.432000  0.930100  1.0  -0.2656
  O  O266  1  0.090700  0.469200  0.908600  1.0  -0.6203
  O  O267  1  0.728600  0.352700  0.061300  1.0  -0.2756
  O  O268  1  0.963500  0.179500  0.089700  1.0  -0.6321
  O  O269  1  0.461700  0.579700  0.272330  1.0  -0.5633
  O  O270  1  0.375400  0.441600  0.280670  1.0  -0.5745
  O  O271  1  0.496600  0.264500  0.258990  1.0  -0.587
  O  O272  1  0.436600  0.262700  0.330750  1.0  -0.6154
  O  O273  1  0.784300  0.805400  0.266720  1.0  -0.58
  O  O274  1  0.869600  0.676200  0.290570  1.0  -0.5446
  O  O275  1  0.131600  0.618000  0.333150  1.0  -0.5742
  O  O276  1  0.120200  0.608500  0.258240  1.0  -0.604
  O  O277  1  0.579800  0.932000  0.569900  1.0  -0.2665
  O  O278  1  0.909300  0.969200  0.591400  1.0  -0.6159
  O  O279  1  0.271400  0.852700  0.438700  1.0  -0.2747
  O  O280  1  0.036500  0.679500  0.410300  1.0  -0.6312
  O  O281  1  0.461700  0.920300  0.772330  1.0  -0.5628
  O  O282  1  0.375400  0.058400  0.780670  1.0  -0.5748
  O  O283  1  0.496600  0.235500  0.758990  1.0  -0.5875
  O  O284  1  0.436600  0.237300  0.830750  1.0  -0.6154
  O  O285  1  0.784300  0.694600  0.766720  1.0  -0.5802
  O  O286  1  0.869600  0.823800  0.790570  1.0  -0.5446
  O  O287  1  0.131600  0.882000  0.833150  1.0  -0.5745
  O  O288  1  0.120200  0.891500  0.758240  1.0  -0.6036
  O  O289  1  0.579800  0.568000  0.069900  1.0  -0.2651
  O  O290  1  0.909300  0.530800  0.091400  1.0  -0.622
  O  O291  1  0.271400  0.647300  0.938700  1.0  -0.276
  O  O292  1  0.036500  0.820500  0.910300  1.0  -0.63
  O  O293  1  0.538300  0.420300  0.727670  1.0  -0.5625
  O  O294  1  0.624600  0.558400  0.719330  1.0  -0.5846
  O  O295  1  0.503400  0.735500  0.741010  1.0  -0.5867
  O  O296  1  0.563400  0.737300  0.669250  1.0  -0.6164
  O  O297  1  0.215700  0.194600  0.733280  1.0  -0.5812
  O  O298  1  0.130400  0.323800  0.709430  1.0  -0.5434
  O  O299  1  0.868400  0.382000  0.666850  1.0  -0.5741
  O  O300  1  0.879800  0.391500  0.741760  1.0  -0.6043
  O  O301  1  0.420200  0.068000  0.430100  1.0  -0.2657
  O  O302  1  0.090700  0.030800  0.408600  1.0  -0.6235
  O  O303  1  0.728600  0.147300  0.561300  1.0  -0.2742
  O  O304  1  0.963500  0.320500  0.589700  1.0  -0.6325
