# generated using pymatgen
data_AgH6C12N11O5
_symmetry_space_group_name_H-M   'P 1'
_cell_length_a   8.24120000
_cell_length_b   10.83470000
_cell_length_c   22.84450000
_cell_angle_alpha   82.91550000
_cell_angle_beta   79.60830000
_cell_angle_gamma   67.64670000
_symmetry_Int_Tables_number   1
_chemical_formula_structural   AgH6C12N11O5
_chemical_formula_sum   'Ag4 H24 C48 N44 O20'
_cell_volume   1852.22283284
_cell_formula_units_Z   4
loop_
 _symmetry_equiv_pos_site_id
 _symmetry_equiv_pos_as_xyz
  1  'x, y, z'
loop_
 _atom_site_type_symbol
 _atom_site_label
 _atom_site_symmetry_multiplicity
 _atom_site_fract_x
 _atom_site_fract_y
 _atom_site_fract_z
 _atom_site_occupancy
 _atom_site_charge
  Ag  Ag1  1  0.140570  0.116630  0.152970  1.0  0.3949
  Ag  Ag2  1  0.410170  0.383370  0.347030  1.0  0.3978
  Ag  Ag3  1  0.859430  0.883370  0.847030  1.0  0.3981
  Ag  Ag4  1  0.589830  0.616630  0.652970  1.0  0.3942
  H  H5  1  0.248000  0.156100  0.995300  1.0  0.0927
  H  H6  1  0.817600  0.374100  0.093500  1.0  0.1096
  H  H7  1  0.670100  0.860500  0.722100  1.0  0.0989
  H  H8  1  0.617500  0.529500  0.795300  1.0  0.1176
  H  H9  1  0.991800  0.973200  0.070200  1.0  0.0786
  H  H10  1  0.485300  0.820500  0.099100  1.0  0.1251
  H  H11  1  0.399400  0.343900  0.504700  1.0  0.0923
  H  H12  1  0.285200  0.125900  0.406500  1.0  0.1098
  H  H13  1  0.252700  0.639500  0.777900  1.0  0.1008
  H  H14  1  0.942300  0.970500  0.704700  1.0  0.1191
  H  H15  1  0.035200  0.526800  0.429800  1.0  0.079
  H  H16  1  0.404900  0.679500  0.400900  1.0  0.1258
  H  H17  1  0.752000  0.843900  0.004700  1.0  0.0925
  H  H18  1  0.182400  0.625900  0.906500  1.0  0.1097
  H  H19  1  0.329900  0.139500  0.277900  1.0  0.1006
  H  H20  1  0.382500  0.470500  0.204700  1.0  0.1181
  H  H21  1  0.008200  0.026800  0.929800  1.0  0.0795
  H  H22  1  0.514700  0.179500  0.900900  1.0  0.126
  H  H23  1  0.600600  0.656100  0.495300  1.0  0.0916
  H  H24  1  0.714800  0.874100  0.593500  1.0  0.1097
  H  H25  1  0.747300  0.360500  0.222100  1.0  0.0989
  H  H26  1  0.057700  0.029500  0.295300  1.0  0.118
  H  H27  1  0.964800  0.473200  0.570200  1.0  0.0787
  H  H28  1  0.595100  0.320500  0.599100  1.0  0.1255
  C  C29  1  0.623360  0.583770  0.020510  1.0  0.2959
  C  C30  1  0.766760  0.500180  0.979100  1.0  -0.02
  C  C31  1  0.774150  0.530660  0.918240  1.0  -0.0132
  C  C32  1  0.649850  0.644630  0.894070  1.0  -0.0008
  C  C33  1  0.518980  0.730160  0.933280  1.0  -0.0284
  C  C34  1  0.505420  0.702690  0.994270  1.0  -0.0584
  C  C35  1  0.136620  0.224460  0.006700  1.0  0.2639
  C  C36  1  0.906700  0.339200  0.060800  1.0  0.1649
  C  C37  1  0.664100  0.790660  0.750940  1.0  0.2712
  C  C38  1  0.635400  0.612020  0.789180  1.0  0.1534
  C  C39  1  0.115530  0.922230  0.065510  1.0  0.2798
  C  C40  1  0.379620  0.841960  0.082400  1.0  0.1691
  C  C41  1  0.227640  0.916230  0.479490  1.0  0.2968
  C  C42  1  0.246040  0.999820  0.520900  1.0  -0.0198
  C  C43  1  0.223050  0.969340  0.581760  1.0  -0.0151
  C  C44  1  0.188550  0.855370  0.605930  1.0  -0.0011
  C  C45  1  0.182420  0.769840  0.566720  1.0  -0.0284
  C  C46  1  0.202380  0.797310  0.505730  1.0  -0.0593
  C  C47  1  0.367780  0.275540  0.493300  1.0  0.2644
  C  C48  1  0.306700  0.160800  0.439200  1.0  0.1673
  C  C49  1  0.205700  0.709340  0.749060  1.0  0.2727
  C  C50  1  0.036600  0.887980  0.710820  1.0  0.1522
  C  C51  1  0.103270  0.577770  0.434490  1.0  0.2792
  C  C52  1  0.303980  0.658040  0.417600  1.0  0.1661
  C  C53  1  0.376640  0.416230  0.979490  1.0  0.2971
  C  C54  1  0.233240  0.499820  0.020900  1.0  -0.0196
  C  C55  1  0.225850  0.469340  0.081760  1.0  -0.0132
  C  C56  1  0.350150  0.355370  0.105930  1.0  -0.0007
  C  C57  1  0.481020  0.269840  0.066720  1.0  -0.0292
  C  C58  1  0.494580  0.297310  0.005730  1.0  -0.0591
  C  C59  1  0.863380  0.775540  0.993300  1.0  0.2644
  C  C60  1  0.093300  0.660800  0.939200  1.0  0.166
  C  C61  1  0.335900  0.209340  0.249060  1.0  0.2719
  C  C62  1  0.364600  0.387980  0.210820  1.0  0.1548
  C  C63  1  0.884470  0.077770  0.934490  1.0  0.2759
  C  C64  1  0.620380  0.158040  0.917600  1.0  0.1685
  C  C65  1  0.772360  0.083770  0.520510  1.0  0.2963
  C  C66  1  0.753960  0.000180  0.479100  1.0  -0.02
  C  C67  1  0.776950  0.030660  0.418240  1.0  -0.0153
  C  C68  1  0.811450  0.144630  0.394070  1.0  0.0006
  C  C69  1  0.817580  0.230160  0.433280  1.0  -0.0275
  C  C70  1  0.797620  0.202690  0.494270  1.0  -0.0586
  C  C71  1  0.632220  0.724460  0.506700  1.0  0.2634
  C  C72  1  0.693300  0.839200  0.560800  1.0  0.1666
  C  C73  1  0.794300  0.290660  0.250940  1.0  0.2719
  C  C74  1  0.963400  0.112020  0.289180  1.0  0.1513
  C  C75  1  0.896730  0.422230  0.565510  1.0  0.2799
  C  C76  1  0.696020  0.341960  0.582400  1.0  0.1663
  N  N77  1  0.899620  0.388950  0.003610  1.0  0.1732
  N  N78  1  0.050840  0.314190  0.968330  1.0  -0.3395
  N  N79  1  0.054710  0.235620  0.064560  1.0  -0.4129
  N  N80  1  0.911850  0.445910  0.873590  1.0  0.578
  N  N81  1  0.660850  0.675140  0.831560  1.0  0.1529
  N  N82  1  0.679550  0.792130  0.807170  1.0  -0.3375
  N  N83  1  0.638950  0.681490  0.737610  1.0  -0.3706
  N  N84  1  0.395220  0.855440  0.908120  1.0  0.5917
  N  N85  1  0.368320  0.791560  0.033000  1.0  0.1575
  N  N86  1  0.196220  0.843900  0.021460  1.0  -0.3492
  N  N87  1  0.222480  0.925390  0.104250  1.0  -0.4021
  N  N88  1  0.292180  0.111050  0.496390  1.0  0.1729
  N  N89  1  0.333333  0.185810  0.531670  1.0  -0.3368
  N  N90  1  0.354890  0.264380  0.435440  1.0  -0.4136
  N  N91  1  0.231350  0.054090  0.626410  1.0  0.578
  N  N92  1  0.167550  0.824860  0.668440  1.0  0.1536
  N  N93  1  0.278850  0.707870  0.692830  1.0  -0.3361
  N  N94  1  0.058050  0.818510  0.762390  1.0  -0.3723
  N  N95  1  0.158780  0.644560  0.591880  1.0  0.587
  N  N96  1  0.192880  0.708440  0.467000  1.0  0.1559
  N  N97  1  0.061580  0.656100  0.478540  1.0  -0.3497
  N  N98  1  0.252120  0.574610  0.395750  1.0  -0.4014
  N  N99  1  0.100380  0.611050  0.996390  1.0  0.1731
  N  N100  1  0.949160  0.685810  0.031670  1.0  -0.339
  N  N101  1  0.945290  0.764380  0.935440  1.0  -0.4119
  N  N102  1  0.088150  0.554090  0.126410  1.0  0.5763
  N  N103  1  0.339150  0.324860  0.168440  1.0  0.1527
  N  N104  1  0.320450  0.207870  0.192830  1.0  -0.3383
  N  N105  1  0.361050  0.318510  0.262390  1.0  -0.3699
  N  N106  1  0.604780  0.144560  0.091880  1.0  0.586
  N  N107  1  0.631680  0.208440  0.967000  1.0  0.1581
  N  N108  1  0.803780  0.156100  0.978540  1.0  -0.3495
  N  N109  1  0.777520  0.074610  0.895750  1.0  -0.3993
  N  N110  1  0.707820  0.888950  0.503610  1.0  0.1734
  N  N111  1  0.666667  0.814190  0.468330  1.0  -0.3374
  N  N112  1  0.645110  0.735620  0.564560  1.0  -0.4142
  N  N113  1  0.768650  0.945910  0.373590  1.0  0.5794
  N  N114  1  0.832450  0.175140  0.331560  1.0  0.1529
  N  N115  1  0.721150  0.292130  0.307170  1.0  -0.3372
  N  N116  1  0.941950  0.181490  0.237610  1.0  -0.3714
  N  N117  1  0.841220  0.355440  0.408120  1.0  0.5924
  N  N118  1  0.807120  0.291560  0.533000  1.0  0.1568
  N  N119  1  0.938420  0.343900  0.521460  1.0  -0.35
  N  N120  1  0.747880  0.425390  0.604250  1.0  -0.4028
  O  O121  1  0.604710  0.556400  0.075980  1.0  -0.5193
  O  O122  1  0.889160  0.348380  0.860300  1.0  -0.3469
  O  O123  1  0.033210  0.484120  0.851260  1.0  -0.3545
  O  O124  1  0.393740  0.960590  0.923530  1.0  -0.3762
  O  O125  1  0.303940  0.846540  0.873380  1.0  -0.3437
  O  O126  1  0.237090  0.943600  0.424020  1.0  -0.5195
  O  O127  1  0.097840  0.151620  0.639700  1.0  -0.3336
  O  O128  1  0.368590  0.015880  0.648740  1.0  -0.3534
  O  O129  1  0.277860  0.539410  0.576470  1.0  -0.3778
  O  O130  1  0.023860  0.653460  0.626620  1.0  -0.3455
  O  O131  1  0.395290  0.443600  0.924020  1.0  -0.5177
  O  O132  1  0.110840  0.651620  0.139700  1.0  -0.3361
  O  O133  1  0.966790  0.515880  0.148740  1.0  -0.3556
  O  O134  1  0.606260  0.039410  0.076470  1.0  -0.3752
  O  O135  1  0.696060  0.153460  0.126620  1.0  -0.3436
  O  O136  1  0.762910  0.056400  0.575980  1.0  -0.5215
  O  O137  1  0.902160  0.848380  0.360300  1.0  -0.3516
  O  O138  1  0.631410  0.984120  0.351260  1.0  -0.3531
  O  O139  1  0.722140  0.460590  0.423530  1.0  -0.3772
  O  O140  1  0.976140  0.346540  0.373380  1.0  -0.3446
