# generated using pymatgen
data_Zn3H4C10N4O9
_symmetry_space_group_name_H-M   'P 1'
_cell_length_a   11.74370000
_cell_length_b   13.01010000
_cell_length_c   18.92510000
_cell_angle_alpha   90.00000000
_cell_angle_beta   90.00000000
_cell_angle_gamma   112.31600000
_symmetry_Int_Tables_number   1
_chemical_formula_structural   Zn3H4C10N4O9
_chemical_formula_sum   'Zn12 H16 C40 N16 O36'
_cell_volume   2674.94090846
_cell_formula_units_Z   4
loop_
 _symmetry_equiv_pos_site_id
 _symmetry_equiv_pos_as_xyz
  1  'x, y, z'
loop_
 _atom_site_type_symbol
 _atom_site_label
 _atom_site_symmetry_multiplicity
 _atom_site_fract_x
 _atom_site_fract_y
 _atom_site_fract_z
 _atom_site_occupancy
 _atom_site_charge
  Zn  Zn1  1  0.176100  0.650790  0.628150  1.0  0.9692
  Zn  Zn2  1  0.661200  0.622550  0.585630  1.0  1.0615
  Zn  Zn3  1  0.556020  0.878890  0.831790  1.0  0.8859
  Zn  Zn4  1  0.323900  0.849210  0.128150  1.0  0.9671
  Zn  Zn5  1  0.838800  0.877450  0.085630  1.0  1.0616
  Zn  Zn6  1  0.943980  0.621110  0.331790  1.0  0.8862
  Zn  Zn7  1  0.823900  0.349210  0.371850  1.0  0.9673
  Zn  Zn8  1  0.338800  0.377450  0.414370  1.0  1.0616
  Zn  Zn9  1  0.443980  0.121110  0.168210  1.0  0.887
  Zn  Zn10  1  0.676100  0.150790  0.871850  1.0  0.9691
  Zn  Zn11  1  0.161200  0.122550  0.914370  1.0  1.0615
  Zn  Zn12  1  0.056020  0.378890  0.668210  1.0  0.8865
  H  H13  1  0.160700  0.621700  0.452100  1.0  0.0805
  H  H14  1  0.236800  0.533900  0.705400  1.0  0.4467
  H  H15  1  0.121800  0.547900  0.736400  1.0  0.4851
  H  H16  1  0.697500  0.728800  0.750200  1.0  0.0952
  H  H17  1  0.339300  0.878300  0.952100  1.0  0.0807
  H  H18  1  0.263200  0.966100  0.205400  1.0  0.4577
  H  H19  1  0.378200  0.952100  0.236400  1.0  0.4848
  H  H20  1  0.802500  0.771200  0.250200  1.0  0.0954
  H  H21  1  0.839300  0.378300  0.547900  1.0  0.0814
  H  H22  1  0.763200  0.466100  0.294600  1.0  0.4565
  H  H23  1  0.878200  0.452100  0.263600  1.0  0.486
  H  H24  1  0.302500  0.271200  0.249800  1.0  0.0946
  H  H25  1  0.660700  0.121700  0.047900  1.0  0.0811
  H  H26  1  0.736800  0.033900  0.794600  1.0  0.444
  H  H27  1  0.621800  0.047900  0.763600  1.0  0.4858
  H  H28  1  0.197500  0.228800  0.749800  1.0  0.0946
  C  C29  1  0.092600  0.631300  0.471500  1.0  0.313
  C  C30  1  0.423600  0.653300  0.582000  1.0  0.7006
  C  C31  1  0.627400  0.728600  0.727300  1.0  0.3246
  C  C32  1  0.459100  0.753100  0.705600  1.0  -0.0796
  C  C33  1  0.366800  0.803200  0.722400  1.0  0.6421
  C  C34  1  0.483200  0.696900  0.650000  1.0  -0.0097
  C  C35  1  0.917900  0.648300  0.480900  1.0  -0.0167
  C  C36  1  0.929200  0.664700  0.620300  1.0  0.6992
  C  C37  1  0.965700  0.651000  0.547900  1.0  -0.039
  C  C38  1  0.805100  0.660300  0.450800  1.0  0.6717
  C  C39  1  0.407400  0.868700  0.971500  1.0  0.3134
  C  C40  1  0.076400  0.846700  0.082000  1.0  0.7007
  C  C41  1  0.872600  0.771400  0.227300  1.0  0.3239
  C  C42  1  0.040900  0.746900  0.205600  1.0  -0.0784
  C  C43  1  0.133200  0.696800  0.222400  1.0  0.6413
  C  C44  1  0.016800  0.803100  0.150000  1.0  -0.0091
  C  C45  1  0.582100  0.851700  0.980900  1.0  -0.0175
  C  C46  1  0.570800  0.835300  0.120300  1.0  0.7009
  C  C47  1  0.534300  0.849000  0.047900  1.0  -0.0394
  C  C48  1  0.694900  0.839700  0.950800  1.0  0.6739
  C  C49  1  0.907400  0.368700  0.528500  1.0  0.3135
  C  C50  1  0.576400  0.346700  0.418000  1.0  0.7012
  C  C51  1  0.372600  0.271400  0.272700  1.0  0.3249
  C  C52  1  0.540900  0.246900  0.294400  1.0  -0.0782
  C  C53  1  0.633200  0.196800  0.277600  1.0  0.6407
  C  C54  1  0.516800  0.303100  0.350000  1.0  -0.0095
  C  C55  1  0.082100  0.351700  0.519100  1.0  -0.0172
  C  C56  1  0.070800  0.335300  0.379700  1.0  0.6984
  C  C57  1  0.034300  0.349000  0.452100  1.0  -0.0402
  C  C58  1  0.194900  0.339700  0.549200  1.0  0.6748
  C  C59  1  0.592600  0.131300  0.028500  1.0  0.3137
  C  C60  1  0.923600  0.153300  0.918000  1.0  0.7025
  C  C61  1  0.127400  0.228600  0.772700  1.0  0.3249
  C  C62  1  0.959100  0.253100  0.794400  1.0  -0.0794
  C  C63  1  0.866800  0.303200  0.777600  1.0  0.6418
  C  C64  1  0.983200  0.196900  0.850000  1.0  -0.0102
  C  C65  1  0.417900  0.148300  0.019100  1.0  -0.0162
  C  C66  1  0.429200  0.164700  0.879700  1.0  0.6999
  C  C67  1  0.465700  0.151000  0.952100  1.0  -0.0402
  C  C68  1  0.305100  0.160300  0.049200  1.0  0.6712
  N  N69  1  0.078100  0.641700  0.539700  1.0  -0.4148
  N  N70  1  0.590100  0.683000  0.664200  1.0  -0.445
  N  N71  1  0.552300  0.773900  0.753700  1.0  -0.4273
  N  N72  1  0.998700  0.635800  0.433000  1.0  -0.4489
  N  N73  1  0.421900  0.858300  0.039700  1.0  -0.4144
  N  N74  1  0.909900  0.817000  0.164200  1.0  -0.443
  N  N75  1  0.947700  0.726100  0.253700  1.0  -0.4283
  N  N76  1  0.501300  0.864200  0.933000  1.0  -0.449
  N  N77  1  0.921900  0.358300  0.460300  1.0  -0.415
  N  N78  1  0.409900  0.317000  0.335800  1.0  -0.443
  N  N79  1  0.447700  0.226100  0.246300  1.0  -0.4299
  N  N80  1  0.001300  0.364200  0.567000  1.0  -0.4522
  N  N81  1  0.578100  0.141700  0.960300  1.0  -0.4168
  N  N82  1  0.090100  0.183000  0.835800  1.0  -0.4435
  N  N83  1  0.052300  0.273900  0.746300  1.0  -0.4295
  N  N84  1  0.498700  0.135800  0.067000  1.0  -0.4499
  O  O85  1  0.320000  0.652600  0.566200  1.0  -0.6033
  O  O86  1  0.486200  0.618400  0.541300  1.0  -0.569
  O  O87  1  0.385400  0.860600  0.777700  1.0  -0.57
  O  O88  1  0.276600  0.789500  0.681800  1.0  -0.5777
  O  O89  1  0.155800  0.530600  0.693100  1.0  -0.7635
  O  O90  1  0.008900  0.673600  0.667000  1.0  -0.6042
  O  O91  1  0.826700  0.667700  0.635200  1.0  -0.627
  O  O92  1  0.725400  0.673900  0.490600  1.0  -0.6034
  O  O93  1  0.797400  0.657700  0.384300  1.0  -0.5846
  O  O94  1  0.180000  0.847400  0.066200  1.0  -0.6031
  O  O95  1  0.013800  0.881600  0.041300  1.0  -0.5695
  O  O96  1  0.114600  0.639400  0.277700  1.0  -0.5701
  O  O97  1  0.223400  0.710500  0.181800  1.0  -0.5777
  O  O98  1  0.344200  0.969400  0.193100  1.0  -0.7631
  O  O99  1  0.491100  0.826400  0.167000  1.0  -0.6047
  O  O100  1  0.673300  0.832300  0.135200  1.0  -0.6269
  O  O101  1  0.774600  0.826100  0.990600  1.0  -0.6041
  O  O102  1  0.702600  0.842300  0.884300  1.0  -0.5837
  O  O103  1  0.680000  0.347400  0.433800  1.0  -0.6039
  O  O104  1  0.513800  0.381600  0.458700  1.0  -0.5709
  O  O105  1  0.614600  0.139400  0.222300  1.0  -0.5704
  O  O106  1  0.723400  0.210500  0.318200  1.0  -0.5776
  O  O107  1  0.844200  0.469400  0.306900  1.0  -0.7578
  O  O108  1  0.991100  0.326400  0.333000  1.0  -0.6031
  O  O109  1  0.173300  0.332300  0.364800  1.0  -0.6268
  O  O110  1  0.274600  0.326100  0.509400  1.0  -0.6033
  O  O111  1  0.202600  0.342300  0.615700  1.0  -0.5819
  O  O112  1  0.820000  0.152600  0.933800  1.0  -0.6031
  O  O113  1  0.986200  0.118400  0.958700  1.0  -0.5693
  O  O114  1  0.885400  0.360600  0.722300  1.0  -0.57
  O  O115  1  0.776600  0.289500  0.818200  1.0  -0.5773
  O  O116  1  0.655800  0.030600  0.806900  1.0  -0.7578
  O  O117  1  0.508900  0.173600  0.833000  1.0  -0.6028
  O  O118  1  0.326700  0.167700  0.864800  1.0  -0.6265
  O  O119  1  0.225400  0.173900  0.009400  1.0  -0.6032
  O  O120  1  0.297400  0.157700  0.115700  1.0  -0.5845
