# generated using pymatgen
data_U6(SO4)7
_symmetry_space_group_name_H-M   'P 1'
_cell_length_a   10.34660000
_cell_length_b   18.54150000
_cell_length_c   22.70010000
_cell_angle_alpha   90.00000000
_cell_angle_beta   90.00000000
_cell_angle_gamma   90.00000000
_symmetry_Int_Tables_number   1
_chemical_formula_structural   U6(SO4)7
_chemical_formula_sum   'U24 S28 O112'
_cell_volume   4354.82086868
_cell_formula_units_Z   4
loop_
 _symmetry_equiv_pos_site_id
 _symmetry_equiv_pos_as_xyz
  1  'x, y, z'
loop_
 _atom_site_type_symbol
 _atom_site_label
 _atom_site_symmetry_multiplicity
 _atom_site_fract_x
 _atom_site_fract_y
 _atom_site_fract_z
 _atom_site_occupancy
 _atom_site_charge
  U  U1  1  0.956700  0.743980  0.524520  1.0  1.7614
  U  U2  1  0.239630  0.745460  0.746160  1.0  1.8518
  U  U3  1  0.116350  0.470270  0.616370  1.0  1.597
  U  U4  1  0.456700  0.243980  0.524520  1.0  1.7614
  U  U5  1  0.739630  0.245460  0.746160  1.0  1.8518
  U  U6  1  0.616350  0.970270  0.616370  1.0  1.597
  U  U7  1  0.043300  0.256020  0.024520  1.0  1.7609
  U  U8  1  0.760370  0.254540  0.246160  1.0  1.8602
  U  U9  1  0.883650  0.529730  0.116370  1.0  1.5969
  U  U10  1  0.543300  0.756020  0.024520  1.0  1.7609
  U  U11  1  0.260370  0.754540  0.246160  1.0  1.8602
  U  U12  1  0.383650  0.029730  0.116370  1.0  1.5969
  U  U13  1  0.043300  0.743980  0.975480  1.0  1.7614
  U  U14  1  0.760370  0.745460  0.753840  1.0  1.8498
  U  U15  1  0.883650  0.470270  0.883630  1.0  1.5979
  U  U16  1  0.543300  0.243980  0.975480  1.0  1.7614
  U  U17  1  0.260370  0.245460  0.753840  1.0  1.8498
  U  U18  1  0.383650  0.970270  0.883630  1.0  1.5979
  U  U19  1  0.956700  0.256020  0.475480  1.0  1.7616
  U  U20  1  0.239630  0.254540  0.253840  1.0  1.8496
  U  U21  1  0.116350  0.529730  0.383630  1.0  1.5977
  U  U22  1  0.456700  0.756020  0.475480  1.0  1.7616
  U  U23  1  0.739630  0.754540  0.253840  1.0  1.8496
  U  U24  1  0.616350  0.029730  0.383630  1.0  1.5977
  S  S25  1  0.989600  0.648570  0.663000  1.0  1.5066
  S  S26  1  0.240500  0.614210  0.520640  1.0  1.5447
  S  S27  1  0.150900  0.728850  0.395170  1.0  1.5918
  S  S28  1  0.489600  0.148570  0.663000  1.0  1.5066
  S  S29  1  0.740500  0.114210  0.520640  1.0  1.5433
  S  S30  1  0.650900  0.228850  0.395170  1.0  1.5918
  S  S31  1  0.010400  0.351430  0.163000  1.0  1.5066
  S  S32  1  0.759500  0.385790  0.020640  1.0  1.5442
  S  S33  1  0.849100  0.271150  0.895170  1.0  1.5915
  S  S34  1  0.510400  0.851430  0.163000  1.0  1.5066
  S  S35  1  0.259500  0.885790  0.020640  1.0  1.5429
  S  S36  1  0.349100  0.771150  0.895170  1.0  1.5915
  S  S37  1  0.010400  0.648570  0.837000  1.0  1.5066
  S  S38  1  0.759500  0.614210  0.979360  1.0  1.5423
  S  S39  1  0.849100  0.728850  0.104830  1.0  1.5915
  S  S40  1  0.510400  0.148570  0.837000  1.0  1.5066
  S  S41  1  0.259500  0.114210  0.979360  1.0  1.5436
  S  S42  1  0.349100  0.228850  0.104830  1.0  1.5915
  S  S43  1  0.989600  0.351430  0.337000  1.0  1.5065
  S  S44  1  0.240500  0.385790  0.479360  1.0  1.5425
  S  S45  1  0.150900  0.271150  0.604830  1.0  1.5916
  S  S46  1  0.489600  0.851430  0.337000  1.0  1.5065
  S  S47  1  0.740500  0.885790  0.479360  1.0  1.5439
  S  S48  1  0.650900  0.771150  0.604830  1.0  1.5916
  S  S49  1  0.500000  0.886990  0.750000  1.0  1.5064
  S  S50  1  0.000000  0.386990  0.750000  1.0  1.5165
  S  S51  1  0.500000  0.113010  0.250000  1.0  1.507
  S  S52  1  0.000000  0.613010  0.250000  1.0  1.517
  O  O53  1  0.937300  0.660200  0.603200  1.0  -0.7703
  O  O54  1  0.133700  0.666800  0.520000  1.0  -0.7931
  O  O55  1  0.078700  0.773300  0.437000  1.0  -0.729
  O  O56  1  0.865600  0.849200  0.477000  1.0  -0.742
  O  O57  1  0.782900  0.784800  0.584600  1.0  -0.7449
  O  O58  1  0.385400  0.843000  0.753300  1.0  -0.7326
  O  O59  1  0.087100  0.703900  0.674900  1.0  -0.7505
  O  O60  1  0.880300  0.654300  0.704600  1.0  -0.789
  O  O61  1  0.344100  0.731400  0.838900  1.0  -0.8009
  O  O62  1  0.237200  0.429700  0.533200  1.0  -0.7511
  O  O63  1  0.232700  0.568300  0.573300  1.0  -0.7654
  O  O64  1  0.048200  0.576100  0.668100  1.0  -0.7799
  O  O65  1  0.988100  0.432000  0.697100  1.0  -0.7201
  O  O66  1  0.084000  0.340100  0.613000  1.0  -0.7375
  O  O67  1  0.437300  0.160200  0.603200  1.0  -0.7703
  O  O68  1  0.633700  0.166800  0.520000  1.0  -0.7931
  O  O69  1  0.578700  0.273300  0.437000  1.0  -0.729
  O  O70  1  0.365600  0.349200  0.477000  1.0  -0.742
  O  O71  1  0.282900  0.284800  0.584600  1.0  -0.7449
  O  O72  1  0.885400  0.343000  0.753300  1.0  -0.7327
  O  O73  1  0.587100  0.203900  0.674900  1.0  -0.7505
  O  O74  1  0.380300  0.154300  0.704600  1.0  -0.789
  O  O75  1  0.844100  0.231400  0.838900  1.0  -0.8009
  O  O76  1  0.737200  0.929700  0.533200  1.0  -0.7511
  O  O77  1  0.732700  0.068300  0.573300  1.0  -0.7654
  O  O78  1  0.548200  0.076100  0.668100  1.0  -0.7799
  O  O79  1  0.488100  0.932000  0.697100  1.0  -0.7201
  O  O80  1  0.584000  0.840100  0.613000  1.0  -0.7375
  O  O81  1  0.062700  0.339800  0.103200  1.0  -0.7698
  O  O82  1  0.866300  0.333200  0.020000  1.0  -0.7936
  O  O83  1  0.921300  0.226700  0.937000  1.0  -0.729
  O  O84  1  0.134400  0.150800  0.977000  1.0  -0.7435
  O  O85  1  0.217100  0.215200  0.084600  1.0  -0.7452
  O  O86  1  0.614600  0.157000  0.253300  1.0  -0.734
  O  O87  1  0.912900  0.296100  0.174900  1.0  -0.7514
  O  O88  1  0.119700  0.345700  0.204600  1.0  -0.7891
  O  O89  1  0.655900  0.268600  0.338900  1.0  -0.8015
  O  O90  1  0.762800  0.570300  0.033200  1.0  -0.7525
  O  O91  1  0.767300  0.431700  0.073300  1.0  -0.7663
  O  O92  1  0.951800  0.423900  0.168100  1.0  -0.7805
  O  O93  1  0.011900  0.568000  0.197100  1.0  -0.7206
  O  O94  1  0.916000  0.659900  0.113000  1.0  -0.7361
  O  O95  1  0.562700  0.839800  0.103200  1.0  -0.7698
  O  O96  1  0.366300  0.833200  0.020000  1.0  -0.7936
  O  O97  1  0.421300  0.726700  0.937000  1.0  -0.729
  O  O98  1  0.634400  0.650800  0.977000  1.0  -0.7435
  O  O99  1  0.717100  0.715200  0.084600  1.0  -0.7452
  O  O100  1  0.114600  0.657000  0.253300  1.0  -0.7342
  O  O101  1  0.412900  0.796100  0.174900  1.0  -0.7514
  O  O102  1  0.619700  0.845700  0.204600  1.0  -0.7891
  O  O103  1  0.155900  0.768600  0.338900  1.0  -0.8015
  O  O104  1  0.262800  0.070300  0.033200  1.0  -0.7525
  O  O105  1  0.267300  0.931700  0.073300  1.0  -0.7663
  O  O106  1  0.451800  0.923900  0.168100  1.0  -0.7805
  O  O107  1  0.511900  0.068000  0.197100  1.0  -0.7206
  O  O108  1  0.416000  0.159900  0.113000  1.0  -0.7361
  O  O109  1  0.062700  0.660200  0.896800  1.0  -0.77
  O  O110  1  0.866300  0.666800  0.980000  1.0  -0.7942
  O  O111  1  0.921300  0.773300  0.063000  1.0  -0.7267
  O  O112  1  0.134400  0.849200  0.023000  1.0  -0.7437
  O  O113  1  0.217100  0.784800  0.915400  1.0  -0.7454
  O  O114  1  0.614600  0.843000  0.746700  1.0  -0.7339
  O  O115  1  0.912900  0.703900  0.825100  1.0  -0.7507
  O  O116  1  0.119700  0.654300  0.795400  1.0  -0.7883
  O  O117  1  0.655900  0.731400  0.661100  1.0  -0.8036
  O  O118  1  0.762800  0.429700  0.966800  1.0  -0.7499
  O  O119  1  0.767300  0.568300  0.926700  1.0  -0.7662
  O  O120  1  0.951800  0.576100  0.831900  1.0  -0.7808
  O  O121  1  0.011900  0.432000  0.802900  1.0  -0.722
  O  O122  1  0.916000  0.340100  0.887000  1.0  -0.735
  O  O123  1  0.562700  0.160200  0.896800  1.0  -0.77
  O  O124  1  0.366300  0.166800  0.980000  1.0  -0.7944
  O  O125  1  0.421300  0.273300  0.063000  1.0  -0.7267
  O  O126  1  0.634400  0.349200  0.023000  1.0  -0.7437
  O  O127  1  0.717100  0.284800  0.915400  1.0  -0.7454
  O  O128  1  0.114600  0.343000  0.746700  1.0  -0.734
  O  O129  1  0.412900  0.203900  0.825100  1.0  -0.7507
  O  O130  1  0.619700  0.154300  0.795400  1.0  -0.7883
  O  O131  1  0.155900  0.231400  0.661100  1.0  -0.8036
  O  O132  1  0.262800  0.929700  0.966800  1.0  -0.7499
  O  O133  1  0.267300  0.068300  0.926700  1.0  -0.7662
  O  O134  1  0.451800  0.076100  0.831900  1.0  -0.7808
  O  O135  1  0.511900  0.932000  0.802900  1.0  -0.722
  O  O136  1  0.416000  0.840100  0.887000  1.0  -0.735
  O  O137  1  0.937300  0.339800  0.396800  1.0  -0.7701
  O  O138  1  0.133700  0.333200  0.480000  1.0  -0.7934
  O  O139  1  0.078700  0.226700  0.563000  1.0  -0.7271
  O  O140  1  0.865600  0.150800  0.523000  1.0  -0.7425
  O  O141  1  0.782900  0.215200  0.415400  1.0  -0.7454
  O  O142  1  0.385400  0.157000  0.246700  1.0  -0.7333
  O  O143  1  0.087100  0.296100  0.325100  1.0  -0.751
  O  O144  1  0.880300  0.345700  0.295400  1.0  -0.7881
  O  O145  1  0.344100  0.268600  0.161100  1.0  -0.8034
  O  O146  1  0.237200  0.570300  0.466800  1.0  -0.75
  O  O147  1  0.232700  0.431700  0.426700  1.0  -0.766
  O  O148  1  0.048200  0.423900  0.331900  1.0  -0.7774
  O  O149  1  0.988100  0.568000  0.302900  1.0  -0.7216
  O  O150  1  0.084000  0.659900  0.387000  1.0  -0.7364
  O  O151  1  0.437300  0.839800  0.396800  1.0  -0.7701
  O  O152  1  0.633700  0.833200  0.480000  1.0  -0.7934
  O  O153  1  0.578700  0.726700  0.563000  1.0  -0.7271
  O  O154  1  0.365600  0.650800  0.523000  1.0  -0.7425
  O  O155  1  0.282900  0.715200  0.415400  1.0  -0.7454
  O  O156  1  0.885400  0.657000  0.246700  1.0  -0.7333
  O  O157  1  0.587100  0.796100  0.325100  1.0  -0.751
  O  O158  1  0.380300  0.845700  0.295400  1.0  -0.7881
  O  O159  1  0.844100  0.768600  0.161100  1.0  -0.8034
  O  O160  1  0.737200  0.070300  0.466800  1.0  -0.75
  O  O161  1  0.732700  0.931700  0.426700  1.0  -0.766
  O  O162  1  0.548200  0.923900  0.331900  1.0  -0.7774
  O  O163  1  0.488100  0.068000  0.302900  1.0  -0.7216
  O  O164  1  0.584000  0.159900  0.387000  1.0  -0.7364
