# generated using pymatgen
data_LaH15(C2O)6
_symmetry_space_group_name_H-M   'P 1'
_cell_length_a   10.58260000
_cell_length_b   12.00750000
_cell_length_c   18.14700000
_cell_angle_alpha   90.00000000
_cell_angle_beta   90.00000000
_cell_angle_gamma   110.07400000
_symmetry_Int_Tables_number   1
_chemical_formula_structural   LaH15(C2O)6
_chemical_formula_sum   'La4 H60 C48 O24'
_cell_volume   2165.86342304
_cell_formula_units_Z   4
loop_
 _symmetry_equiv_pos_site_id
 _symmetry_equiv_pos_as_xyz
  1  'x, y, z'
loop_
 _atom_site_type_symbol
 _atom_site_label
 _atom_site_symmetry_multiplicity
 _atom_site_fract_x
 _atom_site_fract_y
 _atom_site_fract_z
 _atom_site_occupancy
 _atom_site_charge
  La  La1  1  0.535270  0.644980  0.931430  1.0  2.1375
  La  La2  1  0.964730  0.855020  0.431430  1.0  2.1376
  La  La3  1  0.464730  0.355020  0.068570  1.0  2.1383
  La  La4  1  0.035270  0.144980  0.568570  1.0  2.1378
  H  H5  1  0.689000  0.293000  0.860000  1.0  0.0883
  H  H6  1  0.771300  0.477700  0.803900  1.0  0.0718
  H  H7  1  0.660000  0.435100  0.742800  1.0  0.0787
  H  H8  1  0.858400  0.417900  0.696200  1.0  0.0804
  H  H9  1  0.869900  0.341400  0.764300  1.0  0.0676
  H  H10  1  0.667000  0.270000  0.656000  1.0  0.0917
  H  H11  1  0.685700  0.124200  0.773000  1.0  0.0785
  H  H12  1  0.575100  0.089900  0.711400  1.0  0.0771
  H  H13  1  0.481000  0.224900  0.755900  1.0  0.0832
  H  H14  1  0.494000  0.146800  0.822800  1.0  0.0772
  H  H15  1  0.134000  0.487000  0.935000  1.0  0.1
  H  H16  1  0.215200  0.638800  0.019500  1.0  0.0769
  H  H17  1  0.120200  0.562000  0.080800  1.0  0.0728
  H  H18  1  0.969000  0.349000  0.046600  1.0  0.0803
  H  H19  1  0.977500  0.305400  0.965800  1.0  0.0773
  H  H20  1  0.811000  0.207000  0.360000  1.0  0.0879
  H  H21  1  0.728700  0.022300  0.303900  1.0  0.0705
  H  H22  1  0.840000  0.064900  0.242800  1.0  0.0794
  H  H23  1  0.641600  0.082100  0.196200  1.0  0.0792
  H  H24  1  0.630100  0.158600  0.264300  1.0  0.0677
  H  H25  1  0.833000  0.230000  0.156000  1.0  0.0912
  H  H26  1  0.814300  0.375800  0.273000  1.0  0.0775
  H  H27  1  0.924900  0.410100  0.211400  1.0  0.0767
  H  H28  1  0.019000  0.275100  0.255900  1.0  0.0815
  H  H29  1  0.006000  0.353200  0.322800  1.0  0.0763
  H  H30  1  0.366000  0.013000  0.435000  1.0  0.1008
  H  H31  1  0.284800  0.861200  0.519500  1.0  0.0782
  H  H32  1  0.379800  0.938000  0.580800  1.0  0.0736
  H  H33  1  0.531000  0.151000  0.546600  1.0  0.0799
  H  H34  1  0.522500  0.194600  0.465800  1.0  0.0789
  H  H35  1  0.311000  0.707000  0.140000  1.0  0.0891
  H  H36  1  0.228700  0.522300  0.196100  1.0  0.0696
  H  H37  1  0.340000  0.564900  0.257200  1.0  0.0793
  H  H38  1  0.141600  0.582100  0.303800  1.0  0.0798
  H  H39  1  0.130100  0.658600  0.235700  1.0  0.0692
  H  H40  1  0.333000  0.730000  0.344000  1.0  0.0917
  H  H41  1  0.314300  0.875800  0.227000  1.0  0.0779
  H  H42  1  0.424900  0.910100  0.288600  1.0  0.0766
  H  H43  1  0.519000  0.775100  0.244100  1.0  0.0798
  H  H44  1  0.506000  0.853200  0.177200  1.0  0.0774
  H  H45  1  0.866000  0.513000  0.065000  1.0  0.1001
  H  H46  1  0.784800  0.361200  0.980500  1.0  0.0786
  H  H47  1  0.879800  0.438000  0.919200  1.0  0.0737
  H  H48  1  0.031000  0.651000  0.953400  1.0  0.0801
  H  H49  1  0.022500  0.694600  0.034200  1.0  0.0784
  H  H50  1  0.189000  0.793000  0.640000  1.0  0.0887
  H  H51  1  0.271300  0.977700  0.696100  1.0  0.0722
  H  H52  1  0.160000  0.935100  0.757200  1.0  0.0793
  H  H53  1  0.358400  0.917900  0.803800  1.0  0.0786
  H  H54  1  0.369900  0.841400  0.735700  1.0  0.0675
  H  H55  1  0.167000  0.770000  0.844000  1.0  0.0914
  H  H56  1  0.185700  0.624200  0.727000  1.0  0.0788
  H  H57  1  0.075100  0.589900  0.788600  1.0  0.0779
  H  H58  1  0.981000  0.724900  0.744100  1.0  0.0806
  H  H59  1  0.994000  0.646800  0.677200  1.0  0.0764
  H  H60  1  0.634000  0.987000  0.565000  1.0  0.1
  H  H61  1  0.715200  0.138800  0.480500  1.0  0.0769
  H  H62  1  0.620200  0.062000  0.419200  1.0  0.0743
  H  H63  1  0.469000  0.849000  0.453400  1.0  0.0826
  H  H64  1  0.477500  0.805400  0.534200  1.0  0.0784
  C  C65  1  0.544300  0.364600  0.880600  1.0  0.7824
  C  C66  1  0.627600  0.316800  0.828700  1.0  -0.1894
  C  C67  1  0.716200  0.409300  0.776100  1.0  -0.1224
  C  C68  1  0.807000  0.359000  0.731500  1.0  -0.118
  C  C69  1  0.724900  0.246900  0.690700  1.0  -0.1725
  C  C70  1  0.632500  0.155100  0.740800  1.0  -0.1222
  C  C71  1  0.544700  0.206200  0.787600  1.0  -0.1091
  C  C72  1  0.120100  0.466700  0.987000  1.0  -0.1861
  C  C73  1  0.128100  0.578500  0.028300  1.0  -0.1277
  C  C74  1  0.982800  0.374000  0.995500  1.0  -0.1126
  C  C75  1  0.818900  0.203000  0.644300  1.0  0.6827
  C  C76  1  0.233300  0.424400  0.011800  1.0  0.7639
  C  C77  1  0.955700  0.135400  0.380600  1.0  0.7847
  C  C78  1  0.872400  0.183200  0.328700  1.0  -0.1897
  C  C79  1  0.783800  0.090700  0.276100  1.0  -0.1208
  C  C80  1  0.693000  0.141000  0.231500  1.0  -0.119
  C  C81  1  0.775100  0.253100  0.190700  1.0  -0.171
  C  C82  1  0.867500  0.344900  0.240800  1.0  -0.1225
  C  C83  1  0.955300  0.293800  0.287600  1.0  -0.1095
  C  C84  1  0.379900  0.033300  0.487000  1.0  -0.1875
  C  C85  1  0.371900  0.921500  0.528300  1.0  -0.1275
  C  C86  1  0.517200  0.126000  0.495500  1.0  -0.114
  C  C87  1  0.681100  0.297000  0.144300  1.0  0.6836
  C  C88  1  0.266700  0.075600  0.511800  1.0  0.7656
  C  C89  1  0.455700  0.635400  0.119400  1.0  0.7842
  C  C90  1  0.372400  0.683200  0.171300  1.0  -0.1906
  C  C91  1  0.283800  0.590700  0.223900  1.0  -0.1204
  C  C92  1  0.193000  0.641000  0.268500  1.0  -0.1194
  C  C93  1  0.275100  0.753100  0.309300  1.0  -0.1721
  C  C94  1  0.367500  0.844900  0.259200  1.0  -0.1233
  C  C95  1  0.455300  0.793800  0.212400  1.0  -0.1099
  C  C96  1  0.879900  0.533300  0.013000  1.0  -0.1868
  C  C97  1  0.871900  0.421500  0.971700  1.0  -0.1272
  C  C98  1  0.017200  0.626000  0.004500  1.0  -0.1145
  C  C99  1  0.181100  0.797000  0.355700  1.0  0.6826
  C  C100  1  0.766700  0.575600  0.988200  1.0  0.7656
  C  C101  1  0.044300  0.864600  0.619400  1.0  0.7816
  C  C102  1  0.127600  0.816800  0.671300  1.0  -0.1903
  C  C103  1  0.216200  0.909300  0.723900  1.0  -0.1215
  C  C104  1  0.307000  0.859000  0.768500  1.0  -0.1186
  C  C105  1  0.224900  0.746900  0.809300  1.0  -0.1732
  C  C106  1  0.132500  0.655100  0.759200  1.0  -0.1229
  C  C107  1  0.044700  0.706200  0.712400  1.0  -0.1097
  C  C108  1  0.620100  0.966700  0.513000  1.0  -0.1855
  C  C109  1  0.628100  0.078500  0.471700  1.0  -0.1265
  C  C110  1  0.482800  0.874000  0.504500  1.0  -0.1139
  C  C111  1  0.318900  0.703000  0.855700  1.0  0.6833
  C  C112  1  0.733300  0.924400  0.488200  1.0  0.7634
  O  O113  1  0.533800  0.462700  0.864700  1.0  -0.7133
  O  O114  1  0.349400  0.479200  0.987200  1.0  -0.7981
  O  O115  1  0.836600  0.108700  0.661500  1.0  -0.6769
  O  O116  1  0.876000  0.263400  0.590400  1.0  -0.6996
  O  O117  1  0.495100  0.303400  0.936100  1.0  -0.7217
  O  O118  1  0.211200  0.338900  0.054700  1.0  -0.697
  O  O119  1  0.966200  0.037300  0.364700  1.0  -0.7129
  O  O120  1  0.150600  0.020800  0.487200  1.0  -0.7988
  O  O121  1  0.663400  0.391300  0.161500  1.0  -0.6777
  O  O122  1  0.624000  0.236600  0.090400  1.0  -0.6995
  O  O123  1  0.004900  0.196600  0.436100  1.0  -0.7246
  O  O124  1  0.288800  0.161100  0.554700  1.0  -0.6947
  O  O125  1  0.466200  0.537300  0.135300  1.0  -0.7139
  O  O126  1  0.650600  0.520800  0.012800  1.0  -0.7996
  O  O127  1  0.163400  0.891300  0.338500  1.0  -0.6763
  O  O128  1  0.124000  0.736600  0.409600  1.0  -0.6988
  O  O129  1  0.504900  0.696600  0.063900  1.0  -0.7227
  O  O130  1  0.788800  0.661100  0.945300  1.0  -0.6948
  O  O131  1  0.033800  0.962700  0.635300  1.0  -0.7142
  O  O132  1  0.849400  0.979200  0.512800  1.0  -0.7976
  O  O133  1  0.336600  0.608700  0.838500  1.0  -0.6767
  O  O134  1  0.376000  0.763400  0.909600  1.0  -0.7021
  O  O135  1  0.995100  0.803400  0.563900  1.0  -0.7246
  O  O136  1  0.711200  0.838900  0.445300  1.0  -0.6969
