# generated using pymatgen
data_CoH24(C11N2)4
_symmetry_space_group_name_H-M   'P 1'
_cell_length_a   32.81710000
_cell_length_b   32.81710000
_cell_length_c   9.23050000
_cell_angle_alpha   90.00000000
_cell_angle_beta   90.00000000
_cell_angle_gamma   120.00000000
_symmetry_Int_Tables_number   1
_chemical_formula_structural   CoH24(C11N2)4
_chemical_formula_sum   'Co9 H216 C396 N72'
_cell_volume   8609.07039909
_cell_formula_units_Z   9
loop_
 _symmetry_equiv_pos_site_id
 _symmetry_equiv_pos_as_xyz
  1  'x, y, z'
loop_
 _atom_site_type_symbol
 _atom_site_label
 _atom_site_symmetry_multiplicity
 _atom_site_fract_x
 _atom_site_fract_y
 _atom_site_fract_z
 _atom_site_occupancy
 _atom_site_charge
  Co  Co1  1  0.500000  0.000000  0.000000  1.0  0.8392
  Co  Co2  1  0.166670  0.333333  0.333333  1.0  0.8443
  Co  Co3  1  0.833330  0.666667  0.666667  1.0  0.8444
  Co  Co4  1  0.000000  0.500000  0.000000  1.0  0.8392
  Co  Co5  1  0.666667  0.833330  0.333333  1.0  0.8442
  Co  Co6  1  0.333333  0.166670  0.666667  1.0  0.8444
  Co  Co7  1  0.500000  0.500000  0.000000  1.0  0.8394
  Co  Co8  1  0.166670  0.833330  0.333333  1.0  0.8444
  Co  Co9  1  0.833330  0.166670  0.666667  1.0  0.8444
  H  H10  1  0.602100  0.979500  0.374600  1.0  0.1151
  H  H11  1  0.596300  0.046100  0.466800  1.0  0.1121
  H  H12  1  0.512800  0.139100  0.286000  1.0  0.1145
  H  H13  1  0.464800  0.132700  0.075000  1.0  0.1037
  H  H14  1  0.531600  0.871700  0.315400  1.0  0.1267
  H  H15  1  0.570700  0.832100  0.370400  1.0  0.0725
  H  H16  1  0.632200  0.946400  0.026200  1.0  0.1262
  H  H17  1  0.668100  0.904500  0.090200  1.0  0.065
  H  H18  1  0.518900  0.053800  0.574800  1.0  0.0924
  H  H19  1  0.544400  0.100800  0.778000  1.0  0.1087
  H  H20  1  0.632300  0.210200  0.533500  1.0  0.1075
  H  H21  1  0.605900  0.163400  0.328900  1.0  0.1151
  H  H22  1  0.397900  0.020500  0.625400  1.0  0.1142
  H  H23  1  0.403700  0.953900  0.533200  1.0  0.113
  H  H24  1  0.487200  0.860900  0.714000  1.0  0.1149
  H  H25  1  0.535200  0.867300  0.925000  1.0  0.1028
  H  H26  1  0.468400  0.128300  0.684600  1.0  0.1269
  H  H27  1  0.429300  0.167900  0.629600  1.0  0.0716
  H  H28  1  0.367800  0.053600  0.973800  1.0  0.1271
  H  H29  1  0.331900  0.095500  0.909800  1.0  0.0653
  H  H30  1  0.481100  0.946200  0.425200  1.0  0.0922
  H  H31  1  0.455600  0.899200  0.222000  1.0  0.1079
  H  H32  1  0.367700  0.789800  0.466500  1.0  0.1083
  H  H33  1  0.394100  0.836600  0.671100  1.0  0.1154
  H  H34  1  0.268770  0.312830  0.707930  1.0  0.1151
  H  H35  1  0.262970  0.379430  0.800130  1.0  0.1121
  H  H36  1  0.179470  0.472430  0.619330  1.0  0.1145
  H  H37  1  0.131470  0.466030  0.408330  1.0  0.1037
  H  H38  1  0.198270  0.205030  0.648730  1.0  0.1267
  H  H39  1  0.237370  0.165430  0.703730  1.0  0.0725
  H  H40  1  0.298870  0.279730  0.359530  1.0  0.1262
  H  H41  1  0.334770  0.237830  0.423530  1.0  0.065
  H  H42  1  0.185570  0.387130  0.908130  1.0  0.0924
  H  H43  1  0.211070  0.434130  0.111330  1.0  0.1087
  H  H44  1  0.298970  0.543530  0.866830  1.0  0.1075
  H  H45  1  0.272570  0.496730  0.662230  1.0  0.1151
  H  H46  1  0.064570  0.353830  0.958730  1.0  0.1143
  H  H47  1  0.070370  0.287230  0.866530  1.0  0.113
  H  H48  1  0.153870  0.194230  0.047330  1.0  0.1149
  H  H49  1  0.201870  0.200630  0.258330  1.0  0.1025
  H  H50  1  0.135070  0.461630  0.017930  1.0  0.1269
  H  H51  1  0.095970  0.501230  0.962930  1.0  0.0716
  H  H52  1  0.034470  0.386930  0.307130  1.0  0.1273
  H  H53  1  0.998570  0.428830  0.243130  1.0  0.0653
  H  H54  1  0.147770  0.279530  0.758530  1.0  0.0922
  H  H55  1  0.122270  0.232530  0.555330  1.0  0.108
  H  H56  1  0.034370  0.123130  0.799830  1.0  0.1095
  H  H57  1  0.060770  0.169930  0.004430  1.0  0.1154
  H  H58  1  0.935430  0.646170  0.041270  1.0  0.1151
  H  H59  1  0.929630  0.712770  0.133470  1.0  0.1121
  H  H60  1  0.846130  0.805770  0.952670  1.0  0.1145
  H  H61  1  0.798130  0.799370  0.741670  1.0  0.1035
  H  H62  1  0.864930  0.538370  0.982070  1.0  0.1267
  H  H63  1  0.904030  0.498770  0.037070  1.0  0.0725
  H  H64  1  0.965530  0.613070  0.692870  1.0  0.1263
  H  H65  1  0.001430  0.571170  0.756870  1.0  0.065
  H  H66  1  0.852230  0.720470  0.241470  1.0  0.0924
  H  H67  1  0.877730  0.767470  0.444670  1.0  0.1087
  H  H68  1  0.965630  0.876870  0.200170  1.0  0.1099
  H  H69  1  0.939230  0.830070  0.995570  1.0  0.1151
  H  H70  1  0.731230  0.687170  0.292070  1.0  0.1142
  H  H71  1  0.737030  0.620570  0.199870  1.0  0.113
  H  H72  1  0.820530  0.527570  0.380670  1.0  0.1149
  H  H73  1  0.868530  0.533970  0.591670  1.0  0.1028
  H  H74  1  0.801730  0.794970  0.351270  1.0  0.1269
  H  H75  1  0.762630  0.834570  0.296270  1.0  0.0716
  H  H76  1  0.701130  0.720270  0.640470  1.0  0.1272
  H  H77  1  0.665230  0.762170  0.576470  1.0  0.0652
  H  H78  1  0.814430  0.612870  0.091870  1.0  0.0922
  H  H79  1  0.788930  0.565870  0.888670  1.0  0.1079
  H  H80  1  0.701030  0.456470  0.133170  1.0  0.1083
  H  H81  1  0.727430  0.503270  0.337770  1.0  0.1154
  H  H82  1  0.020500  0.622600  0.374600  1.0  0.1142
  H  H83  1  0.953900  0.550200  0.466800  1.0  0.1124
  H  H84  1  0.860900  0.373700  0.286000  1.0  0.1153
  H  H85  1  0.867300  0.332100  0.075000  1.0  0.1039
  H  H86  1  0.128300  0.659900  0.315400  1.0  0.1267
  H  H87  1  0.167900  0.738600  0.370400  1.0  0.0708
  H  H88  1  0.053600  0.685800  0.026200  1.0  0.1264
  H  H89  1  0.095500  0.763600  0.090200  1.0  0.0651
  H  H90  1  0.946200  0.465100  0.574800  1.0  0.0932
  H  H91  1  0.899200  0.443600  0.778000  1.0  0.1105
  H  H92  1  0.789800  0.422100  0.533500  1.0  0.1108
  H  H93  1  0.836600  0.442500  0.328900  1.0  0.1145
  H  H94  1  0.979500  0.377400  0.625400  1.0  0.1146
  H  H95  1  0.046100  0.449800  0.533200  1.0  0.1124
  H  H96  1  0.139100  0.626300  0.714000  1.0  0.115
  H  H97  1  0.132700  0.667900  0.925000  1.0  0.1038
  H  H98  1  0.871700  0.340100  0.684600  1.0  0.1269
  H  H99  1  0.832100  0.261400  0.629600  1.0  0.0712
  H  H100  1  0.946400  0.314200  0.973800  1.0  0.1266
  H  H101  1  0.904500  0.236400  0.909800  1.0  0.0652
  H  H102  1  0.053800  0.534900  0.425200  1.0  0.093
  H  H103  1  0.100800  0.556400  0.222000  1.0  0.11
  H  H104  1  0.210200  0.577900  0.466500  1.0  0.1098
  H  H105  1  0.163400  0.557500  0.671100  1.0  0.1147
  H  H106  1  0.687170  0.955930  0.707930  1.0  0.1142
  H  H107  1  0.620570  0.883530  0.800130  1.0  0.1124
  H  H108  1  0.527570  0.707030  0.619330  1.0  0.1153
  H  H109  1  0.533970  0.665430  0.408330  1.0  0.1039
  H  H110  1  0.794970  0.993230  0.648730  1.0  0.1267
  H  H111  1  0.834570  0.071930  0.703730  1.0  0.0707
  H  H112  1  0.720270  0.019130  0.359530  1.0  0.1264
  H  H113  1  0.762170  0.096930  0.423530  1.0  0.0651
  H  H114  1  0.612870  0.798430  0.908130  1.0  0.0932
  H  H115  1  0.565870  0.776930  0.111330  1.0  0.1105
  H  H116  1  0.456470  0.755430  0.866830  1.0  0.1108
  H  H117  1  0.503270  0.775830  0.662230  1.0  0.1145
  H  H118  1  0.646170  0.710730  0.958730  1.0  0.1146
  H  H119  1  0.712770  0.783130  0.866530  1.0  0.1124
  H  H120  1  0.805770  0.959630  0.047330  1.0  0.115
  H  H121  1  0.799370  0.001230  0.258330  1.0  0.1038
  H  H122  1  0.538370  0.673430  0.017930  1.0  0.1269
  H  H123  1  0.498770  0.594730  0.962930  1.0  0.0712
  H  H124  1  0.613070  0.647530  0.307130  1.0  0.126
  H  H125  1  0.571170  0.569730  0.243130  1.0  0.0652
  H  H126  1  0.720470  0.868230  0.758530  1.0  0.093
  H  H127  1  0.767470  0.889730  0.555330  1.0  0.11
  H  H128  1  0.876870  0.911230  0.799830  1.0  0.1099
  H  H129  1  0.830070  0.890830  0.004430  1.0  0.1147
  H  H130  1  0.353830  0.289270  0.041270  1.0  0.1142
  H  H131  1  0.287230  0.216870  0.133470  1.0  0.1123
  H  H132  1  0.194230  0.040370  0.952670  1.0  0.1153
  H  H133  1  0.200630  0.998770  0.741670  1.0  0.1039
  H  H134  1  0.461630  0.326570  0.982070  1.0  0.1267
  H  H135  1  0.501230  0.405270  0.037070  1.0  0.0708
  H  H136  1  0.386930  0.352470  0.692870  1.0  0.1257
  H  H137  1  0.428830  0.430270  0.756870  1.0  0.0651
  H  H138  1  0.279530  0.131770  0.241470  1.0  0.0932
  H  H139  1  0.232530  0.110270  0.444670  1.0  0.1105
  H  H140  1  0.123130  0.088770  0.200170  1.0  0.1111
  H  H141  1  0.169930  0.109170  0.995570  1.0  0.1145
  H  H142  1  0.312830  0.044070  0.292070  1.0  0.1146
  H  H143  1  0.379430  0.116470  0.199870  1.0  0.1124
  H  H144  1  0.472430  0.292970  0.380670  1.0  0.115
  H  H145  1  0.466030  0.334570  0.591670  1.0  0.1038
  H  H146  1  0.205030  0.006770  0.351270  1.0  0.1269
  H  H147  1  0.165430  0.928070  0.296270  1.0  0.0712
  H  H148  1  0.279730  0.980870  0.640470  1.0  0.1266
  H  H149  1  0.237830  0.903070  0.576470  1.0  0.0652
  H  H150  1  0.387130  0.201570  0.091870  1.0  0.093
  H  H151  1  0.434130  0.223070  0.888670  1.0  0.11
  H  H152  1  0.543530  0.244570  0.133170  1.0  0.1098
  H  H153  1  0.496730  0.224170  0.337770  1.0  0.1147
  H  H154  1  0.377400  0.397900  0.374600  1.0  0.1138
  H  H155  1  0.449800  0.403700  0.466800  1.0  0.1122
  H  H156  1  0.626300  0.487200  0.286000  1.0  0.1141
  H  H157  1  0.667900  0.535200  0.075000  1.0  0.1033
  H  H158  1  0.340100  0.468400  0.315400  1.0  0.1267
  H  H159  1  0.261400  0.429300  0.370400  1.0  0.071
  H  H160  1  0.314200  0.367800  0.026200  1.0  0.1254
  H  H161  1  0.236400  0.331900  0.090200  1.0  0.0647
  H  H162  1  0.534900  0.481100  0.574800  1.0  0.0924
  H  H163  1  0.556400  0.455600  0.778000  1.0  0.1095
  H  H164  1  0.577900  0.367700  0.533500  1.0  0.1111
  H  H165  1  0.557500  0.394100  0.328900  1.0  0.1154
  H  H166  1  0.622600  0.602100  0.625400  1.0  0.1132
  H  H167  1  0.550200  0.596300  0.533200  1.0  0.1126
  H  H168  1  0.373700  0.512800  0.714000  1.0  0.1144
  H  H169  1  0.332100  0.464800  0.925000  1.0  0.1033
  H  H170  1  0.659900  0.531600  0.684600  1.0  0.1271
  H  H171  1  0.738600  0.570700  0.629600  1.0  0.0715
  H  H172  1  0.685800  0.632200  0.973800  1.0  0.1257
  H  H173  1  0.763600  0.668100  0.909800  1.0  0.065
  H  H174  1  0.465100  0.518900  0.425200  1.0  0.0919
  H  H175  1  0.443600  0.544400  0.222000  1.0  0.1093
  H  H176  1  0.422100  0.632300  0.466500  1.0  0.112
  H  H177  1  0.442500  0.605900  0.671100  1.0  0.1153
  H  H178  1  0.044070  0.731230  0.707930  1.0  0.1138
  H  H179  1  0.116470  0.737030  0.800130  1.0  0.1122
  H  H180  1  0.292970  0.820530  0.619330  1.0  0.1141
  H  H181  1  0.334570  0.868530  0.408330  1.0  0.1033
  H  H182  1  0.006770  0.801730  0.648730  1.0  0.1267
  H  H183  1  0.928070  0.762630  0.703730  1.0  0.071
  H  H184  1  0.980870  0.701130  0.359530  1.0  0.1254
  H  H185  1  0.903070  0.665230  0.423530  1.0  0.0648
  H  H186  1  0.201570  0.814430  0.908130  1.0  0.0924
  H  H187  1  0.223070  0.788930  0.111330  1.0  0.1095
  H  H188  1  0.244570  0.701030  0.866830  1.0  0.1111
  H  H189  1  0.224170  0.727430  0.662230  1.0  0.1154
  H  H190  1  0.289270  0.935430  0.958730  1.0  0.1131
  H  H191  1  0.216870  0.929630  0.866530  1.0  0.1126
  H  H192  1  0.040370  0.846130  0.047330  1.0  0.1144
  H  H193  1  0.998770  0.798130  0.258330  1.0  0.1036
  H  H194  1  0.326570  0.864930  0.017930  1.0  0.1271
  H  H195  1  0.405270  0.904030  0.962930  1.0  0.0715
  H  H196  1  0.352470  0.965530  0.307130  1.0  0.126
  H  H197  1  0.430270  0.001430  0.243130  1.0  0.065
  H  H198  1  0.131770  0.852230  0.758530  1.0  0.0919
  H  H199  1  0.110270  0.877730  0.555330  1.0  0.1093
  H  H200  1  0.088770  0.965630  0.799830  1.0  0.1099
  H  H201  1  0.109170  0.939230  0.004430  1.0  0.1154
  H  H202  1  0.710730  0.064570  0.041270  1.0  0.1138
  H  H203  1  0.783130  0.070370  0.133470  1.0  0.1122
  H  H204  1  0.959630  0.153870  0.952670  1.0  0.1141
  H  H205  1  0.001230  0.201870  0.741670  1.0  0.1037
  H  H206  1  0.673430  0.135070  0.982070  1.0  0.1267
  H  H207  1  0.594730  0.095970  0.037070  1.0  0.071
  H  H208  1  0.647530  0.034470  0.692870  1.0  0.1257
  H  H209  1  0.569730  0.998570  0.756870  1.0  0.0647
  H  H210  1  0.868230  0.147770  0.241470  1.0  0.0924
  H  H211  1  0.889730  0.122270  0.444670  1.0  0.1095
  H  H212  1  0.911230  0.034370  0.200170  1.0  0.1094
  H  H213  1  0.890830  0.060770  0.995570  1.0  0.1155
  H  H214  1  0.955930  0.268770  0.292070  1.0  0.1132
  H  H215  1  0.883530  0.262970  0.199870  1.0  0.1126
  H  H216  1  0.707030  0.179470  0.380670  1.0  0.1144
  H  H217  1  0.665430  0.131470  0.591670  1.0  0.1033
  H  H218  1  0.993230  0.198270  0.351270  1.0  0.1271
  H  H219  1  0.071930  0.237370  0.296270  1.0  0.0715
  H  H220  1  0.019130  0.298870  0.640470  1.0  0.1257
  H  H221  1  0.096930  0.334770  0.576470  1.0  0.065
  H  H222  1  0.798430  0.185570  0.091870  1.0  0.0919
  H  H223  1  0.776930  0.211070  0.888670  1.0  0.1093
  H  H224  1  0.755430  0.298970  0.133170  1.0  0.112
  H  H225  1  0.775830  0.272570  0.337770  1.0  0.1153
  C  C226  1  0.556660  0.975850  0.204500  1.0  0.1947
  C  C227  1  0.584910  0.992070  0.333800  1.0  -0.1696
  C  C228  1  0.581740  0.028540  0.384300  1.0  -0.1639
  C  C229  1  0.551540  0.035510  0.287300  1.0  0.1603
  C  C230  1  0.541990  0.072580  0.300000  1.0  -0.1275
  C  C231  1  0.516740  0.081460  0.196900  1.0  0.1921
  C  C232  1  0.504310  0.117460  0.210800  1.0  -0.1753
  C  C233  1  0.478050  0.114070  0.094900  1.0  -0.1787
  C  C234  1  0.474330  0.076240  0.007900  1.0  0.1869
  C  C235  1  0.551890  0.939070  0.118700  1.0  -0.1031
  C  C236  1  0.577420  0.913750  0.163300  1.0  0.1067
  C  C237  1  0.559430  0.879100  0.267500  1.0  -0.1904
  C  C238  1  0.583230  0.855450  0.299800  1.0  0.1628
  C  C239  1  0.618770  0.923190  0.096800  1.0  -0.2124
  C  C240  1  0.640170  0.897790  0.136100  1.0  0.1731
  C  C241  1  0.559520  0.103280  0.430500  1.0  0.0753
  C  C242  1  0.541660  0.085320  0.565700  1.0  -0.1041
  C  C243  1  0.557030  0.113340  0.687800  1.0  -0.143
  C  C244  1  0.591310  0.160100  0.675200  1.0  -0.0436
  C  C245  1  0.609380  0.178670  0.541800  1.0  -0.1308
  C  C246  1  0.593610  0.150590  0.419200  1.0  -0.1172
  C  C247  1  0.607900  0.187830  0.805500  1.0  0.353
  C  C248  1  0.443340  0.024150  0.795500  1.0  0.1936
  C  C249  1  0.415090  0.007930  0.666200  1.0  -0.1705
  C  C250  1  0.418260  0.971460  0.615700  1.0  -0.1634
  C  C251  1  0.448460  0.964490  0.712700  1.0  0.1615
  C  C252  1  0.458010  0.927420  0.700000  1.0  -0.1282
  C  C253  1  0.483260  0.918540  0.803100  1.0  0.1914
  C  C254  1  0.495690  0.882540  0.789200  1.0  -0.1762
  C  C255  1  0.521950  0.885930  0.905100  1.0  -0.1793
  C  C256  1  0.525670  0.923760  0.992100  1.0  0.1869
  C  C257  1  0.448110  0.060930  0.881300  1.0  -0.1024
  C  C258  1  0.422580  0.086250  0.836700  1.0  0.1065
  C  C259  1  0.440570  0.120900  0.732500  1.0  -0.1919
  C  C260  1  0.416770  0.144550  0.700200  1.0  0.1621
  C  C261  1  0.381230  0.076810  0.903200  1.0  -0.2103
  C  C262  1  0.359830  0.102210  0.863900  1.0  0.173
  C  C263  1  0.440480  0.896720  0.569500  1.0  0.0762
  C  C264  1  0.458340  0.914680  0.434300  1.0  -0.1034
  C  C265  1  0.442970  0.886660  0.312200  1.0  -0.1429
  C  C266  1  0.408690  0.839900  0.324800  1.0  -0.0416
  C  C267  1  0.390620  0.821330  0.458200  1.0  -0.1376
  C  C268  1  0.406390  0.849410  0.580800  1.0  -0.1161
  C  C269  1  0.392100  0.812170  0.194500  1.0  0.3576
  C  C270  1  0.223330  0.309180  0.537830  1.0  0.1947
  C  C271  1  0.251580  0.325400  0.667130  1.0  -0.1696
  C  C272  1  0.248410  0.361870  0.717630  1.0  -0.1639
  C  C273  1  0.218210  0.368840  0.620630  1.0  0.1603
  C  C274  1  0.208660  0.405910  0.633330  1.0  -0.1274
  C  C275  1  0.183410  0.414790  0.530230  1.0  0.1921
  C  C276  1  0.170980  0.450790  0.544130  1.0  -0.1753
  C  C277  1  0.144720  0.447400  0.428230  1.0  -0.1786
  C  C278  1  0.141000  0.409570  0.341230  1.0  0.1869
  C  C279  1  0.218560  0.272400  0.452030  1.0  -0.1031
  C  C280  1  0.244090  0.247080  0.496630  1.0  0.1067
  C  C281  1  0.226100  0.212430  0.600830  1.0  -0.1903
  C  C282  1  0.249900  0.188780  0.633130  1.0  0.1628
  C  C283  1  0.285440  0.256520  0.430130  1.0  -0.2124
  C  C284  1  0.306840  0.231120  0.469430  1.0  0.1742
  C  C285  1  0.226190  0.436610  0.763830  1.0  0.0753
  C  C286  1  0.208330  0.418650  0.899030  1.0  -0.1041
  C  C287  1  0.223700  0.446670  0.021130  1.0  -0.143
  C  C288  1  0.257980  0.493430  0.008530  1.0  -0.0436
  C  C289  1  0.276050  0.512000  0.875130  1.0  -0.1308
  C  C290  1  0.260280  0.483920  0.752530  1.0  -0.1172
  C  C291  1  0.274570  0.521160  0.138830  1.0  0.353
  C  C292  1  0.110010  0.357480  0.128830  1.0  0.1936
  C  C293  1  0.081760  0.341260  0.999530  1.0  -0.1705
  C  C294  1  0.084930  0.304790  0.949030  1.0  -0.1634
  C  C295  1  0.115130  0.297820  0.046030  1.0  0.162
  C  C296  1  0.124680  0.260750  0.033330  1.0  -0.1282
  C  C297  1  0.149930  0.251870  0.136430  1.0  0.1914
  C  C298  1  0.162360  0.215870  0.122530  1.0  -0.1761
  C  C299  1  0.188620  0.219260  0.238430  1.0  -0.1791
  C  C300  1  0.192340  0.257090  0.325430  1.0  0.1869
  C  C301  1  0.114780  0.394260  0.214630  1.0  -0.1024
  C  C302  1  0.089250  0.419580  0.170030  1.0  0.1065
  C  C303  1  0.107240  0.454230  0.065830  1.0  -0.1919
  C  C304  1  0.083440  0.477880  0.033530  1.0  0.1621
  C  C305  1  0.047900  0.410140  0.236530  1.0  -0.2103
  C  C306  1  0.026500  0.435540  0.197230  1.0  0.173
  C  C307  1  0.107150  0.230050  0.902830  1.0  0.0762
  C  C308  1  0.125010  0.248010  0.767630  1.0  -0.1034
  C  C309  1  0.109640  0.219990  0.645530  1.0  -0.1431
  C  C310  1  0.075360  0.173230  0.658130  1.0  -0.0416
  C  C311  1  0.057290  0.154660  0.791530  1.0  -0.1377
  C  C312  1  0.073060  0.182740  0.914130  1.0  -0.1161
  C  C313  1  0.058770  0.145500  0.527830  1.0  0.3576
  C  C314  1  0.889990  0.642520  0.871170  1.0  0.1947
  C  C315  1  0.918240  0.658740  0.000470  1.0  -0.1696
  C  C316  1  0.915070  0.695210  0.050970  1.0  -0.1639
  C  C317  1  0.884870  0.702180  0.953970  1.0  0.1608
  C  C318  1  0.875320  0.739250  0.966670  1.0  -0.1275
  C  C319  1  0.850070  0.748130  0.863570  1.0  0.1921
  C  C320  1  0.837640  0.784130  0.877470  1.0  -0.1753
  C  C321  1  0.811380  0.780740  0.761570  1.0  -0.1786
  C  C322  1  0.807660  0.742910  0.674570  1.0  0.1869
  C  C323  1  0.885220  0.605740  0.785370  1.0  -0.1032
  C  C324  1  0.910750  0.580420  0.829970  1.0  0.1067
  C  C325  1  0.892760  0.545770  0.934170  1.0  -0.1904
  C  C326  1  0.916560  0.522120  0.966470  1.0  0.1628
  C  C327  1  0.952100  0.589860  0.763470  1.0  -0.2124
  C  C328  1  0.973500  0.564460  0.802770  1.0  0.1731
  C  C329  1  0.892850  0.769950  0.097170  1.0  0.0753
  C  C330  1  0.874990  0.751990  0.232370  1.0  -0.1041
  C  C331  1  0.890360  0.780010  0.354470  1.0  -0.1431
  C  C332  1  0.924640  0.826770  0.341870  1.0  -0.0436
  C  C333  1  0.942710  0.845340  0.208470  1.0  -0.1309
  C  C334  1  0.926940  0.817260  0.085870  1.0  -0.1172
  C  C335  1  0.941230  0.854500  0.472170  1.0  0.3531
  C  C336  1  0.776670  0.690820  0.462170  1.0  0.1937
  C  C337  1  0.748420  0.674600  0.332870  1.0  -0.1705
  C  C338  1  0.751590  0.638130  0.282370  1.0  -0.1634
  C  C339  1  0.781790  0.631160  0.379370  1.0  0.1615
  C  C340  1  0.791340  0.594090  0.366670  1.0  -0.1282
  C  C341  1  0.816590  0.585210  0.469770  1.0  0.1914
  C  C342  1  0.829020  0.549210  0.455870  1.0  -0.1761
  C  C343  1  0.855280  0.552600  0.571770  1.0  -0.1792
  C  C344  1  0.859000  0.590430  0.658770  1.0  0.1869
  C  C345  1  0.781440  0.727600  0.547970  1.0  -0.1024
  C  C346  1  0.755910  0.752920  0.503370  1.0  0.1065
  C  C347  1  0.773900  0.787570  0.399170  1.0  -0.1919
  C  C348  1  0.750100  0.811220  0.366870  1.0  0.1622
  C  C349  1  0.714560  0.743480  0.569870  1.0  -0.2102
  C  C350  1  0.693160  0.768880  0.530570  1.0  0.1741
  C  C351  1  0.773810  0.563390  0.236170  1.0  0.0762
  C  C352  1  0.791670  0.581350  0.100970  1.0  -0.1034
  C  C353  1  0.776300  0.553330  0.978870  1.0  -0.1429
  C  C354  1  0.742020  0.506570  0.991470  1.0  -0.0416
  C  C355  1  0.723950  0.488000  0.124870  1.0  -0.1376
  C  C356  1  0.739720  0.516080  0.247470  1.0  -0.1161
  C  C357  1  0.725430  0.478840  0.861170  1.0  0.3576
  C  C358  1  0.024150  0.580810  0.204500  1.0  0.1935
  C  C359  1  0.007930  0.592840  0.333800  1.0  -0.1703
  C  C360  1  0.971460  0.553200  0.384300  1.0  -0.1647
  C  C361  1  0.964490  0.516030  0.287300  1.0  0.1613
  C  C362  1  0.927420  0.469410  0.300000  1.0  -0.1276
  C  C363  1  0.918540  0.435280  0.196900  1.0  0.1915
  C  C364  1  0.882540  0.386850  0.210800  1.0  -0.1756
  C  C365  1  0.885930  0.363980  0.094900  1.0  -0.1778
  C  C366  1  0.923760  0.398090  0.007900  1.0  0.1875
  C  C367  1  0.060930  0.612820  0.118700  1.0  -0.103
  C  C368  1  0.086250  0.663670  0.163300  1.0  0.1066
  C  C369  1  0.120900  0.680330  0.267500  1.0  -0.1913
  C  C370  1  0.144550  0.727780  0.299800  1.0  0.1616
  C  C371  1  0.076810  0.695580  0.096800  1.0  -0.2109
  C  C372  1  0.102210  0.742380  0.136100  1.0  0.1741
  C  C373  1  0.896720  0.456240  0.430500  1.0  0.0735
  C  C374  1  0.914680  0.456340  0.565700  1.0  -0.1035
  C  C375  1  0.886660  0.443690  0.687800  1.0  -0.1421
  C  C376  1  0.839900  0.431210  0.675200  1.0  -0.049
  C  C377  1  0.821330  0.430710  0.541800  1.0  -0.1364
  C  C378  1  0.849410  0.443020  0.419200  1.0  -0.1135
  C  C379  1  0.812170  0.420070  0.805500  1.0  0.3548
  C  C380  1  0.975850  0.419190  0.795500  1.0  0.193
  C  C381  1  0.992070  0.407160  0.666200  1.0  -0.1723
  C  C382  1  0.028540  0.446800  0.615700  1.0  -0.1644
  C  C383  1  0.035510  0.483970  0.712700  1.0  0.1623
  C  C384  1  0.072580  0.530590  0.700000  1.0  -0.1276
  C  C385  1  0.081460  0.564720  0.803100  1.0  0.1919
  C  C386  1  0.117460  0.613150  0.789200  1.0  -0.175
  C  C387  1  0.114070  0.636020  0.905100  1.0  -0.1784
  C  C388  1  0.076240  0.601910  0.992100  1.0  0.1863
  C  C389  1  0.939070  0.387180  0.881300  1.0  -0.1025
  C  C390  1  0.913750  0.336330  0.836700  1.0  0.1074
  C  C391  1  0.879100  0.319670  0.732500  1.0  -0.1911
  C  C392  1  0.855450  0.272220  0.700200  1.0  0.1625
  C  C393  1  0.923190  0.304420  0.903200  1.0  -0.2138
  C  C394  1  0.897790  0.257620  0.863900  1.0  0.1738
  C  C395  1  0.103280  0.543760  0.569500  1.0  0.0746
  C  C396  1  0.085320  0.543660  0.434300  1.0  -0.1039
  C  C397  1  0.113340  0.556310  0.312200  1.0  -0.1409
  C  C398  1  0.160100  0.568790  0.324800  1.0  -0.0442
  C  C399  1  0.178670  0.569290  0.458200  1.0  -0.1354
  C  C400  1  0.150590  0.556980  0.580800  1.0  -0.1122
  C  C401  1  0.187830  0.579930  0.194500  1.0  0.3544
  C  C402  1  0.690820  0.914140  0.537830  1.0  0.1935
  C  C403  1  0.674600  0.926170  0.667130  1.0  -0.1703
  C  C404  1  0.638130  0.886530  0.717630  1.0  -0.1647
  C  C405  1  0.631160  0.849360  0.620630  1.0  0.1608
  C  C406  1  0.594090  0.802740  0.633330  1.0  -0.1276
  C  C407  1  0.585210  0.768610  0.530230  1.0  0.1915
  C  C408  1  0.549210  0.720180  0.544130  1.0  -0.1756
  C  C409  1  0.552600  0.697310  0.428230  1.0  -0.1778
  C  C410  1  0.590430  0.731420  0.341230  1.0  0.1875
  C  C411  1  0.727600  0.946150  0.452030  1.0  -0.103
  C  C412  1  0.752920  0.997000  0.496630  1.0  0.1066
  C  C413  1  0.787570  0.013660  0.600830  1.0  -0.1913
  C  C414  1  0.811220  0.061110  0.633130  1.0  0.1616
  C  C415  1  0.743480  0.028910  0.430130  1.0  -0.2109
  C  C416  1  0.768880  0.075710  0.469430  1.0  0.1738
  C  C417  1  0.563390  0.789570  0.763830  1.0  0.0735
  C  C418  1  0.581350  0.789670  0.899030  1.0  -0.1035
  C  C419  1  0.553330  0.777020  0.021130  1.0  -0.1421
  C  C420  1  0.506570  0.764540  0.008530  1.0  -0.049
  C  C421  1  0.488000  0.764040  0.875130  1.0  -0.1364
  C  C422  1  0.516080  0.776350  0.752530  1.0  -0.1135
  C  C423  1  0.478840  0.753400  0.138830  1.0  0.3548
  C  C424  1  0.642520  0.752520  0.128830  1.0  0.193
  C  C425  1  0.658740  0.740490  0.999530  1.0  -0.1724
  C  C426  1  0.695210  0.780130  0.949030  1.0  -0.1645
  C  C427  1  0.702180  0.817300  0.046030  1.0  0.1619
  C  C428  1  0.739250  0.863920  0.033330  1.0  -0.1276
  C  C429  1  0.748130  0.898050  0.136430  1.0  0.1919
  C  C430  1  0.784130  0.946480  0.122530  1.0  -0.175
  C  C431  1  0.780740  0.969350  0.238430  1.0  -0.1784
  C  C432  1  0.742910  0.935240  0.325430  1.0  0.1863
  C  C433  1  0.605740  0.720510  0.214630  1.0  -0.1025
  C  C434  1  0.580420  0.669660  0.170030  1.0  0.1074
  C  C435  1  0.545770  0.653000  0.065830  1.0  -0.1911
  C  C436  1  0.522120  0.605550  0.033530  1.0  0.1625
  C  C437  1  0.589860  0.637750  0.236530  1.0  -0.2138
  C  C438  1  0.564460  0.590950  0.197230  1.0  0.1738
  C  C439  1  0.769950  0.877090  0.902830  1.0  0.0746
  C  C440  1  0.751990  0.876990  0.767630  1.0  -0.1036
  C  C441  1  0.780010  0.889640  0.645530  1.0  -0.141
  C  C442  1  0.826770  0.902120  0.658130  1.0  -0.0443
  C  C443  1  0.845340  0.902620  0.791530  1.0  -0.1354
  C  C444  1  0.817260  0.890310  0.914130  1.0  -0.1121
  C  C445  1  0.854500  0.913260  0.527830  1.0  0.3545
  C  C446  1  0.357480  0.247480  0.871170  1.0  0.1935
  C  C447  1  0.341260  0.259510  0.000470  1.0  -0.1703
  C  C448  1  0.304790  0.219870  0.050970  1.0  -0.1647
  C  C449  1  0.297820  0.182700  0.953970  1.0  0.1608
  C  C450  1  0.260750  0.136080  0.966670  1.0  -0.1276
  C  C451  1  0.251870  0.101950  0.863570  1.0  0.1915
  C  C452  1  0.215870  0.053520  0.877470  1.0  -0.1757
  C  C453  1  0.219260  0.030650  0.761570  1.0  -0.1778
  C  C454  1  0.257090  0.064760  0.674570  1.0  0.1875
  C  C455  1  0.394260  0.279490  0.785370  1.0  -0.103
  C  C456  1  0.419580  0.330340  0.829970  1.0  0.1066
  C  C457  1  0.454230  0.347000  0.934170  1.0  -0.1913
  C  C458  1  0.477880  0.394450  0.966470  1.0  0.1616
  C  C459  1  0.410140  0.362250  0.763470  1.0  -0.2109
  C  C460  1  0.435540  0.409050  0.802770  1.0  0.1741
  C  C461  1  0.230050  0.122910  0.097170  1.0  0.0735
  C  C462  1  0.248010  0.123010  0.232370  1.0  -0.1032
  C  C463  1  0.219990  0.110360  0.354470  1.0  -0.1422
  C  C464  1  0.173230  0.097880  0.341870  1.0  -0.0491
  C  C465  1  0.154660  0.097380  0.208470  1.0  -0.1364
  C  C466  1  0.182740  0.109690  0.085870  1.0  -0.1135
  C  C467  1  0.145500  0.086740  0.472170  1.0  0.3549
  C  C468  1  0.309180  0.085860  0.462170  1.0  0.193
  C  C469  1  0.325400  0.073830  0.332870  1.0  -0.1723
  C  C470  1  0.361870  0.113470  0.282370  1.0  -0.1644
  C  C471  1  0.368840  0.150640  0.379370  1.0  0.1618
  C  C472  1  0.405910  0.197260  0.366670  1.0  -0.1276
  C  C473  1  0.414790  0.231390  0.469770  1.0  0.1919
  C  C474  1  0.450790  0.279820  0.455870  1.0  -0.175
  C  C475  1  0.447400  0.302690  0.571770  1.0  -0.1784
  C  C476  1  0.409570  0.268580  0.658770  1.0  0.1863
  C  C477  1  0.272400  0.053850  0.547970  1.0  -0.1025
  C  C478  1  0.247080  0.003000  0.503370  1.0  0.1074
  C  C479  1  0.212430  0.986340  0.399170  1.0  -0.1911
  C  C480  1  0.188780  0.938890  0.366870  1.0  0.1625
  C  C481  1  0.256520  0.971090  0.569870  1.0  -0.2138
  C  C482  1  0.231120  0.924290  0.530570  1.0  0.1736
  C  C483  1  0.436610  0.210430  0.236170  1.0  0.0746
  C  C484  1  0.418650  0.210330  0.100970  1.0  -0.1039
  C  C485  1  0.446670  0.222980  0.978870  1.0  -0.1409
  C  C486  1  0.493430  0.235460  0.991470  1.0  -0.0442
  C  C487  1  0.512000  0.235960  0.124870  1.0  -0.1354
  C  C488  1  0.483920  0.223650  0.247470  1.0  -0.1122
  C  C489  1  0.521160  0.246600  0.861170  1.0  0.3544
  C  C490  1  0.419190  0.443340  0.204500  1.0  0.1927
  C  C491  1  0.407160  0.415090  0.333800  1.0  -0.1711
  C  C492  1  0.446800  0.418260  0.384300  1.0  -0.1649
  C  C493  1  0.483970  0.448460  0.287300  1.0  0.1613
  C  C494  1  0.530590  0.458010  0.300000  1.0  -0.1275
  C  C495  1  0.564720  0.483260  0.196900  1.0  0.1916
  C  C496  1  0.613150  0.495690  0.210800  1.0  -0.1746
  C  C497  1  0.636020  0.521950  0.094900  1.0  -0.1782
  C  C498  1  0.601910  0.525670  0.007900  1.0  0.1863
  C  C499  1  0.387180  0.448110  0.118700  1.0  -0.1029
  C  C500  1  0.336330  0.422580  0.163300  1.0  0.107
  C  C501  1  0.319670  0.440570  0.267500  1.0  -0.192
  C  C502  1  0.272220  0.416770  0.299800  1.0  0.1624
  C  C503  1  0.304420  0.381230  0.096800  1.0  -0.2147
  C  C504  1  0.257620  0.359830  0.136100  1.0  0.1739
  C  C505  1  0.543760  0.440480  0.430500  1.0  0.0745
  C  C506  1  0.543660  0.458340  0.565700  1.0  -0.1009
  C  C507  1  0.556310  0.442970  0.687800  1.0  -0.1389
  C  C508  1  0.568790  0.408690  0.675200  1.0  -0.05
  C  C509  1  0.569290  0.390620  0.541800  1.0  -0.1359
  C  C510  1  0.556980  0.406390  0.419200  1.0  -0.1123
  C  C511  1  0.579930  0.392100  0.805500  1.0  0.3605
  C  C512  1  0.580810  0.556660  0.795500  1.0  0.1938
  C  C513  1  0.592840  0.584910  0.666200  1.0  -0.1704
  C  C514  1  0.553200  0.581740  0.615700  1.0  -0.1656
  C  C515  1  0.516030  0.551540  0.712700  1.0  0.161
  C  C516  1  0.469410  0.541990  0.700000  1.0  -0.1274
  C  C517  1  0.435280  0.516740  0.803100  1.0  0.1909
  C  C518  1  0.386850  0.504310  0.789200  1.0  -0.1741
  C  C519  1  0.363980  0.478050  0.905100  1.0  -0.1785
  C  C520  1  0.398090  0.474330  0.992100  1.0  0.1856
  C  C521  1  0.612820  0.551890  0.881300  1.0  -0.1021
  C  C522  1  0.663670  0.577420  0.836700  1.0  0.1071
  C  C523  1  0.680330  0.559430  0.732500  1.0  -0.1924
  C  C524  1  0.727780  0.583230  0.700200  1.0  0.161
  C  C525  1  0.695580  0.618770  0.903200  1.0  -0.2145
  C  C526  1  0.742380  0.640170  0.863900  1.0  0.1737
  C  C527  1  0.456240  0.559520  0.569500  1.0  0.0741
  C  C528  1  0.456340  0.541660  0.434300  1.0  -0.1001
  C  C529  1  0.443690  0.557030  0.312200  1.0  -0.1402
  C  C530  1  0.431210  0.591310  0.324800  1.0  -0.0526
  C  C531  1  0.430710  0.609380  0.458200  1.0  -0.137
  C  C532  1  0.443020  0.593610  0.580800  1.0  -0.1149
  C  C533  1  0.420070  0.607900  0.194500  1.0  0.3583
  C  C534  1  0.085860  0.776670  0.537830  1.0  0.1927
  C  C535  1  0.073830  0.748420  0.667130  1.0  -0.1711
  C  C536  1  0.113470  0.751590  0.717630  1.0  -0.1649
  C  C537  1  0.150640  0.781790  0.620630  1.0  0.1613
  C  C538  1  0.197260  0.791340  0.633330  1.0  -0.1275
  C  C539  1  0.231390  0.816590  0.530230  1.0  0.1916
  C  C540  1  0.279820  0.829020  0.544130  1.0  -0.1746
  C  C541  1  0.302690  0.855280  0.428230  1.0  -0.1782
  C  C542  1  0.268580  0.859000  0.341230  1.0  0.1863
  C  C543  1  0.053850  0.781440  0.452030  1.0  -0.1029
  C  C544  1  0.003000  0.755910  0.496630  1.0  0.1068
  C  C545  1  0.986340  0.773900  0.600830  1.0  -0.192
  C  C546  1  0.938890  0.750100  0.633130  1.0  0.1624
  C  C547  1  0.971090  0.714560  0.430130  1.0  -0.2147
  C  C548  1  0.924290  0.693160  0.469430  1.0  0.1726
  C  C549  1  0.210430  0.773810  0.763830  1.0  0.0745
  C  C550  1  0.210330  0.791670  0.899030  1.0  -0.1009
  C  C551  1  0.222980  0.776300  0.021130  1.0  -0.1389
  C  C552  1  0.235460  0.742020  0.008530  1.0  -0.05
  C  C553  1  0.235960  0.723950  0.875130  1.0  -0.1359
  C  C554  1  0.223650  0.739720  0.752530  1.0  -0.1123
  C  C555  1  0.246600  0.725430  0.138830  1.0  0.3605
  C  C556  1  0.247480  0.889990  0.128830  1.0  0.1938
  C  C557  1  0.259510  0.918240  0.999530  1.0  -0.1703
  C  C558  1  0.219870  0.915070  0.949030  1.0  -0.1656
  C  C559  1  0.182700  0.884870  0.046030  1.0  0.1615
  C  C560  1  0.136080  0.875320  0.033330  1.0  -0.1274
  C  C561  1  0.101950  0.850070  0.136430  1.0  0.1909
  C  C562  1  0.053520  0.837640  0.122530  1.0  -0.1741
  C  C563  1  0.030650  0.811380  0.238430  1.0  -0.1785
  C  C564  1  0.064760  0.807660  0.325430  1.0  0.1856
  C  C565  1  0.279490  0.885220  0.214630  1.0  -0.1021
  C  C566  1  0.330340  0.910750  0.170030  1.0  0.1071
  C  C567  1  0.347000  0.892760  0.065830  1.0  -0.1924
  C  C568  1  0.394450  0.916560  0.033530  1.0  0.161
  C  C569  1  0.362250  0.952100  0.236530  1.0  -0.2145
  C  C570  1  0.409050  0.973500  0.197230  1.0  0.1736
  C  C571  1  0.122910  0.892850  0.902830  1.0  0.0741
  C  C572  1  0.123010  0.874990  0.767630  1.0  -0.1001
  C  C573  1  0.110360  0.890360  0.645530  1.0  -0.1401
  C  C574  1  0.097880  0.924640  0.658130  1.0  -0.0526
  C  C575  1  0.097380  0.942710  0.791530  1.0  -0.137
  C  C576  1  0.109690  0.926940  0.914130  1.0  -0.1149
  C  C577  1  0.086740  0.941230  0.527830  1.0  0.3583
  C  C578  1  0.752520  0.110010  0.871170  1.0  0.1927
  C  C579  1  0.740490  0.081760  0.000470  1.0  -0.1711
  C  C580  1  0.780130  0.084930  0.050970  1.0  -0.1649
  C  C581  1  0.817300  0.115130  0.953970  1.0  0.1618
  C  C582  1  0.863920  0.124680  0.966670  1.0  -0.1275
  C  C583  1  0.898050  0.149930  0.863570  1.0  0.1916
  C  C584  1  0.946480  0.162360  0.877470  1.0  -0.1747
  C  C585  1  0.969350  0.188620  0.761570  1.0  -0.1782
  C  C586  1  0.935240  0.192340  0.674570  1.0  0.1863
  C  C587  1  0.720510  0.114780  0.785370  1.0  -0.1029
  C  C588  1  0.669660  0.089250  0.829970  1.0  0.107
  C  C589  1  0.653000  0.107240  0.934170  1.0  -0.192
  C  C590  1  0.605550  0.083440  0.966470  1.0  0.1624
  C  C591  1  0.637750  0.047900  0.763470  1.0  -0.2147
  C  C592  1  0.590950  0.026500  0.802770  1.0  0.1738
  C  C593  1  0.877090  0.107150  0.097170  1.0  0.0745
  C  C594  1  0.876990  0.125010  0.232370  1.0  -0.1009
  C  C595  1  0.889640  0.109640  0.354470  1.0  -0.1389
  C  C596  1  0.902120  0.075360  0.341870  1.0  -0.05
  C  C597  1  0.902620  0.057290  0.208470  1.0  -0.1359
  C  C598  1  0.890310  0.073060  0.085870  1.0  -0.1123
  C  C599  1  0.913260  0.058770  0.472170  1.0  0.3605
  C  C600  1  0.914140  0.223330  0.462170  1.0  0.1938
  C  C601  1  0.926170  0.251580  0.332870  1.0  -0.1704
  C  C602  1  0.886530  0.248410  0.282370  1.0  -0.1656
  C  C603  1  0.849360  0.218210  0.379370  1.0  0.161
  C  C604  1  0.802740  0.208660  0.366670  1.0  -0.1274
  C  C605  1  0.768610  0.183410  0.469770  1.0  0.1909
  C  C606  1  0.720180  0.170980  0.455870  1.0  -0.1741
  C  C607  1  0.697310  0.144720  0.571770  1.0  -0.1785
  C  C608  1  0.731420  0.141000  0.658770  1.0  0.1856
  C  C609  1  0.946150  0.218560  0.547970  1.0  -0.1021
  C  C610  1  0.997000  0.244090  0.503370  1.0  0.1071
  C  C611  1  0.013660  0.226100  0.399170  1.0  -0.1924
  C  C612  1  0.061110  0.249900  0.366870  1.0  0.1609
  C  C613  1  0.028910  0.285440  0.569870  1.0  -0.2145
  C  C614  1  0.075710  0.306840  0.530570  1.0  0.1725
  C  C615  1  0.789570  0.226190  0.236170  1.0  0.0741
  C  C616  1  0.789670  0.208330  0.100970  1.0  -0.1001
  C  C617  1  0.777020  0.223700  0.978870  1.0  -0.1402
  C  C618  1  0.764540  0.257980  0.991470  1.0  -0.0526
  C  C619  1  0.764040  0.276050  0.124870  1.0  -0.137
  C  C620  1  0.776350  0.260280  0.247470  1.0  -0.1149
  C  C621  1  0.753400  0.274570  0.861170  1.0  0.3583
  N  N622  1  0.535920  0.002740  0.177800  1.0  -0.3622
  N  N623  1  0.498610  0.056650  0.070600  1.0  -0.3402
  N  N624  1  0.623040  0.864200  0.235700  1.0  -0.3319
  N  N625  1  0.620300  0.208100  0.909800  1.0  -0.3929
  N  N626  1  0.464080  0.997260  0.822200  1.0  -0.3613
  N  N627  1  0.501390  0.943350  0.929400  1.0  -0.3418
  N  N628  1  0.376960  0.135800  0.764300  1.0  -0.3316
  N  N629  1  0.379700  0.791900  0.090200  1.0  -0.3962
  N  N630  1  0.202590  0.336070  0.511130  1.0  -0.3622
  N  N631  1  0.165280  0.389980  0.403930  1.0  -0.3393
  N  N632  1  0.289710  0.197530  0.569030  1.0  -0.3318
  N  N633  1  0.286970  0.541430  0.243130  1.0  -0.3929
  N  N634  1  0.130750  0.330590  0.155530  1.0  -0.3613
  N  N635  1  0.168060  0.276680  0.262730  1.0  -0.3414
  N  N636  1  0.043630  0.469130  0.097630  1.0  -0.3316
  N  N637  1  0.046370  0.125230  0.423530  1.0  -0.3911
  N  N638  1  0.869250  0.669410  0.844470  1.0  -0.3622
  N  N639  1  0.831940  0.723320  0.737270  1.0  -0.3397
  N  N640  1  0.956370  0.530870  0.902370  1.0  -0.3319
  N  N641  1  0.953630  0.874770  0.576470  1.0  -0.3904
  N  N642  1  0.797410  0.663930  0.488870  1.0  -0.3613
  N  N643  1  0.834720  0.610020  0.596070  1.0  -0.3411
  N  N644  1  0.710290  0.802470  0.430970  1.0  -0.3314
  N  N645  1  0.713030  0.458570  0.756870  1.0  -0.3962
  N  N646  1  0.997260  0.533180  0.177800  1.0  -0.3623
  N  N647  1  0.943350  0.441960  0.070600  1.0  -0.3409
  N  N648  1  0.135800  0.758840  0.235700  1.0  -0.3308
  N  N649  1  0.791900  0.412200  0.909800  1.0  -0.3849
  N  N650  1  0.002740  0.466820  0.822200  1.0  -0.36
  N  N651  1  0.056650  0.558040  0.929400  1.0  -0.3408
  N  N652  1  0.864200  0.241160  0.764300  1.0  -0.3309
  N  N653  1  0.208100  0.587800  0.090200  1.0  -0.3867
  N  N654  1  0.663930  0.866510  0.511130  1.0  -0.3623
  N  N655  1  0.610020  0.775290  0.403930  1.0  -0.3422
  N  N656  1  0.802470  0.092170  0.569030  1.0  -0.3314
  N  N657  1  0.458570  0.745530  0.243130  1.0  -0.3849
  N  N658  1  0.669410  0.800150  0.155530  1.0  -0.36
  N  N659  1  0.723320  0.891370  0.262730  1.0  -0.3412
  N  N660  1  0.530870  0.574490  0.097630  1.0  -0.3309
  N  N661  1  0.874770  0.921130  0.423530  1.0  -0.3952
  N  N662  1  0.330590  0.199850  0.844470  1.0  -0.3623
  N  N663  1  0.276680  0.108630  0.737270  1.0  -0.3414
  N  N664  1  0.469130  0.425510  0.902370  1.0  -0.3308
  N  N665  1  0.125230  0.078870  0.576470  1.0  -0.3929
  N  N666  1  0.336070  0.133490  0.488870  1.0  -0.36
  N  N667  1  0.389980  0.224710  0.596070  1.0  -0.3421
  N  N668  1  0.197530  0.907830  0.430970  1.0  -0.3314
  N  N669  1  0.541430  0.254470  0.756870  1.0  -0.3867
  N  N670  1  0.466820  0.464080  0.177800  1.0  -0.3616
  N  N671  1  0.558040  0.501390  0.070600  1.0  -0.3435
  N  N672  1  0.241160  0.376960  0.235700  1.0  -0.3321
  N  N673  1  0.587800  0.379700  0.909800  1.0  -0.3916
  N  N674  1  0.533180  0.535920  0.822200  1.0  -0.3608
  N  N675  1  0.441960  0.498610  0.929400  1.0  -0.343
  N  N676  1  0.758840  0.623040  0.764300  1.0  -0.332
  N  N677  1  0.412200  0.620300  0.090200  1.0  -0.3904
  N  N678  1  0.133490  0.797410  0.511130  1.0  -0.3616
  N  N679  1  0.224710  0.834720  0.403930  1.0  -0.3425
  N  N680  1  0.907830  0.710290  0.569030  1.0  -0.3322
  N  N681  1  0.254470  0.713030  0.243130  1.0  -0.3916
  N  N682  1  0.199850  0.869250  0.155530  1.0  -0.3608
  N  N683  1  0.108630  0.831940  0.262730  1.0  -0.3429
  N  N684  1  0.425510  0.956370  0.097630  1.0  -0.332
  N  N685  1  0.078870  0.953630  0.423530  1.0  -0.3857
  N  N686  1  0.800150  0.130750  0.844470  1.0  -0.3616
  N  N687  1  0.891370  0.168060  0.737270  1.0  -0.3434
  N  N688  1  0.574490  0.043630  0.902370  1.0  -0.3321
  N  N689  1  0.921130  0.046370  0.576470  1.0  -0.3874
  N  N690  1  0.866510  0.202590  0.488870  1.0  -0.3607
  N  N691  1  0.775290  0.165280  0.596070  1.0  -0.3422
  N  N692  1  0.092170  0.289710  0.430970  1.0  -0.3321
  N  N693  1  0.745530  0.286970  0.756870  1.0  -0.3904
