# generated using pymatgen
data_Cu7H27C42I4(NO3)4
_symmetry_space_group_name_H-M   'P 1'
_cell_length_a   27.53800000
_cell_length_b   27.53800000
_cell_length_c   20.13900000
_cell_angle_alpha   90.00000000
_cell_angle_beta   90.00000000
_cell_angle_gamma   120.00000000
_symmetry_Int_Tables_number   1
_chemical_formula_structural   Cu7H27C42I4(NO3)4
_chemical_formula_sum   'Cu28 H108 C168 I16 N16 O48'
_cell_volume   13226.14637571
_cell_formula_units_Z   4
loop_
 _symmetry_equiv_pos_site_id
 _symmetry_equiv_pos_as_xyz
  1  'x, y, z'
loop_
 _atom_site_type_symbol
 _atom_site_label
 _atom_site_symmetry_multiplicity
 _atom_site_fract_x
 _atom_site_fract_y
 _atom_site_fract_z
 _atom_site_occupancy
 _atom_site_charge
  Cu  Cu1  1  0.287770  0.605240  0.474760  1.0  0.1324
  Cu  Cu2  1  0.394760  0.682530  0.474760  1.0  0.1325
  Cu  Cu3  1  0.317470  0.712230  0.474760  1.0  0.132
  Cu  Cu4  1  0.712230  0.394760  0.974760  1.0  0.1313
  Cu  Cu5  1  0.605240  0.317470  0.974760  1.0  0.1337
  Cu  Cu6  1  0.682530  0.287770  0.974760  1.0  0.132
  Cu  Cu7  1  0.712230  0.394760  0.525240  1.0  0.1311
  Cu  Cu8  1  0.605240  0.317470  0.525240  1.0  0.1332
  Cu  Cu9  1  0.682530  0.287770  0.525240  1.0  0.1316
  Cu  Cu10  1  0.287770  0.605240  0.025240  1.0  0.132
  Cu  Cu11  1  0.394760  0.682530  0.025240  1.0  0.1319
  Cu  Cu12  1  0.317470  0.712230  0.025240  1.0  0.1315
  Cu  Cu13  1  0.333333  0.666667  0.582580  1.0  0.0709
  Cu  Cu14  1  0.666667  0.333333  0.082580  1.0  0.0709
  Cu  Cu15  1  0.666667  0.333333  0.417420  1.0  0.0717
  Cu  Cu16  1  0.333333  0.666667  0.917420  1.0  0.0717
  Cu  Cu17  1  0.234430  0.332870  0.250000  1.0  0.8755
  Cu  Cu18  1  0.328810  0.431170  0.250000  1.0  0.9092
  Cu  Cu19  1  0.667130  0.901560  0.250000  1.0  0.8703
  Cu  Cu20  1  0.568830  0.897640  0.250000  1.0  0.9097
  Cu  Cu21  1  0.098440  0.765570  0.250000  1.0  0.8739
  Cu  Cu22  1  0.102360  0.671190  0.250000  1.0  0.9115
  Cu  Cu23  1  0.765570  0.667130  0.750000  1.0  0.8743
  Cu  Cu24  1  0.671190  0.568830  0.750000  1.0  0.9117
  Cu  Cu25  1  0.332870  0.098440  0.750000  1.0  0.8698
  Cu  Cu26  1  0.431170  0.102360  0.750000  1.0  0.9105
  Cu  Cu27  1  0.901560  0.234430  0.750000  1.0  0.8744
  Cu  Cu28  1  0.897640  0.328810  0.750000  1.0  0.9111
  H  H29  1  0.283600  0.519900  0.378100  1.0  0.0972
  H  H30  1  0.152500  0.369600  0.420000  1.0  0.1233
  H  H31  1  0.181500  0.507200  0.518800  1.0  0.0844
  H  H32  1  0.112000  0.331500  0.527100  1.0  0.1216
  H  H33  1  0.037100  0.286100  0.601400  1.0  0.1051
  H  H34  1  0.013600  0.418200  0.598900  1.0  0.1133
  H  H35  1  0.086800  0.462200  0.524500  1.0  0.1131
  H  H36  1  0.415200  0.724100  0.695500  1.0  0.0685
  H  H37  1  0.403800  0.662200  0.695500  1.0  0.0642
  H  H38  1  0.480100  0.763700  0.378100  1.0  0.098
  H  H39  1  0.630400  0.782900  0.420000  1.0  0.123
  H  H40  1  0.492800  0.674300  0.518800  1.0  0.084
  H  H41  1  0.668500  0.780500  0.527100  1.0  0.1212
  H  H42  1  0.713900  0.751000  0.601400  1.0  0.1063
  H  H43  1  0.581800  0.595400  0.598900  1.0  0.1128
  H  H44  1  0.537800  0.624600  0.524500  1.0  0.1131
  H  H45  1  0.275900  0.691100  0.695500  1.0  0.0651
  H  H46  1  0.337800  0.741600  0.695500  1.0  0.0684
  H  H47  1  0.236300  0.716400  0.378100  1.0  0.0966
  H  H48  1  0.217100  0.847500  0.420000  1.0  0.123
  H  H49  1  0.325700  0.818500  0.518800  1.0  0.0835
  H  H50  1  0.219500  0.888000  0.527100  1.0  0.1213
  H  H51  1  0.249000  0.962900  0.601400  1.0  0.1061
  H  H52  1  0.404600  0.986400  0.598900  1.0  0.1139
  H  H53  1  0.375400  0.913200  0.524500  1.0  0.1123
  H  H54  1  0.308900  0.584800  0.695500  1.0  0.067
  H  H55  1  0.258400  0.596200  0.695500  1.0  0.0658
  H  H56  1  0.716400  0.480100  0.878100  1.0  0.0967
  H  H57  1  0.847500  0.630400  0.920000  1.0  0.1216
  H  H58  1  0.818500  0.492800  0.018800  1.0  0.084
  H  H59  1  0.888000  0.668500  0.027100  1.0  0.1219
  H  H60  1  0.962900  0.713900  0.101400  1.0  0.1053
  H  H61  1  0.986400  0.581800  0.098900  1.0  0.1136
  H  H62  1  0.913200  0.537800  0.024500  1.0  0.1127
  H  H63  1  0.584800  0.275900  0.195500  1.0  0.0648
  H  H64  1  0.596200  0.337800  0.195500  1.0  0.0654
  H  H65  1  0.519900  0.236300  0.878100  1.0  0.0976
  H  H66  1  0.369600  0.217100  0.920000  1.0  0.1232
  H  H67  1  0.507200  0.325700  0.018800  1.0  0.0834
  H  H68  1  0.331500  0.219500  0.027100  1.0  0.1205
  H  H69  1  0.286100  0.249000  0.101400  1.0  0.1051
  H  H70  1  0.418200  0.404600  0.098900  1.0  0.1127
  H  H71  1  0.462200  0.375400  0.024500  1.0  0.113
  H  H72  1  0.724100  0.308900  0.195500  1.0  0.0634
  H  H73  1  0.662200  0.258400  0.195500  1.0  0.0672
  H  H74  1  0.763700  0.283600  0.878100  1.0  0.0967
  H  H75  1  0.782900  0.152500  0.920000  1.0  0.1218
  H  H76  1  0.674300  0.181500  0.018800  1.0  0.084
  H  H77  1  0.780500  0.112000  0.027100  1.0  0.1217
  H  H78  1  0.751000  0.037100  0.101400  1.0  0.1057
  H  H79  1  0.595400  0.013600  0.098900  1.0  0.1135
  H  H80  1  0.624600  0.086800  0.024500  1.0  0.1121
  H  H81  1  0.691100  0.415200  0.195500  1.0  0.0679
  H  H82  1  0.741600  0.403800  0.195500  1.0  0.0652
  H  H83  1  0.716400  0.480100  0.621900  1.0  0.0976
  H  H84  1  0.847500  0.630400  0.580000  1.0  0.1223
  H  H85  1  0.818500  0.492800  0.481200  1.0  0.0836
  H  H86  1  0.888000  0.668500  0.472900  1.0  0.1215
  H  H87  1  0.962900  0.713900  0.398600  1.0  0.1056
  H  H88  1  0.986400  0.581800  0.401100  1.0  0.1136
  H  H89  1  0.913200  0.537800  0.475500  1.0  0.1123
  H  H90  1  0.584800  0.275900  0.304500  1.0  0.0635
  H  H91  1  0.596200  0.337800  0.304500  1.0  0.064
  H  H92  1  0.519900  0.236300  0.621900  1.0  0.0985
  H  H93  1  0.369600  0.217100  0.580000  1.0  0.1234
  H  H94  1  0.507200  0.325700  0.481200  1.0  0.0831
  H  H95  1  0.331500  0.219500  0.472900  1.0  0.1201
  H  H96  1  0.286100  0.249000  0.398600  1.0  0.1061
  H  H97  1  0.418200  0.404600  0.401100  1.0  0.1129
  H  H98  1  0.462200  0.375400  0.475500  1.0  0.1127
  H  H99  1  0.724100  0.308900  0.304500  1.0  0.0612
  H  H100  1  0.662200  0.258400  0.304500  1.0  0.0663
  H  H101  1  0.763700  0.283600  0.621900  1.0  0.0974
  H  H102  1  0.782900  0.152500  0.580000  1.0  0.1228
  H  H103  1  0.674300  0.181500  0.481200  1.0  0.0833
  H  H104  1  0.780500  0.112000  0.472900  1.0  0.1215
  H  H105  1  0.751000  0.037100  0.398600  1.0  0.1062
  H  H106  1  0.595400  0.013600  0.401100  1.0  0.1136
  H  H107  1  0.624600  0.086800  0.475500  1.0  0.1119
  H  H108  1  0.691100  0.415200  0.304500  1.0  0.0661
  H  H109  1  0.741600  0.403800  0.304500  1.0  0.0642
  H  H110  1  0.283600  0.519900  0.121900  1.0  0.098
  H  H111  1  0.152500  0.369600  0.080000  1.0  0.1233
  H  H112  1  0.181500  0.507200  0.981200  1.0  0.0839
  H  H113  1  0.112000  0.331500  0.972900  1.0  0.1215
  H  H114  1  0.037100  0.286100  0.898600  1.0  0.1056
  H  H115  1  0.013600  0.418200  0.901100  1.0  0.1137
  H  H116  1  0.086800  0.462200  0.975500  1.0  0.1129
  H  H117  1  0.415200  0.724100  0.804500  1.0  0.0656
  H  H118  1  0.403800  0.662200  0.804500  1.0  0.0619
  H  H119  1  0.480100  0.763700  0.121900  1.0  0.0986
  H  H120  1  0.630400  0.782900  0.080000  1.0  0.1229
  H  H121  1  0.492800  0.674300  0.981200  1.0  0.0835
  H  H122  1  0.668500  0.780500  0.972900  1.0  0.121
  H  H123  1  0.713900  0.751000  0.898600  1.0  0.1063
  H  H124  1  0.581800  0.595400  0.901100  1.0  0.113
  H  H125  1  0.537800  0.624600  0.975500  1.0  0.1129
  H  H126  1  0.275900  0.691100  0.804500  1.0  0.0626
  H  H127  1  0.337800  0.741600  0.804500  1.0  0.0673
  H  H128  1  0.236300  0.716400  0.121900  1.0  0.0975
  H  H129  1  0.217100  0.847500  0.080000  1.0  0.1227
  H  H130  1  0.325700  0.818500  0.981200  1.0  0.0833
  H  H131  1  0.219500  0.888000  0.972900  1.0  0.1211
  H  H132  1  0.249000  0.962900  0.898600  1.0  0.1066
  H  H133  1  0.404600  0.986400  0.901100  1.0  0.1142
  H  H134  1  0.375400  0.913200  0.975500  1.0  0.1115
  H  H135  1  0.308900  0.584800  0.804500  1.0  0.0663
  H  H136  1  0.258400  0.596200  0.804500  1.0  0.0648
  C  C137  1  0.251500  0.498100  0.403200  1.0  0.1898
  C  C138  1  0.220800  0.441000  0.390000  1.0  -0.2114
  C  C139  1  0.173700  0.408000  0.427500  1.0  -0.0536
  C  C140  1  0.158500  0.433300  0.477000  1.0  0.0129
  C  C141  1  0.191700  0.490500  0.485700  1.0  0.1767
  C  C142  1  0.242300  0.417800  0.338400  1.0  0.7176
  C  C143  1  0.107900  0.402300  0.520300  1.0  0.0553
  C  C144  1  0.092900  0.349300  0.542000  1.0  -0.1141
  C  C145  1  0.047900  0.322300  0.587100  1.0  -0.044
  C  C146  1  0.019600  0.348800  0.610800  1.0  -0.1357
  C  C147  1  0.033600  0.400800  0.585800  1.0  -0.0713
  C  C148  1  0.077600  0.427100  0.541000  1.0  -0.1612
  C  C149  1  0.973600  0.321400  0.662400  1.0  0.706
  C  C150  1  0.390100  0.686400  0.711500  1.0  -0.0245
  C  C151  1  0.501900  0.753400  0.403200  1.0  0.1907
  C  C152  1  0.559000  0.779800  0.390000  1.0  -0.2108
  C  C153  1  0.592000  0.765700  0.427500  1.0  -0.0575
  C  C154  1  0.566700  0.725200  0.477000  1.0  0.0129
  C  C155  1  0.509500  0.701200  0.485700  1.0  0.178
  C  C156  1  0.582200  0.824500  0.338400  1.0  0.718
  C  C157  1  0.597700  0.705600  0.520300  1.0  0.0553
  C  C158  1  0.650700  0.743600  0.542000  1.0  -0.1123
  C  C159  1  0.677700  0.725600  0.587100  1.0  -0.0426
  C  C160  1  0.651200  0.670800  0.610800  1.0  -0.1372
  C  C161  1  0.599200  0.632800  0.585800  1.0  -0.07
  C  C162  1  0.572900  0.650500  0.541000  1.0  -0.1623
  C  C163  1  0.678600  0.652200  0.662400  1.0  0.7061
  C  C164  1  0.313600  0.703700  0.711500  1.0  -0.0253
  C  C165  1  0.246600  0.748500  0.403200  1.0  0.1906
  C  C166  1  0.220200  0.779200  0.390000  1.0  -0.2118
  C  C167  1  0.234300  0.826300  0.427500  1.0  -0.0578
  C  C168  1  0.274800  0.841500  0.477000  1.0  0.0133
  C  C169  1  0.298800  0.808300  0.485700  1.0  0.1779
  C  C170  1  0.175500  0.757700  0.338400  1.0  0.7177
  C  C171  1  0.294400  0.892100  0.520300  1.0  0.0556
  C  C172  1  0.256400  0.907100  0.542000  1.0  -0.1112
  C  C173  1  0.274400  0.952100  0.587100  1.0  -0.0382
  C  C174  1  0.329200  0.980400  0.610800  1.0  -0.1353
  C  C175  1  0.367200  0.966400  0.585800  1.0  -0.0698
  C  C176  1  0.349500  0.922400  0.541000  1.0  -0.1597
  C  C177  1  0.347800  0.026400  0.662400  1.0  0.706
  C  C178  1  0.296300  0.609900  0.711500  1.0  -0.0256
  C  C179  1  0.748500  0.501900  0.903200  1.0  0.1899
  C  C180  1  0.779200  0.559000  0.890000  1.0  -0.2113
  C  C181  1  0.826300  0.592000  0.927500  1.0  -0.056
  C  C182  1  0.841500  0.566700  0.977000  1.0  0.0134
  C  C183  1  0.808300  0.509500  0.985700  1.0  0.1767
  C  C184  1  0.757700  0.582200  0.838400  1.0  0.7172
  C  C185  1  0.892100  0.597700  0.020300  1.0  0.0553
  C  C186  1  0.907100  0.650700  0.042000  1.0  -0.1154
  C  C187  1  0.952100  0.677700  0.087100  1.0  -0.0436
  C  C188  1  0.980400  0.651200  0.110800  1.0  -0.136
  C  C189  1  0.966400  0.599200  0.085800  1.0  -0.0699
  C  C190  1  0.922400  0.572900  0.041000  1.0  -0.16
  C  C191  1  0.026400  0.678600  0.162400  1.0  0.7051
  C  C192  1  0.609900  0.313600  0.211500  1.0  -0.0257
  C  C193  1  0.498100  0.246600  0.903200  1.0  0.1911
  C  C194  1  0.441000  0.220200  0.890000  1.0  -0.2114
  C  C195  1  0.408000  0.234300  0.927500  1.0  -0.0587
  C  C196  1  0.433300  0.274800  0.977000  1.0  0.0133
  C  C197  1  0.490500  0.298800  0.985700  1.0  0.178
  C  C198  1  0.417800  0.175500  0.838400  1.0  0.7179
  C  C199  1  0.402300  0.294400  0.020300  1.0  0.0554
  C  C200  1  0.349300  0.256400  0.042000  1.0  -0.1123
  C  C201  1  0.322300  0.274400  0.087100  1.0  -0.0431
  C  C202  1  0.348800  0.329200  0.110800  1.0  -0.1367
  C  C203  1  0.400800  0.367200  0.085800  1.0  -0.0714
  C  C204  1  0.427100  0.349500  0.041000  1.0  -0.1623
  C  C205  1  0.321400  0.347800  0.162400  1.0  0.7058
  C  C206  1  0.686400  0.296300  0.211500  1.0  -0.0233
  C  C207  1  0.753400  0.251500  0.903200  1.0  0.1917
  C  C208  1  0.779800  0.220800  0.890000  1.0  -0.211
  C  C209  1  0.765700  0.173700  0.927500  1.0  -0.0574
  C  C210  1  0.725200  0.158500  0.977000  1.0  0.0134
  C  C211  1  0.701200  0.191700  0.985700  1.0  0.1768
  C  C212  1  0.824500  0.242300  0.838400  1.0  0.7173
  C  C213  1  0.705600  0.107900  0.020300  1.0  0.0562
  C  C214  1  0.743600  0.092900  0.042000  1.0  -0.1093
  C  C215  1  0.725600  0.047900  0.087100  1.0  -0.0378
  C  C216  1  0.670800  0.019600  0.110800  1.0  -0.1345
  C  C217  1  0.632800  0.033600  0.085800  1.0  -0.0706
  C  C218  1  0.650500  0.077600  0.041000  1.0  -0.1608
  C  C219  1  0.652200  0.973600  0.162400  1.0  0.7063
  C  C220  1  0.703700  0.390100  0.211500  1.0  -0.0271
  C  C221  1  0.748500  0.501900  0.596800  1.0  0.1909
  C  C222  1  0.779200  0.559000  0.610000  1.0  -0.2112
  C  C223  1  0.826300  0.592000  0.572500  1.0  -0.0563
  C  C224  1  0.841500  0.566700  0.523000  1.0  0.0135
  C  C225  1  0.808300  0.509500  0.514300  1.0  0.1758
  C  C226  1  0.757700  0.582200  0.661600  1.0  0.7176
  C  C227  1  0.892100  0.597700  0.479700  1.0  0.0552
  C  C228  1  0.907100  0.650700  0.458000  1.0  -0.1149
  C  C229  1  0.952100  0.677700  0.412900  1.0  -0.0445
  C  C230  1  0.980400  0.651200  0.389200  1.0  -0.1358
  C  C231  1  0.966400  0.599200  0.414200  1.0  -0.0704
  C  C232  1  0.922400  0.572900  0.459000  1.0  -0.1599
  C  C233  1  0.026400  0.678600  0.337600  1.0  0.7051
  C  C234  1  0.609900  0.313600  0.288500  1.0  -0.0247
  C  C235  1  0.498100  0.246600  0.596800  1.0  0.1916
  C  C236  1  0.441000  0.220200  0.610000  1.0  -0.2109
  C  C237  1  0.408000  0.234300  0.572500  1.0  -0.0584
  C  C238  1  0.433300  0.274800  0.523000  1.0  0.0134
  C  C239  1  0.490500  0.298800  0.514300  1.0  0.1775
  C  C240  1  0.417800  0.175500  0.661600  1.0  0.7185
  C  C241  1  0.402300  0.294400  0.479700  1.0  0.0554
  C  C242  1  0.349300  0.256400  0.458000  1.0  -0.112
  C  C243  1  0.322300  0.274400  0.412900  1.0  -0.0436
  C  C244  1  0.348800  0.329200  0.389200  1.0  -0.1367
  C  C245  1  0.400800  0.367200  0.414200  1.0  -0.0716
  C  C246  1  0.427100  0.349500  0.459000  1.0  -0.1628
  C  C247  1  0.321400  0.347800  0.337600  1.0  0.7059
  C  C248  1  0.686400  0.296300  0.288500  1.0  -0.0228
  C  C249  1  0.753400  0.251500  0.596800  1.0  0.1915
  C  C250  1  0.779800  0.220800  0.610000  1.0  -0.2107
  C  C251  1  0.765700  0.173700  0.572500  1.0  -0.0573
  C  C252  1  0.725200  0.158500  0.523000  1.0  0.0135
  C  C253  1  0.701200  0.191700  0.514300  1.0  0.176
  C  C254  1  0.824500  0.242300  0.661600  1.0  0.7177
  C  C255  1  0.705600  0.107900  0.479700  1.0  0.0561
  C  C256  1  0.743600  0.092900  0.458000  1.0  -0.1086
  C  C257  1  0.725600  0.047900  0.412900  1.0  -0.039
  C  C258  1  0.670800  0.019600  0.389200  1.0  -0.135
  C  C259  1  0.632800  0.033600  0.414200  1.0  -0.0705
  C  C260  1  0.650500  0.077600  0.459000  1.0  -0.161
  C  C261  1  0.652200  0.973600  0.337600  1.0  0.706
  C  C262  1  0.703700  0.390100  0.288500  1.0  -0.026
  C  C263  1  0.251500  0.498100  0.096800  1.0  0.1902
  C  C264  1  0.220800  0.441000  0.110000  1.0  -0.2109
  C  C265  1  0.173700  0.408000  0.072500  1.0  -0.0539
  C  C266  1  0.158500  0.433300  0.023000  1.0  0.013
  C  C267  1  0.191700  0.490500  0.014300  1.0  0.1767
  C  C268  1  0.242300  0.417800  0.161600  1.0  0.718
  C  C269  1  0.107900  0.402300  0.979700  1.0  0.0552
  C  C270  1  0.092900  0.349300  0.958000  1.0  -0.1137
  C  C271  1  0.047900  0.322300  0.912900  1.0  -0.044
  C  C272  1  0.019600  0.348800  0.889200  1.0  -0.1363
  C  C273  1  0.033600  0.400800  0.914200  1.0  -0.0711
  C  C274  1  0.077600  0.427100  0.959000  1.0  -0.1617
  C  C275  1  0.973600  0.321400  0.837600  1.0  0.7058
  C  C276  1  0.390100  0.686400  0.788500  1.0  -0.024
  C  C277  1  0.501900  0.753400  0.096800  1.0  0.1914
  C  C278  1  0.559000  0.779800  0.110000  1.0  -0.2106
  C  C279  1  0.592000  0.765700  0.072500  1.0  -0.0578
  C  C280  1  0.566700  0.725200  0.023000  1.0  0.0131
  C  C281  1  0.509500  0.701200  0.014300  1.0  0.1771
  C  C282  1  0.582200  0.824500  0.161600  1.0  0.7184
  C  C283  1  0.597700  0.705600  0.979700  1.0  0.0552
  C  C284  1  0.650700  0.743600  0.958000  1.0  -0.1118
  C  C285  1  0.677700  0.725600  0.912900  1.0  -0.0433
  C  C286  1  0.651200  0.670800  0.889200  1.0  -0.1373
  C  C287  1  0.599200  0.632800  0.914200  1.0  -0.0694
  C  C288  1  0.572900  0.650500  0.959000  1.0  -0.1623
  C  C289  1  0.678600  0.652200  0.837600  1.0  0.7061
  C  C290  1  0.313600  0.703700  0.788500  1.0  -0.0257
  C  C291  1  0.246600  0.748500  0.096800  1.0  0.1919
  C  C292  1  0.220200  0.779200  0.110000  1.0  -0.2115
  C  C293  1  0.234300  0.826300  0.072500  1.0  -0.0579
  C  C294  1  0.274800  0.841500  0.023000  1.0  0.0134
  C  C295  1  0.298800  0.808300  0.014300  1.0  0.1769
  C  C296  1  0.175500  0.757700  0.161600  1.0  0.7182
  C  C297  1  0.294400  0.892100  0.979700  1.0  0.0556
  C  C298  1  0.256400  0.907100  0.958000  1.0  -0.111
  C  C299  1  0.274400  0.952100  0.912900  1.0  -0.0387
  C  C300  1  0.329200  0.980400  0.889200  1.0  -0.1352
  C  C301  1  0.367200  0.966400  0.914200  1.0  -0.0705
  C  C302  1  0.349500  0.922400  0.959000  1.0  -0.1596
  C  C303  1  0.347800  0.026400  0.837600  1.0  0.7059
  C  C304  1  0.296300  0.609900  0.788500  1.0  -0.0253
  I  I305  1  0.226720  0.634200  0.549310  1.0  -0.2293
  I  I306  1  0.365800  0.592520  0.549310  1.0  -0.2324
  I  I307  1  0.407480  0.773280  0.549310  1.0  -0.2302
  I  I308  1  0.773280  0.365800  0.049310  1.0  -0.2299
  I  I309  1  0.634200  0.407480  0.049310  1.0  -0.231
  I  I310  1  0.592520  0.226720  0.049310  1.0  -0.2322
  I  I311  1  0.773280  0.365800  0.450690  1.0  -0.2301
  I  I312  1  0.634200  0.407480  0.450690  1.0  -0.2313
  I  I313  1  0.592520  0.226720  0.450690  1.0  -0.2326
  I  I314  1  0.226720  0.634200  0.950690  1.0  -0.2296
  I  I315  1  0.365800  0.592520  0.950690  1.0  -0.2326
  I  I316  1  0.407480  0.773280  0.950690  1.0  -0.2305
  I  I317  1  0.333333  0.666667  0.364960  1.0  -0.1968
  I  I318  1  0.666667  0.333333  0.864960  1.0  -0.1968
  I  I319  1  0.666667  0.333333  0.635040  1.0  -0.1962
  I  I320  1  0.333333  0.666667  0.135040  1.0  -0.1962
  N  N321  1  0.237690  0.523870  0.450100  1.0  -0.3399
  N  N322  1  0.476130  0.713820  0.450100  1.0  -0.3453
  N  N323  1  0.286180  0.762310  0.450100  1.0  -0.3475
  N  N324  1  0.762310  0.476130  0.950100  1.0  -0.3381
  N  N325  1  0.523870  0.286180  0.950100  1.0  -0.3491
  N  N326  1  0.713820  0.237690  0.950100  1.0  -0.3449
  N  N327  1  0.762310  0.476130  0.549900  1.0  -0.3376
  N  N328  1  0.523870  0.286180  0.549900  1.0  -0.3491
  N  N329  1  0.713820  0.237690  0.549900  1.0  -0.3447
  N  N330  1  0.237690  0.523870  0.049900  1.0  -0.3396
  N  N331  1  0.476130  0.713820  0.049900  1.0  -0.345
  N  N332  1  0.286180  0.762310  0.049900  1.0  -0.3476
  N  N333  1  0.333333  0.666667  0.685400  1.0  -0.1466
  N  N334  1  0.666667  0.333333  0.185400  1.0  -0.1466
  N  N335  1  0.666667  0.333333  0.314600  1.0  -0.1477
  N  N336  1  0.333333  0.666667  0.814600  1.0  -0.1477
  O  O337  1  0.211370  0.368870  0.319830  1.0  -0.5724
  O  O338  1  0.291030  0.451320  0.317590  1.0  -0.5779
  O  O339  1  0.959080  0.272290  0.680970  1.0  -0.5738
  O  O340  1  0.954580  0.351250  0.682290  1.0  -0.5681
  O  O341  1  0.631130  0.842500  0.319830  1.0  -0.5722
  O  O342  1  0.548680  0.839710  0.317590  1.0  -0.5789
  O  O343  1  0.727710  0.686790  0.680970  1.0  -0.5719
  O  O344  1  0.648750  0.603330  0.682290  1.0  -0.5684
  O  O345  1  0.157500  0.788630  0.319830  1.0  -0.5713
  O  O346  1  0.160290  0.708970  0.317590  1.0  -0.5783
  O  O347  1  0.313210  0.040920  0.680970  1.0  -0.5731
  O  O348  1  0.396670  0.045420  0.682290  1.0  -0.5678
  O  O349  1  0.788630  0.631130  0.819830  1.0  -0.5725
  O  O350  1  0.708970  0.548680  0.817590  1.0  -0.578
  O  O351  1  0.040920  0.727710  0.180970  1.0  -0.5733
  O  O352  1  0.045420  0.648750  0.182290  1.0  -0.5684
  O  O353  1  0.368870  0.157500  0.819830  1.0  -0.5735
  O  O354  1  0.451320  0.160290  0.817590  1.0  -0.5778
  O  O355  1  0.272290  0.313210  0.180970  1.0  -0.5723
  O  O356  1  0.351250  0.396670  0.182290  1.0  -0.5673
  O  O357  1  0.842500  0.211370  0.819830  1.0  -0.5732
  O  O358  1  0.839710  0.291030  0.817590  1.0  -0.5777
  O  O359  1  0.686790  0.959080  0.180970  1.0  -0.5717
  O  O360  1  0.603330  0.954580  0.182290  1.0  -0.567
  O  O361  1  0.788630  0.631130  0.680170  1.0  -0.5715
  O  O362  1  0.708970  0.548680  0.682410  1.0  -0.578
  O  O363  1  0.040920  0.727710  0.319030  1.0  -0.5738
  O  O364  1  0.045420  0.648750  0.317710  1.0  -0.5687
  O  O365  1  0.368870  0.157500  0.680170  1.0  -0.5726
  O  O366  1  0.451320  0.160290  0.682410  1.0  -0.5782
  O  O367  1  0.272290  0.313210  0.319030  1.0  -0.5725
  O  O368  1  0.351250  0.396670  0.317710  1.0  -0.5675
  O  O369  1  0.842500  0.211370  0.680170  1.0  -0.5723
  O  O370  1  0.839710  0.291030  0.682410  1.0  -0.5778
  O  O371  1  0.686790  0.959080  0.319030  1.0  -0.572
  O  O372  1  0.603330  0.954580  0.317710  1.0  -0.5674
  O  O373  1  0.211370  0.368870  0.180170  1.0  -0.5733
  O  O374  1  0.291030  0.451320  0.182410  1.0  -0.5779
  O  O375  1  0.959080  0.272290  0.819030  1.0  -0.574
  O  O376  1  0.954580  0.351250  0.817710  1.0  -0.5681
  O  O377  1  0.631130  0.842500  0.180170  1.0  -0.5725
  O  O378  1  0.548680  0.839710  0.182410  1.0  -0.5785
  O  O379  1  0.727710  0.686790  0.819030  1.0  -0.5727
  O  O380  1  0.648750  0.603330  0.817710  1.0  -0.5685
  O  O381  1  0.157500  0.788630  0.180170  1.0  -0.5718
  O  O382  1  0.160290  0.708970  0.182410  1.0  -0.5782
  O  O383  1  0.313210  0.040920  0.819030  1.0  -0.5735
  O  O384  1  0.396670  0.045420  0.817710  1.0  -0.5677
