# generated using pymatgen
data_Cu2H3C7INO4
_symmetry_space_group_name_H-M   'P 1'
_cell_length_a   19.20900000
_cell_length_b   19.20900000
_cell_length_c   10.99100000
_cell_angle_alpha   90.00000000
_cell_angle_beta   90.00000000
_cell_angle_gamma   90.00000000
_symmetry_Int_Tables_number   1
_chemical_formula_structural   Cu2H3C7INO4
_chemical_formula_sum   'Cu16 H24 C56 I8 N8 O32'
_cell_volume   4055.52161987
_cell_formula_units_Z   8
loop_
 _symmetry_equiv_pos_site_id
 _symmetry_equiv_pos_as_xyz
  1  'x, y, z'
loop_
 _atom_site_type_symbol
 _atom_site_label
 _atom_site_symmetry_multiplicity
 _atom_site_fract_x
 _atom_site_fract_y
 _atom_site_fract_z
 _atom_site_occupancy
 _atom_site_charge
  Cu  Cu1  1  0.181230  0.750000  0.413810  1.0  0.1264
  Cu  Cu2  1  0.318770  0.750000  0.413810  1.0  0.1266
  Cu  Cu3  1  0.750000  0.181230  0.413810  1.0  0.1271
  Cu  Cu4  1  0.750000  0.318770  0.413810  1.0  0.1262
  Cu  Cu5  1  0.818770  0.250000  0.586190  1.0  0.1264
  Cu  Cu6  1  0.681230  0.250000  0.586190  1.0  0.1262
  Cu  Cu7  1  0.250000  0.681230  0.586190  1.0  0.1268
  Cu  Cu8  1  0.250000  0.818770  0.586190  1.0  0.126
  Cu  Cu9  1  0.030680  0.469320  0.094880  1.0  0.9084
  Cu  Cu10  1  0.469320  0.030680  0.094880  1.0  0.9077
  Cu  Cu11  1  0.030680  0.030680  0.094880  1.0  0.9085
  Cu  Cu12  1  0.469320  0.469320  0.094880  1.0  0.9081
  Cu  Cu13  1  0.969320  0.969320  0.905120  1.0  0.9089
  Cu  Cu14  1  0.530680  0.530680  0.905120  1.0  0.9083
  Cu  Cu15  1  0.969320  0.530680  0.905120  1.0  0.9092
  Cu  Cu16  1  0.530680  0.969320  0.905120  1.0  0.9079
  H  H17  1  0.094100  0.649000  0.275200  1.0  0.1109
  H  H18  1  0.405900  0.851000  0.275200  1.0  0.1111
  H  H19  1  0.851000  0.094100  0.275200  1.0  0.1113
  H  H20  1  0.649000  0.405900  0.275200  1.0  0.1112
  H  H21  1  0.905900  0.149000  0.724800  1.0  0.1109
  H  H22  1  0.594100  0.351000  0.724800  1.0  0.1111
  H  H23  1  0.149000  0.594100  0.724800  1.0  0.1114
  H  H24  1  0.351000  0.905900  0.724800  1.0  0.1108
  H  H25  1  0.905900  0.351000  0.724800  1.0  0.111
  H  H26  1  0.594100  0.149000  0.724800  1.0  0.1111
  H  H27  1  0.149000  0.905900  0.724800  1.0  0.111
  H  H28  1  0.351000  0.594100  0.724800  1.0  0.1114
  H  H29  1  0.094100  0.851000  0.275200  1.0  0.111
  H  H30  1  0.405900  0.649000  0.275200  1.0  0.111
  H  H31  1  0.851000  0.405900  0.275200  1.0  0.111
  H  H32  1  0.649000  0.094100  0.275200  1.0  0.1115
  H  H33  1  0.982200  0.750000  0.026400  1.0  0.1392
  H  H34  1  0.517800  0.750000  0.026400  1.0  0.1389
  H  H35  1  0.750000  0.982200  0.026400  1.0  0.1398
  H  H36  1  0.750000  0.517800  0.026400  1.0  0.1401
  H  H37  1  0.017800  0.250000  0.973600  1.0  0.139
  H  H38  1  0.482200  0.250000  0.973600  1.0  0.1392
  H  H39  1  0.250000  0.482200  0.973600  1.0  0.1399
  H  H40  1  0.250000  0.017800  0.973600  1.0  0.14
  C  C41  1  0.079230  0.690780  0.241200  1.0  0.2004
  C  C42  1  0.033990  0.688170  0.143800  1.0  -0.2135
  C  C43  1  0.015470  0.618660  0.091200  1.0  0.6822
  C  C44  1  0.420770  0.809220  0.241200  1.0  0.1994
  C  C45  1  0.466010  0.811830  0.143800  1.0  -0.2138
  C  C46  1  0.484530  0.881340  0.091200  1.0  0.6827
  C  C47  1  0.809220  0.079230  0.241200  1.0  0.197
  C  C48  1  0.811830  0.033990  0.143800  1.0  -0.2129
  C  C49  1  0.881340  0.015470  0.091200  1.0  0.6814
  C  C50  1  0.690780  0.420770  0.241200  1.0  0.1973
  C  C51  1  0.688170  0.466010  0.143800  1.0  -0.2126
  C  C52  1  0.618660  0.484530  0.091200  1.0  0.6817
  C  C53  1  0.920770  0.190780  0.758800  1.0  0.1994
  C  C54  1  0.966010  0.188170  0.856200  1.0  -0.2118
  C  C55  1  0.984530  0.118660  0.908800  1.0  0.6822
  C  C56  1  0.579230  0.309220  0.758800  1.0  0.1985
  C  C57  1  0.533990  0.311830  0.856200  1.0  -0.2133
  C  C58  1  0.515470  0.381340  0.908800  1.0  0.6822
  C  C59  1  0.190780  0.579230  0.758800  1.0  0.196
  C  C60  1  0.188170  0.533990  0.856200  1.0  -0.2123
  C  C61  1  0.118660  0.515470  0.908800  1.0  0.6813
  C  C62  1  0.309220  0.920770  0.758800  1.0  0.1962
  C  C63  1  0.311830  0.966010  0.856200  1.0  -0.2123
  C  C64  1  0.381340  0.984530  0.908800  1.0  0.6819
  C  C65  1  0.920770  0.309220  0.758800  1.0  0.1945
  C  C66  1  0.966010  0.311830  0.856200  1.0  -0.2132
  C  C67  1  0.984530  0.381340  0.908800  1.0  0.6827
  C  C68  1  0.579230  0.190780  0.758800  1.0  0.1945
  C  C69  1  0.533990  0.188170  0.856200  1.0  -0.2131
  C  C70  1  0.515470  0.118660  0.908800  1.0  0.682
  C  C71  1  0.190780  0.920770  0.758800  1.0  0.1922
  C  C72  1  0.188170  0.966010  0.856200  1.0  -0.2119
  C  C73  1  0.118660  0.984530  0.908800  1.0  0.6817
  C  C74  1  0.309220  0.579230  0.758800  1.0  0.1911
  C  C75  1  0.311830  0.533990  0.856200  1.0  -0.2124
  C  C76  1  0.381340  0.515470  0.908800  1.0  0.6813
  C  C77  1  0.079230  0.809220  0.241200  1.0  0.1949
  C  C78  1  0.033990  0.811830  0.143800  1.0  -0.214
  C  C79  1  0.015470  0.881340  0.091200  1.0  0.6823
  C  C80  1  0.420770  0.690780  0.241200  1.0  0.1952
  C  C81  1  0.466010  0.688170  0.143800  1.0  -0.212
  C  C82  1  0.484530  0.618660  0.091200  1.0  0.6824
  C  C83  1  0.809220  0.420770  0.241200  1.0  0.1933
  C  C84  1  0.811830  0.466010  0.143800  1.0  -0.2129
  C  C85  1  0.881340  0.484530  0.091200  1.0  0.6821
  C  C86  1  0.690780  0.079230  0.241200  1.0  0.1917
  C  C87  1  0.688170  0.033990  0.143800  1.0  -0.2128
  C  C88  1  0.618660  0.015470  0.091200  1.0  0.6813
  C  C89  1  0.011700  0.750000  0.093400  1.0  0.0372
  C  C90  1  0.488300  0.750000  0.093400  1.0  0.0375
  C  C91  1  0.750000  0.011700  0.093400  1.0  0.0366
  C  C92  1  0.750000  0.488300  0.093400  1.0  0.0368
  C  C93  1  0.988300  0.250000  0.906600  1.0  0.0371
  C  C94  1  0.511700  0.250000  0.906600  1.0  0.0371
  C  C95  1  0.250000  0.511700  0.906600  1.0  0.0371
  C  C96  1  0.250000  0.988300  0.906600  1.0  0.0361
  I  I97  1  0.129180  0.750000  0.636330  1.0  -0.2353
  I  I98  1  0.370820  0.750000  0.636330  1.0  -0.2364
  I  I99  1  0.750000  0.129180  0.636330  1.0  -0.2345
  I  I100  1  0.750000  0.370820  0.636330  1.0  -0.2354
  I  I101  1  0.870820  0.250000  0.363670  1.0  -0.2371
  I  I102  1  0.629180  0.250000  0.363670  1.0  -0.2358
  I  I103  1  0.250000  0.629180  0.363670  1.0  -0.235
  I  I104  1  0.250000  0.870820  0.363670  1.0  -0.2359
  N  N105  1  0.102800  0.750000  0.289300  1.0  -0.287
  N  N106  1  0.397200  0.750000  0.289300  1.0  -0.2862
  N  N107  1  0.750000  0.102800  0.289300  1.0  -0.2868
  N  N108  1  0.750000  0.397200  0.289300  1.0  -0.2857
  N  N109  1  0.897200  0.250000  0.710700  1.0  -0.2859
  N  N110  1  0.602800  0.250000  0.710700  1.0  -0.2869
  N  N111  1  0.250000  0.602800  0.710700  1.0  -0.2867
  N  N112  1  0.250000  0.897200  0.710700  1.0  -0.2866
  O  O113  1  0.035810  0.566360  0.149440  1.0  -0.5716
  O  O114  1  0.983470  0.618550  0.992300  1.0  -0.5485
  O  O115  1  0.464190  0.933640  0.149440  1.0  -0.5712
  O  O116  1  0.516530  0.881450  0.992300  1.0  -0.549
  O  O117  1  0.933640  0.035810  0.149440  1.0  -0.5709
  O  O118  1  0.881450  0.983470  0.992300  1.0  -0.5491
  O  O119  1  0.566360  0.464190  0.149440  1.0  -0.5707
  O  O120  1  0.618550  0.516530  0.992300  1.0  -0.5489
  O  O121  1  0.964190  0.066360  0.850560  1.0  -0.5719
  O  O122  1  0.016530  0.118550  0.007700  1.0  -0.5497
  O  O123  1  0.535810  0.433640  0.850560  1.0  -0.572
  O  O124  1  0.483470  0.381450  0.007700  1.0  -0.549
  O  O125  1  0.066360  0.535810  0.850560  1.0  -0.5713
  O  O126  1  0.118550  0.483470  0.007700  1.0  -0.5494
  O  O127  1  0.433640  0.964190  0.850560  1.0  -0.572
  O  O128  1  0.381450  0.016530  0.007700  1.0  -0.5495
  O  O129  1  0.964190  0.433640  0.850560  1.0  -0.5716
  O  O130  1  0.016530  0.381450  0.007700  1.0  -0.5494
  O  O131  1  0.535810  0.066360  0.850560  1.0  -0.572
  O  O132  1  0.483470  0.118550  0.007700  1.0  -0.5491
  O  O133  1  0.066360  0.964190  0.850560  1.0  -0.5714
  O  O134  1  0.118550  0.016530  0.007700  1.0  -0.5496
  O  O135  1  0.433640  0.535810  0.850560  1.0  -0.5719
  O  O136  1  0.381450  0.483470  0.007700  1.0  -0.5493
  O  O137  1  0.035810  0.933640  0.149440  1.0  -0.5715
  O  O138  1  0.983470  0.881450  0.992300  1.0  -0.5485
  O  O139  1  0.464190  0.566360  0.149440  1.0  -0.5713
  O  O140  1  0.516530  0.618550  0.992300  1.0  -0.5489
  O  O141  1  0.933640  0.464190  0.149440  1.0  -0.5713
  O  O142  1  0.881450  0.516530  0.992300  1.0  -0.549
  O  O143  1  0.566360  0.035810  0.149440  1.0  -0.5705
  O  O144  1  0.618550  0.983470  0.992300  1.0  -0.5486
