# generated using pymatgen
data_Cu7H21C39I4(NO4)3
_symmetry_space_group_name_H-M   'P 1'
_cell_length_a   28.13500000
_cell_length_b   28.13500000
_cell_length_c   19.20000000
_cell_angle_alpha   90.00000000
_cell_angle_beta   90.00000000
_cell_angle_gamma   120.00000000
_symmetry_Int_Tables_number   1
_chemical_formula_structural   Cu7H21C39I4(NO4)3
_chemical_formula_sum   'Cu28 H84 C156 I16 N12 O48'
_cell_volume   13162.11555711
_cell_formula_units_Z   4
loop_
 _symmetry_equiv_pos_site_id
 _symmetry_equiv_pos_as_xyz
  1  'x, y, z'
loop_
 _atom_site_type_symbol
 _atom_site_label
 _atom_site_symmetry_multiplicity
 _atom_site_fract_x
 _atom_site_fract_y
 _atom_site_fract_z
 _atom_site_occupancy
 _atom_site_charge
  Cu  Cu1  1  0.291460  0.686930  0.498090  1.0  0.1125
  Cu  Cu2  1  0.313070  0.604530  0.498090  1.0  0.1122
  Cu  Cu3  1  0.395470  0.708540  0.498090  1.0  0.1101
  Cu  Cu4  1  0.708540  0.313070  0.998090  1.0  0.1108
  Cu  Cu5  1  0.686930  0.395470  0.998090  1.0  0.1093
  Cu  Cu6  1  0.604530  0.291460  0.998090  1.0  0.1117
  Cu  Cu7  1  0.708540  0.313070  0.501910  1.0  0.1112
  Cu  Cu8  1  0.686930  0.395470  0.501910  1.0  0.1099
  Cu  Cu9  1  0.604530  0.291460  0.501910  1.0  0.1121
  Cu  Cu10  1  0.291460  0.686930  0.001910  1.0  0.1129
  Cu  Cu11  1  0.313070  0.604530  0.001910  1.0  0.1126
  Cu  Cu12  1  0.395470  0.708540  0.001910  1.0  0.1104
  Cu  Cu13  1  0.333333  0.666667  0.379550  1.0  0.2336
  Cu  Cu14  1  0.666667  0.333333  0.879550  1.0  0.2336
  Cu  Cu15  1  0.666667  0.333333  0.620450  1.0  0.2325
  Cu  Cu16  1  0.333333  0.666667  0.120450  1.0  0.2325
  Cu  Cu17  1  0.237970  0.894320  0.750000  1.0  0.8866
  Cu  Cu18  1  0.329950  0.890040  0.750000  1.0  0.9067
  Cu  Cu19  1  0.105680  0.343650  0.750000  1.0  0.8873
  Cu  Cu20  1  0.109960  0.439910  0.750000  1.0  0.9062
  Cu  Cu21  1  0.656350  0.762030  0.750000  1.0  0.8873
  Cu  Cu22  1  0.560090  0.670050  0.750000  1.0  0.9075
  Cu  Cu23  1  0.762030  0.105680  0.250000  1.0  0.888
  Cu  Cu24  1  0.670050  0.109960  0.250000  1.0  0.9059
  Cu  Cu25  1  0.894320  0.656350  0.250000  1.0  0.8879
  Cu  Cu26  1  0.890040  0.560090  0.250000  1.0  0.9074
  Cu  Cu27  1  0.343650  0.237970  0.250000  1.0  0.8877
  Cu  Cu28  1  0.439910  0.329950  0.250000  1.0  0.9071
  H  H29  1  0.288400  0.762100  0.607000  1.0  0.1033
  H  H30  1  0.155200  0.777100  0.574200  1.0  0.1105
  H  H31  1  0.184500  0.679600  0.456400  1.0  0.1074
  H  H32  1  0.106800  0.772400  0.467600  1.0  0.1097
  H  H33  1  0.030500  0.740400  0.396100  1.0  0.1058
  H  H34  1  0.012700  0.592600  0.395300  1.0  0.1017
  H  H35  1  0.091600  0.623200  0.460900  1.0  0.1132
  H  H36  1  0.237900  0.526300  0.607000  1.0  0.1034
  H  H37  1  0.222900  0.378100  0.574200  1.0  0.1103
  H  H38  1  0.320400  0.504900  0.456400  1.0  0.1075
  H  H39  1  0.227600  0.334400  0.467600  1.0  0.1105
  H  H40  1  0.259600  0.290100  0.396100  1.0  0.1055
  H  H41  1  0.407400  0.420100  0.395300  1.0  0.1031
  H  H42  1  0.376800  0.468400  0.460900  1.0  0.1126
  H  H43  1  0.473700  0.711600  0.607000  1.0  0.1031
  H  H44  1  0.621900  0.844800  0.574200  1.0  0.1102
  H  H45  1  0.495100  0.815500  0.456400  1.0  0.1071
  H  H46  1  0.665600  0.893200  0.467600  1.0  0.1106
  H  H47  1  0.709900  0.969500  0.396100  1.0  0.1056
  H  H48  1  0.579900  0.987300  0.395300  1.0  0.1022
  H  H49  1  0.531600  0.908400  0.460900  1.0  0.1123
  H  H50  1  0.711600  0.237900  0.107000  1.0  0.1035
  H  H51  1  0.844800  0.222900  0.074200  1.0  0.1102
  H  H52  1  0.815500  0.320400  0.956400  1.0  0.1075
  H  H53  1  0.893200  0.227600  0.967600  1.0  0.1098
  H  H54  1  0.969500  0.259600  0.896100  1.0  0.1051
  H  H55  1  0.987300  0.407400  0.895300  1.0  0.1017
  H  H56  1  0.908400  0.376800  0.960900  1.0  0.1133
  H  H57  1  0.762100  0.473700  0.107000  1.0  0.1031
  H  H58  1  0.777100  0.621900  0.074200  1.0  0.1092
  H  H59  1  0.679600  0.495100  0.956400  1.0  0.1074
  H  H60  1  0.772400  0.665600  0.967600  1.0  0.1111
  H  H61  1  0.740400  0.709900  0.896100  1.0  0.1055
  H  H62  1  0.592600  0.579900  0.895300  1.0  0.1025
  H  H63  1  0.623200  0.531600  0.960900  1.0  0.1127
  H  H64  1  0.526300  0.288400  0.107000  1.0  0.1037
  H  H65  1  0.378100  0.155200  0.074200  1.0  0.1103
  H  H66  1  0.504900  0.184500  0.956400  1.0  0.1072
  H  H67  1  0.334400  0.106800  0.967600  1.0  0.1104
  H  H68  1  0.290100  0.030500  0.896100  1.0  0.1053
  H  H69  1  0.420100  0.012700  0.895300  1.0  0.1023
  H  H70  1  0.468400  0.091600  0.960900  1.0  0.1126
  H  H71  1  0.711600  0.237900  0.393000  1.0  0.1025
  H  H72  1  0.844800  0.222900  0.425800  1.0  0.1103
  H  H73  1  0.815500  0.320400  0.543600  1.0  0.1076
  H  H74  1  0.893200  0.227600  0.532400  1.0  0.1102
  H  H75  1  0.969500  0.259600  0.603900  1.0  0.1049
  H  H76  1  0.987300  0.407400  0.604700  1.0  0.1012
  H  H77  1  0.908400  0.376800  0.539100  1.0  0.1135
  H  H78  1  0.762100  0.473700  0.393000  1.0  0.1025
  H  H79  1  0.777100  0.621900  0.425800  1.0  0.109
  H  H80  1  0.679600  0.495100  0.543600  1.0  0.1076
  H  H81  1  0.772400  0.665600  0.532400  1.0  0.1116
  H  H82  1  0.740400  0.709900  0.603900  1.0  0.1058
  H  H83  1  0.592600  0.579900  0.604700  1.0  0.1019
  H  H84  1  0.623200  0.531600  0.539100  1.0  0.1127
  H  H85  1  0.526300  0.288400  0.393000  1.0  0.1031
  H  H86  1  0.378100  0.155200  0.425800  1.0  0.1103
  H  H87  1  0.504900  0.184500  0.543600  1.0  0.1069
  H  H88  1  0.334400  0.106800  0.532400  1.0  0.1108
  H  H89  1  0.290100  0.030500  0.603900  1.0  0.1052
  H  H90  1  0.420100  0.012700  0.604700  1.0  0.1018
  H  H91  1  0.468400  0.091600  0.539100  1.0  0.1127
  H  H92  1  0.288400  0.762100  0.893000  1.0  0.1026
  H  H93  1  0.155200  0.777100  0.925800  1.0  0.1101
  H  H94  1  0.184500  0.679600  0.043600  1.0  0.1074
  H  H95  1  0.106800  0.772400  0.032400  1.0  0.1102
  H  H96  1  0.030500  0.740400  0.103900  1.0  0.1055
  H  H97  1  0.012700  0.592600  0.104700  1.0  0.1014
  H  H98  1  0.091600  0.623200  0.039100  1.0  0.1132
  H  H99  1  0.237900  0.526300  0.893000  1.0  0.1027
  H  H100  1  0.222900  0.378100  0.925800  1.0  0.1104
  H  H101  1  0.320400  0.504900  0.043600  1.0  0.1074
  H  H102  1  0.227600  0.334400  0.032400  1.0  0.1109
  H  H103  1  0.259600  0.290100  0.103900  1.0  0.1051
  H  H104  1  0.407400  0.420100  0.104700  1.0  0.1025
  H  H105  1  0.376800  0.468400  0.039100  1.0  0.1128
  H  H106  1  0.473700  0.711600  0.893000  1.0  0.1021
  H  H107  1  0.621900  0.844800  0.925800  1.0  0.1102
  H  H108  1  0.495100  0.815500  0.043600  1.0  0.1072
  H  H109  1  0.665600  0.893200  0.032400  1.0  0.1111
  H  H110  1  0.709900  0.969500  0.103900  1.0  0.1051
  H  H111  1  0.579900  0.987300  0.104700  1.0  0.1018
  H  H112  1  0.531600  0.908400  0.039100  1.0  0.1125
  C  C113  1  0.256700  0.753000  0.581700  1.0  0.1813
  C  C114  1  0.226400  0.777800  0.599500  1.0  -0.1859
  C  C115  1  0.176500  0.761200  0.563800  1.0  -0.0599
  C  C116  1  0.160800  0.723000  0.515800  1.0  0.017
  C  C117  1  0.194600  0.702800  0.494800  1.0  0.1438
  C  C118  1  0.245600  0.820200  0.655800  1.0  0.6699
  C  C119  1  0.109000  0.702000  0.471600  1.0  0.0897
  C  C120  1  0.089200  0.736200  0.452200  1.0  -0.1437
  C  C121  1  0.042900  0.716700  0.409700  1.0  -0.0481
  C  C122  1  0.015300  0.663300  0.387700  1.0  -0.153
  C  C123  1  0.032500  0.629300  0.408200  1.0  -0.0261
  C  C124  1  0.079600  0.647500  0.448800  1.0  -0.1684
  C  C125  1  0.965700  0.642600  0.338400  1.0  0.6896
  C  C126  1  0.247000  0.503700  0.581700  1.0  0.1784
  C  C127  1  0.222200  0.448600  0.599500  1.0  -0.1871
  C  C128  1  0.238800  0.415300  0.563800  1.0  -0.0578
  C  C129  1  0.277000  0.437800  0.515800  1.0  0.0172
  C  C130  1  0.297200  0.491800  0.494800  1.0  0.1411
  C  C131  1  0.179800  0.425400  0.655800  1.0  0.6706
  C  C132  1  0.298000  0.407000  0.471600  1.0  0.0908
  C  C133  1  0.263800  0.353000  0.452200  1.0  -0.145
  C  C134  1  0.283300  0.326200  0.409700  1.0  -0.0477
  C  C135  1  0.336700  0.352000  0.387700  1.0  -0.1517
  C  C136  1  0.370700  0.403200  0.408200  1.0  -0.0248
  C  C137  1  0.352500  0.432100  0.448800  1.0  -0.1669
  C  C138  1  0.357400  0.323100  0.338400  1.0  0.6892
  C  C139  1  0.496300  0.743300  0.581700  1.0  0.1798
  C  C140  1  0.551400  0.773600  0.599500  1.0  -0.1861
  C  C141  1  0.584700  0.823500  0.563800  1.0  -0.0609
  C  C142  1  0.562200  0.839200  0.515800  1.0  0.0171
  C  C143  1  0.508200  0.805400  0.494800  1.0  0.1421
  C  C144  1  0.574600  0.754400  0.655800  1.0  0.6695
  C  C145  1  0.593000  0.891000  0.471600  1.0  0.0912
  C  C146  1  0.647000  0.910800  0.452200  1.0  -0.1404
  C  C147  1  0.673800  0.957100  0.409700  1.0  -0.0427
  C  C148  1  0.648000  0.984700  0.387700  1.0  -0.1516
  C  C149  1  0.596800  0.967500  0.408200  1.0  -0.0221
  C  C150  1  0.567900  0.920400  0.448800  1.0  -0.1663
  C  C151  1  0.676900  0.034300  0.338400  1.0  0.6896
  C  C152  1  0.743300  0.247000  0.081700  1.0  0.1808
  C  C153  1  0.773600  0.222200  0.099500  1.0  -0.1861
  C  C154  1  0.823500  0.238800  0.063800  1.0  -0.0603
  C  C155  1  0.839200  0.277000  0.015800  1.0  0.0174
  C  C156  1  0.805400  0.297200  0.994800  1.0  0.1426
  C  C157  1  0.754400  0.179800  0.155800  1.0  0.6701
  C  C158  1  0.891000  0.298000  0.971600  1.0  0.0901
  C  C159  1  0.910800  0.263800  0.952200  1.0  -0.1434
  C  C160  1  0.957100  0.283300  0.909700  1.0  -0.0478
  C  C161  1  0.984700  0.336700  0.887700  1.0  -0.1513
  C  C162  1  0.967500  0.370700  0.908200  1.0  -0.0267
  C  C163  1  0.920400  0.352500  0.948800  1.0  -0.1691
  C  C164  1  0.034300  0.357400  0.838400  1.0  0.6898
  C  C165  1  0.753000  0.496300  0.081700  1.0  0.1802
  C  C166  1  0.777800  0.551400  0.099500  1.0  -0.1864
  C  C167  1  0.761200  0.584700  0.063800  1.0  -0.061
  C  C168  1  0.723000  0.562200  0.015800  1.0  0.017
  C  C169  1  0.702800  0.508200  0.994800  1.0  0.1418
  C  C170  1  0.820200  0.574600  0.155800  1.0  0.6701
  C  C171  1  0.702000  0.593000  0.971600  1.0  0.0903
  C  C172  1  0.736200  0.647000  0.952200  1.0  -0.1443
  C  C173  1  0.716700  0.673800  0.909700  1.0  -0.0482
  C  C174  1  0.663300  0.648000  0.887700  1.0  -0.1516
  C  C175  1  0.629300  0.596800  0.908200  1.0  -0.0233
  C  C176  1  0.647500  0.567900  0.948800  1.0  -0.1668
  C  C177  1  0.642600  0.676900  0.838400  1.0  0.6896
  C  C178  1  0.503700  0.256700  0.081700  1.0  0.1802
  C  C179  1  0.448600  0.226400  0.099500  1.0  -0.1869
  C  C180  1  0.415300  0.176500  0.063800  1.0  -0.059
  C  C181  1  0.437800  0.160800  0.015800  1.0  0.0169
  C  C182  1  0.491800  0.194600  0.994800  1.0  0.1427
  C  C183  1  0.425400  0.245600  0.155800  1.0  0.6695
  C  C184  1  0.407000  0.109000  0.971600  1.0  0.091
  C  C185  1  0.353000  0.089200  0.952200  1.0  -0.1412
  C  C186  1  0.326200  0.042900  0.909700  1.0  -0.0429
  C  C187  1  0.352000  0.015300  0.887700  1.0  -0.1523
  C  C188  1  0.403200  0.032500  0.908200  1.0  -0.0238
  C  C189  1  0.432100  0.079600  0.948800  1.0  -0.1664
  C  C190  1  0.323100  0.965700  0.838400  1.0  0.6897
  C  C191  1  0.743300  0.247000  0.418300  1.0  0.1807
  C  C192  1  0.773600  0.222200  0.400500  1.0  -0.1867
  C  C193  1  0.823500  0.238800  0.436200  1.0  -0.0592
  C  C194  1  0.839200  0.277000  0.484200  1.0  0.0178
  C  C195  1  0.805400  0.297200  0.505200  1.0  0.1425
  C  C196  1  0.754400  0.179800  0.344200  1.0  0.6698
  C  C197  1  0.891000  0.298000  0.528400  1.0  0.0904
  C  C198  1  0.910800  0.263800  0.547800  1.0  -0.1429
  C  C199  1  0.957100  0.283300  0.590300  1.0  -0.0478
  C  C200  1  0.984700  0.336700  0.612300  1.0  -0.1514
  C  C201  1  0.967500  0.370700  0.591800  1.0  -0.0262
  C  C202  1  0.920400  0.352500  0.551200  1.0  -0.1696
  C  C203  1  0.034300  0.357400  0.661600  1.0  0.6897
  C  C204  1  0.753000  0.496300  0.418300  1.0  0.1795
  C  C205  1  0.777800  0.551400  0.400500  1.0  -0.1864
  C  C206  1  0.761200  0.584700  0.436200  1.0  -0.0599
  C  C207  1  0.723000  0.562200  0.484200  1.0  0.0173
  C  C208  1  0.702800  0.508200  0.505200  1.0  0.1425
  C  C209  1  0.820200  0.574600  0.344200  1.0  0.6701
  C  C210  1  0.702000  0.593000  0.528400  1.0  0.0907
  C  C211  1  0.736200  0.647000  0.547800  1.0  -0.1441
  C  C212  1  0.716700  0.673800  0.590300  1.0  -0.0479
  C  C213  1  0.663300  0.648000  0.612300  1.0  -0.1514
  C  C214  1  0.629300  0.596800  0.591800  1.0  -0.0229
  C  C215  1  0.647500  0.567900  0.551200  1.0  -0.167
  C  C216  1  0.642600  0.676900  0.661600  1.0  0.6893
  C  C217  1  0.503700  0.256700  0.418300  1.0  0.1801
  C  C218  1  0.448600  0.226400  0.400500  1.0  -0.1871
  C  C219  1  0.415300  0.176500  0.436200  1.0  -0.0583
  C  C220  1  0.437800  0.160800  0.484200  1.0  0.0172
  C  C221  1  0.491800  0.194600  0.505200  1.0  0.1429
  C  C222  1  0.425400  0.245600  0.344200  1.0  0.6692
  C  C223  1  0.407000  0.109000  0.528400  1.0  0.0915
  C  C224  1  0.353000  0.089200  0.547800  1.0  -0.1408
  C  C225  1  0.326200  0.042900  0.590300  1.0  -0.0428
  C  C226  1  0.352000  0.015300  0.612300  1.0  -0.1519
  C  C227  1  0.403200  0.032500  0.591800  1.0  -0.0228
  C  C228  1  0.432100  0.079600  0.551200  1.0  -0.1669
  C  C229  1  0.323100  0.965700  0.661600  1.0  0.6898
  C  C230  1  0.256700  0.753000  0.918300  1.0  0.1805
  C  C231  1  0.226400  0.777800  0.900500  1.0  -0.1858
  C  C232  1  0.176500  0.761200  0.936200  1.0  -0.0589
  C  C233  1  0.160800  0.723000  0.984200  1.0  0.0174
  C  C234  1  0.194600  0.702800  0.005200  1.0  0.1443
  C  C235  1  0.245600  0.820200  0.844200  1.0  0.6697
  C  C236  1  0.109000  0.702000  0.028400  1.0  0.0902
  C  C237  1  0.089200  0.736200  0.047800  1.0  -0.1441
  C  C238  1  0.042900  0.716700  0.090300  1.0  -0.0478
  C  C239  1  0.015300  0.663300  0.112300  1.0  -0.1525
  C  C240  1  0.032500  0.629300  0.091800  1.0  -0.026
  C  C241  1  0.079600  0.647500  0.051200  1.0  -0.1687
  C  C242  1  0.965700  0.642600  0.161600  1.0  0.6892
  C  C243  1  0.247000  0.503700  0.918300  1.0  0.1784
  C  C244  1  0.222200  0.448600  0.900500  1.0  -0.1876
  C  C245  1  0.238800  0.415300  0.936200  1.0  -0.0572
  C  C246  1  0.277000  0.437800  0.984200  1.0  0.0175
  C  C247  1  0.297200  0.491800  0.005200  1.0  0.141
  C  C248  1  0.179800  0.425400  0.844200  1.0  0.6703
  C  C249  1  0.298000  0.407000  0.028400  1.0  0.0912
  C  C250  1  0.263800  0.353000  0.047800  1.0  -0.1449
  C  C251  1  0.283300  0.326200  0.090300  1.0  -0.0481
  C  C252  1  0.336700  0.352000  0.112300  1.0  -0.1514
  C  C253  1  0.370700  0.403200  0.091800  1.0  -0.0241
  C  C254  1  0.352500  0.432100  0.051200  1.0  -0.1673
  C  C255  1  0.357400  0.323100  0.161600  1.0  0.6892
  C  C256  1  0.496300  0.743300  0.918300  1.0  0.1793
  C  C257  1  0.551400  0.773600  0.900500  1.0  -0.1863
  C  C258  1  0.584700  0.823500  0.936200  1.0  -0.0597
  C  C259  1  0.562200  0.839200  0.984200  1.0  0.0174
  C  C260  1  0.508200  0.805400  0.005200  1.0  0.1427
  C  C261  1  0.574600  0.754400  0.844200  1.0  0.6692
  C  C262  1  0.593000  0.891000  0.028400  1.0  0.0915
  C  C263  1  0.647000  0.910800  0.047800  1.0  -0.1409
  C  C264  1  0.673800  0.957100  0.090300  1.0  -0.0411
  C  C265  1  0.648000  0.984700  0.112300  1.0  -0.1516
  C  C266  1  0.596800  0.967500  0.091800  1.0  -0.0216
  C  C267  1  0.567900  0.920400  0.051200  1.0  -0.1666
  C  C268  1  0.676900  0.034300  0.161600  1.0  0.6894
  I  I269  1  0.228530  0.597480  0.423810  1.0  -0.2568
  I  I270  1  0.402520  0.631050  0.423810  1.0  -0.2583
  I  I271  1  0.368950  0.771470  0.423810  1.0  -0.2572
  I  I272  1  0.771470  0.402520  0.923810  1.0  -0.2587
  I  I273  1  0.597480  0.368950  0.923810  1.0  -0.2562
  I  I274  1  0.631050  0.228530  0.923810  1.0  -0.2589
  I  I275  1  0.771470  0.402520  0.576190  1.0  -0.2584
  I  I276  1  0.597480  0.368950  0.576190  1.0  -0.2559
  I  I277  1  0.631050  0.228530  0.576190  1.0  -0.2587
  I  I278  1  0.228530  0.597480  0.076190  1.0  -0.2568
  I  I279  1  0.402520  0.631050  0.076190  1.0  -0.2571
  I  I280  1  0.368950  0.771470  0.076190  1.0  -0.2573
  I  I281  1  0.333333  0.666667  0.612590  1.0  -0.1826
  I  I282  1  0.666667  0.333333  0.112590  1.0  -0.1826
  I  I283  1  0.666667  0.333333  0.387410  1.0  -0.1831
  I  I284  1  0.333333  0.666667  0.887410  1.0  -0.1831
  N  N285  1  0.242300  0.716000  0.529000  1.0  -0.2928
  N  N286  1  0.284000  0.526300  0.529000  1.0  -0.2891
  N  N287  1  0.473700  0.757700  0.529000  1.0  -0.292
  N  N288  1  0.757700  0.284000  0.029000  1.0  -0.2918
  N  N289  1  0.716000  0.473700  0.029000  1.0  -0.2876
  N  N290  1  0.526300  0.242300  0.029000  1.0  -0.2928
  N  N291  1  0.757700  0.284000  0.471000  1.0  -0.2922
  N  N292  1  0.716000  0.473700  0.471000  1.0  -0.288
  N  N293  1  0.526300  0.242300  0.471000  1.0  -0.2932
  N  N294  1  0.242300  0.716000  0.971000  1.0  -0.2931
  N  N295  1  0.284000  0.526300  0.971000  1.0  -0.2892
  N  N296  1  0.473700  0.757700  0.971000  1.0  -0.2922
  O  O297  1  0.215100  0.836500  0.676000  1.0  -0.5457
  O  O298  1  0.294200  0.834200  0.679100  1.0  -0.576
  O  O299  1  0.951800  0.677000  0.320400  1.0  -0.5603
  O  O300  1  0.946900  0.594400  0.319700  1.0  -0.5553
  O  O301  1  0.163500  0.378600  0.676000  1.0  -0.5465
  O  O302  1  0.165800  0.460000  0.679100  1.0  -0.5779
  O  O303  1  0.323000  0.274800  0.320400  1.0  -0.5612
  O  O304  1  0.405600  0.352500  0.319700  1.0  -0.5564
  O  O305  1  0.621400  0.784900  0.676000  1.0  -0.5454
  O  O306  1  0.540000  0.705800  0.679100  1.0  -0.5776
  O  O307  1  0.725200  0.048200  0.320400  1.0  -0.5601
  O  O308  1  0.647500  0.053100  0.319700  1.0  -0.5554
  O  O309  1  0.784900  0.163500  0.176000  1.0  -0.5456
  O  O310  1  0.705800  0.165800  0.179100  1.0  -0.5767
  O  O311  1  0.048200  0.323000  0.820400  1.0  -0.5607
  O  O312  1  0.053100  0.405600  0.819700  1.0  -0.5547
  O  O313  1  0.836500  0.621400  0.176000  1.0  -0.5463
  O  O314  1  0.834200  0.540000  0.179100  1.0  -0.5782
  O  O315  1  0.677000  0.725200  0.820400  1.0  -0.5586
  O  O316  1  0.594400  0.647500  0.819700  1.0  -0.5562
  O  O317  1  0.378600  0.215100  0.176000  1.0  -0.5461
  O  O318  1  0.460000  0.294200  0.179100  1.0  -0.577
  O  O319  1  0.274800  0.951800  0.820400  1.0  -0.5605
  O  O320  1  0.352500  0.946900  0.819700  1.0  -0.5553
  O  O321  1  0.784900  0.163500  0.324000  1.0  -0.5451
  O  O322  1  0.705800  0.165800  0.320900  1.0  -0.5767
  O  O323  1  0.048200  0.323000  0.679600  1.0  -0.5611
  O  O324  1  0.053100  0.405600  0.680300  1.0  -0.5546
  O  O325  1  0.836500  0.621400  0.324000  1.0  -0.5462
  O  O326  1  0.834200  0.540000  0.320900  1.0  -0.5781
  O  O327  1  0.677000  0.725200  0.679600  1.0  -0.559
  O  O328  1  0.594400  0.647500  0.680300  1.0  -0.5561
  O  O329  1  0.378600  0.215100  0.324000  1.0  -0.5458
  O  O330  1  0.460000  0.294200  0.320900  1.0  -0.5768
  O  O331  1  0.274800  0.951800  0.679600  1.0  -0.5606
  O  O332  1  0.352500  0.946900  0.680300  1.0  -0.5552
  O  O333  1  0.215100  0.836500  0.824000  1.0  -0.5457
  O  O334  1  0.294200  0.834200  0.820900  1.0  -0.576
  O  O335  1  0.951800  0.677000  0.179600  1.0  -0.5604
  O  O336  1  0.946900  0.594400  0.180300  1.0  -0.5553
  O  O337  1  0.163500  0.378600  0.824000  1.0  -0.5461
  O  O338  1  0.165800  0.460000  0.820900  1.0  -0.5782
  O  O339  1  0.323000  0.274800  0.179600  1.0  -0.5616
  O  O340  1  0.405600  0.352500  0.180300  1.0  -0.5562
  O  O341  1  0.621400  0.784900  0.824000  1.0  -0.5456
  O  O342  1  0.540000  0.705800  0.820900  1.0  -0.5778
  O  O343  1  0.725200  0.048200  0.179600  1.0  -0.5607
  O  O344  1  0.647500  0.053100  0.180300  1.0  -0.5552
