# generated using pymatgen
data_Tb3H25C52N9O20
_symmetry_space_group_name_H-M   'P 1'
_cell_length_a   15.11730000
_cell_length_b   16.74830000
_cell_length_c   16.91010000
_cell_angle_alpha   110.56600000
_cell_angle_beta   90.03000000
_cell_angle_gamma   100.93300000
_symmetry_Int_Tables_number   1
_chemical_formula_structural   Tb3H25C52N9O20
_chemical_formula_sum   'Tb6 H50 C104 N18 O40'
_cell_volume   3925.31627119
_cell_formula_units_Z   2
loop_
 _symmetry_equiv_pos_site_id
 _symmetry_equiv_pos_as_xyz
  1  'x, y, z'
loop_
 _atom_site_type_symbol
 _atom_site_label
 _atom_site_symmetry_multiplicity
 _atom_site_fract_x
 _atom_site_fract_y
 _atom_site_fract_z
 _atom_site_occupancy
 _atom_site_charge
  Tb  Tb1  1  0.561990  0.123570  0.528120  1.0  2.2321
  Tb  Tb2  1  0.522000  0.365740  0.647430  1.0  2.2339
  Tb  Tb3  1  0.453510  0.471180  0.882330  1.0  2.2158
  Tb  Tb4  1  0.438010  0.876430  0.471880  1.0  2.2347
  Tb  Tb5  1  0.478000  0.634260  0.352570  1.0  2.2354
  Tb  Tb6  1  0.546490  0.528820  0.117670  1.0  2.2147
  H  H7  1  0.034000  0.969900  0.588600  1.0  0.295
  H  H8  1  0.579800  0.208600  0.063100  1.0  0.2962
  H  H9  1  0.051800  0.586500  0.978500  1.0  0.2822
  H  H10  1  0.794900  0.750400  0.466700  1.0  0.1056
  H  H11  1  0.919600  0.858000  0.533300  1.0  0.1211
  H  H12  1  0.756000  0.018200  0.660000  1.0  0.1137
  H  H13  1  0.629700  0.908700  0.593000  1.0  0.0962
  H  H14  1  0.174000  0.002400  0.583900  1.0  0.1213
  H  H15  1  0.411600  0.175300  0.665000  1.0  0.116
  H  H16  1  0.175000  0.248100  0.746200  1.0  0.1098
  H  H17  1  0.634100  0.179900  0.313300  1.0  0.1183
  H  H18  1  0.599900  0.321900  0.168700  1.0  0.1046
  H  H19  1  0.579400  0.420900  0.422100  1.0  0.1046
  H  H20  1  0.587100  0.937400  0.890300  1.0  0.1155
  H  H21  1  0.543500  0.904300  0.748900  1.0  0.1129
  H  H22  1  0.562300  0.159900  0.793300  1.0  0.0868
  H  H23  1  0.584500  0.189800  0.937100  1.0  0.1084
  H  H24  1  0.839100  0.487900  0.756800  1.0  0.1195
  H  H25  1  0.955800  0.548800  0.864000  1.0  0.1138
  H  H26  1  0.781900  0.662700  0.029700  1.0  0.1038
  H  H27  1  0.664100  0.599100  0.922300  1.0  0.1012
  H  H28  1  0.190800  0.587600  0.007900  1.0  0.1139
  H  H29  1  0.405600  0.664100  0.179500  1.0  0.1063
  H  H30  1  0.170700  0.746200  0.249000  1.0  0.1067
  H  H31  1  0.441100  0.266800  0.977200  1.0  0.0275
  H  H32  1  0.966000  0.030100  0.411400  1.0  0.2928
  H  H33  1  0.420200  0.791400  0.936900  1.0  0.2953
  H  H34  1  0.948200  0.413500  0.021500  1.0  0.2823
  H  H35  1  0.205100  0.249600  0.533300  1.0  0.1056
  H  H36  1  0.080400  0.142000  0.466700  1.0  0.1218
  H  H37  1  0.244000  0.981800  0.340000  1.0  0.1137
  H  H38  1  0.370300  0.091300  0.407000  1.0  0.0959
  H  H39  1  0.826000  0.997600  0.416100  1.0  0.1199
  H  H40  1  0.588400  0.824700  0.335000  1.0  0.116
  H  H41  1  0.825000  0.751900  0.253800  1.0  0.1101
  H  H42  1  0.365900  0.820100  0.686700  1.0  0.1199
  H  H43  1  0.400100  0.678100  0.831300  1.0  0.1065
  H  H44  1  0.420600  0.579100  0.577900  1.0  0.1038
  H  H45  1  0.412900  0.062600  0.109700  1.0  0.117
  H  H46  1  0.456500  0.095700  0.251100  1.0  0.1136
  H  H47  1  0.437700  0.840100  0.206700  1.0  0.0874
  H  H48  1  0.415500  0.810200  0.062900  1.0  0.1125
  H  H49  1  0.160900  0.512100  0.243200  1.0  0.1198
  H  H50  1  0.044200  0.451200  0.136000  1.0  0.1142
  H  H51  1  0.218100  0.337300  0.970300  1.0  0.1042
  H  H52  1  0.335900  0.400900  0.077700  1.0  0.1004
  H  H53  1  0.809200  0.412400  0.992100  1.0  0.1147
  H  H54  1  0.594400  0.335900  0.820500  1.0  0.1065
  H  H55  1  0.829300  0.253800  0.751000  1.0  0.1073
  H  H56  1  0.558900  0.733200  0.022800  1.0  0.0259
  C  C57  1  0.620400  0.756400  0.469100  1.0  0.665
  C  C58  1  0.698300  0.819700  0.519600  1.0  -0.1148
  C  C59  1  0.786500  0.805200  0.504700  1.0  -0.0534
  C  C60  1  0.860500  0.868900  0.544100  1.0  -0.1163
  C  C61  1  0.849200  0.948800  0.599500  1.0  -0.007
  C  C62  1  0.763600  0.964200  0.619600  1.0  -0.0987
  C  C63  1  0.688600  0.898800  0.579300  1.0  -0.0879
  C  C64  1  0.926100  0.021400  0.635400  1.0  0.3769
  C  C65  1  0.059600  0.094500  0.665100  1.0  0.3242
  C  C66  1  0.160000  0.121400  0.666800  1.0  -0.0226
  C  C67  1  0.206400  0.058800  0.617300  1.0  -0.0754
  C  C68  1  0.298600  0.078600  0.616800  1.0  -0.1359
  C  C69  1  0.346300  0.011600  0.560100  1.0  0.6873
  C  C70  1  0.347600  0.161700  0.664600  1.0  -0.0462
  C  C71  1  0.298800  0.225600  0.712900  1.0  -0.1232
  C  C72  1  0.350900  0.315100  0.762100  1.0  0.6667
  C  C73  1  0.206800  0.205200  0.713800  1.0  -0.0261
  C  C74  1  0.610900  0.293100  0.465500  1.0  0.7699
  C  C75  1  0.610900  0.302000  0.380800  1.0  -0.1447
  C  C76  1  0.622500  0.231800  0.308400  1.0  -0.0688
  C  C77  1  0.616500  0.239600  0.229300  1.0  -0.0189
  C  C78  1  0.624100  0.166100  0.151100  1.0  0.2649
  C  C79  1  0.600800  0.316200  0.222600  1.0  -0.1147
  C  C80  1  0.586300  0.384400  0.293600  1.0  -0.1579
  C  C81  1  0.563500  0.464300  0.286400  1.0  0.7535
  C  C82  1  0.590700  0.375400  0.373100  1.0  0.0
  C  C83  1  0.609900  0.089100  0.018800  1.0  0.2602
  C  C84  1  0.589100  0.066800  0.928300  1.0  0.0008
  C  C85  1  0.578600  0.982600  0.871100  1.0  -0.0477
  C  C86  1  0.556100  0.963200  0.786600  1.0  -0.0734
  C  C87  1  0.551700  0.029700  0.755900  1.0  -0.1264
  C  C88  1  0.532300  0.013800  0.664800  1.0  0.6714
  C  C89  1  0.564400  0.113600  0.813000  1.0  -0.0478
  C  C90  1  0.580000  0.131900  0.898400  1.0  -0.1386
  C  C91  1  0.661900  0.483700  0.766200  1.0  0.6722
  C  C92  1  0.740800  0.534800  0.831200  1.0  -0.1015
  C  C93  1  0.827400  0.521600  0.812500  1.0  -0.0275
  C  C94  1  0.896400  0.558100  0.876200  1.0  -0.0874
  C  C95  1  0.879800  0.608700  0.958200  1.0  -0.0419
  C  C96  1  0.793000  0.625800  0.975100  1.0  -0.0149
  C  C97  1  0.723100  0.588300  0.911300  1.0  -0.0563
  C  C98  1  0.952200  0.642900  0.026800  1.0  0.3813
  C  C99  1  0.075500  0.669400  0.100500  1.0  0.2984
  C  C100  1  0.166800  0.667300  0.125100  1.0  0.0064
  C  C101  1  0.216900  0.619300  0.063900  1.0  -0.0825
  C  C102  1  0.305800  0.618100  0.085400  1.0  -0.0942
  C  C103  1  0.352600  0.560500  0.018200  1.0  0.6737
  C  C104  1  0.344400  0.663700  0.166200  1.0  -0.0506
  C  C105  1  0.293000  0.710100  0.229400  1.0  -0.1453
  C  C106  1  0.333600  0.756300  0.317300  1.0  0.6737
  C  C107  1  0.204800  0.713000  0.207500  1.0  -0.0321
  C  C108  1  0.448200  0.327200  0.987000  1.0  0.6522
  C  C109  1  0.379600  0.243600  0.530900  1.0  0.6623
  C  C110  1  0.301700  0.180300  0.480400  1.0  -0.1159
  C  C111  1  0.213500  0.194800  0.495300  1.0  -0.0627
  C  C112  1  0.139500  0.131100  0.455900  1.0  -0.1204
  C  C113  1  0.150800  0.051200  0.400500  1.0  -0.0116
  C  C114  1  0.236400  0.035800  0.380400  1.0  -0.1011
  C  C115  1  0.311400  0.101200  0.420700  1.0  -0.0912
  C  C116  1  0.073900  0.978600  0.364600  1.0  0.3758
  C  C117  1  0.940400  0.905500  0.334900  1.0  0.3281
  C  C118  1  0.840000  0.878600  0.333200  1.0  -0.0233
  C  C119  1  0.793600  0.941200  0.382700  1.0  -0.0734
  C  C120  1  0.701400  0.921400  0.383200  1.0  -0.1375
  C  C121  1  0.653700  0.988400  0.439900  1.0  0.6883
  C  C122  1  0.652400  0.838300  0.335400  1.0  -0.0453
  C  C123  1  0.701200  0.774400  0.287100  1.0  -0.124
  C  C124  1  0.649100  0.684900  0.237900  1.0  0.6662
  C  C125  1  0.793200  0.794800  0.286200  1.0  -0.0249
  C  C126  1  0.389100  0.706900  0.534500  1.0  0.744
  C  C127  1  0.389100  0.698000  0.619200  1.0  -0.1444
  C  C128  1  0.377500  0.768200  0.691600  1.0  -0.0684
  C  C129  1  0.383500  0.760400  0.770700  1.0  -0.0187
  C  C130  1  0.375900  0.833900  0.848900  1.0  0.2666
  C  C131  1  0.399200  0.683800  0.777400  1.0  -0.113
  C  C132  1  0.413700  0.615600  0.706400  1.0  -0.158
  C  C133  1  0.436500  0.535700  0.713600  1.0  0.7375
  C  C134  1  0.409300  0.624600  0.626900  1.0  0.0013
  C  C135  1  0.390100  0.910900  0.981200  1.0  0.2579
  C  C136  1  0.410900  0.933200  0.071700  1.0  0.0008
  C  C137  1  0.421400  0.017400  0.128900  1.0  -0.0465
  C  C138  1  0.443900  0.036800  0.213400  1.0  -0.0761
  C  C139  1  0.448300  0.970300  0.244100  1.0  -0.1258
  C  C140  1  0.467700  0.986200  0.335200  1.0  0.6605
  C  C141  1  0.435600  0.886400  0.187000  1.0  -0.0462
  C  C142  1  0.420000  0.868100  0.101600  1.0  -0.1367
  C  C143  1  0.338100  0.516300  0.233800  1.0  0.6705
  C  C144  1  0.259200  0.465200  0.168800  1.0  -0.0903
  C  C145  1  0.172600  0.478400  0.187500  1.0  -0.0269
  C  C146  1  0.103600  0.441900  0.123800  1.0  -0.0879
  C  C147  1  0.120200  0.391300  0.041800  1.0  -0.0486
  C  C148  1  0.207000  0.374200  0.024900  1.0  -0.0136
  C  C149  1  0.276900  0.411700  0.088700  1.0  -0.0576
  C  C150  1  0.047800  0.357100  0.973200  1.0  0.3884
  C  C151  1  0.924500  0.330600  0.899500  1.0  0.299
  C  C152  1  0.833200  0.332700  0.874900  1.0  0.007
  C  C153  1  0.783100  0.380700  0.936100  1.0  -0.0813
  C  C154  1  0.694200  0.381900  0.914600  1.0  -0.0945
  C  C155  1  0.647400  0.439500  0.981800  1.0  0.6732
  C  C156  1  0.655600  0.336300  0.833800  1.0  -0.0505
  C  C157  1  0.707000  0.289900  0.770600  1.0  -0.1467
  C  C158  1  0.666400  0.243700  0.682700  1.0  0.6733
  C  C159  1  0.795200  0.287000  0.792500  1.0  -0.0318
  C  C160  1  0.551800  0.672800  0.013000  1.0  0.6532
  N  N161  1  0.013100  0.015500  0.620500  1.0  -0.3121
  N  N162  1  0.917900  0.099600  0.686000  1.0  -0.3396
  N  N163  1  0.003400  0.146100  0.702900  1.0  -0.1789
  N  N164  1  0.598900  0.166900  0.074300  1.0  -0.28
  N  N165  1  0.640900  0.044700  0.059100  1.0  -0.2493
  N  N166  1  0.649000  0.093700  0.144100  1.0  -0.2628
  N  N167  1  0.031000  0.622700  0.022500  1.0  -0.2548
  N  N168  1  0.018500  0.711600  0.149700  1.0  -0.2547
  N  N169  1  0.938400  0.696900  0.103800  1.0  -0.3551
  N  N170  1  0.986900  0.984500  0.379500  1.0  -0.3133
  N  N171  1  0.082100  0.900400  0.314000  1.0  -0.3391
  N  N172  1  0.996600  0.853900  0.297100  1.0  -0.1803
  N  N173  1  0.401100  0.833100  0.925700  1.0  -0.2795
  N  N174  1  0.359100  0.955300  0.940900  1.0  -0.2482
  N  N175  1  0.351000  0.906300  0.855900  1.0  -0.2602
  N  N176  1  0.969000  0.377300  0.977500  1.0  -0.2553
  N  N177  1  0.981500  0.288400  0.850300  1.0  -0.2548
  N  N178  1  0.061600  0.303100  0.896200  1.0  -0.3534
  O  O179  1  0.543400  0.782900  0.464400  1.0  -0.7366
  O  O180  1  0.626000  0.679800  0.425900  1.0  -0.6359
  O  O181  1  0.310900  0.933000  0.540000  1.0  -0.6173
  O  O182  1  0.421300  0.036100  0.532200  1.0  -0.7699
  O  O183  1  0.433600  0.336000  0.752800  1.0  -0.6738
  O  O184  1  0.309800  0.367700  0.813000  1.0  -0.6526
  O  O185  1  0.633000  0.227800  0.473700  1.0  -0.7215
  O  O186  1  0.589700  0.354900  0.525900  1.0  -0.6747
  O  O187  1  0.522600  0.508600  0.344100  1.0  -0.5996
  O  O188  1  0.589500  0.482000  0.222400  1.0  -0.6824
  O  O189  1  0.490500  0.938400  0.616400  1.0  -0.6206
  O  O190  1  0.561100  0.076700  0.642100  1.0  -0.6583
  O  O191  1  0.675700  0.446700  0.691300  1.0  -0.6164
  O  O192  1  0.580200  0.473800  0.791100  1.0  -0.7708
  O  O193  1  0.327800  0.538000  0.941300  1.0  -0.6397
  O  O194  1  0.422600  0.534700  0.038900  1.0  -0.824
  O  O195  1  0.412300  0.743700  0.336400  1.0  -0.7405
  O  O196  1  0.293200  0.803800  0.373300  1.0  -0.6745
  O  O197  1  0.423800  0.346800  0.927200  1.0  -0.6377
  O  O198  1  0.482000  0.379900  0.060400  1.0  -0.6401
  O  O199  1  0.456600  0.217100  0.535600  1.0  -0.7358
  O  O200  1  0.374000  0.320200  0.574100  1.0  -0.6359
  O  O201  1  0.689100  0.067000  0.460000  1.0  -0.6153
  O  O202  1  0.578700  0.963900  0.467800  1.0  -0.77
  O  O203  1  0.566400  0.664000  0.247200  1.0  -0.674
  O  O204  1  0.690200  0.632300  0.187000  1.0  -0.654
  O  O205  1  0.367000  0.772200  0.526300  1.0  -0.7217
  O  O206  1  0.410300  0.645100  0.474100  1.0  -0.6759
  O  O207  1  0.477400  0.491400  0.655900  1.0  -0.6026
  O  O208  1  0.410500  0.518000  0.777600  1.0  -0.6823
  O  O209  1  0.509500  0.061600  0.383600  1.0  -0.6194
  O  O210  1  0.438900  0.923300  0.357900  1.0  -0.6587
  O  O211  1  0.324300  0.553300  0.308700  1.0  -0.6211
  O  O212  1  0.419800  0.526200  0.208900  1.0  -0.7773
  O  O213  1  0.672200  0.462000  0.058700  1.0  -0.6337
  O  O214  1  0.577400  0.465300  0.961100  1.0  -0.8236
  O  O215  1  0.587700  0.256300  0.663600  1.0  -0.7395
  O  O216  1  0.706800  0.196200  0.626700  1.0  -0.677
  O  O217  1  0.576200  0.653200  0.072800  1.0  -0.6357
  O  O218  1  0.518000  0.620100  0.939600  1.0  -0.6402
