# generated using pymatgen
data_ZnH12C24(NO3)2
_symmetry_space_group_name_H-M   'P 1'
_cell_length_a   12.97500000
_cell_length_b   13.06000000
_cell_length_c   22.38200000
_cell_angle_alpha   95.77600000
_cell_angle_beta   92.00400000
_cell_angle_gamma   112.67800000
_symmetry_Int_Tables_number   1
_chemical_formula_structural   ZnH12C24(NO3)2
_chemical_formula_sum   'Zn4 H48 C96 N8 O24'
_cell_volume   3470.45220688
_cell_formula_units_Z   4
loop_
 _symmetry_equiv_pos_site_id
 _symmetry_equiv_pos_as_xyz
  1  'x, y, z'
loop_
 _atom_site_type_symbol
 _atom_site_label
 _atom_site_symmetry_multiplicity
 _atom_site_fract_x
 _atom_site_fract_y
 _atom_site_fract_z
 _atom_site_occupancy
 _atom_site_charge
  Zn  Zn1  1  0.860020  0.760820  0.299490  1.0  0.9114
  Zn  Zn2  1  0.853660  0.715720  0.167220  1.0  0.9147
  Zn  Zn3  1  0.139980  0.239180  0.700510  1.0  0.9112
  Zn  Zn4  1  0.146340  0.284280  0.832780  1.0  0.9161
  H  H5  1  0.716400  0.636600  0.389500  1.0  0.0964
  H  H6  1  0.710600  0.634600  0.493400  1.0  0.141
  H  H7  1  0.012200  0.896000  0.513900  1.0  0.1276
  H  H8  1  0.005500  0.894700  0.410000  1.0  0.0857
  H  H9  1  0.840400  0.997800  0.700100  1.0  0.1055
  H  H10  1  0.841600  0.993600  0.805200  1.0  0.1146
  H  H11  1  0.871400  0.505400  0.768300  1.0  0.103
  H  H12  1  0.877700  0.513700  0.664000  1.0  0.1152
  H  H13  1  0.198400  0.797000  0.339400  1.0  0.1165
  H  H14  1  0.369900  0.782000  0.350600  1.0  0.1219
  H  H15  1  0.527800  0.747300  0.304300  1.0  0.1274
  H  H16  1  0.499800  0.644700  0.125000  1.0  0.1186
  H  H17  1  0.325100  0.650100  0.115300  1.0  0.1158
  H  H18  1  0.174700  0.701800  0.160300  1.0  0.1231
  H  H19  1  0.862800  0.100600  0.312700  1.0  0.1089
  H  H20  1  0.839600  0.274500  0.352800  1.0  0.1241
  H  H21  1  0.823800  0.440500  0.336300  1.0  0.1221
  H  H22  1  0.840400  0.373800  0.156900  1.0  0.1176
  H  H23  1  0.859000  0.197100  0.116800  1.0  0.1209
  H  H24  1  0.877600  0.033000  0.133200  1.0  0.1216
  H  H25  1  0.709700  0.599300  0.054700  1.0  0.0958
  H  H26  1  0.705400  0.608400  0.951900  1.0  0.1358
  H  H27  1  0.006900  0.867500  0.978700  1.0  0.1265
  H  H28  1  0.002700  0.851900  0.081500  1.0  0.0918
  H  H29  1  0.283600  0.363400  0.610500  1.0  0.0962
  H  H30  1  0.289400  0.365400  0.506600  1.0  0.1415
  H  H31  1  0.987800  0.104000  0.486100  1.0  0.1273
  H  H32  1  0.994500  0.105300  0.590000  1.0  0.0855
  H  H33  1  0.159600  0.002200  0.299900  1.0  0.1052
  H  H34  1  0.158400  0.006400  0.194800  1.0  0.1143
  H  H35  1  0.128600  0.494600  0.231700  1.0  0.1031
  H  H36  1  0.122300  0.486300  0.336000  1.0  0.1151
  H  H37  1  0.801600  0.203000  0.660600  1.0  0.1166
  H  H38  1  0.630100  0.218000  0.649400  1.0  0.1227
  H  H39  1  0.472200  0.252700  0.695700  1.0  0.1267
  H  H40  1  0.500200  0.355300  0.875000  1.0  0.1188
  H  H41  1  0.674900  0.349900  0.884700  1.0  0.1153
  H  H42  1  0.825300  0.298200  0.839700  1.0  0.1236
  H  H43  1  0.137200  0.899400  0.687300  1.0  0.1088
  H  H44  1  0.160400  0.725500  0.647200  1.0  0.1235
  H  H45  1  0.176200  0.559500  0.663700  1.0  0.122
  H  H46  1  0.159600  0.626200  0.843100  1.0  0.1168
  H  H47  1  0.141000  0.802900  0.883200  1.0  0.1197
  H  H48  1  0.122400  0.967000  0.866800  1.0  0.1222
  H  H49  1  0.290300  0.400700  0.945300  1.0  0.0958
  H  H50  1  0.294600  0.391600  0.048100  1.0  0.1359
  H  H51  1  0.993100  0.132500  0.021300  1.0  0.1264
  H  H52  1  0.997300  0.148100  0.918500  1.0  0.0929
  C  C53  1  0.881500  0.943400  0.235630  1.0  0.6868
  C  C54  1  0.062400  0.765700  0.241160  1.0  0.6763
  C  C55  1  0.827100  0.533300  0.234700  1.0  0.7103
  C  C56  1  0.648300  0.701400  0.221690  1.0  0.7053
  C  C57  1  0.776500  0.690500  0.415390  1.0  0.1599
  C  C58  1  0.772600  0.687900  0.477150  1.0  -0.2184
  C  C59  1  0.861800  0.765500  0.514300  1.0  0.2133
  C  C60  1  0.950000  0.842600  0.489120  1.0  -0.2295
  C  C61  1  0.945800  0.840600  0.427270  1.0  0.167
  C  C62  1  0.851800  0.853500  0.613740  1.0  0.5241
  C  C63  1  0.850800  0.848100  0.679380  1.0  -0.1224
  C  C64  1  0.844800  0.935300  0.716710  1.0  0.0026
  C  C65  1  0.845200  0.932700  0.779530  1.0  -0.0114
  C  C66  1  0.850700  0.841400  0.803740  1.0  -0.1051
  C  C67  1  0.853300  0.841100  0.869740  1.0  0.5079
  C  C68  1  0.863400  0.651800  0.855390  1.0  0.4647
  C  C69  1  0.862600  0.656600  0.789370  1.0  -0.133
  C  C70  1  0.868800  0.568700  0.751920  1.0  -0.0157
  C  C71  1  0.871500  0.573300  0.689710  1.0  -0.0139
  C  C72  1  0.865100  0.664500  0.665670  1.0  -0.1378
  C  C73  1  0.870100  0.668600  0.600170  1.0  0.4603
  C  C74  1  0.856900  0.753800  0.703190  1.0  0.0374
  C  C75  1  0.855900  0.750300  0.765990  1.0  0.0532
  C  C76  1  0.173000  0.754400  0.247690  1.0  -0.1209
  C  C77  1  0.230200  0.776000  0.305100  1.0  -0.0449
  C  C78  1  0.331600  0.766600  0.311700  1.0  -0.0886
  C  C79  1  0.379900  0.734400  0.261090  1.0  0.0564
  C  C80  1  0.486600  0.729000  0.266090  1.0  -0.109
  C  C81  1  0.531200  0.697600  0.216270  1.0  -0.1335
  C  C82  1  0.469200  0.667600  0.159300  1.0  -0.051
  C  C83  1  0.366300  0.671500  0.153600  1.0  -0.1061
  C  C84  1  0.318900  0.707200  0.204000  1.0  0.0443
  C  C85  1  0.215400  0.718900  0.198560  1.0  -0.1312
  C  C86  1  0.871700  0.051900  0.226050  1.0  -0.1384
  C  C87  1  0.862000  0.120700  0.273130  1.0  -0.092
  C  C88  1  0.850800  0.222300  0.264480  1.0  0.0496
  C  C89  1  0.840100  0.294100  0.313000  1.0  -0.0975
  C  C90  1  0.830600  0.392300  0.303300  1.0  -0.0763
  C  C91  1  0.830800  0.422000  0.243800  1.0  -0.1177
  C  C92  1  0.840200  0.352900  0.196400  1.0  -0.073
  C  C93  1  0.849600  0.250600  0.204630  1.0  0.0467
  C  C94  1  0.859800  0.178200  0.156700  1.0  -0.0924
  C  C95  1  0.870700  0.081000  0.166230  1.0  -0.0668
  C  C96  1  0.770900  0.654400  0.038940  1.0  0.161
  C  C97  1  0.767400  0.659100  0.977890  1.0  -0.2299
  C  C98  1  0.856800  0.739700  0.955250  1.0  0.2319
  C  C99  1  0.944900  0.811800  0.993540  1.0  -0.2197
  C  C100  1  0.941900  0.801700  0.054570  1.0  0.1661
  C  C101  1  0.118500  0.056600  0.764370  1.0  0.6865
  C  C102  1  0.937600  0.234300  0.758840  1.0  0.6763
  C  C103  1  0.172900  0.466700  0.765300  1.0  0.7104
  C  C104  1  0.351700  0.298600  0.778310  1.0  0.7039
  C  C105  1  0.223500  0.309500  0.584610  1.0  0.1596
  C  C106  1  0.227400  0.312100  0.522850  1.0  -0.2176
  C  C107  1  0.138200  0.234500  0.485700  1.0  0.2143
  C  C108  1  0.050000  0.157400  0.510880  1.0  -0.2298
  C  C109  1  0.054200  0.159400  0.572730  1.0  0.1679
  C  C110  1  0.148200  0.146500  0.386260  1.0  0.525
  C  C111  1  0.149200  0.151900  0.320620  1.0  -0.1208
  C  C112  1  0.155200  0.064700  0.283290  1.0  0.0036
  C  C113  1  0.154800  0.067300  0.220470  1.0  -0.0108
  C  C114  1  0.149300  0.158600  0.196260  1.0  -0.1064
  C  C115  1  0.146700  0.158900  0.130260  1.0  0.5086
  C  C116  1  0.136600  0.348200  0.144610  1.0  0.4656
  C  C117  1  0.137400  0.343400  0.210630  1.0  -0.134
  C  C118  1  0.131200  0.431300  0.248080  1.0  -0.0144
  C  C119  1  0.128500  0.426700  0.310290  1.0  -0.0117
  C  C120  1  0.134900  0.335500  0.334330  1.0  -0.1365
  C  C121  1  0.129900  0.331400  0.399830  1.0  0.4581
  C  C122  1  0.143100  0.246200  0.296810  1.0  0.0376
  C  C123  1  0.144100  0.249700  0.234010  1.0  0.0538
  C  C124  1  0.827000  0.245600  0.752310  1.0  -0.1217
  C  C125  1  0.769800  0.224000  0.694900  1.0  -0.0455
  C  C126  1  0.668400  0.233400  0.688300  1.0  -0.0921
  C  C127  1  0.620100  0.265600  0.738910  1.0  0.0552
  C  C128  1  0.513400  0.271000  0.733910  1.0  -0.1091
  C  C129  1  0.468800  0.302400  0.783730  1.0  -0.1323
  C  C130  1  0.530800  0.332400  0.840700  1.0  -0.0534
  C  C131  1  0.633700  0.328500  0.846400  1.0  -0.1048
  C  C132  1  0.681100  0.292800  0.796000  1.0  0.0464
  C  C133  1  0.784600  0.281100  0.801440  1.0  -0.1311
  C  C134  1  0.128300  0.948100  0.773950  1.0  -0.1377
  C  C135  1  0.138000  0.879300  0.726870  1.0  -0.0908
  C  C136  1  0.149200  0.777700  0.735520  1.0  0.0504
  C  C137  1  0.159900  0.705900  0.687000  1.0  -0.0972
  C  C138  1  0.169400  0.607700  0.696700  1.0  -0.0761
  C  C139  1  0.169200  0.578000  0.756200  1.0  -0.1173
  C  C140  1  0.159800  0.647100  0.803600  1.0  -0.0727
  C  C141  1  0.150400  0.749400  0.795370  1.0  0.0464
  C  C142  1  0.140200  0.821800  0.843300  1.0  -0.0933
  C  C143  1  0.129300  0.919000  0.833770  1.0  -0.0647
  C  C144  1  0.229100  0.345600  0.961060  1.0  0.1601
  C  C145  1  0.232600  0.340900  0.022110  1.0  -0.2308
  C  C146  1  0.143200  0.260300  0.044750  1.0  0.2332
  C  C147  1  0.055100  0.188200  0.006460  1.0  -0.2198
  C  C148  1  0.058100  0.198300  0.945430  1.0  0.1662
  N  N149  1  0.861000  0.765400  0.390800  1.0  -0.3057
  N  N150  1  0.863000  0.763600  0.578400  1.0  -0.2574
  N  N151  1  0.857200  0.744200  0.890970  1.0  -0.275
  N  N152  1  0.856300  0.723700  0.076970  1.0  -0.3022
  N  N153  1  0.139000  0.234600  0.609200  1.0  -0.3073
  N  N154  1  0.137000  0.236400  0.421600  1.0  -0.2573
  N  N155  1  0.142800  0.255800  0.109030  1.0  -0.2758
  N  N156  1  0.143700  0.276300  0.923030  1.0  -0.302
  O  O157  1  0.888800  0.922700  0.289270  1.0  -0.5835
  O  O158  1  0.880700  0.880700  0.189800  1.0  -0.6
  O  O159  1  0.022200  0.786300  0.288740  1.0  -0.5885
  O  O160  1  0.018500  0.753200  0.188540  1.0  -0.5954
  O  O161  1  0.825800  0.594400  0.281330  1.0  -0.6225
  O  O162  1  0.827800  0.557700  0.181920  1.0  -0.5803
  O  O163  1  0.697900  0.726500  0.273690  1.0  -0.6066
  O  O164  1  0.688700  0.681900  0.173740  1.0  -0.5776
  O  O165  1  0.844400  0.930100  0.590160  1.0  -0.4941
  O  O166  1  0.852500  0.917800  0.904640  1.0  -0.4499
  O  O167  1  0.870200  0.574900  0.878710  1.0  -0.462
  O  O168  1  0.882600  0.597400  0.565750  1.0  -0.4553
  O  O169  1  0.111200  0.077300  0.710730  1.0  -0.5849
  O  O170  1  0.119300  0.119300  0.810200  1.0  -0.5988
  O  O171  1  0.977800  0.213700  0.711260  1.0  -0.5881
  O  O172  1  0.981500  0.246800  0.811460  1.0  -0.5925
  O  O173  1  0.174200  0.405600  0.718670  1.0  -0.6202
  O  O174  1  0.172200  0.442300  0.818080  1.0  -0.5817
  O  O175  1  0.302100  0.273500  0.726310  1.0  -0.605
  O  O176  1  0.311300  0.318100  0.826260  1.0  -0.5776
  O  O177  1  0.155600  0.069900  0.409840  1.0  -0.4954
  O  O178  1  0.147500  0.082200  0.095360  1.0  -0.4519
  O  O179  1  0.129800  0.425100  0.121290  1.0  -0.4639
  O  O180  1  0.117400  0.402600  0.434250  1.0  -0.4542
