# generated using pymatgen
data_ZnH12C24(NO3)2
_symmetry_space_group_name_H-M   'P 1'
_cell_length_a   12.97200000
_cell_length_b   22.29600000
_cell_length_c   12.98800000
_cell_angle_alpha   90.00000000
_cell_angle_beta   109.37600000
_cell_angle_gamma   90.00000000
_symmetry_Int_Tables_number   1
_chemical_formula_structural   ZnH12C24(NO3)2
_chemical_formula_sum   'Zn4 H48 C96 N8 O24'
_cell_volume   3543.67937289
_cell_formula_units_Z   4
loop_
 _symmetry_equiv_pos_site_id
 _symmetry_equiv_pos_as_xyz
  1  'x, y, z'
loop_
 _atom_site_type_symbol
 _atom_site_label
 _atom_site_symmetry_multiplicity
 _atom_site_fract_x
 _atom_site_fract_y
 _atom_site_fract_z
 _atom_site_occupancy
 _atom_site_charge
  Zn  Zn1  1  0.853180  0.213320  0.752480  1.0  0.9577
  Zn  Zn2  1  0.866440  0.082500  0.737590  1.0  0.9542
  Zn  Zn3  1  0.146820  0.713320  0.247520  1.0  0.9592
  Zn  Zn4  1  0.133560  0.582500  0.262410  1.0  0.9553
  H  H5  1  0.696400  0.311700  0.659400  1.0  0.1169
  H  H6  1  0.704700  0.419100  0.652100  1.0  0.1101
  H  H7  1  0.002600  0.417900  0.890400  1.0  0.1244
  H  H8  1  0.996600  0.311400  0.881500  1.0  0.073
  H  H9  1  0.863300  0.602200  0.014300  1.0  0.1033
  H  H10  1  0.850100  0.704300  0.995600  1.0  0.093
  H  H11  1  0.874900  0.693700  0.505200  1.0  0.1205
  H  H12  1  0.840300  0.586600  0.516500  1.0  0.0667
  H  H13  1  0.526900  0.040200  0.684000  1.0  0.1121
  H  H14  1  0.360200  0.028300  0.708100  1.0  0.1194
  H  H15  1  0.183100  0.077700  0.717400  1.0  0.0996
  H  H16  1  0.177000  0.254200  0.754500  1.0  0.116
  H  H17  1  0.344200  0.261300  0.749100  1.0  0.0785
  H  H18  1  0.513000  0.222600  0.727900  1.0  0.1079
  H  H19  1  0.883400  0.039000  0.065500  1.0  0.1061
  H  H20  1  0.862000  0.029100  0.231700  1.0  0.1071
  H  H21  1  0.847600  0.076800  0.398400  1.0  0.0873
  H  H22  1  0.853200  0.253400  0.432800  1.0  0.0933
  H  H23  1  0.838500  0.266200  0.251300  1.0  0.1241
  H  H24  1  0.855800  0.219900  0.082500  1.0  0.1061
  H  H25  1  0.721000  0.980000  0.636000  1.0  0.1003
  H  H26  1  0.723200  0.876300  0.640300  1.0  0.1222
  H  H27  1  0.024200  0.884600  0.860700  1.0  0.1058
  H  H28  1  0.002700  0.988500  0.830600  1.0  0.1018
  H  H29  1  0.303600  0.811700  0.340600  1.0  0.1173
  H  H30  1  0.295300  0.919100  0.347900  1.0  0.1101
  H  H31  1  0.997400  0.917900  0.109600  1.0  0.1236
  H  H32  1  0.003400  0.811400  0.118500  1.0  0.0727
  H  H33  1  0.136700  0.102200  0.985700  1.0  0.1038
  H  H34  1  0.149900  0.204300  0.004400  1.0  0.0931
  H  H35  1  0.125100  0.193700  0.494800  1.0  0.1191
  H  H36  1  0.159700  0.086600  0.483500  1.0  0.0655
  H  H37  1  0.473100  0.540200  0.316000  1.0  0.1121
  H  H38  1  0.639800  0.528300  0.291900  1.0  0.1199
  H  H39  1  0.816900  0.577700  0.282600  1.0  0.0998
  H  H40  1  0.823000  0.754200  0.245500  1.0  0.116
  H  H41  1  0.655800  0.761300  0.250900  1.0  0.0785
  H  H42  1  0.487000  0.722600  0.272100  1.0  0.1078
  H  H43  1  0.116600  0.539000  0.934500  1.0  0.1067
  H  H44  1  0.138000  0.529100  0.768300  1.0  0.1066
  H  H45  1  0.152400  0.576800  0.601600  1.0  0.0875
  H  H46  1  0.146800  0.753400  0.567200  1.0  0.0938
  H  H47  1  0.161500  0.766200  0.748700  1.0  0.1231
  H  H48  1  0.144200  0.719900  0.917500  1.0  0.105
  H  H49  1  0.279000  0.480000  0.364000  1.0  0.1006
  H  H50  1  0.276800  0.376300  0.359700  1.0  0.1214
  H  H51  1  0.975800  0.384600  0.139300  1.0  0.1054
  H  H52  1  0.997300  0.488500  0.169400  1.0  0.1013
  C  C53  1  0.652700  0.139300  0.704700  1.0  0.6677
  C  C54  1  0.877200  0.136200  0.950500  1.0  0.6853
  C  C55  1  0.066500  0.153300  0.772300  1.0  0.6873
  C  C56  1  0.848900  0.157600  0.548100  1.0  0.7174
  C  C57  1  0.760000  0.332900  0.701300  1.0  0.1179
  C  C58  1  0.764100  0.397300  0.700400  1.0  -0.1512
  C  C59  1  0.853700  0.428200  0.768900  1.0  0.2687
  C  C60  1  0.942300  0.397500  0.840500  1.0  -0.1829
  C  C61  1  0.937000  0.333600  0.834300  1.0  0.1646
  C  C62  1  0.859400  0.522200  0.864500  1.0  0.4249
  C  C63  1  0.857100  0.587900  0.860700  1.0  -0.0805
  C  C64  1  0.859700  0.620600  0.947300  1.0  -0.1184
  C  C65  1  0.857100  0.681700  0.936300  1.0  -0.0654
  C  C66  1  0.863900  0.715500  0.843300  1.0  0.1175
  C  C67  1  0.864800  0.778100  0.837100  1.0  0.5778
  C  C68  1  0.868800  0.777800  0.657300  1.0  0.5901
  C  C69  1  0.858700  0.707400  0.660900  1.0  -0.1555
  C  C70  1  0.864400  0.675400  0.567100  1.0  -0.0206
  C  C71  1  0.852000  0.610600  0.579800  1.0  -0.079
  C  C72  1  0.855100  0.584300  0.663600  1.0  0.1795
  C  C73  1  0.848000  0.516100  0.663000  1.0  0.2827
  C  C74  1  0.853600  0.618700  0.756000  1.0  -0.1123
  C  C75  1  0.856700  0.683300  0.759400  1.0  0.115
  C  C76  1  0.536700  0.136000  0.708000  1.0  -0.1433
  C  C77  1  0.488600  0.073800  0.698100  1.0  -0.0872
  C  C78  1  0.390900  0.067100  0.709600  1.0  -0.0973
  C  C79  1  0.330800  0.121200  0.724800  1.0  -0.0081
  C  C80  1  0.219600  0.115300  0.732000  1.0  -0.0973
  C  C81  1  0.170500  0.162100  0.758600  1.0  -0.0193
  C  C82  1  0.216600  0.218600  0.752300  1.0  -0.1939
  C  C83  1  0.313900  0.222100  0.743300  1.0  -0.0631
  C  C84  1  0.375900  0.178400  0.727300  1.0  0.1104
  C  C85  1  0.480600  0.184000  0.721800  1.0  -0.0985
  C  C86  1  0.869900  0.130500  0.055200  1.0  -0.0773
  C  C87  1  0.874000  0.073800  0.103600  1.0  -0.1158
  C  C88  1  0.864900  0.068300  0.203800  1.0  -0.1314
  C  C89  1  0.859400  0.118000  0.268600  1.0  -0.0273
  C  C90  1  0.852300  0.115500  0.369800  1.0  -0.0579
  C  C91  1  0.851100  0.163400  0.435100  1.0  -0.2101
  C  C92  1  0.850900  0.218900  0.389200  1.0  -0.0567
  C  C93  1  0.847400  0.227100  0.282100  1.0  -0.1328
  C  C94  1  0.857300  0.176700  0.218300  1.0  0.029
  C  C95  1  0.860300  0.181400  0.115000  1.0  -0.1089
  C  C96  1  0.784500  0.959500  0.680200  1.0  0.1177
  C  C97  1  0.785400  0.898600  0.682200  1.0  -0.1027
  C  C98  1  0.874900  0.871100  0.743900  1.0  0.2016
  C  C99  1  0.960900  0.901900  0.809700  1.0  -0.2084
  C  C100  1  0.942000  0.964600  0.790700  1.0  -0.0086
  C  C101  1  0.347300  0.639300  0.295300  1.0  0.6678
  C  C102  1  0.122800  0.636200  0.049500  1.0  0.6821
  C  C103  1  0.933500  0.653300  0.227700  1.0  0.6876
  C  C104  1  0.151100  0.657600  0.451900  1.0  0.7166
  C  C105  1  0.240000  0.832900  0.298700  1.0  0.1183
  C  C106  1  0.235900  0.897300  0.299600  1.0  -0.1479
  C  C107  1  0.146300  0.928200  0.231100  1.0  0.268
  C  C108  1  0.057700  0.897500  0.159500  1.0  -0.1847
  C  C109  1  0.063000  0.833600  0.165700  1.0  0.1645
  C  C110  1  0.140600  0.022200  0.135500  1.0  0.4249
  C  C111  1  0.142900  0.087900  0.139300  1.0  -0.0814
  C  C112  1  0.140300  0.120600  0.052700  1.0  -0.1174
  C  C113  1  0.142900  0.181700  0.063700  1.0  -0.0657
  C  C114  1  0.136100  0.215500  0.156700  1.0  0.1173
  C  C115  1  0.135200  0.278100  0.162900  1.0  0.5739
  C  C116  1  0.131200  0.277800  0.342700  1.0  0.5858
  C  C117  1  0.141300  0.207400  0.339100  1.0  -0.1539
  C  C118  1  0.135600  0.175400  0.432900  1.0  -0.0197
  C  C119  1  0.148000  0.110600  0.420200  1.0  -0.0775
  C  C120  1  0.144900  0.084300  0.336400  1.0  0.1835
  C  C121  1  0.152000  0.016100  0.337000  1.0  0.2823
  C  C122  1  0.146400  0.118700  0.244000  1.0  -0.1127
  C  C123  1  0.143300  0.183300  0.240600  1.0  0.1145
  C  C124  1  0.463300  0.636000  0.292000  1.0  -0.1435
  C  C125  1  0.511400  0.573800  0.301900  1.0  -0.0876
  C  C126  1  0.609100  0.567100  0.290400  1.0  -0.0965
  C  C127  1  0.669200  0.621200  0.275200  1.0  -0.0091
  C  C128  1  0.780400  0.615300  0.268000  1.0  -0.0988
  C  C129  1  0.829500  0.662100  0.241400  1.0  -0.0189
  C  C130  1  0.783400  0.718600  0.247700  1.0  -0.1922
  C  C131  1  0.686100  0.722100  0.256700  1.0  -0.0638
  C  C132  1  0.624100  0.678400  0.272700  1.0  0.1109
  C  C133  1  0.519400  0.684000  0.278200  1.0  -0.0971
  C  C134  1  0.130100  0.630500  0.944800  1.0  -0.0791
  C  C135  1  0.126000  0.573800  0.896400  1.0  -0.1131
  C  C136  1  0.135100  0.568300  0.796200  1.0  -0.13
  C  C137  1  0.140600  0.618000  0.731400  1.0  -0.0229
  C  C138  1  0.147700  0.615500  0.630200  1.0  -0.0583
  C  C139  1  0.148900  0.663400  0.564900  1.0  -0.2101
  C  C140  1  0.149100  0.718900  0.610800  1.0  -0.0555
  C  C141  1  0.152600  0.727100  0.717900  1.0  -0.1321
  C  C142  1  0.142700  0.676700  0.781700  1.0  0.0288
  C  C143  1  0.139700  0.681400  0.885000  1.0  -0.1094
  C  C144  1  0.215500  0.459500  0.319800  1.0  0.1165
  C  C145  1  0.214600  0.398600  0.317800  1.0  -0.1008
  C  C146  1  0.125100  0.371100  0.256100  1.0  0.2015
  C  C147  1  0.039100  0.401900  0.190300  1.0  -0.2095
  C  C148  1  0.058000  0.464600  0.209300  1.0  -0.0093
  N  N149  1  0.853300  0.302900  0.766200  1.0  -0.3132
  N  N150  1  0.854400  0.489600  0.764800  1.0  -0.2387
  N  N151  1  0.872900  0.802000  0.748900  1.0  0.0253
  N  N152  1  0.872100  0.991300  0.739700  1.0  -0.2781
  N  N153  1  0.146700  0.802900  0.233800  1.0  -0.3133
  N  N154  1  0.145600  0.989600  0.235200  1.0  -0.2376
  N  N155  1  0.127100  0.302000  0.251100  1.0  0.0255
  N  N156  1  0.127900  0.491300  0.260300  1.0  -0.2808
  O  O157  1  0.694100  0.194300  0.719600  1.0  -0.5912
  O  O158  1  0.701500  0.091500  0.704000  1.0  -0.5742
  O  O159  1  0.874600  0.189300  0.909300  1.0  -0.6058
  O  O160  1  0.883900  0.090100  0.895200  1.0  -0.5983
  O  O161  1  0.020700  0.201000  0.787100  1.0  -0.6069
  O  O162  1  0.028100  0.104000  0.771700  1.0  -0.5767
  O  O163  1  0.840700  0.207200  0.596700  1.0  -0.6057
  O  O164  1  0.851600  0.107000  0.585100  1.0  -0.5933
  O  O165  1  0.850100  0.495500  0.948700  1.0  -0.5147
  O  O166  1  0.871900  0.811100  0.925400  1.0  -0.541
  O  O167  1  0.863800  0.799600  0.573900  1.0  -0.4169
  O  O168  1  0.852400  0.487500  0.594100  1.0  -0.4184
  O  O169  1  0.305900  0.694300  0.280400  1.0  -0.5906
  O  O170  1  0.298500  0.591500  0.296000  1.0  -0.5738
  O  O171  1  0.125400  0.689300  0.090700  1.0  -0.6061
  O  O172  1  0.116100  0.590100  0.104800  1.0  -0.5984
  O  O173  1  0.979300  0.701000  0.212900  1.0  -0.6077
  O  O174  1  0.971900  0.604000  0.228300  1.0  -0.5769
  O  O175  1  0.159300  0.707200  0.403300  1.0  -0.6062
  O  O176  1  0.148400  0.607000  0.414900  1.0  -0.5939
  O  O177  1  0.149900  0.995500  0.051300  1.0  -0.5147
  O  O178  1  0.128100  0.311100  0.074600  1.0  -0.5409
  O  O179  1  0.136200  0.299600  0.426100  1.0  -0.4205
  O  O180  1  0.147600  0.987500  0.405900  1.0  -0.4182
