# generated using pymatgen
data_Zn2H24C49(NO4)3
_symmetry_space_group_name_H-M   'P 1'
_cell_length_a   13.06300000
_cell_length_b   13.12900000
_cell_length_c   22.32400000
_cell_angle_alpha   90.00000000
_cell_angle_beta   90.00000000
_cell_angle_gamma   95.14900000
_symmetry_Int_Tables_number   1
_chemical_formula_structural   Zn2H24C49(NO4)3
_chemical_formula_sum   'Zn4 H48 C98 N6 O24'
_cell_volume   3813.20826186
_cell_formula_units_Z   2
loop_
 _symmetry_equiv_pos_site_id
 _symmetry_equiv_pos_as_xyz
  1  'x, y, z'
loop_
 _atom_site_type_symbol
 _atom_site_label
 _atom_site_symmetry_multiplicity
 _atom_site_fract_x
 _atom_site_fract_y
 _atom_site_fract_z
 _atom_site_occupancy
 _atom_site_charge
  Zn  Zn1  1  0.238310  0.630690  0.206720  1.0  0.9099
  Zn  Zn2  1  0.214100  0.608700  0.077000  1.0  0.9333
  Zn  Zn3  1  0.761690  0.369310  0.706720  1.0  0.91
  Zn  Zn4  1  0.785900  0.391300  0.577000  1.0  0.9329
  H  H5  1  0.169800  0.491700  0.307000  1.0  0.09
  H  H6  1  0.161500  0.491300  0.411900  1.0  0.1353
  H  H7  1  0.288700  0.785300  0.410000  1.0  0.1452
  H  H8  1  0.291700  0.776900  0.305200  1.0  0.1039
  H  H9  1  0.464400  0.646600  0.591500  1.0  0.1164
  H  H10  1  0.460200  0.638200  0.698000  1.0  0.1107
  H  H11  1  0.964900  0.642600  0.692200  1.0  0.1037
  H  H12  1  0.967800  0.647800  0.586400  1.0  0.1102
  H  H13  1  0.915800  0.612200  0.250400  1.0  0.1213
  H  H14  1  0.742800  0.624300  0.261700  1.0  0.1221
  H  H15  1  0.567200  0.628900  0.215400  1.0  0.119
  H  H16  1  0.537100  0.621600  0.034300  1.0  0.1208
  H  H17  1  0.711100  0.606600  0.023700  1.0  0.1204
  H  H18  1  0.886100  0.598300  0.069700  1.0  0.1181
  H  H19  1  0.300100  0.321100  0.240000  1.0  0.1207
  H  H20  1  0.314000  0.146600  0.251200  1.0  0.1185
  H  H21  1  0.284200  0.968200  0.210700  1.0  0.115
  H  H22  1  0.183400  0.923100  0.039700  1.0  0.12
  H  H23  1  0.185800  0.097800  0.025300  1.0  0.1195
  H  H24  1  0.207000  0.275000  0.067500  1.0  0.1228
  H  H25  1  0.120200  0.484200  0.974100  1.0  0.0916
  H  H26  1  0.116000  0.490500  0.869700  1.0  0.1343
  H  H27  1  0.296400  0.758400  0.877200  1.0  0.139
  H  H28  1  0.295800  0.745600  0.981800  1.0  0.1061
  H  H29  1  0.830200  0.508300  0.807000  1.0  0.0895
  H  H30  1  0.838500  0.508700  0.911900  1.0  0.1351
  H  H31  1  0.711300  0.214700  0.910000  1.0  0.1454
  H  H32  1  0.708300  0.223100  0.805200  1.0  0.1028
  H  H33  1  0.535600  0.353400  0.091500  1.0  0.1165
  H  H34  1  0.539800  0.361800  0.198000  1.0  0.1107
  H  H35  1  0.035100  0.357400  0.192200  1.0  0.1041
  H  H36  1  0.032200  0.352200  0.086400  1.0  0.1096
  H  H37  1  0.084200  0.387800  0.750400  1.0  0.1207
  H  H38  1  0.257200  0.375700  0.761700  1.0  0.1217
  H  H39  1  0.432800  0.371100  0.715400  1.0  0.1191
  H  H40  1  0.462900  0.378400  0.534300  1.0  0.1208
  H  H41  1  0.288900  0.393400  0.523700  1.0  0.1196
  H  H42  1  0.113900  0.401700  0.569700  1.0  0.1166
  H  H43  1  0.699900  0.678900  0.740000  1.0  0.121
  H  H44  1  0.686000  0.853400  0.751200  1.0  0.1186
  H  H45  1  0.715800  0.031800  0.710700  1.0  0.115
  H  H46  1  0.816600  0.076900  0.539700  1.0  0.1194
  H  H47  1  0.814200  0.902200  0.525300  1.0  0.1194
  H  H48  1  0.793000  0.725000  0.567500  1.0  0.1232
  H  H49  1  0.879800  0.515800  0.474100  1.0  0.0912
  H  H50  1  0.884000  0.509500  0.369700  1.0  0.1346
  H  H51  1  0.703600  0.241600  0.377200  1.0  0.1387
  H  H52  1  0.704200  0.254400  0.481800  1.0  0.1057
  C  C53  1  0.237000  0.424900  0.145100  1.0  0.6983
  C  C54  1  0.030500  0.605800  0.150300  1.0  0.6879
  C  C55  1  0.228000  0.815900  0.136100  1.0  0.7048
  C  C56  1  0.422100  0.631800  0.134100  1.0  0.7198
  C  C57  1  0.194300  0.551400  0.328400  1.0  0.1605
  C  C58  1  0.187900  0.550600  0.390700  1.0  -0.2098
  C  C59  1  0.221700  0.639700  0.420200  1.0  0.2259
  C  C60  1  0.263100  0.724800  0.389500  1.0  -0.1891
  C  C61  1  0.265900  0.718400  0.327400  1.0  0.1563
  C  C62  1  0.313900  0.651400  0.514400  1.0  0.5643
  C  C63  1  0.311400  0.646800  0.581100  1.0  -0.1246
  C  C64  1  0.400800  0.645000  0.612200  1.0  -0.0057
  C  C65  1  0.398400  0.640900  0.675800  1.0  -0.0154
  C  C66  1  0.306000  0.640900  0.705000  1.0  -0.1282
  C  C67  1  0.305000  0.634300  0.771200  1.0  0.2337
  C  C68  1  0.208700  0.632000  0.799400  1.0  0.0075
  C  C69  1  0.112800  0.633000  0.769300  1.0  0.2613
  C  C70  1  0.117800  0.641700  0.703100  1.0  -0.1253
  C  C71  1  0.028500  0.643200  0.671500  1.0  -0.0066
  C  C72  1  0.029900  0.645800  0.608300  1.0  -0.0267
  C  C73  1  0.121700  0.645400  0.578800  1.0  -0.1595
  C  C74  1  0.121500  0.640400  0.512200  1.0  0.4934
  C  C75  1  0.215100  0.646700  0.610300  1.0  0.0677
  C  C76  1  0.213700  0.642200  0.673800  1.0  0.0417
  C  C77  1  0.916000  0.606100  0.158500  1.0  -0.1345
  C  C78  1  0.872900  0.612400  0.216100  1.0  -0.0338
  C  C79  1  0.770700  0.618700  0.222700  1.0  -0.0906
  C  C80  1  0.703800  0.616900  0.171600  1.0  0.0646
  C  C81  1  0.597000  0.624300  0.176800  1.0  -0.1383
  C  C82  1  0.535800  0.625000  0.127100  1.0  -0.1434
  C  C83  1  0.579500  0.619700  0.068700  1.0  -0.0585
  C  C84  1  0.682600  0.611700  0.062600  1.0  -0.1065
  C  C85  1  0.747200  0.611000  0.112800  1.0  0.0474
  C  C86  1  0.855600  0.604200  0.108000  1.0  -0.1069
  C  C87  1  0.250400  0.312600  0.152000  1.0  -0.0967
  C  C88  1  0.283100  0.275400  0.207800  1.0  -0.0546
  C  C89  1  0.289700  0.172000  0.214500  1.0  -0.0807
  C  C90  1  0.260800  0.102700  0.167100  1.0  0.0473
  C  C91  1  0.261800  0.995100  0.174000  1.0  -0.0764
  C  C92  1  0.231000  0.929700  0.128200  1.0  -0.1208
  C  C93  1  0.202600  0.968700  0.071600  1.0  -0.0651
  C  C94  1  0.203200  0.071900  0.063400  1.0  -0.0963
  C  C95  1  0.229700  0.141400  0.111400  1.0  0.0568
  C  C96  1  0.226300  0.247900  0.104900  1.0  -0.0738
  C  C97  1  0.156400  0.540100  0.953900  1.0  0.1645
  C  C98  1  0.153700  0.542800  0.892100  1.0  -0.2159
  C  C99  1  0.208000  0.625100  0.863700  1.0  0.1139
  C  C100  1  0.260400  0.701500  0.896500  1.0  -0.218
  C  C101  1  0.259540  0.693560  0.958560  1.0  0.1667
  C  C102  1  0.763000  0.575100  0.645100  1.0  0.6981
  C  C103  1  0.969500  0.394200  0.650300  1.0  0.6868
  C  C104  1  0.772000  0.184100  0.636100  1.0  0.7052
  C  C105  1  0.577900  0.368200  0.634100  1.0  0.7197
  C  C106  1  0.805700  0.448600  0.828400  1.0  0.161
  C  C107  1  0.812100  0.449400  0.890700  1.0  -0.211
  C  C108  1  0.778300  0.360300  0.920200  1.0  0.2247
  C  C109  1  0.736900  0.275200  0.889500  1.0  -0.1891
  C  C110  1  0.734100  0.281600  0.827400  1.0  0.156
  C  C111  1  0.686100  0.348600  0.014400  1.0  0.5638
  C  C112  1  0.688600  0.353200  0.081100  1.0  -0.1243
  C  C113  1  0.599200  0.355000  0.112200  1.0  -0.0066
  C  C114  1  0.601600  0.359100  0.175800  1.0  -0.0167
  C  C115  1  0.694000  0.359100  0.205000  1.0  -0.1261
  C  C116  1  0.695000  0.365700  0.271200  1.0  0.2347
  C  C117  1  0.791300  0.368000  0.299400  1.0  0.0071
  C  C118  1  0.887200  0.367000  0.269300  1.0  0.2612
  C  C119  1  0.882200  0.358300  0.203100  1.0  -0.1256
  C  C120  1  0.971500  0.356800  0.171500  1.0  -0.0077
  C  C121  1  0.970100  0.354200  0.108300  1.0  -0.0286
  C  C122  1  0.878300  0.354600  0.078800  1.0  -0.1593
  C  C123  1  0.878500  0.359600  0.012200  1.0  0.4924
  C  C124  1  0.784900  0.353300  0.110300  1.0  0.0684
  C  C125  1  0.786300  0.357800  0.173800  1.0  0.0409
  C  C126  1  0.084000  0.393900  0.658500  1.0  -0.1338
  C  C127  1  0.127100  0.387600  0.716100  1.0  -0.0344
  C  C128  1  0.229300  0.381300  0.722700  1.0  -0.0912
  C  C129  1  0.296200  0.383100  0.671600  1.0  0.0614
  C  C130  1  0.403000  0.375700  0.676800  1.0  -0.1357
  C  C131  1  0.464200  0.375000  0.627100  1.0  -0.1442
  C  C132  1  0.420500  0.380300  0.568700  1.0  -0.0596
  C  C133  1  0.317400  0.388300  0.562600  1.0  -0.1066
  C  C134  1  0.252800  0.389000  0.612800  1.0  0.0444
  C  C135  1  0.144400  0.395800  0.608000  1.0  -0.1067
  C  C136  1  0.749600  0.687400  0.652000  1.0  -0.0984
  C  C137  1  0.716900  0.724600  0.707800  1.0  -0.056
  C  C138  1  0.710300  0.828000  0.714500  1.0  -0.0829
  C  C139  1  0.739200  0.897300  0.667100  1.0  0.0472
  C  C140  1  0.738200  0.004900  0.674000  1.0  -0.079
  C  C141  1  0.769000  0.070300  0.628200  1.0  -0.1207
  C  C142  1  0.797400  0.031300  0.571600  1.0  -0.0655
  C  C143  1  0.796800  0.928100  0.563400  1.0  -0.0965
  C  C144  1  0.770300  0.858600  0.611400  1.0  0.0566
  C  C145  1  0.773700  0.752100  0.604900  1.0  -0.0747
  C  C146  1  0.843600  0.459900  0.453900  1.0  0.163
  C  C147  1  0.846300  0.457200  0.392100  1.0  -0.2161
  C  C148  1  0.792000  0.374900  0.363700  1.0  0.1129
  C  C149  1  0.739600  0.298500  0.396500  1.0  -0.2193
  C  C150  1  0.740460  0.306440  0.458560  1.0  0.1686
  N  N151  1  0.233600  0.633000  0.297700  1.0  -0.2995
  N  N152  1  0.219100  0.641500  0.485700  1.0  -0.2602
  N  N153  1  0.208200  0.613400  0.986400  1.0  -0.3034
  N  N154  1  0.766400  0.367000  0.797700  1.0  -0.2982
  N  N155  1  0.780900  0.358500  0.985700  1.0  -0.2608
  N  N156  1  0.791800  0.386600  0.486400  1.0  -0.3041
  O  O157  1  0.237500  0.476900  0.192900  1.0  -0.6077
  O  O158  1  0.226000  0.459600  0.093500  1.0  -0.5683
  O  O159  1  0.084300  0.620100  0.197200  1.0  -0.5968
  O  O160  1  0.063300  0.592300  0.098900  1.0  -0.5731
  O  O161  1  0.242800  0.783200  0.188000  1.0  -0.571
  O  O162  1  0.211400  0.762100  0.090300  1.0  -0.5993
  O  O163  1  0.389100  0.638500  0.185700  1.0  -0.5666
  O  O164  1  0.370300  0.630700  0.087100  1.0  -0.6019
  O  O165  1  0.394300  0.657000  0.486200  1.0  -0.473
  O  O166  1  0.382700  0.632800  0.801200  1.0  -0.476
  O  O167  1  0.032800  0.629500  0.797400  1.0  -0.47
  O  O168  1  0.044600  0.636500  0.482100  1.0  -0.469
  O  O169  1  0.762500  0.523100  0.692900  1.0  -0.6085
  O  O170  1  0.774000  0.540400  0.593500  1.0  -0.5692
  O  O171  1  0.915700  0.379900  0.697200  1.0  -0.597
  O  O172  1  0.936700  0.407700  0.598900  1.0  -0.5721
  O  O173  1  0.757200  0.216800  0.688000  1.0  -0.5717
  O  O174  1  0.788600  0.237900  0.590300  1.0  -0.5995
  O  O175  1  0.610900  0.361500  0.685700  1.0  -0.5664
  O  O176  1  0.629700  0.369300  0.587100  1.0  -0.6011
  O  O177  1  0.605700  0.343000  0.986200  1.0  -0.4723
  O  O178  1  0.617300  0.367200  0.301200  1.0  -0.4743
  O  O179  1  0.967200  0.370500  0.297400  1.0  -0.4715
  O  O180  1  0.955400  0.363500  0.982100  1.0  -0.4672
