# generated using pymatgen
data_Cu5H17(C6N5)4
_symmetry_space_group_name_H-M   'P 1'
_cell_length_a   11.02270000
_cell_length_b   11.60490000
_cell_length_c   15.80190000
_cell_angle_alpha   97.21900000
_cell_angle_beta   102.51800000
_cell_angle_gamma   102.96400000
_symmetry_Int_Tables_number   1
_chemical_formula_structural   Cu5H17(C6N5)4
_chemical_formula_sum   'Cu10 H34 C48 N40'
_cell_volume   1890.44345878
_cell_formula_units_Z   2
loop_
 _symmetry_equiv_pos_site_id
 _symmetry_equiv_pos_as_xyz
  1  'x, y, z'
loop_
 _atom_site_type_symbol
 _atom_site_label
 _atom_site_symmetry_multiplicity
 _atom_site_fract_x
 _atom_site_fract_y
 _atom_site_fract_z
 _atom_site_occupancy
 _atom_site_charge
  Cu  Cu1  1  0.845260  0.713950  0.136920  1.0  0.5454
  Cu  Cu2  1  0.574860  0.493210  0.126620  1.0  0.3669
  Cu  Cu3  1  0.006060  0.326010  0.036430  1.0  0.3799
  Cu  Cu4  1  0.289430  0.588410  0.050840  1.0  0.4151
  Cu  Cu5  1  0.628270  0.633180  0.514950  1.0  0.3267
  Cu  Cu6  1  0.154740  0.286050  0.863080  1.0  0.5475
  Cu  Cu7  1  0.425140  0.506790  0.873380  1.0  0.3668
  Cu  Cu8  1  0.993940  0.673990  0.963570  1.0  0.3784
  Cu  Cu9  1  0.710570  0.411590  0.949160  1.0  0.4149
  Cu  Cu10  1  0.371730  0.366820  0.485050  1.0  0.3333
  H  H11  1  0.623100  0.023000  0.285400  1.0  0.1984
  H  H12  1  0.596500  0.263000  0.135500  1.0  0.1019
  H  H13  1  0.712900  0.142300  0.203900  1.0  0.1007
  H  H14  1  0.422000  0.991000  0.290800  1.0  0.0893
  H  H15  1  0.296000  0.102600  0.222100  1.0  0.1081
  H  H16  1  0.265400  0.782800  0.383000  1.0  0.1164
  H  H17  1  0.416500  0.756900  0.498200  1.0  0.0667
  H  H18  1  0.500300  0.508200  0.347300  1.0  0.0814
  H  H19  1  0.357100  0.531700  0.225500  1.0  0.0985
  H  H20  1  0.063900  0.265600  0.203600  1.0  0.1
  H  H21  1  0.232700  0.252400  0.311700  1.0  0.0797
  H  H22  1  0.179700  0.506600  0.475500  1.0  0.0715
  H  H23  1  0.009700  0.529000  0.370600  1.0  0.1154
  H  H24  1  0.592700  0.007100  0.983100  1.0  0.0904
  H  H25  1  0.896300  0.903100  0.107700  1.0  0.1344
  H  H26  1  0.027200  0.076400  0.090000  1.0  0.0654
  H  H27  1  0.733800  0.176600  0.968700  1.0  0.0595
  H  H28  1  0.376900  0.977000  0.714600  1.0  0.1997
  H  H29  1  0.403500  0.737000  0.864500  1.0  0.1024
  H  H30  1  0.287100  0.857700  0.796100  1.0  0.1002
  H  H31  1  0.578000  0.009000  0.709200  1.0  0.0879
  H  H32  1  0.704000  0.897400  0.777900  1.0  0.1084
  H  H33  1  0.734600  0.217200  0.617000  1.0  0.1159
  H  H34  1  0.583500  0.243100  0.501800  1.0  0.0665
  H  H35  1  0.499700  0.491800  0.652700  1.0  0.0815
  H  H36  1  0.642900  0.468300  0.774500  1.0  0.0983
  H  H37  1  0.936100  0.734400  0.796400  1.0  0.0999
  H  H38  1  0.767300  0.747600  0.688300  1.0  0.0797
  H  H39  1  0.820300  0.493400  0.524500  1.0  0.0705
  H  H40  1  0.990300  0.471000  0.629400  1.0  0.1154
  H  H41  1  0.407300  0.992900  0.016900  1.0  0.09
  H  H42  1  0.103700  0.096900  0.892300  1.0  0.1333
  H  H43  1  0.972800  0.923600  0.910000  1.0  0.066
  H  H44  1  0.266200  0.823400  0.031300  1.0  0.0598
  C  C45  1  0.358100  0.276900  0.133900  1.0  0.2968
  C  C46  1  0.435600  0.201900  0.176800  1.0  -0.0354
  C  C47  1  0.560400  0.210000  0.168300  1.0  -0.0944
  C  C48  1  0.629700  0.138300  0.209200  1.0  0.0405
  C  C49  1  0.456800  0.048100  0.260300  1.0  0.0491
  C  C50  1  0.381700  0.115100  0.220200  1.0  -0.1439
  C  C51  1  0.189600  0.666800  0.216800  1.0  0.2905
  C  C52  1  0.293200  0.659100  0.290200  1.0  -0.0689
  C  C53  1  0.312700  0.727300  0.374200  1.0  -0.1739
  C  C54  1  0.402700  0.710500  0.442800  1.0  0.1255
  C  C55  1  0.453200  0.564400  0.353800  1.0  0.1428
  C  C56  1  0.366500  0.577100  0.280500  1.0  -0.1604
  C  C57  1  0.915900  0.417600  0.203700  1.0  0.3307
  C  C58  1  0.020700  0.402400  0.273300  1.0  -0.0247
  C  C59  1  0.087300  0.317100  0.257900  1.0  -0.1973
  C  C60  1  0.188000  0.309200  0.323100  1.0  0.1576
  C  C61  1  0.157000  0.459300  0.419600  1.0  0.1469
  C  C62  1  0.054800  0.473300  0.357000  1.0  -0.1511
  C  C63  1  0.639800  0.827400  0.064700  1.0  0.3172
  C  C64  1  0.727500  0.936300  0.051900  1.0  0.0254
  C  C65  1  0.680600  0.019800  0.006900  1.0  -0.1848
  C  C66  1  0.766800  0.121500  0.998300  1.0  0.1626
  C  C67  1  0.938400  0.062900  0.069100  1.0  0.165
  C  C68  1  0.859800  0.958600  0.080700  1.0  -0.1718
  C  C69  1  0.641900  0.723100  0.866100  1.0  0.2967
  C  C70  1  0.564400  0.798100  0.823200  1.0  -0.0338
  C  C71  1  0.439600  0.790000  0.831700  1.0  -0.0943
  C  C72  1  0.370300  0.861700  0.790800  1.0  0.0389
  C  C73  1  0.543200  0.951900  0.739700  1.0  0.0493
  C  C74  1  0.618300  0.884900  0.779800  1.0  -0.1453
  C  C75  1  0.810400  0.333200  0.783200  1.0  0.2885
  C  C76  1  0.706800  0.340900  0.709800  1.0  -0.0706
  C  C77  1  0.687300  0.272700  0.625800  1.0  -0.1755
  C  C78  1  0.597300  0.289500  0.557200  1.0  0.1265
  C  C79  1  0.546800  0.435600  0.646200  1.0  0.141
  C  C80  1  0.633500  0.422900  0.719500  1.0  -0.1601
  C  C81  1  0.084100  0.582400  0.796300  1.0  0.3316
  C  C82  1  0.979300  0.597600  0.726700  1.0  -0.0251
  C  C83  1  0.912700  0.682900  0.742100  1.0  -0.1954
  C  C84  1  0.812000  0.690800  0.676900  1.0  0.1605
  C  C85  1  0.843000  0.540700  0.580400  1.0  0.1457
  C  C86  1  0.945200  0.526700  0.643000  1.0  -0.1512
  C  C87  1  0.360200  0.172600  0.935300  1.0  0.316
  C  C88  1  0.272500  0.063700  0.948100  1.0  0.0267
  C  C89  1  0.319400  0.980200  0.993100  1.0  -0.1851
  C  C90  1  0.233200  0.878500  0.001700  1.0  0.1631
  C  C91  1  0.061600  0.937100  0.930900  1.0  0.1654
  C  C92  1  0.140200  0.041400  0.919300  1.0  -0.1715
  N  N93  1  0.679900  0.735100  0.093500  1.0  -0.2596
  N  N94  1  0.572200  0.652600  0.093600  1.0  -0.049
  N  N95  1  0.472000  0.695300  0.066000  1.0  -0.0368
  N  N96  1  0.511300  0.805000  0.047000  1.0  -0.3623
  N  N97  1  0.894700  0.146200  0.029600  1.0  -0.3443
  N  N98  1  0.403300  0.384900  0.113000  1.0  -0.3099
  N  N99  1  0.297600  0.419000  0.076800  1.0  -0.1644
  N  N100  1  0.194300  0.334100  0.077300  1.0  -0.1109
  N  N101  1  0.229700  0.244200  0.113100  1.0  -0.3903
  N  N102  1  0.576900  0.062900  0.256600  1.0  -0.2651
  N  N103  1  0.066500  0.658400  0.090500  1.0  -0.1322
  N  N104  1  0.009800  0.687900  0.153000  1.0  0.0154
  N  N105  1  0.084700  0.694900  0.232900  1.0  -0.333
  N  N106  1  0.181700  0.643800  0.129600  1.0  -0.3858
  N  N107  1  0.472300  0.629800  0.434100  1.0  -0.2975
  N  N108  1  0.909000  0.399800  0.116900  1.0  -0.3403
  N  N109  1  0.798400  0.425700  0.079400  1.0  -0.0943
  N  N110  1  0.743700  0.456800  0.142300  1.0  -0.0208
  N  N111  1  0.815300  0.452600  0.221500  1.0  -0.3546
  N  N112  1  0.224600  0.380300  0.403000  1.0  -0.3224
  N  N113  1  0.320100  0.264900  0.906500  1.0  -0.2593
  N  N114  1  0.427800  0.347400  0.906400  1.0  -0.0457
  N  N115  1  0.528000  0.304700  0.934000  1.0  -0.039
  N  N116  1  0.488700  0.195000  0.953000  1.0  -0.3637
  N  N117  1  0.105300  0.853800  0.970400  1.0  -0.3428
  N  N118  1  0.596700  0.615100  0.887000  1.0  -0.3081
  N  N119  1  0.702400  0.581000  0.923200  1.0  -0.1639
  N  N120  1  0.805700  0.665900  0.922700  1.0  -0.1108
  N  N121  1  0.770300  0.755800  0.886900  1.0  -0.3913
  N  N122  1  0.423100  0.937100  0.743400  1.0  -0.2658
  N  N123  1  0.933500  0.341600  0.909500  1.0  -0.134
  N  N124  1  0.990200  0.312100  0.847000  1.0  0.012
  N  N125  1  0.915300  0.305100  0.767100  1.0  -0.3312
  N  N126  1  0.818300  0.356200  0.870400  1.0  -0.3864
  N  N127  1  0.527700  0.370200  0.565900  1.0  -0.2975
  N  N128  1  0.091000  0.600200  0.883100  1.0  -0.3409
  N  N129  1  0.201600  0.574300  0.920600  1.0  -0.0946
  N  N130  1  0.256300  0.543200  0.857700  1.0  -0.0196
  N  N131  1  0.184700  0.547400  0.778500  1.0  -0.3527
  N  N132  1  0.775400  0.619700  0.597000  1.0  -0.3213
