# generated using pymatgen
data_ZnH12(CN2)12
_symmetry_space_group_name_H-M   'P 1'
_cell_length_a   8.18600000
_cell_length_b   20.16000000
_cell_length_c   8.95210000
_cell_angle_alpha   90.00000000
_cell_angle_beta   91.04000000
_cell_angle_gamma   90.00000000
_symmetry_Int_Tables_number   1
_chemical_formula_structural   ZnH12(CN2)12
_chemical_formula_sum   'Zn2 H24 C24 N48'
_cell_volume   1477.11954470
_cell_formula_units_Z   2
loop_
 _symmetry_equiv_pos_site_id
 _symmetry_equiv_pos_as_xyz
  1  'x, y, z'
loop_
 _atom_site_type_symbol
 _atom_site_label
 _atom_site_symmetry_multiplicity
 _atom_site_fract_x
 _atom_site_fract_y
 _atom_site_fract_z
 _atom_site_occupancy
 _atom_site_charge
  Zn  Zn1  1  0.500000  0.000000  0.000000  1.0  0.4748
  Zn  Zn2  1  0.000000  0.500000  0.500000  1.0  0.4748
  H  H3  1  0.486900  0.133200  0.797000  1.0  0.1128
  H  H4  1  0.966300  0.148200  0.831500  1.0  0.0992
  H  H5  1  0.028600  0.356900  0.671300  1.0  0.095
  H  H6  1  0.553900  0.333600  0.623700  1.0  0.0995
  H  H7  1  0.103400  0.998400  0.854000  1.0  0.1089
  H  H8  1  0.319200  0.998100  0.462600  1.0  0.0959
  H  H9  1  0.013100  0.633200  0.703000  1.0  0.1113
  H  H10  1  0.533700  0.648200  0.668500  1.0  0.0997
  H  H11  1  0.471400  0.856900  0.828700  1.0  0.096
  H  H12  1  0.946100  0.833600  0.876300  1.0  0.0983
  H  H13  1  0.396600  0.498400  0.646000  1.0  0.1089
  H  H14  1  0.180800  0.498100  0.037400  1.0  0.0959
  H  H15  1  0.513100  0.866800  0.203000  1.0  0.1111
  H  H16  1  0.033700  0.851800  0.168500  1.0  0.0994
  H  H17  1  0.971400  0.643100  0.328700  1.0  0.0967
  H  H18  1  0.446100  0.666400  0.376300  1.0  0.0985
  H  H19  1  0.896600  0.001600  0.146000  1.0  0.1091
  H  H20  1  0.680800  0.001900  0.537400  1.0  0.096
  H  H21  1  0.986900  0.366800  0.297000  1.0  0.1127
  H  H22  1  0.466300  0.351800  0.331500  1.0  0.0985
  H  H23  1  0.528600  0.143100  0.171300  1.0  0.0951
  H  H24  1  0.053900  0.166400  0.123700  1.0  0.0989
  H  H25  1  0.603400  0.501600  0.354000  1.0  0.109
  H  H26  1  0.819200  0.501900  0.962600  1.0  0.096
  C  C27  1  0.596100  0.124190  0.819300  1.0  0.1555
  C  C28  1  0.860300  0.132040  0.838300  1.0  0.132
  C  C29  1  0.919100  0.364290  0.647600  1.0  0.133
  C  C30  1  0.658200  0.351840  0.621800  1.0  0.1562
  C  C31  1  0.182400  0.997990  0.780600  1.0  0.1771
  C  C32  1  0.302300  0.997850  0.565000  1.0  0.1144
  C  C33  1  0.903900  0.624190  0.680700  1.0  0.1544
  C  C34  1  0.639700  0.632040  0.661700  1.0  0.1317
  C  C35  1  0.580900  0.864290  0.852400  1.0  0.133
  C  C36  1  0.841800  0.851840  0.878200  1.0  0.1559
  C  C37  1  0.317600  0.497990  0.719400  1.0  0.176
  C  C38  1  0.197700  0.497850  0.935000  1.0  0.1123
  C  C39  1  0.403900  0.875810  0.180700  1.0  0.1546
  C  C40  1  0.139700  0.867960  0.161700  1.0  0.1323
  C  C41  1  0.080900  0.635710  0.352400  1.0  0.1326
  C  C42  1  0.341800  0.648160  0.378200  1.0  0.1563
  C  C43  1  0.817600  0.002010  0.219400  1.0  0.1758
  C  C44  1  0.697700  0.002150  0.435000  1.0  0.1123
  C  C45  1  0.096100  0.375810  0.319300  1.0  0.1556
  C  C46  1  0.360300  0.367960  0.338300  1.0  0.132
  C  C47  1  0.419100  0.135710  0.147600  1.0  0.1323
  C  C48  1  0.158200  0.148160  0.121800  1.0  0.1559
  C  C49  1  0.682400  0.502010  0.280600  1.0  0.1769
  C  C50  1  0.802300  0.502150  0.065000  1.0  0.1144
  N  N51  1  0.649800  0.072450  0.889600  1.0  -0.1565
  N  N52  1  0.819700  0.076660  0.901300  1.0  -0.2608
  N  N53  1  0.723500  0.163160  0.783500  1.0  0.1413
  N  N54  1  0.697400  0.226120  0.723400  1.0  -0.2847
  N  N55  1  0.826300  0.257180  0.724700  1.0  -0.2878
  N  N56  1  0.797800  0.320310  0.667000  1.0  0.1696
  N  N57  1  0.860400  0.418460  0.591100  1.0  -0.1641
  N  N58  1  0.692800  0.411520  0.575400  1.0  -0.2639
  N  N59  1  0.339900  0.996770  0.804400  1.0  -0.1763
  N  N60  1  0.416500  0.996650  0.666400  1.0  -0.2499
  N  N61  1  0.152800  0.998610  0.630800  1.0  0.15
  N  N62  1  0.996700  0.000080  0.569400  1.0  -0.3311
  N  N63  1  0.850200  0.572450  0.610400  1.0  -0.1564
  N  N64  1  0.680300  0.576660  0.598700  1.0  -0.2617
  N  N65  1  0.776500  0.663160  0.716500  1.0  0.1418
  N  N66  1  0.802600  0.726120  0.776600  1.0  -0.2862
  N  N67  1  0.673700  0.757180  0.775300  1.0  -0.2857
  N  N68  1  0.702200  0.820310  0.833000  1.0  0.17
  N  N69  1  0.639600  0.918460  0.908900  1.0  -0.1635
  N  N70  1  0.807200  0.911520  0.924600  1.0  -0.263
  N  N71  1  0.160100  0.496770  0.695600  1.0  -0.1771
  N  N72  1  0.083500  0.496650  0.833600  1.0  -0.2498
  N  N73  1  0.347200  0.498610  0.869200  1.0  0.1511
  N  N74  1  0.503300  0.500080  0.930600  1.0  -0.3299
  N  N75  1  0.350200  0.927550  0.110400  1.0  -0.1575
  N  N76  1  0.180300  0.923340  0.098700  1.0  -0.262
  N  N77  1  0.276500  0.836840  0.216500  1.0  0.1429
  N  N78  1  0.302600  0.773880  0.276600  1.0  -0.2858
  N  N79  1  0.173700  0.742820  0.275300  1.0  -0.2854
  N  N80  1  0.202200  0.679690  0.333000  1.0  0.17
  N  N81  1  0.139600  0.581540  0.408900  1.0  -0.162
  N  N82  1  0.307200  0.588480  0.424600  1.0  -0.2633
  N  N83  1  0.660100  0.003230  0.195600  1.0  -0.1768
  N  N84  1  0.583500  0.003350  0.333600  1.0  -0.2495
  N  N85  1  0.847200  0.001390  0.369200  1.0  0.1479
  N  N86  1  0.003300  0.999920  0.430600  1.0  -0.3301
  N  N87  1  0.149800  0.427550  0.389600  1.0  -0.1577
  N  N88  1  0.319700  0.423340  0.401300  1.0  -0.2612
  N  N89  1  0.223500  0.336840  0.283500  1.0  0.1413
  N  N90  1  0.197400  0.273880  0.223400  1.0  -0.2853
  N  N91  1  0.326300  0.242820  0.224700  1.0  -0.2879
  N  N92  1  0.297800  0.179690  0.167000  1.0  0.1694
  N  N93  1  0.360400  0.081540  0.091100  1.0  -0.1628
  N  N94  1  0.192800  0.088480  0.075400  1.0  -0.2637
  N  N95  1  0.839900  0.503230  0.304400  1.0  -0.1763
  N  N96  1  0.916500  0.503350  0.166400  1.0  -0.2498
  N  N97  1  0.652800  0.501390  0.130800  1.0  0.1468
  N  N98  1  0.496700  0.499920  0.069400  1.0  -0.3312
