# generated using pymatgen
data_Cd2H6(C2N3)3
_symmetry_space_group_name_H-M   'P 1'
_cell_length_a   8.02220000
_cell_length_b   18.10990000
_cell_length_c   21.95400000
_cell_angle_alpha   90.00000000
_cell_angle_beta   90.00000000
_cell_angle_gamma   90.00000000
_symmetry_Int_Tables_number   1
_chemical_formula_structural   Cd2H6(C2N3)3
_chemical_formula_sum   'Cd16 H48 C48 N72'
_cell_volume   3189.50433813
_cell_formula_units_Z   8
loop_
 _symmetry_equiv_pos_site_id
 _symmetry_equiv_pos_as_xyz
  1  'x, y, z'
loop_
 _atom_site_type_symbol
 _atom_site_label
 _atom_site_symmetry_multiplicity
 _atom_site_fract_x
 _atom_site_fract_y
 _atom_site_fract_z
 _atom_site_occupancy
 _atom_site_charge
  Cd  Cd1  1  0.768190  0.091320  0.139780  1.0  0.6869
  Cd  Cd2  1  0.960110  0.252710  0.890040  1.0  0.721
  Cd  Cd3  1  0.231810  0.408680  0.639780  1.0  0.6865
  Cd  Cd4  1  0.039890  0.247290  0.390040  1.0  0.7187
  Cd  Cd5  1  0.268190  0.908680  0.360220  1.0  0.6867
  Cd  Cd6  1  0.460110  0.747290  0.609960  1.0  0.72
  Cd  Cd7  1  0.731810  0.591320  0.860220  1.0  0.6869
  Cd  Cd8  1  0.539890  0.752710  0.109960  1.0  0.7197
  Cd  Cd9  1  0.231810  0.908680  0.860220  1.0  0.6866
  Cd  Cd10  1  0.039890  0.747290  0.109960  1.0  0.7187
  Cd  Cd11  1  0.768190  0.591320  0.360220  1.0  0.687
  Cd  Cd12  1  0.960110  0.752710  0.609960  1.0  0.7209
  Cd  Cd13  1  0.731810  0.091320  0.639780  1.0  0.6868
  Cd  Cd14  1  0.539890  0.252710  0.390040  1.0  0.7198
  Cd  Cd15  1  0.268190  0.408680  0.139780  1.0  0.6866
  Cd  Cd16  1  0.460110  0.247290  0.890040  1.0  0.7199
  H  H17  1  0.482700  0.163600  0.036600  1.0  0.057
  H  H18  1  0.957600  0.146100  0.015500  1.0  0.0268
  H  H19  1  0.557600  0.942300  0.106100  1.0  0.03
  H  H20  1  0.031800  0.939400  0.132900  1.0  0.0565
  H  H21  1  0.016400  0.139000  0.257000  1.0  0.0568
  H  H22  1  0.547800  0.182300  0.244000  1.0  0.0487
  H  H23  1  0.517300  0.336400  0.536600  1.0  0.0566
  H  H24  1  0.042400  0.353900  0.515500  1.0  0.0265
  H  H25  1  0.442400  0.557700  0.606100  1.0  0.0297
  H  H26  1  0.968200  0.560600  0.632900  1.0  0.0561
  H  H27  1  0.983600  0.361000  0.757000  1.0  0.0567
  H  H28  1  0.452200  0.317700  0.744000  1.0  0.0488
  H  H29  1  0.982700  0.836400  0.463400  1.0  0.0563
  H  H30  1  0.457600  0.853900  0.484500  1.0  0.0266
  H  H31  1  0.057600  0.057700  0.393900  1.0  0.0297
  H  H32  1  0.531800  0.060600  0.367100  1.0  0.0562
  H  H33  1  0.516400  0.861000  0.243000  1.0  0.0571
  H  H34  1  0.047800  0.817700  0.256000  1.0  0.0495
  H  H35  1  0.017300  0.663600  0.963400  1.0  0.0556
  H  H36  1  0.542400  0.646100  0.984500  1.0  0.027
  H  H37  1  0.942400  0.442300  0.893900  1.0  0.0298
  H  H38  1  0.468200  0.439400  0.867100  1.0  0.0563
  H  H39  1  0.483600  0.639000  0.743000  1.0  0.0567
  H  H40  1  0.952200  0.682300  0.756000  1.0  0.0489
  H  H41  1  0.517300  0.836400  0.963400  1.0  0.0558
  H  H42  1  0.042400  0.853900  0.984500  1.0  0.0266
  H  H43  1  0.442400  0.057700  0.893900  1.0  0.029
  H  H44  1  0.968200  0.060600  0.867100  1.0  0.0561
  H  H45  1  0.983600  0.861000  0.743000  1.0  0.0567
  H  H46  1  0.452200  0.817700  0.756000  1.0  0.0486
  H  H47  1  0.482700  0.663600  0.463400  1.0  0.0558
  H  H48  1  0.957600  0.646100  0.484500  1.0  0.0267
  H  H49  1  0.557600  0.442300  0.393900  1.0  0.0296
  H  H50  1  0.031800  0.439400  0.367100  1.0  0.0568
  H  H51  1  0.016400  0.639000  0.243000  1.0  0.0568
  H  H52  1  0.547800  0.682300  0.256000  1.0  0.0489
  H  H53  1  0.017300  0.163600  0.536600  1.0  0.0565
  H  H54  1  0.542400  0.146100  0.515500  1.0  0.0267
  H  H55  1  0.942400  0.942300  0.606100  1.0  0.0303
  H  H56  1  0.468200  0.939400  0.632900  1.0  0.0561
  H  H57  1  0.483600  0.139000  0.757000  1.0  0.0564
  H  H58  1  0.952200  0.182300  0.744000  1.0  0.0485
  H  H59  1  0.982700  0.336400  0.036600  1.0  0.0571
  H  H60  1  0.457600  0.353900  0.015500  1.0  0.0266
  H  H61  1  0.057600  0.557700  0.106100  1.0  0.0303
  H  H62  1  0.531800  0.560600  0.132900  1.0  0.0562
  H  H63  1  0.516400  0.361000  0.257000  1.0  0.0572
  H  H64  1  0.047800  0.317700  0.244000  1.0  0.0486
  C  C65  1  0.589800  0.166700  0.020500  1.0  0.1923
  C  C66  1  0.845900  0.157500  0.009100  1.0  0.2242
  C  C67  1  0.667100  0.926400  0.110900  1.0  0.2266
  C  C68  1  0.922700  0.924400  0.125700  1.0  0.2045
  C  C69  1  0.909400  0.156000  0.265500  1.0  0.2087
  C  C70  1  0.656600  0.179100  0.258400  1.0  0.1977
  C  C71  1  0.410200  0.333333  0.520500  1.0  0.1925
  C  C72  1  0.154100  0.342500  0.509100  1.0  0.224
  C  C73  1  0.332900  0.573600  0.610900  1.0  0.2274
  C  C74  1  0.077300  0.575600  0.625700  1.0  0.2061
  C  C75  1  0.090600  0.344000  0.765500  1.0  0.2099
  C  C76  1  0.343400  0.320900  0.758400  1.0  0.1983
  C  C77  1  0.089800  0.833300  0.479500  1.0  0.194
  C  C78  1  0.345900  0.842500  0.490900  1.0  0.2245
  C  C79  1  0.167100  0.073600  0.389100  1.0  0.2278
  C  C80  1  0.422700  0.075600  0.374300  1.0  0.2041
  C  C81  1  0.409400  0.844000  0.234500  1.0  0.2095
  C  C82  1  0.156600  0.820900  0.241600  1.0  0.1965
  C  C83  1  0.910200  0.666667  0.979500  1.0  0.1938
  C  C84  1  0.654100  0.657500  0.990900  1.0  0.2247
  C  C85  1  0.832900  0.426400  0.889100  1.0  0.2274
  C  C86  1  0.577300  0.424400  0.874300  1.0  0.2049
  C  C87  1  0.590600  0.656000  0.734500  1.0  0.2096
  C  C88  1  0.843400  0.679100  0.741600  1.0  0.1978
  C  C89  1  0.410200  0.833300  0.979500  1.0  0.194
  C  C90  1  0.154100  0.842500  0.990900  1.0  0.2241
  C  C91  1  0.332900  0.073600  0.889100  1.0  0.2274
  C  C92  1  0.077300  0.075600  0.874300  1.0  0.2055
  C  C93  1  0.090600  0.844000  0.734500  1.0  0.2088
  C  C94  1  0.343400  0.820900  0.741600  1.0  0.1974
  C  C95  1  0.589800  0.666667  0.479500  1.0  0.1936
  C  C96  1  0.845900  0.657500  0.490900  1.0  0.2243
  C  C97  1  0.667100  0.426400  0.389100  1.0  0.2265
  C  C98  1  0.922700  0.424400  0.374300  1.0  0.2048
  C  C99  1  0.909400  0.656000  0.234500  1.0  0.2095
  C  C100  1  0.656600  0.679100  0.241600  1.0  0.1971
  C  C101  1  0.910200  0.166700  0.520500  1.0  0.1933
  C  C102  1  0.654100  0.157500  0.509100  1.0  0.2247
  C  C103  1  0.832900  0.926400  0.610900  1.0  0.2273
  C  C104  1  0.577300  0.924400  0.625700  1.0  0.2048
  C  C105  1  0.590600  0.156000  0.765500  1.0  0.2093
  C  C106  1  0.843400  0.179100  0.758400  1.0  0.1981
  C  C107  1  0.089800  0.333333  0.020500  1.0  0.1914
  C  C108  1  0.345900  0.342500  0.009100  1.0  0.2243
  C  C109  1  0.167100  0.573600  0.110900  1.0  0.2278
  C  C110  1  0.422700  0.575600  0.125700  1.0  0.2045
  C  C111  1  0.409400  0.344000  0.265500  1.0  0.21
  C  C112  1  0.156600  0.320900  0.258400  1.0  0.1977
  N  N113  1  0.727200  0.139400  0.048800  1.0  -0.4427
  N  N114  1  0.795100  0.191900  0.961400  1.0  -0.2834
  N  N115  1  0.625200  0.198100  0.967800  1.0  -0.2878
  N  N116  1  0.778400  0.146500  0.228000  1.0  -0.4225
  N  N117  1  0.704100  0.206400  0.310600  1.0  -0.253
  N  N118  1  0.869400  0.191800  0.315500  1.0  -0.2808
  N  N119  1  0.788700  0.971400  0.123100  1.0  -0.4195
  N  N120  1  0.711000  0.856800  0.105800  1.0  -0.304
  N  N121  1  0.877200  0.855700  0.116600  1.0  -0.2418
  N  N122  1  0.272800  0.360600  0.548800  1.0  -0.4429
  N  N123  1  0.204900  0.308100  0.461400  1.0  -0.2837
  N  N124  1  0.374800  0.301900  0.467800  1.0  -0.2887
  N  N125  1  0.221600  0.353500  0.728000  1.0  -0.4221
  N  N126  1  0.295900  0.293600  0.810600  1.0  -0.2518
  N  N127  1  0.130600  0.308200  0.815500  1.0  -0.2799
  N  N128  1  0.211300  0.528600  0.623100  1.0  -0.4213
  N  N129  1  0.289000  0.643200  0.605800  1.0  -0.304
  N  N130  1  0.122800  0.644300  0.616600  1.0  -0.243
  N  N131  1  0.227200  0.860600  0.451200  1.0  -0.4425
  N  N132  1  0.295100  0.808100  0.538600  1.0  -0.2842
  N  N133  1  0.125200  0.801900  0.532200  1.0  -0.286
  N  N134  1  0.278400  0.853500  0.272000  1.0  -0.422
  N  N135  1  0.204100  0.793600  0.189400  1.0  -0.2544
  N  N136  1  0.369400  0.808200  0.184500  1.0  -0.2818
  N  N137  1  0.288700  0.028600  0.376900  1.0  -0.4221
  N  N138  1  0.211000  0.143200  0.394200  1.0  -0.3044
  N  N139  1  0.377200  0.144300  0.383400  1.0  -0.2426
  N  N140  1  0.772800  0.639400  0.951200  1.0  -0.4435
  N  N141  1  0.704900  0.691900  0.038600  1.0  -0.2854
  N  N142  1  0.874800  0.698100  0.032200  1.0  -0.2873
  N  N143  1  0.721600  0.646500  0.772000  1.0  -0.4199
  N  N144  1  0.795900  0.706400  0.689400  1.0  -0.2538
  N  N145  1  0.630600  0.691800  0.684500  1.0  -0.2822
  N  N146  1  0.711300  0.471400  0.876900  1.0  -0.4195
  N  N147  1  0.789000  0.356800  0.894200  1.0  -0.3046
  N  N148  1  0.622800  0.355700  0.883400  1.0  -0.2428
  N  N149  1  0.272800  0.860600  0.951200  1.0  -0.4426
  N  N150  1  0.204900  0.808100  0.038600  1.0  -0.2852
  N  N151  1  0.374800  0.801900  0.032200  1.0  -0.287
  N  N152  1  0.221600  0.853500  0.772000  1.0  -0.4219
  N  N153  1  0.295900  0.793600  0.689400  1.0  -0.2536
  N  N154  1  0.130600  0.808200  0.684500  1.0  -0.2813
  N  N155  1  0.211300  0.028600  0.876900  1.0  -0.4218
  N  N156  1  0.289000  0.143200  0.894200  1.0  -0.3042
  N  N157  1  0.122800  0.144300  0.883400  1.0  -0.2431
  N  N158  1  0.727200  0.639400  0.451200  1.0  -0.4434
  N  N159  1  0.795100  0.691900  0.538600  1.0  -0.2842
  N  N160  1  0.625200  0.698100  0.532200  1.0  -0.2861
  N  N161  1  0.778400  0.646500  0.272000  1.0  -0.4199
  N  N162  1  0.704100  0.706400  0.189400  1.0  -0.2543
  N  N163  1  0.869400  0.691800  0.184500  1.0  -0.2823
  N  N164  1  0.788700  0.471400  0.376900  1.0  -0.4197
  N  N165  1  0.711000  0.356800  0.394200  1.0  -0.3049
  N  N166  1  0.877200  0.355700  0.383400  1.0  -0.2421
  N  N167  1  0.772800  0.139400  0.548800  1.0  -0.4427
  N  N168  1  0.704900  0.191900  0.461400  1.0  -0.2841
  N  N169  1  0.874800  0.198100  0.467800  1.0  -0.2893
  N  N170  1  0.721600  0.146500  0.728000  1.0  -0.4225
  N  N171  1  0.795900  0.206400  0.810600  1.0  -0.2523
  N  N172  1  0.630600  0.191800  0.815500  1.0  -0.2803
  N  N173  1  0.711300  0.971400  0.623100  1.0  -0.4193
  N  N174  1  0.789000  0.856800  0.605800  1.0  -0.3037
  N  N175  1  0.622800  0.855700  0.616600  1.0  -0.2426
  N  N176  1  0.227200  0.360600  0.048800  1.0  -0.4429
  N  N177  1  0.295100  0.308100  0.961400  1.0  -0.2831
  N  N178  1  0.125200  0.301900  0.967800  1.0  -0.2872
  N  N179  1  0.278400  0.353500  0.228000  1.0  -0.4223
  N  N180  1  0.204100  0.293600  0.310600  1.0  -0.2526
  N  N181  1  0.369400  0.308200  0.315500  1.0  -0.2809
  N  N182  1  0.288700  0.528600  0.123100  1.0  -0.4216
  N  N183  1  0.211000  0.643200  0.105800  1.0  -0.3042
  N  N184  1  0.377200  0.644300  0.116600  1.0  -0.2426
