# generated using pymatgen
data_Cd3H10C10BrN15
_symmetry_space_group_name_H-M   'P 1'
_cell_length_a   7.85160000
_cell_length_b   10.73830000
_cell_length_c   14.19280000
_cell_angle_alpha   112.22900000
_cell_angle_beta   90.00000000
_cell_angle_gamma   90.00000000
_symmetry_Int_Tables_number   1
_chemical_formula_structural   Cd3H10C10BrN15
_chemical_formula_sum   'Cd6 H20 C20 Br2 N30'
_cell_volume   1107.70036419
_cell_formula_units_Z   2
loop_
 _symmetry_equiv_pos_site_id
 _symmetry_equiv_pos_as_xyz
  1  'x, y, z'
loop_
 _atom_site_type_symbol
 _atom_site_label
 _atom_site_symmetry_multiplicity
 _atom_site_fract_x
 _atom_site_fract_y
 _atom_site_fract_z
 _atom_site_occupancy
 _atom_site_charge
  Cd  Cd1  1  0.032700  0.010920  0.021840  1.0  0.7372
  Cd  Cd2  1  0.453900  0.239730  0.479460  1.0  0.7879
  Cd  Cd3  1  0.532700  0.989080  0.978160  1.0  0.7368
  Cd  Cd4  1  0.953900  0.760270  0.520540  1.0  0.7868
  Cd  Cd5  1  0.746000  0.624080  0.248160  1.0  0.8545
  Cd  Cd6  1  0.246000  0.375920  0.751840  1.0  0.8545
  H  H7  1  0.995700  0.814200  0.165200  1.0  0.0668
  H  H8  1  0.523000  0.733400  0.073400  1.0  0.0836
  H  H9  1  0.562100  0.368800  0.300200  1.0  0.0583
  H  H10  1  0.743800  0.503000  0.572400  1.0  0.0693
  H  H11  1  0.495700  0.185800  0.834800  1.0  0.0664
  H  H12  1  0.023000  0.266600  0.926600  1.0  0.0837
  H  H13  1  0.062100  0.631200  0.699800  1.0  0.0573
  H  H14  1  0.243800  0.497000  0.427600  1.0  0.0703
  H  H15  1  0.495700  0.649000  0.834800  1.0  0.0624
  H  H16  1  0.023000  0.660000  0.926600  1.0  0.0833
  H  H17  1  0.062100  0.068600  0.699800  1.0  0.0581
  H  H18  1  0.243800  0.930600  0.427600  1.0  0.0719
  H  H19  1  0.995700  0.351000  0.165200  1.0  0.0631
  H  H20  1  0.523000  0.340000  0.073400  1.0  0.0831
  H  H21  1  0.562100  0.931400  0.300200  1.0  0.0576
  H  H22  1  0.743800  0.069400  0.572400  1.0  0.071
  H  H23  1  0.578400  0.119300  0.238600  1.0  0.0951
  H  H24  1  0.093200  0.148800  0.297600  1.0  0.0871
  H  H25  1  0.078400  0.880700  0.761400  1.0  0.0949
  H  H26  1  0.593200  0.851200  0.702400  1.0  0.0867
  C  C27  1  0.891000  0.813100  0.134200  1.0  0.2381
  C  C28  1  0.633000  0.768000  0.084000  1.0  0.2278
  C  C29  1  0.617000  0.421900  0.359800  1.0  0.2426
  C  C30  1  0.715000  0.494300  0.506600  1.0  0.2378
  C  C31  1  0.391000  0.186900  0.865800  1.0  0.2384
  C  C32  1  0.133000  0.232000  0.916000  1.0  0.2272
  C  C33  1  0.117000  0.578100  0.640200  1.0  0.2422
  C  C34  1  0.215000  0.505700  0.493400  1.0  0.2376
  C  C35  1  0.391000  0.678900  0.865800  1.0  0.2378
  C  C36  1  0.133000  0.684000  0.916000  1.0  0.2298
  C  C37  1  0.117000  0.062100  0.640200  1.0  0.2425
  C  C38  1  0.215000  0.987700  0.493400  1.0  0.2377
  C  C39  1  0.891000  0.321100  0.134200  1.0  0.2382
  C  C40  1  0.633000  0.316000  0.084000  1.0  0.2291
  C  C41  1  0.617000  0.937900  0.359800  1.0  0.2421
  C  C42  1  0.715000  0.012300  0.506600  1.0  0.2375
  C  C43  1  0.461000  0.114900  0.229800  1.0  0.1567
  C  C44  1  0.195000  0.130900  0.261800  1.0  0.2257
  C  C45  1  0.961000  0.885100  0.770200  1.0  0.1569
  C  C46  1  0.695000  0.869100  0.738200  1.0  0.2257
  Br  Br47  1  0.059900  0.655360  0.310720  1.0  -0.5294
  Br  Br48  1  0.559900  0.344640  0.689280  1.0  -0.5294
  N  N49  1  0.856000  0.888200  0.084400  1.0  -0.2442
  N  N50  1  0.689000  0.859800  0.050000  1.0  -0.2765
  N  N51  1  0.757000  0.730500  0.136600  1.0  -0.4792
  N  N52  1  0.696000  0.533000  0.370600  1.0  -0.2786
  N  N53  1  0.759000  0.582600  0.465200  1.0  -0.2614
  N  N54  1  0.624000  0.392700  0.442400  1.0  -0.4467
  N  N55  1  0.356000  0.111800  0.915600  1.0  -0.2434
  N  N56  1  0.189000  0.140200  0.950000  1.0  -0.2769
  N  N57  1  0.257000  0.269500  0.863400  1.0  -0.4759
  N  N58  1  0.196000  0.467000  0.629400  1.0  -0.2781
  N  N59  1  0.259000  0.417400  0.534800  1.0  -0.2619
  N  N60  1  0.124000  0.607300  0.557600  1.0  -0.4457
  N  N61  1  0.356000  0.803800  0.915600  1.0  -0.2453
  N  N62  1  0.189000  0.809800  0.950000  1.0  -0.2752
  N  N63  1  0.257000  0.593900  0.863400  1.0  -0.4745
  N  N64  1  0.196000  0.162400  0.629400  1.0  -0.2733
  N  N65  1  0.259000  0.117400  0.534800  1.0  -0.2607
  N  N66  1  0.124000  0.950300  0.557600  1.0  -0.4439
  N  N67  1  0.856000  0.196200  0.084400  1.0  -0.2444
  N  N68  1  0.689000  0.190200  0.050000  1.0  -0.2738
  N  N69  1  0.757000  0.406100  0.136600  1.0  -0.4735
  N  N70  1  0.696000  0.837600  0.370600  1.0  -0.2736
  N  N71  1  0.759000  0.882600  0.465200  1.0  -0.2604
  N  N72  1  0.624000  0.049700  0.442400  1.0  -0.4426
  N  N73  1  0.347000  0.152000  0.304000  1.0  -0.3755
  N  N74  1  0.373000  0.066300  0.132600  1.0  -0.3207
  N  N75  1  0.208000  0.080400  0.160800  1.0  -0.2125
  N  N76  1  0.847000  0.848000  0.696000  1.0  -0.3729
  N  N77  1  0.873000  0.933700  0.867400  1.0  -0.3145
  N  N78  1  0.708000  0.919600  0.839200  1.0  -0.2145
