# generated using pymatgen
data_CdH3C2SN3O4
_symmetry_space_group_name_H-M   'P 1'
_cell_length_a   5.51440000
_cell_length_b   8.00210000
_cell_length_c   9.24670000
_cell_angle_alpha   78.48700000
_cell_angle_beta   72.86900000
_cell_angle_gamma   87.20000000
_symmetry_Int_Tables_number   1
_chemical_formula_structural   CdH3C2SN3O4
_chemical_formula_sum   'Cd2 H6 C4 S2 N6 O8'
_cell_volume   382.05745186
_cell_formula_units_Z   2
loop_
 _symmetry_equiv_pos_site_id
 _symmetry_equiv_pos_as_xyz
  1  'x, y, z'
loop_
 _atom_site_type_symbol
 _atom_site_label
 _atom_site_symmetry_multiplicity
 _atom_site_fract_x
 _atom_site_fract_y
 _atom_site_fract_z
 _atom_site_occupancy
 _atom_site_charge
  Cd  Cd1  1  0.000000  0.000000  0.000000  1.0  1.1699
  Cd  Cd2  1  0.500000  0.500000  0.500000  1.0  0.9642
  H  H3  1  0.555900  0.200800  0.267800  1.0  0.093
  H  H4  1  0.078800  0.519700  0.240600  1.0  0.1032
  H  H5  1  0.239200  0.342900  0.062600  1.0  0.3007
  H  H6  1  0.444100  0.799200  0.732200  1.0  0.0934
  H  H7  1  0.921200  0.480300  0.759400  1.0  0.1029
  H  H8  1  0.760800  0.657100  0.937400  1.0  0.2994
  C  C9  1  0.710000  0.259200  0.237300  1.0  0.2974
  C  C10  1  0.991100  0.432300  0.224100  1.0  0.2391
  C  C11  1  0.290000  0.740800  0.762700  1.0  0.2934
  C  C12  1  0.008900  0.567700  0.775900  1.0  0.2388
  S  S13  1  0.579440  0.207620  0.807310  1.0  1.6928
  S  S14  1  0.420560  0.792380  0.192690  1.0  1.6927
  N  N15  1  0.752100  0.388700  0.299700  1.0  -0.4378
  N  N16  1  0.909000  0.223400  0.128500  1.0  -0.301
  N  N17  1  0.086500  0.335800  0.123200  1.0  -0.0255
  N  N18  1  0.247900  0.611300  0.700300  1.0  -0.437
  N  N19  1  0.091000  0.776600  0.871500  1.0  -0.307
  N  N20  1  0.913500  0.664200  0.876800  1.0  -0.0219
  O  O21  1  0.694800  0.308200  0.650300  1.0  -0.7715
  O  O22  1  0.334700  0.136600  0.809000  1.0  -0.7972
  O  O23  1  0.751400  0.068600  0.836100  1.0  -0.7439
  O  O24  1  0.538000  0.318200  0.919600  1.0  -0.7146
  O  O25  1  0.305200  0.691800  0.349700  1.0  -0.7711
  O  O26  1  0.665300  0.863400  0.191000  1.0  -0.7967
  O  O27  1  0.248600  0.931400  0.163900  1.0  -0.7427
  O  O28  1  0.462000  0.681800  0.080400  1.0  -0.7132
