# generated using pymatgen
data_ZnH8C14NO4
_symmetry_space_group_name_H-M   'P 1'
_cell_length_a   29.64700000
_cell_length_b   24.66900000
_cell_length_c   9.74210000
_cell_angle_alpha   90.00000000
_cell_angle_beta   90.00000000
_cell_angle_gamma   90.00000000
_symmetry_Int_Tables_number   1
_chemical_formula_structural   ZnH8C14NO4
_chemical_formula_sum   'Zn16 H128 C224 N16 O64'
_cell_volume   7125.00021069
_cell_formula_units_Z   16
loop_
 _symmetry_equiv_pos_site_id
 _symmetry_equiv_pos_as_xyz
  1  'x, y, z'
loop_
 _atom_site_type_symbol
 _atom_site_label
 _atom_site_symmetry_multiplicity
 _atom_site_fract_x
 _atom_site_fract_y
 _atom_site_fract_z
 _atom_site_occupancy
 _atom_site_charge
  Zn  Zn1  1  0.458120  0.239260  0.978300  1.0  0.8384
  Zn  Zn2  1  0.796530  0.189140  0.861000  1.0  1.0083
  Zn  Zn3  1  0.458120  0.739260  0.478300  1.0  0.8384
  Zn  Zn4  1  0.796530  0.689140  0.361000  1.0  1.0083
  Zn  Zn5  1  0.541880  0.760740  0.978300  1.0  0.8396
  Zn  Zn6  1  0.203470  0.810860  0.861000  1.0  1.0092
  Zn  Zn7  1  0.541880  0.260740  0.478300  1.0  0.8396
  Zn  Zn8  1  0.203470  0.310860  0.361000  1.0  1.0092
  Zn  Zn9  1  0.958120  0.260740  0.978300  1.0  0.8376
  Zn  Zn10  1  0.296530  0.310860  0.861000  1.0  1.0086
  Zn  Zn11  1  0.958120  0.760740  0.478300  1.0  0.8376
  Zn  Zn12  1  0.296530  0.810860  0.361000  1.0  1.0086
  Zn  Zn13  1  0.041880  0.739260  0.978300  1.0  0.8404
  Zn  Zn14  1  0.703470  0.689140  0.861000  1.0  1.0086
  Zn  Zn15  1  0.041880  0.239260  0.478300  1.0  0.8404
  Zn  Zn16  1  0.703470  0.189140  0.361000  1.0  1.0086
  H  H17  1  0.547800  0.101300  0.916500  1.0  0.1147
  H  H18  1  0.606100  0.043000  0.861400  1.0  0.1158
  H  H19  1  0.679200  0.076100  0.839700  1.0  0.1108
  H  H20  1  0.667900  0.346600  0.143500  1.0  0.1234
  H  H21  1  0.638800  0.402000  0.974000  1.0  0.1036
  H  H22  1  0.606600  0.365800  0.780700  1.0  0.1088
  H  H23  1  0.480500  0.325500  0.772900  1.0  0.0881
  H  H24  1  0.515900  0.407900  0.768300  1.0  0.1279
  H  H25  1  0.514600  0.409100  0.179500  1.0  0.1328
  H  H26  1  0.478600  0.326500  0.174500  1.0  0.0814
  H  H27  1  0.646100  0.622200  0.669800  1.0  0.0663
  H  H28  1  0.600500  0.547400  0.668200  1.0  0.1336
  H  H29  1  0.598700  0.553400  0.076700  1.0  0.1218
  H  H30  1  0.647600  0.626000  0.067300  1.0  0.0865
  H  H31  1  0.558800  0.478200  0.785600  1.0  0.1044
  H  H32  1  0.554200  0.482100  0.066600  1.0  0.1042
  H  H33  1  0.547800  0.601300  0.416500  1.0  0.1147
  H  H34  1  0.606100  0.543000  0.361400  1.0  0.1158
  H  H35  1  0.679200  0.576100  0.339700  1.0  0.1108
  H  H36  1  0.667900  0.846600  0.643500  1.0  0.1234
  H  H37  1  0.638800  0.902000  0.474000  1.0  0.1036
  H  H38  1  0.606600  0.865800  0.280700  1.0  0.1088
  H  H39  1  0.480500  0.825500  0.272900  1.0  0.0881
  H  H40  1  0.515900  0.907900  0.268300  1.0  0.1279
  H  H41  1  0.514600  0.909100  0.679500  1.0  0.1328
  H  H42  1  0.478600  0.826500  0.674500  1.0  0.0814
  H  H43  1  0.646100  0.122200  0.169800  1.0  0.0663
  H  H44  1  0.600500  0.047400  0.168200  1.0  0.1335
  H  H45  1  0.598700  0.053400  0.576700  1.0  0.1216
  H  H46  1  0.647600  0.126000  0.567300  1.0  0.0865
  H  H47  1  0.558800  0.978200  0.285600  1.0  0.1044
  H  H48  1  0.554200  0.982100  0.566600  1.0  0.1042
  H  H49  1  0.452200  0.898700  0.916500  1.0  0.1141
  H  H50  1  0.393900  0.957000  0.861400  1.0  0.1172
  H  H51  1  0.320800  0.923900  0.839700  1.0  0.1114
  H  H52  1  0.332100  0.653400  0.143500  1.0  0.1245
  H  H53  1  0.361200  0.598000  0.974000  1.0  0.1045
  H  H54  1  0.393400  0.634200  0.780700  1.0  0.1081
  H  H55  1  0.519500  0.674500  0.772900  1.0  0.0879
  H  H56  1  0.484100  0.592100  0.768300  1.0  0.1284
  H  H57  1  0.485400  0.590900  0.179500  1.0  0.1333
  H  H58  1  0.521400  0.673500  0.174500  1.0  0.0815
  H  H59  1  0.353900  0.377800  0.669800  1.0  0.0664
  H  H60  1  0.399500  0.452600  0.668200  1.0  0.1341
  H  H61  1  0.401300  0.446600  0.076700  1.0  0.1231
  H  H62  1  0.352400  0.374000  0.067300  1.0  0.0867
  H  H63  1  0.441200  0.521800  0.785600  1.0  0.105
  H  H64  1  0.445800  0.517900  0.066600  1.0  0.1048
  H  H65  1  0.452200  0.398700  0.416500  1.0  0.1141
  H  H66  1  0.393900  0.457000  0.361400  1.0  0.1172
  H  H67  1  0.320800  0.423900  0.339700  1.0  0.1114
  H  H68  1  0.332100  0.153400  0.643500  1.0  0.1245
  H  H69  1  0.361200  0.098000  0.474000  1.0  0.1045
  H  H70  1  0.393400  0.134200  0.280700  1.0  0.1081
  H  H71  1  0.519500  0.174500  0.272900  1.0  0.0879
  H  H72  1  0.484100  0.092100  0.268300  1.0  0.1284
  H  H73  1  0.485400  0.090900  0.679500  1.0  0.1333
  H  H74  1  0.521400  0.173500  0.674500  1.0  0.0815
  H  H75  1  0.353900  0.877800  0.169800  1.0  0.0664
  H  H76  1  0.399500  0.952600  0.168200  1.0  0.134
  H  H77  1  0.401300  0.946600  0.576700  1.0  0.123
  H  H78  1  0.352400  0.874000  0.567300  1.0  0.0867
  H  H79  1  0.441200  0.021800  0.285600  1.0  0.105
  H  H80  1  0.445800  0.017900  0.566600  1.0  0.1048
  H  H81  1  0.047800  0.398700  0.916500  1.0  0.1142
  H  H82  1  0.106100  0.457000  0.861400  1.0  0.117
  H  H83  1  0.179200  0.423900  0.839700  1.0  0.1112
  H  H84  1  0.167900  0.153400  0.143500  1.0  0.1236
  H  H85  1  0.138800  0.098000  0.974000  1.0  0.104
  H  H86  1  0.106600  0.134200  0.780700  1.0  0.1087
  H  H87  1  0.980500  0.174500  0.772900  1.0  0.088
  H  H88  1  0.015900  0.092100  0.768300  1.0  0.128
  H  H89  1  0.014600  0.090900  0.179500  1.0  0.1325
  H  H90  1  0.978600  0.173500  0.174500  1.0  0.0814
  H  H91  1  0.146100  0.877800  0.669800  1.0  0.0663
  H  H92  1  0.100500  0.952600  0.668200  1.0  0.1336
  H  H93  1  0.098700  0.946600  0.076700  1.0  0.1224
  H  H94  1  0.147600  0.874000  0.067300  1.0  0.0867
  H  H95  1  0.058800  0.021800  0.785600  1.0  0.1047
  H  H96  1  0.054200  0.017900  0.066600  1.0  0.1038
  H  H97  1  0.047800  0.898700  0.416500  1.0  0.1142
  H  H98  1  0.106100  0.957000  0.361400  1.0  0.117
  H  H99  1  0.179200  0.923900  0.339700  1.0  0.1112
  H  H100  1  0.167900  0.653400  0.643500  1.0  0.1236
  H  H101  1  0.138800  0.598000  0.474000  1.0  0.104
  H  H102  1  0.106600  0.634200  0.280700  1.0  0.1087
  H  H103  1  0.980500  0.674500  0.272900  1.0  0.088
  H  H104  1  0.015900  0.592100  0.268300  1.0  0.128
  H  H105  1  0.014600  0.590900  0.679500  1.0  0.1325
  H  H106  1  0.978600  0.673500  0.674500  1.0  0.0814
  H  H107  1  0.146100  0.377800  0.169800  1.0  0.0663
  H  H108  1  0.100500  0.452600  0.168200  1.0  0.1335
  H  H109  1  0.098700  0.446600  0.576700  1.0  0.1223
  H  H110  1  0.147600  0.374000  0.567300  1.0  0.0867
  H  H111  1  0.058800  0.521800  0.285600  1.0  0.1047
  H  H112  1  0.054200  0.517900  0.566600  1.0  0.1038
  H  H113  1  0.952200  0.601300  0.916500  1.0  0.1142
  H  H114  1  0.893900  0.543000  0.861400  1.0  0.1159
  H  H115  1  0.820800  0.576100  0.839700  1.0  0.1106
  H  H116  1  0.832100  0.846600  0.143500  1.0  0.1238
  H  H117  1  0.861200  0.902000  0.974000  1.0  0.1042
  H  H118  1  0.893400  0.865800  0.780700  1.0  0.1082
  H  H119  1  0.019500  0.825500  0.772900  1.0  0.0881
  H  H120  1  0.984100  0.907900  0.768300  1.0  0.1282
  H  H121  1  0.985400  0.909100  0.179500  1.0  0.1333
  H  H122  1  0.021400  0.826500  0.174500  1.0  0.0819
  H  H123  1  0.853900  0.122200  0.669800  1.0  0.0663
  H  H124  1  0.899500  0.047400  0.668200  1.0  0.1341
  H  H125  1  0.901300  0.053400  0.076700  1.0  0.1231
  H  H126  1  0.852400  0.126000  0.067300  1.0  0.0863
  H  H127  1  0.941200  0.978200  0.785600  1.0  0.1051
  H  H128  1  0.945800  0.982100  0.066600  1.0  0.1049
  H  H129  1  0.952200  0.101300  0.416500  1.0  0.1142
  H  H130  1  0.893900  0.043000  0.361400  1.0  0.1159
  H  H131  1  0.820800  0.076100  0.339700  1.0  0.1106
  H  H132  1  0.832100  0.346600  0.643500  1.0  0.1238
  H  H133  1  0.861200  0.402000  0.474000  1.0  0.1042
  H  H134  1  0.893400  0.365800  0.280700  1.0  0.1082
  H  H135  1  0.019500  0.325500  0.272900  1.0  0.0881
  H  H136  1  0.984100  0.407900  0.268300  1.0  0.1282
  H  H137  1  0.985400  0.409100  0.679500  1.0  0.1333
  H  H138  1  0.021400  0.326500  0.674500  1.0  0.0819
  H  H139  1  0.853900  0.622200  0.169800  1.0  0.0663
  H  H140  1  0.899500  0.547400  0.168200  1.0  0.1341
  H  H141  1  0.901300  0.553400  0.576700  1.0  0.1229
  H  H142  1  0.852400  0.626000  0.567300  1.0  0.0863
  H  H143  1  0.941200  0.478200  0.285600  1.0  0.1051
  H  H144  1  0.945800  0.482100  0.566600  1.0  0.1049
  C  C145  1  0.547040  0.203750  0.978700  1.0  0.7
  C  C146  1  0.586080  0.170200  0.929600  1.0  -0.1281
  C  C147  1  0.577100  0.114420  0.908100  1.0  -0.0732
  C  C148  1  0.611800  0.079680  0.874700  1.0  -0.0698
  C  C149  1  0.655780  0.099770  0.860800  1.0  -0.055
  C  C150  1  0.664810  0.155160  0.878300  1.0  -0.1572
  C  C151  1  0.713320  0.172710  0.862900  1.0  0.6503
  C  C152  1  0.629780  0.191520  0.911300  1.0  0.0205
  C  C153  1  0.675470  0.240820  0.157600  1.0  0.6523
  C  C154  1  0.655420  0.274780  0.044600  1.0  -0.1128
  C  C155  1  0.655810  0.331620  0.064000  1.0  -0.1122
  C  C156  1  0.637950  0.364550  0.963000  1.0  -0.0883
  C  C157  1  0.618980  0.342940  0.846700  1.0  -0.0831
  C  C158  1  0.618230  0.287470  0.827100  1.0  -0.1117
  C  C159  1  0.598740  0.266360  0.693400  1.0  0.6946
  C  C160  1  0.636440  0.251840  0.925700  1.0  0.0564
  C  C161  1  0.487710  0.342370  0.855500  1.0  0.1628
  C  C162  1  0.509460  0.391630  0.852200  1.0  -0.1703
  C  C163  1  0.521760  0.417090  0.973300  1.0  0.1194
  C  C164  1  0.508620  0.392390  0.095900  1.0  -0.1872
  C  C165  1  0.486640  0.342920  0.092100  1.0  0.1664
  C  C166  1  0.637400  0.607400  0.753600  1.0  0.2004
  C  C167  1  0.609410  0.562600  0.751100  1.0  -0.2221
  C  C168  1  0.594890  0.540990  0.874100  1.0  0.1119
  C  C169  1  0.608740  0.565930  0.992100  1.0  -0.1625
  C  C170  1  0.637890  0.610100  0.986000  1.0  0.1632
  C  C171  1  0.565820  0.492470  0.871400  1.0  -0.0992
  C  C172  1  0.548770  0.467200  0.980500  1.0  -0.1704
  C  C173  1  0.547040  0.703750  0.478700  1.0  0.7
  C  C174  1  0.586080  0.670200  0.429600  1.0  -0.1281
  C  C175  1  0.577100  0.614420  0.408100  1.0  -0.0732
  C  C176  1  0.611800  0.579680  0.374700  1.0  -0.0698
  C  C177  1  0.655780  0.599770  0.360800  1.0  -0.055
  C  C178  1  0.664810  0.655160  0.378300  1.0  -0.1572
  C  C179  1  0.713320  0.672710  0.362900  1.0  0.6503
  C  C180  1  0.629780  0.691520  0.411300  1.0  0.0205
  C  C181  1  0.675470  0.740820  0.657600  1.0  0.6523
  C  C182  1  0.655420  0.774780  0.544600  1.0  -0.1128
  C  C183  1  0.655810  0.831620  0.564000  1.0  -0.1122
  C  C184  1  0.637950  0.864550  0.463000  1.0  -0.0883
  C  C185  1  0.618980  0.842940  0.346700  1.0  -0.0831
  C  C186  1  0.618230  0.787470  0.327100  1.0  -0.1117
  C  C187  1  0.598740  0.766360  0.193400  1.0  0.6946
  C  C188  1  0.636440  0.751840  0.425700  1.0  0.0564
  C  C189  1  0.487710  0.842370  0.355500  1.0  0.1628
  C  C190  1  0.509460  0.891630  0.352200  1.0  -0.1703
  C  C191  1  0.521760  0.917090  0.473300  1.0  0.1194
  C  C192  1  0.508620  0.892390  0.595900  1.0  -0.1872
  C  C193  1  0.486640  0.842920  0.592100  1.0  0.1664
  C  C194  1  0.637400  0.107400  0.253600  1.0  0.2004
  C  C195  1  0.609410  0.062600  0.251100  1.0  -0.2221
  C  C196  1  0.594890  0.040990  0.374100  1.0  0.1119
  C  C197  1  0.608740  0.065930  0.492100  1.0  -0.1625
  C  C198  1  0.637890  0.110100  0.486000  1.0  0.1632
  C  C199  1  0.565820  0.992470  0.371400  1.0  -0.0992
  C  C200  1  0.548770  0.967200  0.480500  1.0  -0.1704
  C  C201  1  0.452960  0.796250  0.978700  1.0  0.6996
  C  C202  1  0.413920  0.829800  0.929600  1.0  -0.1281
  C  C203  1  0.422900  0.885580  0.908100  1.0  -0.0746
  C  C204  1  0.388200  0.920320  0.874700  1.0  -0.0686
  C  C205  1  0.344220  0.900230  0.860800  1.0  -0.0575
  C  C206  1  0.335190  0.844840  0.878300  1.0  -0.1572
  C  C207  1  0.286680  0.827290  0.862900  1.0  0.6518
  C  C208  1  0.370220  0.808480  0.911300  1.0  0.0195
  C  C209  1  0.324530  0.759180  0.157600  1.0  0.652
  C  C210  1  0.344580  0.725220  0.044600  1.0  -0.1143
  C  C211  1  0.344190  0.668380  0.064000  1.0  -0.1097
  C  C212  1  0.362050  0.635450  0.963000  1.0  -0.0888
  C  C213  1  0.381020  0.657060  0.846700  1.0  -0.0833
  C  C214  1  0.381770  0.712530  0.827100  1.0  -0.1126
  C  C215  1  0.401260  0.733640  0.693400  1.0  0.6944
  C  C216  1  0.363560  0.748160  0.925700  1.0  0.0556
  C  C217  1  0.512290  0.657630  0.855500  1.0  0.1642
  C  C218  1  0.490540  0.608370  0.852200  1.0  -0.1692
  C  C219  1  0.478240  0.582910  0.973300  1.0  0.1198
  C  C220  1  0.491380  0.607610  0.095900  1.0  -0.1869
  C  C221  1  0.513360  0.657080  0.092100  1.0  0.1668
  C  C222  1  0.362600  0.392600  0.753600  1.0  0.1993
  C  C223  1  0.390590  0.437400  0.751100  1.0  -0.2219
  C  C224  1  0.405110  0.459010  0.874100  1.0  0.1136
  C  C225  1  0.391260  0.434070  0.992100  1.0  -0.1633
  C  C226  1  0.362110  0.389900  0.986000  1.0  0.1615
  C  C227  1  0.434180  0.507530  0.871400  1.0  -0.0985
  C  C228  1  0.451230  0.532800  0.980500  1.0  -0.172
  C  C229  1  0.452960  0.296250  0.478700  1.0  0.6996
  C  C230  1  0.413920  0.329800  0.429600  1.0  -0.1281
  C  C231  1  0.422900  0.385580  0.408100  1.0  -0.0746
  C  C232  1  0.388200  0.420320  0.374700  1.0  -0.0686
  C  C233  1  0.344220  0.400230  0.360800  1.0  -0.0575
  C  C234  1  0.335190  0.344840  0.378300  1.0  -0.1572
  C  C235  1  0.286680  0.327290  0.362900  1.0  0.6518
  C  C236  1  0.370220  0.308480  0.411300  1.0  0.0195
  C  C237  1  0.324530  0.259180  0.657600  1.0  0.652
  C  C238  1  0.344580  0.225220  0.544600  1.0  -0.1143
  C  C239  1  0.344190  0.168380  0.564000  1.0  -0.1097
  C  C240  1  0.362050  0.135450  0.463000  1.0  -0.0888
  C  C241  1  0.381020  0.157060  0.346700  1.0  -0.0833
  C  C242  1  0.381770  0.212530  0.327100  1.0  -0.1126
  C  C243  1  0.401260  0.233640  0.193400  1.0  0.6944
  C  C244  1  0.363560  0.248160  0.425700  1.0  0.0556
  C  C245  1  0.512290  0.157630  0.355500  1.0  0.1642
  C  C246  1  0.490540  0.108370  0.352200  1.0  -0.1692
  C  C247  1  0.478240  0.082910  0.473300  1.0  0.1198
  C  C248  1  0.491380  0.107610  0.595900  1.0  -0.1869
  C  C249  1  0.513360  0.157080  0.592100  1.0  0.1668
  C  C250  1  0.362600  0.892600  0.253600  1.0  0.1993
  C  C251  1  0.390590  0.937400  0.251100  1.0  -0.2219
  C  C252  1  0.405110  0.959010  0.374100  1.0  0.1136
  C  C253  1  0.391260  0.934070  0.492100  1.0  -0.1633
  C  C254  1  0.362110  0.889900  0.486000  1.0  0.1615
  C  C255  1  0.434180  0.007530  0.371400  1.0  -0.0985
  C  C256  1  0.451230  0.032800  0.480500  1.0  -0.172
  C  C257  1  0.047040  0.296250  0.978700  1.0  0.7002
  C  C258  1  0.086080  0.329800  0.929600  1.0  -0.1286
  C  C259  1  0.077100  0.385580  0.908100  1.0  -0.0726
  C  C260  1  0.111800  0.420320  0.874700  1.0  -0.0705
  C  C261  1  0.155780  0.400230  0.860800  1.0  -0.0562
  C  C262  1  0.164810  0.344840  0.878300  1.0  -0.1571
  C  C263  1  0.213320  0.327290  0.862900  1.0  0.6497
  C  C264  1  0.129780  0.308480  0.911300  1.0  0.0203
  C  C265  1  0.175470  0.259180  0.157600  1.0  0.6531
  C  C266  1  0.155420  0.225220  0.044600  1.0  -0.114
  C  C267  1  0.155810  0.168380  0.064000  1.0  -0.113
  C  C268  1  0.137950  0.135450  0.963000  1.0  -0.0892
  C  C269  1  0.118980  0.157060  0.846700  1.0  -0.0824
  C  C270  1  0.118230  0.212530  0.827100  1.0  -0.1116
  C  C271  1  0.098740  0.233640  0.693400  1.0  0.6942
  C  C272  1  0.136440  0.248160  0.925700  1.0  0.0562
  C  C273  1  0.987710  0.157630  0.855500  1.0  0.1636
  C  C274  1  0.009460  0.108370  0.852200  1.0  -0.1701
  C  C275  1  0.021760  0.082910  0.973300  1.0  0.1197
  C  C276  1  0.008620  0.107610  0.095900  1.0  -0.1865
  C  C277  1  0.986640  0.157080  0.092100  1.0  0.1662
  C  C278  1  0.137400  0.892600  0.753600  1.0  0.1995
  C  C279  1  0.109410  0.937400  0.751100  1.0  -0.2223
  C  C280  1  0.094890  0.959010  0.874100  1.0  0.1138
  C  C281  1  0.108740  0.934070  0.992100  1.0  -0.1627
  C  C282  1  0.137890  0.889900  0.986000  1.0  0.1627
  C  C283  1  0.065820  0.007530  0.871400  1.0  -0.0993
  C  C284  1  0.048770  0.032800  0.980500  1.0  -0.1711
  C  C285  1  0.047040  0.796250  0.478700  1.0  0.7002
  C  C286  1  0.086080  0.829800  0.429600  1.0  -0.1286
  C  C287  1  0.077100  0.885580  0.408100  1.0  -0.0726
  C  C288  1  0.111800  0.920320  0.374700  1.0  -0.0705
  C  C289  1  0.155780  0.900230  0.360800  1.0  -0.0562
  C  C290  1  0.164810  0.844840  0.378300  1.0  -0.1571
  C  C291  1  0.213320  0.827290  0.362900  1.0  0.6497
  C  C292  1  0.129780  0.808480  0.411300  1.0  0.0203
  C  C293  1  0.175470  0.759180  0.657600  1.0  0.6531
  C  C294  1  0.155420  0.725220  0.544600  1.0  -0.114
  C  C295  1  0.155810  0.668380  0.564000  1.0  -0.113
  C  C296  1  0.137950  0.635450  0.463000  1.0  -0.0892
  C  C297  1  0.118980  0.657060  0.346700  1.0  -0.0824
  C  C298  1  0.118230  0.712530  0.327100  1.0  -0.1116
  C  C299  1  0.098740  0.733640  0.193400  1.0  0.6942
  C  C300  1  0.136440  0.748160  0.425700  1.0  0.0562
  C  C301  1  0.987710  0.657630  0.355500  1.0  0.1636
  C  C302  1  0.009460  0.608370  0.352200  1.0  -0.1701
  C  C303  1  0.021760  0.582910  0.473300  1.0  0.1197
  C  C304  1  0.008620  0.607610  0.595900  1.0  -0.1865
  C  C305  1  0.986640  0.657080  0.592100  1.0  0.1662
  C  C306  1  0.137400  0.392600  0.253600  1.0  0.1995
  C  C307  1  0.109410  0.437400  0.251100  1.0  -0.2223
  C  C308  1  0.094890  0.459010  0.374100  1.0  0.1138
  C  C309  1  0.108740  0.434070  0.492100  1.0  -0.1627
  C  C310  1  0.137890  0.389900  0.486000  1.0  0.1627
  C  C311  1  0.065820  0.507530  0.371400  1.0  -0.0993
  C  C312  1  0.048770  0.532800  0.480500  1.0  -0.1711
  C  C313  1  0.952960  0.703750  0.978700  1.0  0.6996
  C  C314  1  0.913920  0.670200  0.929600  1.0  -0.1276
  C  C315  1  0.922900  0.614420  0.908100  1.0  -0.075
  C  C316  1  0.888200  0.579680  0.874700  1.0  -0.068
  C  C317  1  0.844220  0.599770  0.860800  1.0  -0.0568
  C  C318  1  0.835190  0.655160  0.878300  1.0  -0.1571
  C  C319  1  0.786680  0.672710  0.862900  1.0  0.6521
  C  C320  1  0.870220  0.691520  0.911300  1.0  0.02
  C  C321  1  0.824530  0.740820  0.157600  1.0  0.6504
  C  C322  1  0.844580  0.774780  0.044600  1.0  -0.1136
  C  C323  1  0.844190  0.831620  0.064000  1.0  -0.1117
  C  C324  1  0.862050  0.864550  0.963000  1.0  -0.0876
  C  C325  1  0.881020  0.842940  0.846700  1.0  -0.0839
  C  C326  1  0.881770  0.787470  0.827100  1.0  -0.1133
  C  C327  1  0.901260  0.766360  0.693400  1.0  0.6946
  C  C328  1  0.863560  0.751840  0.925700  1.0  0.0562
  C  C329  1  0.012290  0.842370  0.855500  1.0  0.1634
  C  C330  1  0.990540  0.891630  0.852200  1.0  -0.1696
  C  C331  1  0.978240  0.917090  0.973300  1.0  0.1196
  C  C332  1  0.991380  0.892390  0.095900  1.0  -0.1876
  C  C333  1  0.013360  0.842920  0.092100  1.0  0.1671
  C  C334  1  0.862600  0.107400  0.753600  1.0  0.2002
  C  C335  1  0.890590  0.062600  0.751100  1.0  -0.2213
  C  C336  1  0.905110  0.040990  0.874100  1.0  0.1124
  C  C337  1  0.891260  0.065930  0.992100  1.0  -0.1632
  C  C338  1  0.862110  0.110100  0.986000  1.0  0.1618
  C  C339  1  0.934180  0.992470  0.871400  1.0  -0.0985
  C  C340  1  0.951230  0.967200  0.980500  1.0  -0.1708
  C  C341  1  0.952960  0.203750  0.478700  1.0  0.6996
  C  C342  1  0.913920  0.170200  0.429600  1.0  -0.1276
  C  C343  1  0.922900  0.114420  0.408100  1.0  -0.075
  C  C344  1  0.888200  0.079680  0.374700  1.0  -0.068
  C  C345  1  0.844220  0.099770  0.360800  1.0  -0.0568
  C  C346  1  0.835190  0.155160  0.378300  1.0  -0.1571
  C  C347  1  0.786680  0.172710  0.362900  1.0  0.6521
  C  C348  1  0.870220  0.191520  0.411300  1.0  0.02
  C  C349  1  0.824530  0.240820  0.657600  1.0  0.6504
  C  C350  1  0.844580  0.274780  0.544600  1.0  -0.1136
  C  C351  1  0.844190  0.331620  0.564000  1.0  -0.1117
  C  C352  1  0.862050  0.364550  0.463000  1.0  -0.0876
  C  C353  1  0.881020  0.342940  0.346700  1.0  -0.0839
  C  C354  1  0.881770  0.287470  0.327100  1.0  -0.1133
  C  C355  1  0.901260  0.266360  0.193400  1.0  0.6946
  C  C356  1  0.863560  0.251840  0.425700  1.0  0.0562
  C  C357  1  0.012290  0.342370  0.355500  1.0  0.1634
  C  C358  1  0.990540  0.391630  0.352200  1.0  -0.1696
  C  C359  1  0.978240  0.417090  0.473300  1.0  0.1196
  C  C360  1  0.991380  0.392390  0.595900  1.0  -0.1876
  C  C361  1  0.013360  0.342920  0.592100  1.0  0.1671
  C  C362  1  0.862600  0.607400  0.253600  1.0  0.2002
  C  C363  1  0.890590  0.562600  0.251100  1.0  -0.2213
  C  C364  1  0.905110  0.540990  0.374100  1.0  0.1124
  C  C365  1  0.891260  0.565930  0.492100  1.0  -0.1632
  C  C366  1  0.862110  0.610100  0.486000  1.0  0.1618
  C  C367  1  0.934180  0.492470  0.371400  1.0  -0.0985
  C  C368  1  0.951230  0.467200  0.480500  1.0  -0.1708
  N  N369  1  0.652560  0.630560  0.865200  1.0  -0.3083
  N  N370  1  0.476450  0.317680  0.973600  1.0  -0.3309
  N  N371  1  0.652560  0.130560  0.365200  1.0  -0.3083
  N  N372  1  0.476450  0.817680  0.473600  1.0  -0.3309
  N  N373  1  0.347440  0.369440  0.865200  1.0  -0.3091
  N  N374  1  0.523550  0.682320  0.973600  1.0  -0.3313
  N  N375  1  0.347440  0.869440  0.365200  1.0  -0.3091
  N  N376  1  0.523550  0.182320  0.473600  1.0  -0.3313
  N  N377  1  0.152560  0.869440  0.865200  1.0  -0.3072
  N  N378  1  0.976450  0.182320  0.973600  1.0  -0.3316
  N  N379  1  0.152560  0.369440  0.365200  1.0  -0.3072
  N  N380  1  0.976450  0.682320  0.473600  1.0  -0.3316
  N  N381  1  0.847440  0.130560  0.865200  1.0  -0.3081
  N  N382  1  0.023550  0.817680  0.973600  1.0  -0.3284
  N  N383  1  0.847440  0.630560  0.365200  1.0  -0.3081
  N  N384  1  0.023550  0.317680  0.473600  1.0  -0.3284
  O  O385  1  0.723170  0.221020  0.835700  1.0  -0.5841
  O  O386  1  0.743160  0.137110  0.875500  1.0  -0.5764
  O  O387  1  0.667370  0.255300  0.280700  1.0  -0.5901
  O  O388  1  0.699470  0.200150  0.134300  1.0  -0.5947
  O  O389  1  0.562860  0.290700  0.651400  1.0  -0.5858
  O  O390  1  0.616750  0.229660  0.627500  1.0  -0.5292
  O  O391  1  0.509760  0.195220  0.914100  1.0  -0.6038
  O  O392  1  0.551020  0.235090  0.078300  1.0  -0.5602
  O  O393  1  0.723170  0.721020  0.335700  1.0  -0.5841
  O  O394  1  0.743160  0.637110  0.375500  1.0  -0.5764
  O  O395  1  0.667370  0.755300  0.780700  1.0  -0.5901
  O  O396  1  0.699470  0.700150  0.634300  1.0  -0.5947
  O  O397  1  0.562860  0.790700  0.151400  1.0  -0.5858
  O  O398  1  0.616750  0.729660  0.127500  1.0  -0.5292
  O  O399  1  0.509760  0.695220  0.414100  1.0  -0.6038
  O  O400  1  0.551020  0.735090  0.578300  1.0  -0.5602
  O  O401  1  0.276830  0.778980  0.835700  1.0  -0.5872
  O  O402  1  0.256840  0.862890  0.875500  1.0  -0.5754
  O  O403  1  0.332630  0.744700  0.280700  1.0  -0.5926
  O  O404  1  0.300530  0.799850  0.134300  1.0  -0.5974
  O  O405  1  0.437140  0.709300  0.651400  1.0  -0.5855
  O  O406  1  0.383250  0.770340  0.627500  1.0  -0.529
  O  O407  1  0.490240  0.804780  0.914100  1.0  -0.6056
  O  O408  1  0.448980  0.764910  0.078300  1.0  -0.5586
  O  O409  1  0.276830  0.278980  0.335700  1.0  -0.5872
  O  O410  1  0.256840  0.362890  0.375500  1.0  -0.5754
  O  O411  1  0.332630  0.244700  0.780700  1.0  -0.5926
  O  O412  1  0.300530  0.299850  0.634300  1.0  -0.5974
  O  O413  1  0.437140  0.209300  0.151400  1.0  -0.5855
  O  O414  1  0.383250  0.270340  0.127500  1.0  -0.529
  O  O415  1  0.490240  0.304780  0.414100  1.0  -0.6056
  O  O416  1  0.448980  0.264910  0.578300  1.0  -0.5586
  O  O417  1  0.223170  0.278980  0.835700  1.0  -0.5878
  O  O418  1  0.243160  0.362890  0.875500  1.0  -0.5764
  O  O419  1  0.167370  0.244700  0.280700  1.0  -0.5918
  O  O420  1  0.199470  0.299850  0.134300  1.0  -0.5957
  O  O421  1  0.062860  0.209300  0.651400  1.0  -0.5855
  O  O422  1  0.116750  0.270340  0.627500  1.0  -0.53
  O  O423  1  0.009760  0.304780  0.914100  1.0  -0.6043
  O  O424  1  0.051020  0.264910  0.078300  1.0  -0.559
  O  O425  1  0.223170  0.778980  0.335700  1.0  -0.5878
  O  O426  1  0.243160  0.862890  0.375500  1.0  -0.5764
  O  O427  1  0.167370  0.744700  0.780700  1.0  -0.5918
  O  O428  1  0.199470  0.799850  0.634300  1.0  -0.5957
  O  O429  1  0.062860  0.709300  0.151400  1.0  -0.5855
  O  O430  1  0.116750  0.770340  0.127500  1.0  -0.53
  O  O431  1  0.009760  0.804780  0.414100  1.0  -0.6043
  O  O432  1  0.051020  0.764910  0.578300  1.0  -0.559
  O  O433  1  0.776830  0.721020  0.835700  1.0  -0.5857
  O  O434  1  0.756840  0.637110  0.875500  1.0  -0.5747
  O  O435  1  0.832630  0.755300  0.280700  1.0  -0.591
  O  O436  1  0.800530  0.700150  0.134300  1.0  -0.5968
  O  O437  1  0.937140  0.790700  0.651400  1.0  -0.5864
  O  O438  1  0.883250  0.729660  0.627500  1.0  -0.529
  O  O439  1  0.990240  0.695220  0.914100  1.0  -0.6054
  O  O440  1  0.948980  0.735090  0.078300  1.0  -0.5598
  O  O441  1  0.776830  0.221020  0.335700  1.0  -0.5857
  O  O442  1  0.756840  0.137110  0.375500  1.0  -0.5747
  O  O443  1  0.832630  0.255300  0.780700  1.0  -0.591
  O  O444  1  0.800530  0.200150  0.634300  1.0  -0.5968
  O  O445  1  0.937140  0.290700  0.151400  1.0  -0.5864
  O  O446  1  0.883250  0.229660  0.127500  1.0  -0.529
  O  O447  1  0.990240  0.195220  0.414100  1.0  -0.6054
  O  O448  1  0.948980  0.235090  0.578300  1.0  -0.5598
