# generated using pymatgen
data_InH6(C2O)8
_symmetry_space_group_name_H-M   'P 1'
_cell_length_a   19.72440000
_cell_length_b   17.08140000
_cell_length_c   9.95540000
_cell_angle_alpha   90.00000000
_cell_angle_beta   90.00000000
_cell_angle_gamma   90.00000000
_symmetry_Int_Tables_number   1
_chemical_formula_structural   InH6(C2O)8
_chemical_formula_sum   'In4 H24 C64 O32'
_cell_volume   3354.17701327
_cell_formula_units_Z   4
loop_
 _symmetry_equiv_pos_site_id
 _symmetry_equiv_pos_as_xyz
  1  'x, y, z'
loop_
 _atom_site_type_symbol
 _atom_site_label
 _atom_site_symmetry_multiplicity
 _atom_site_fract_x
 _atom_site_fract_y
 _atom_site_fract_z
 _atom_site_occupancy
 _atom_site_charge
  In  In1  1  0.181280  0.840140  0.913880  1.0  1.4771
  In  In2  1  0.818720  0.159860  0.913880  1.0  1.4783
  In  In3  1  0.318720  0.340140  0.086120  1.0  1.4785
  In  In4  1  0.681280  0.659860  0.086120  1.0  1.4779
  H  H5  1  0.423500  0.906800  0.951700  1.0  0.1354
  H  H6  1  0.282100  0.076100  0.007800  1.0  0.1369
  H  H7  1  0.479900  0.125900  0.065400  1.0  0.1265
  H  H8  1  0.039500  0.966900  0.614000  1.0  0.1288
  H  H9  1  0.183300  0.840100  0.417500  1.0  0.1435
  H  H10  1  0.041800  0.959800  0.208200  1.0  0.131
  H  H11  1  0.576500  0.093200  0.951700  1.0  0.135
  H  H12  1  0.717900  0.923900  0.007800  1.0  0.1369
  H  H13  1  0.520100  0.874100  0.065400  1.0  0.1266
  H  H14  1  0.960500  0.033100  0.614000  1.0  0.1282
  H  H15  1  0.816700  0.159900  0.417500  1.0  0.1446
  H  H16  1  0.958200  0.040200  0.208200  1.0  0.1322
  H  H17  1  0.076500  0.406800  0.048300  1.0  0.1355
  H  H18  1  0.217900  0.576100  0.992200  1.0  0.1371
  H  H19  1  0.020100  0.625900  0.934600  1.0  0.1268
  H  H20  1  0.460500  0.466900  0.386000  1.0  0.1282
  H  H21  1  0.316700  0.340100  0.582500  1.0  0.1444
  H  H22  1  0.458200  0.459800  0.791800  1.0  0.1308
  H  H23  1  0.923500  0.593200  0.048300  1.0  0.1353
  H  H24  1  0.782100  0.423900  0.992200  1.0  0.1367
  H  H25  1  0.979900  0.374100  0.934600  1.0  0.1263
  H  H26  1  0.539500  0.533100  0.386000  1.0  0.1279
  H  H27  1  0.683300  0.659900  0.582500  1.0  0.144
  H  H28  1  0.541800  0.540200  0.791800  1.0  0.1324
  C  C29  1  0.463900  0.011900  0.009600  1.0  0.0663
  C  C30  1  0.412400  0.959100  0.975200  1.0  -0.0614
  C  C31  1  0.345900  0.982800  0.975400  1.0  -0.1186
  C  C32  1  0.328100  0.059900  0.008300  1.0  0.0094
  C  C33  1  0.379600  0.112100  0.041600  1.0  -0.1282
  C  C34  1  0.445600  0.089200  0.042300  1.0  -0.0459
  C  C35  1  0.289200  0.927300  0.939100  1.0  0.6551
  C  C36  1  0.360300  0.195500  0.074100  1.0  0.6665
  C  C37  1  0.029600  0.973600  0.413700  1.0  -0.0058
  C  C38  1  0.058900  0.949400  0.532000  1.0  -0.0525
  C  C39  1  0.116100  0.900300  0.538400  1.0  -0.1508
  C  C40  1  0.144700  0.873400  0.417400  1.0  0.018
  C  C41  1  0.115200  0.896900  0.299400  1.0  -0.0904
  C  C42  1  0.059900  0.945200  0.293000  1.0  -0.0852
  C  C43  1  0.142200  0.876600  0.672500  1.0  0.7082
  C  C44  1  0.142900  0.870300  0.166400  1.0  0.6997
  C  C45  1  0.536100  0.988100  0.009600  1.0  0.0665
  C  C46  1  0.587600  0.040900  0.975200  1.0  -0.0631
  C  C47  1  0.654100  0.017200  0.975400  1.0  -0.1175
  C  C48  1  0.671900  0.940100  0.008300  1.0  0.0102
  C  C49  1  0.620400  0.887900  0.041600  1.0  -0.1281
  C  C50  1  0.554400  0.910800  0.042300  1.0  -0.0452
  C  C51  1  0.710800  0.072700  0.939100  1.0  0.6557
  C  C52  1  0.639700  0.804500  0.074100  1.0  0.6674
  C  C53  1  0.970400  0.026400  0.413700  1.0  -0.0049
  C  C54  1  0.941100  0.050600  0.532000  1.0  -0.0527
  C  C55  1  0.883900  0.099700  0.538400  1.0  -0.1507
  C  C56  1  0.855300  0.126600  0.417400  1.0  0.0186
  C  C57  1  0.884800  0.103100  0.299400  1.0  -0.09
  C  C58  1  0.940100  0.054800  0.293000  1.0  -0.0849
  C  C59  1  0.857800  0.123400  0.672500  1.0  0.7094
  C  C60  1  0.857100  0.129700  0.166400  1.0  0.6994
  C  C61  1  0.036100  0.511900  0.990400  1.0  0.0665
  C  C62  1  0.087600  0.459100  0.024800  1.0  -0.0626
  C  C63  1  0.154100  0.482800  0.024600  1.0  -0.1174
  C  C64  1  0.171900  0.559900  0.991700  1.0  0.01
  C  C65  1  0.120400  0.612100  0.958400  1.0  -0.1284
  C  C66  1  0.054400  0.589200  0.957700  1.0  -0.0458
  C  C67  1  0.210800  0.427300  0.060900  1.0  0.6549
  C  C68  1  0.139700  0.695500  0.925900  1.0  0.6665
  C  C69  1  0.470400  0.473600  0.586300  1.0  -0.0057
  C  C70  1  0.441100  0.449400  0.468000  1.0  -0.0525
  C  C71  1  0.383900  0.400300  0.461600  1.0  -0.1513
  C  C72  1  0.355300  0.373400  0.582600  1.0  0.0188
  C  C73  1  0.384800  0.396900  0.700600  1.0  -0.0905
  C  C74  1  0.440100  0.445200  0.707000  1.0  -0.0841
  C  C75  1  0.357800  0.376600  0.327500  1.0  0.7096
  C  C76  1  0.357100  0.370300  0.833600  1.0  0.7008
  C  C77  1  0.963900  0.488100  0.990400  1.0  0.0666
  C  C78  1  0.912400  0.540900  0.024800  1.0  -0.0629
  C  C79  1  0.845900  0.517200  0.024600  1.0  -0.1183
  C  C80  1  0.828100  0.440100  0.991700  1.0  0.0094
  C  C81  1  0.879600  0.387900  0.958400  1.0  -0.1286
  C  C82  1  0.945600  0.410800  0.957700  1.0  -0.046
  C  C83  1  0.789200  0.572700  0.060900  1.0  0.6542
  C  C84  1  0.860300  0.304500  0.925900  1.0  0.6669
  C  C85  1  0.529600  0.526400  0.586300  1.0  -0.0052
  C  C86  1  0.558900  0.550600  0.468000  1.0  -0.0521
  C  C87  1  0.616100  0.599700  0.461600  1.0  -0.1504
  C  C88  1  0.644700  0.626600  0.582600  1.0  0.0185
  C  C89  1  0.615200  0.603100  0.700600  1.0  -0.0905
  C  C90  1  0.559900  0.554800  0.707000  1.0  -0.0843
  C  C91  1  0.642200  0.623400  0.327500  1.0  0.7083
  C  C92  1  0.642900  0.629700  0.833600  1.0  0.7004
  O  O93  1  0.299480  0.855240  0.926500  1.0  -0.5549
  O  O94  1  0.229360  0.954960  0.930200  1.0  -0.587
  O  O95  1  0.298630  0.215190  0.069500  1.0  -0.5138
  O  O96  1  0.405540  0.243920  0.100300  1.0  -0.5435
  O  O97  1  0.193740  0.834500  0.683800  1.0  -0.4889
  O  O98  1  0.110670  0.901450  0.774000  1.0  -0.5534
  O  O99  1  0.197100  0.834100  0.158700  1.0  -0.549
  O  O100  1  0.110400  0.888100  0.061900  1.0  -0.578
  O  O101  1  0.700520  0.144760  0.926500  1.0  -0.5537
  O  O102  1  0.770640  0.045040  0.930200  1.0  -0.5871
  O  O103  1  0.701370  0.784810  0.069500  1.0  -0.5151
  O  O104  1  0.594460  0.756080  0.100300  1.0  -0.5431
  O  O105  1  0.806260  0.165500  0.683800  1.0  -0.4879
  O  O106  1  0.889330  0.098550  0.774000  1.0  -0.5531
  O  O107  1  0.802900  0.165900  0.158700  1.0  -0.548
  O  O108  1  0.889600  0.111900  0.061900  1.0  -0.5796
  O  O109  1  0.200520  0.355240  0.073500  1.0  -0.5534
  O  O110  1  0.270640  0.454960  0.069800  1.0  -0.5878
  O  O111  1  0.201370  0.715190  0.930500  1.0  -0.5152
  O  O112  1  0.094460  0.743920  0.899700  1.0  -0.5429
  O  O113  1  0.306260  0.334500  0.316200  1.0  -0.4893
  O  O114  1  0.389330  0.401450  0.226000  1.0  -0.5546
  O  O115  1  0.302900  0.334100  0.841300  1.0  -0.5478
  O  O116  1  0.389600  0.388100  0.938100  1.0  -0.5793
  O  O117  1  0.799480  0.644760  0.073500  1.0  -0.5534
  O  O118  1  0.729360  0.545040  0.069800  1.0  -0.5852
  O  O119  1  0.798630  0.284810  0.930500  1.0  -0.5143
  O  O120  1  0.905540  0.256080  0.899700  1.0  -0.5436
  O  O121  1  0.693740  0.665500  0.316200  1.0  -0.4886
  O  O122  1  0.610670  0.598550  0.226000  1.0  -0.5544
  O  O123  1  0.697100  0.665900  0.841300  1.0  -0.5483
  O  O124  1  0.610400  0.611900  0.938100  1.0  -0.5781
