# generated using pymatgen
data_CuH7C8(NO2)2
_symmetry_space_group_name_H-M   'P 1'
_cell_length_a   10.15400000
_cell_length_b   10.15400000
_cell_length_c   15.51210000
_cell_angle_alpha   72.08210000
_cell_angle_beta   72.08210000
_cell_angle_gamma   86.50780000
_symmetry_Int_Tables_number   1
_chemical_formula_structural   CuH7C8(NO2)2
_chemical_formula_sum   'Cu4 H28 C32 N8 O16'
_cell_volume   1446.96895686
_cell_formula_units_Z   4
loop_
 _symmetry_equiv_pos_site_id
 _symmetry_equiv_pos_as_xyz
  1  'x, y, z'
loop_
 _atom_site_type_symbol
 _atom_site_label
 _atom_site_symmetry_multiplicity
 _atom_site_fract_x
 _atom_site_fract_y
 _atom_site_fract_z
 _atom_site_occupancy
 _atom_site_charge
  Cu  Cu1  1  0.553990  0.008010  0.313520  1.0  0.7561
  Cu  Cu2  1  0.991990  0.446010  0.186480  1.0  0.7361
  Cu  Cu3  1  0.446010  0.991990  0.686480  1.0  0.7577
  Cu  Cu4  1  0.008010  0.553990  0.813520  1.0  0.755
  H  H5  1  0.838000  0.154000  0.026000  1.0  0.1187
  H  H6  1  0.776000  0.200000  0.311000  1.0  0.1003
  H  H7  1  0.429000  0.257000  0.374000  1.0  0.0995
  H  H8  1  0.572000  0.232000  0.406000  1.0  0.0939
  H  H9  1  0.438000  0.278000  0.217000  1.0  0.1085
  H  H10  1  0.597000  0.249000  0.154000  1.0  0.0916
  H  H11  1  0.402000  0.484000  0.273000  1.0  0.1048
  H  H12  1  0.846000  0.162000  0.474000  1.0  0.121
  H  H13  1  0.800000  0.224000  0.189000  1.0  0.1011
  H  H14  1  0.743000  0.571000  0.126000  1.0  0.0995
  H  H15  1  0.768000  0.428000  0.094000  1.0  0.0896
  H  H16  1  0.722000  0.562000  0.283000  1.0  0.1103
  H  H17  1  0.751000  0.403000  0.346000  1.0  0.0913
  H  H18  1  0.516000  0.598000  0.227000  1.0  0.1066
  H  H19  1  0.162000  0.846000  0.974000  1.0  0.1181
  H  H20  1  0.224000  0.800000  0.689000  1.0  0.1022
  H  H21  1  0.571000  0.743000  0.626000  1.0  0.1004
  H  H22  1  0.428000  0.768000  0.594000  1.0  0.0907
  H  H23  1  0.562000  0.722000  0.783000  1.0  0.1079
  H  H24  1  0.403000  0.751000  0.846000  1.0  0.0912
  H  H25  1  0.598000  0.516000  0.727000  1.0  0.1051
  H  H26  1  0.154000  0.838000  0.526000  1.0  0.1163
  H  H27  1  0.200000  0.776000  0.811000  1.0  0.1005
  H  H28  1  0.257000  0.429000  0.874000  1.0  0.0999
  H  H29  1  0.232000  0.572000  0.906000  1.0  0.0915
  H  H30  1  0.278000  0.438000  0.717000  1.0  0.1099
  H  H31  1  0.249000  0.597000  0.654000  1.0  0.0915
  H  H32  1  0.484000  0.402000  0.773000  1.0  0.1002
  C  C33  1  0.879600  0.961800  0.076700  1.0  -0.0845
  C  C34  1  0.980800  0.865000  0.061100  1.0  -0.0641
  C  C35  1  0.901900  0.094500  0.015900  1.0  -0.05
  C  C36  1  0.747100  0.922500  0.156300  1.0  0.701
  C  C37  1  0.968300  0.720500  0.128500  1.0  0.6646
  C  C38  1  0.528500  0.276300  0.358800  1.0  0.0938
  C  C39  1  0.547000  0.295400  0.196400  1.0  0.0817
  C  C40  1  0.038200  0.120400  0.423300  1.0  -0.0844
  C  C41  1  0.135000  0.019200  0.438900  1.0  -0.0641
  C  C42  1  0.905500  0.098100  0.484100  1.0  -0.0482
  C  C43  1  0.077500  0.252900  0.343700  1.0  0.6988
  C  C44  1  0.279500  0.031700  0.371500  1.0  0.6613
  C  C45  1  0.723700  0.471500  0.141200  1.0  0.0961
  C  C46  1  0.704600  0.453000  0.303600  1.0  0.0828
  C  C47  1  0.120400  0.038200  0.923300  1.0  -0.0843
  C  C48  1  0.019200  0.135000  0.938900  1.0  -0.0655
  C  C49  1  0.098100  0.905500  0.984100  1.0  -0.0511
  C  C50  1  0.252900  0.077500  0.843700  1.0  0.6996
  C  C51  1  0.031700  0.279500  0.871500  1.0  0.6639
  C  C52  1  0.471500  0.723700  0.641200  1.0  0.0944
  C  C53  1  0.453000  0.704600  0.803600  1.0  0.082
  C  C54  1  0.961800  0.879600  0.576700  1.0  -0.084
  C  C55  1  0.865000  0.980800  0.561100  1.0  -0.063
  C  C56  1  0.094500  0.901900  0.515900  1.0  -0.0488
  C  C57  1  0.922500  0.747100  0.656300  1.0  0.7012
  C  C58  1  0.720500  0.968300  0.628500  1.0  0.6575
  C  C59  1  0.276300  0.528500  0.858800  1.0  0.096
  C  C60  1  0.295400  0.547000  0.696400  1.0  0.0823
  C  C61  1  0.749100  0.250900  0.250000  1.0  0.0473
  C  C62  1  0.505800  0.494200  0.250000  1.0  0.0944
  C  C63  1  0.250900  0.749100  0.750000  1.0  0.0467
  C  C64  1  0.494200  0.505800  0.750000  1.0  0.1017
  N  N65  1  0.597100  0.219300  0.278600  1.0  -0.2491
  N  N66  1  0.557000  0.425000  0.331300  1.0  -0.3086
  N  N67  1  0.780700  0.402900  0.221400  1.0  -0.2477
  N  N68  1  0.575000  0.443000  0.168700  1.0  -0.3067
  N  N69  1  0.402900  0.780700  0.721400  1.0  -0.246
  N  N70  1  0.443000  0.575000  0.668700  1.0  -0.3071
  N  N71  1  0.219300  0.597100  0.778600  1.0  -0.2509
  N  N72  1  0.425000  0.557000  0.831300  1.0  -0.313
  O  O73  1  0.703800  0.011600  0.199100  1.0  -0.6197
  O  O74  1  0.686400  0.811000  0.173100  1.0  -0.5713
  O  O75  1  0.986300  0.623500  0.089200  1.0  -0.601
  O  O76  1  0.946200  0.700400  0.213100  1.0  -0.5347
  O  O77  1  0.988400  0.296200  0.300900  1.0  -0.6186
  O  O78  1  0.189000  0.313600  0.326900  1.0  -0.5697
  O  O79  1  0.376500  0.013700  0.410800  1.0  -0.6
  O  O80  1  0.299600  0.053800  0.286900  1.0  -0.5319
  O  O81  1  0.296200  0.988400  0.800900  1.0  -0.6184
  O  O82  1  0.313600  0.189000  0.826900  1.0  -0.5719
  O  O83  1  0.013700  0.376500  0.910800  1.0  -0.6036
  O  O84  1  0.053800  0.299600  0.786900  1.0  -0.5326
  O  O85  1  0.011600  0.703800  0.699100  1.0  -0.6185
  O  O86  1  0.811000  0.686400  0.673100  1.0  -0.5679
  O  O87  1  0.623500  0.986300  0.589200  1.0  -0.6005
  O  O88  1  0.700400  0.946200  0.713100  1.0  -0.5328
