# generated using pymatgen
data_Ho2Cu3H24(C4O5)6
_symmetry_space_group_name_H-M   'P 1'
_cell_length_a   14.36830000
_cell_length_b   14.36830000
_cell_length_c   15.39300000
_cell_angle_alpha   90.00000000
_cell_angle_beta   90.00000000
_cell_angle_gamma   120.00000000
_symmetry_Int_Tables_number   1
_chemical_formula_structural   Ho2Cu3H24(C4O5)6
_chemical_formula_sum   'Ho4 Cu6 H48 C48 O60'
_cell_volume   2752.10294736
_cell_formula_units_Z   2
loop_
 _symmetry_equiv_pos_site_id
 _symmetry_equiv_pos_as_xyz
  1  'x, y, z'
loop_
 _atom_site_type_symbol
 _atom_site_label
 _atom_site_symmetry_multiplicity
 _atom_site_fract_x
 _atom_site_fract_y
 _atom_site_fract_z
 _atom_site_occupancy
 _atom_site_charge
  Ho  Ho1  1  0.666667  0.333333  0.750000  1.0  2.1384
  Ho  Ho2  1  0.333333  0.666667  0.750000  1.0  2.1384
  Ho  Ho3  1  0.333333  0.666667  0.250000  1.0  2.1384
  Ho  Ho4  1  0.666667  0.333333  0.250000  1.0  2.1384
  Cu  Cu5  1  0.000000  0.500000  0.000000  1.0  1.0441
  Cu  Cu6  1  0.500000  0.000000  0.000000  1.0  1.0441
  Cu  Cu7  1  0.500000  0.500000  0.000000  1.0  1.0441
  Cu  Cu8  1  0.500000  0.500000  0.500000  1.0  1.0441
  Cu  Cu9  1  0.500000  0.000000  0.500000  1.0  1.0441
  Cu  Cu10  1  0.000000  0.500000  0.500000  1.0  1.0441
  H  H11  1  0.915000  0.278300  0.772200  1.0  0.0774
  H  H12  1  0.834800  0.198400  0.841900  1.0  0.098
  H  H13  1  0.363300  0.085000  0.772200  1.0  0.0784
  H  H14  1  0.363600  0.165200  0.841900  1.0  0.0984
  H  H15  1  0.721700  0.636700  0.772200  1.0  0.0781
  H  H16  1  0.801600  0.636400  0.841900  1.0  0.099
  H  H17  1  0.085000  0.721700  0.772200  1.0  0.0785
  H  H18  1  0.165200  0.801600  0.841900  1.0  0.0977
  H  H19  1  0.636700  0.915000  0.772200  1.0  0.0782
  H  H20  1  0.636400  0.834800  0.841900  1.0  0.0964
  H  H21  1  0.278300  0.363300  0.772200  1.0  0.0777
  H  H22  1  0.198400  0.363600  0.841900  1.0  0.0988
  H  H23  1  0.636700  0.721700  0.727800  1.0  0.078
  H  H24  1  0.636400  0.801600  0.658100  1.0  0.0979
  H  H25  1  0.278300  0.915000  0.727800  1.0  0.0784
  H  H26  1  0.198400  0.834800  0.658100  1.0  0.0974
  H  H27  1  0.085000  0.363300  0.727800  1.0  0.078
  H  H28  1  0.165200  0.363600  0.658100  1.0  0.0987
  H  H29  1  0.363300  0.278300  0.727800  1.0  0.0782
  H  H30  1  0.363600  0.198400  0.658100  1.0  0.0978
  H  H31  1  0.721700  0.085000  0.727800  1.0  0.0781
  H  H32  1  0.801600  0.165200  0.658100  1.0  0.097
  H  H33  1  0.915000  0.636700  0.727800  1.0  0.0781
  H  H34  1  0.834800  0.636400  0.658100  1.0  0.0986
  H  H35  1  0.085000  0.721700  0.227800  1.0  0.0785
  H  H36  1  0.165200  0.801600  0.158100  1.0  0.0976
  H  H37  1  0.636700  0.915000  0.227800  1.0  0.0777
  H  H38  1  0.636400  0.834800  0.158100  1.0  0.0969
  H  H39  1  0.278300  0.363300  0.227800  1.0  0.0782
  H  H40  1  0.198400  0.363600  0.158100  1.0  0.0983
  H  H41  1  0.915000  0.278300  0.227800  1.0  0.0776
  H  H42  1  0.834800  0.198400  0.158100  1.0  0.098
  H  H43  1  0.363300  0.085000  0.227800  1.0  0.0785
  H  H44  1  0.363600  0.165200  0.158100  1.0  0.0976
  H  H45  1  0.721700  0.636700  0.227800  1.0  0.0778
  H  H46  1  0.801600  0.636400  0.158100  1.0  0.0989
  H  H47  1  0.363300  0.278300  0.272200  1.0  0.0782
  H  H48  1  0.363600  0.198400  0.341900  1.0  0.0987
  H  H49  1  0.721700  0.085000  0.272200  1.0  0.0783
  H  H50  1  0.801600  0.165200  0.341900  1.0  0.097
  H  H51  1  0.915000  0.636700  0.272200  1.0  0.078
  H  H52  1  0.834800  0.636400  0.341900  1.0  0.0987
  H  H53  1  0.636700  0.721700  0.272200  1.0  0.0779
  H  H54  1  0.636400  0.801600  0.341900  1.0  0.0972
  H  H55  1  0.278300  0.915000  0.272200  1.0  0.0786
  H  H56  1  0.198400  0.834800  0.341900  1.0  0.098
  H  H57  1  0.085000  0.363300  0.272200  1.0  0.0779
  H  H58  1  0.165200  0.363600  0.341900  1.0  0.0994
  C  C59  1  0.869300  0.353300  0.861400  1.0  0.7211
  C  C60  1  0.850900  0.259900  0.805700  1.0  -0.0483
  C  C61  1  0.484000  0.130700  0.861400  1.0  0.7198
  C  C62  1  0.409000  0.149100  0.805700  1.0  -0.0475
  C  C63  1  0.646700  0.516000  0.861400  1.0  0.7214
  C  C64  1  0.740100  0.591000  0.805700  1.0  -0.0494
  C  C65  1  0.130700  0.646700  0.861400  1.0  0.7205
  C  C66  1  0.149100  0.740100  0.805700  1.0  -0.0478
  C  C67  1  0.516000  0.869300  0.861400  1.0  0.7189
  C  C68  1  0.591000  0.850900  0.805700  1.0  -0.048
  C  C69  1  0.353300  0.484000  0.861400  1.0  0.7224
  C  C70  1  0.259900  0.409000  0.805700  1.0  -0.0494
  C  C71  1  0.516000  0.646700  0.638600  1.0  0.7206
  C  C72  1  0.591000  0.740100  0.694300  1.0  -0.0491
  C  C73  1  0.353300  0.869300  0.638600  1.0  0.7192
  C  C74  1  0.259900  0.850900  0.694300  1.0  -0.0475
  C  C75  1  0.130700  0.484000  0.638600  1.0  0.7216
  C  C76  1  0.149100  0.409000  0.694300  1.0  -0.0498
  C  C77  1  0.484000  0.353300  0.638600  1.0  0.7205
  C  C78  1  0.409000  0.259900  0.694300  1.0  -0.0478
  C  C79  1  0.646700  0.130700  0.638600  1.0  0.7183
  C  C80  1  0.740100  0.149100  0.694300  1.0  -0.0482
  C  C81  1  0.869300  0.516000  0.638600  1.0  0.7208
  C  C82  1  0.850900  0.591000  0.694300  1.0  -0.0496
  C  C83  1  0.130700  0.646700  0.138600  1.0  0.7201
  C  C84  1  0.149100  0.740100  0.194300  1.0  -0.0484
  C  C85  1  0.516000  0.869300  0.138600  1.0  0.7184
  C  C86  1  0.591000  0.850900  0.194300  1.0  -0.0484
  C  C87  1  0.353300  0.484000  0.138600  1.0  0.7216
  C  C88  1  0.259900  0.409000  0.194300  1.0  -0.0493
  C  C89  1  0.869300  0.353300  0.138600  1.0  0.7208
  C  C90  1  0.850900  0.259900  0.194300  1.0  -0.0483
  C  C91  1  0.484000  0.130700  0.138600  1.0  0.7191
  C  C92  1  0.409000  0.149100  0.194300  1.0  -0.0474
  C  C93  1  0.646700  0.516000  0.138600  1.0  0.7211
  C  C94  1  0.740100  0.591000  0.194300  1.0  -0.0497
  C  C95  1  0.484000  0.353300  0.361400  1.0  0.7205
  C  C96  1  0.409000  0.259900  0.305700  1.0  -0.0482
  C  C97  1  0.646700  0.130700  0.361400  1.0  0.719
  C  C98  1  0.740100  0.149100  0.305700  1.0  -0.048
  C  C99  1  0.869300  0.516000  0.361400  1.0  0.7216
  C  C100  1  0.850900  0.591000  0.305700  1.0  -0.0494
  C  C101  1  0.516000  0.646700  0.361400  1.0  0.7211
  C  C102  1  0.591000  0.740100  0.305700  1.0  -0.0481
  C  C103  1  0.353300  0.869300  0.361400  1.0  0.7196
  C  C104  1  0.259900  0.850900  0.305700  1.0  -0.0474
  C  C105  1  0.130700  0.484000  0.361400  1.0  0.7219
  C  C106  1  0.149100  0.409000  0.305700  1.0  -0.0497
  O  O107  1  0.805200  0.387500  0.854900  1.0  -0.6824
  O  O108  1  0.947900  0.388000  0.912000  1.0  -0.6128
  O  O109  1  0.582300  0.194800  0.854900  1.0  -0.6819
  O  O110  1  0.440100  0.052100  0.912000  1.0  -0.6126
  O  O111  1  0.612500  0.417700  0.854900  1.0  -0.6835
  O  O112  1  0.612000  0.559900  0.912000  1.0  -0.6119
  O  O113  1  0.194800  0.612500  0.854900  1.0  -0.683
  O  O114  1  0.052100  0.612000  0.912000  1.0  -0.612
  O  O115  1  0.417700  0.805200  0.854900  1.0  -0.6822
  O  O116  1  0.559900  0.947900  0.912000  1.0  -0.6114
  O  O117  1  0.387500  0.582300  0.854900  1.0  -0.6829
  O  O118  1  0.388000  0.440100  0.912000  1.0  -0.6123
  O  O119  1  0.417700  0.612500  0.645100  1.0  -0.6821
  O  O120  1  0.559900  0.612000  0.588000  1.0  -0.6135
  O  O121  1  0.387500  0.805200  0.645100  1.0  -0.682
  O  O122  1  0.388000  0.947900  0.588000  1.0  -0.6132
  O  O123  1  0.194800  0.582300  0.645100  1.0  -0.6824
  O  O124  1  0.052100  0.440100  0.588000  1.0  -0.6133
  O  O125  1  0.582300  0.387500  0.645100  1.0  -0.6824
  O  O126  1  0.440100  0.388000  0.588000  1.0  -0.6124
  O  O127  1  0.612500  0.194800  0.645100  1.0  -0.681
  O  O128  1  0.612000  0.052100  0.588000  1.0  -0.6122
  O  O129  1  0.805200  0.417700  0.645100  1.0  -0.6825
  O  O130  1  0.947900  0.559900  0.588000  1.0  -0.6127
  O  O131  1  0.194800  0.612500  0.145100  1.0  -0.6824
  O  O132  1  0.052100  0.612000  0.088000  1.0  -0.613
  O  O133  1  0.417700  0.805200  0.145100  1.0  -0.6814
  O  O134  1  0.559900  0.947900  0.088000  1.0  -0.6133
  O  O135  1  0.387500  0.582300  0.145100  1.0  -0.6823
  O  O136  1  0.388000  0.440100  0.088000  1.0  -0.6139
  O  O137  1  0.805200  0.387500  0.145100  1.0  -0.6819
  O  O138  1  0.947900  0.388000  0.088000  1.0  -0.6127
  O  O139  1  0.582300  0.194800  0.145100  1.0  -0.6817
  O  O140  1  0.440100  0.052100  0.088000  1.0  -0.6128
  O  O141  1  0.612500  0.417700  0.145100  1.0  -0.6826
  O  O142  1  0.612000  0.559900  0.088000  1.0  -0.6136
  O  O143  1  0.582300  0.387500  0.354900  1.0  -0.6825
  O  O144  1  0.440100  0.388000  0.412000  1.0  -0.613
  O  O145  1  0.612500  0.194800  0.354900  1.0  -0.6815
  O  O146  1  0.612000  0.052100  0.412000  1.0  -0.6126
  O  O147  1  0.805200  0.417700  0.354900  1.0  -0.6832
  O  O148  1  0.947900  0.559900  0.412000  1.0  -0.613
  O  O149  1  0.417700  0.612500  0.354900  1.0  -0.6829
  O  O150  1  0.559900  0.612000  0.412000  1.0  -0.6131
  O  O151  1  0.387500  0.805200  0.354900  1.0  -0.6826
  O  O152  1  0.388000  0.947900  0.412000  1.0  -0.6128
  O  O153  1  0.194800  0.582300  0.354900  1.0  -0.6833
  O  O154  1  0.052100  0.440100  0.412000  1.0  -0.6127
  O  O155  1  0.765150  0.234850  0.750000  1.0  -0.3401
  O  O156  1  0.469700  0.234850  0.750000  1.0  -0.3405
  O  O157  1  0.765150  0.530300  0.750000  1.0  -0.3413
  O  O158  1  0.234850  0.765150  0.750000  1.0  -0.3406
  O  O159  1  0.530300  0.765150  0.750000  1.0  -0.3401
  O  O160  1  0.234850  0.469700  0.750000  1.0  -0.3408
  O  O161  1  0.234850  0.765150  0.250000  1.0  -0.3406
  O  O162  1  0.530300  0.765150  0.250000  1.0  -0.3401
  O  O163  1  0.234850  0.469700  0.250000  1.0  -0.3408
  O  O164  1  0.765150  0.234850  0.250000  1.0  -0.3401
  O  O165  1  0.469700  0.234850  0.250000  1.0  -0.3405
  O  O166  1  0.765150  0.530300  0.250000  1.0  -0.3413
