# generated using pymatgen
data_Dy2Cu3H24(C4O5)6
_symmetry_space_group_name_H-M   'P 1'
_cell_length_a   14.62420000
_cell_length_b   14.62420000
_cell_length_c   15.18700000
_cell_angle_alpha   90.00000000
_cell_angle_beta   90.00000000
_cell_angle_gamma   120.00000000
_symmetry_Int_Tables_number   1
_chemical_formula_structural   Dy2Cu3H24(C4O5)6
_chemical_formula_sum   'Dy4 Cu6 H48 C48 O60'
_cell_volume   2812.85185885
_cell_formula_units_Z   2
loop_
 _symmetry_equiv_pos_site_id
 _symmetry_equiv_pos_as_xyz
  1  'x, y, z'
loop_
 _atom_site_type_symbol
 _atom_site_label
 _atom_site_symmetry_multiplicity
 _atom_site_fract_x
 _atom_site_fract_y
 _atom_site_fract_z
 _atom_site_occupancy
 _atom_site_charge
  Dy  Dy1  1  0.333333  0.666667  0.750000  1.0  2.1983
  Dy  Dy2  1  0.666667  0.333333  0.750000  1.0  2.1983
  Dy  Dy3  1  0.666667  0.333333  0.250000  1.0  2.1983
  Dy  Dy4  1  0.333333  0.666667  0.250000  1.0  2.1983
  Cu  Cu5  1  0.000000  0.500000  0.500000  1.0  1.0598
  Cu  Cu6  1  0.500000  0.000000  0.500000  1.0  1.0598
  Cu  Cu7  1  0.500000  0.500000  0.500000  1.0  1.0598
  Cu  Cu8  1  0.500000  0.500000  0.000000  1.0  1.0598
  Cu  Cu9  1  0.500000  0.000000  0.000000  1.0  1.0598
  Cu  Cu10  1  0.000000  0.500000  0.000000  1.0  1.0598
  H  H11  1  0.162300  0.796300  0.659600  1.0  0.097
  H  H12  1  0.087500  0.717600  0.732000  1.0  0.0815
  H  H13  1  0.634000  0.837700  0.659600  1.0  0.0961
  H  H14  1  0.630100  0.912500  0.732000  1.0  0.0811
  H  H15  1  0.203700  0.366000  0.659600  1.0  0.097
  H  H16  1  0.282400  0.369900  0.732000  1.0  0.0812
  H  H17  1  0.837700  0.203700  0.659600  1.0  0.0966
  H  H18  1  0.912500  0.282400  0.732000  1.0  0.0812
  H  H19  1  0.366000  0.162300  0.659600  1.0  0.0964
  H  H20  1  0.369900  0.087500  0.732000  1.0  0.0815
  H  H21  1  0.796300  0.634000  0.659600  1.0  0.0978
  H  H22  1  0.717600  0.630100  0.732000  1.0  0.0801
  H  H23  1  0.366000  0.203700  0.840400  1.0  0.0975
  H  H24  1  0.369900  0.282400  0.768000  1.0  0.0812
  H  H25  1  0.796300  0.162300  0.840400  1.0  0.0964
  H  H26  1  0.717600  0.087500  0.768000  1.0  0.0814
  H  H27  1  0.837700  0.634000  0.840400  1.0  0.0978
  H  H28  1  0.912500  0.630100  0.768000  1.0  0.0804
  H  H29  1  0.634000  0.796300  0.840400  1.0  0.097
  H  H30  1  0.630100  0.717600  0.768000  1.0  0.081
  H  H31  1  0.203700  0.837700  0.840400  1.0  0.0972
  H  H32  1  0.282400  0.912500  0.768000  1.0  0.0815
  H  H33  1  0.162300  0.366000  0.840400  1.0  0.0986
  H  H34  1  0.087500  0.369900  0.768000  1.0  0.0803
  H  H35  1  0.837700  0.203700  0.340400  1.0  0.097
  H  H36  1  0.912500  0.282400  0.268000  1.0  0.081
  H  H37  1  0.366000  0.162300  0.340400  1.0  0.0972
  H  H38  1  0.369900  0.087500  0.268000  1.0  0.0811
  H  H39  1  0.796300  0.634000  0.340400  1.0  0.0983
  H  H40  1  0.717600  0.630100  0.268000  1.0  0.0805
  H  H41  1  0.162300  0.796300  0.340400  1.0  0.0974
  H  H42  1  0.087500  0.717600  0.268000  1.0  0.0815
  H  H43  1  0.634000  0.837700  0.340400  1.0  0.0961
  H  H44  1  0.630100  0.912500  0.268000  1.0  0.0817
  H  H45  1  0.203700  0.366000  0.340400  1.0  0.0978
  H  H46  1  0.282400  0.369900  0.268000  1.0  0.0807
  H  H47  1  0.634000  0.796300  0.159600  1.0  0.0971
  H  H48  1  0.630100  0.717600  0.232000  1.0  0.081
  H  H49  1  0.203700  0.837700  0.159600  1.0  0.0964
  H  H50  1  0.282400  0.912500  0.232000  1.0  0.081
  H  H51  1  0.162300  0.366000  0.159600  1.0  0.0975
  H  H52  1  0.087500  0.369900  0.232000  1.0  0.0807
  H  H53  1  0.366000  0.203700  0.159600  1.0  0.0964
  H  H54  1  0.369900  0.282400  0.232000  1.0  0.0813
  H  H55  1  0.796300  0.162300  0.159600  1.0  0.0962
  H  H56  1  0.717600  0.087500  0.232000  1.0  0.0815
  H  H57  1  0.837700  0.634000  0.159600  1.0  0.0975
  H  H58  1  0.912500  0.630100  0.232000  1.0  0.0803
  C  C59  1  0.130600  0.645000  0.639100  1.0  0.7228
  C  C60  1  0.149400  0.736700  0.696200  1.0  -0.0481
  C  C61  1  0.514400  0.869400  0.639100  1.0  0.7232
  C  C62  1  0.587300  0.850600  0.696200  1.0  -0.0487
  C  C63  1  0.355000  0.485600  0.639100  1.0  0.7236
  C  C64  1  0.263300  0.412700  0.696200  1.0  -0.0491
  C  C65  1  0.869400  0.355000  0.639100  1.0  0.7231
  C  C66  1  0.850600  0.263300  0.696200  1.0  -0.0483
  C  C67  1  0.485600  0.130600  0.639100  1.0  0.7223
  C  C68  1  0.412700  0.149400  0.696200  1.0  -0.0478
  C  C69  1  0.645000  0.514400  0.639100  1.0  0.7232
  C  C70  1  0.736700  0.587300  0.696200  1.0  -0.0497
  C  C71  1  0.485600  0.355000  0.860900  1.0  0.7233
  C  C72  1  0.412700  0.263300  0.803800  1.0  -0.0482
  C  C73  1  0.645000  0.130600  0.860900  1.0  0.724
  C  C74  1  0.736700  0.149400  0.803800  1.0  -0.0482
  C  C75  1  0.869400  0.514400  0.860900  1.0  0.7238
  C  C76  1  0.850600  0.587300  0.803800  1.0  -0.0496
  C  C77  1  0.514400  0.645000  0.860900  1.0  0.7238
  C  C78  1  0.587300  0.736700  0.803800  1.0  -0.0485
  C  C79  1  0.355000  0.869400  0.860900  1.0  0.7231
  C  C80  1  0.263300  0.850600  0.803800  1.0  -0.048
  C  C81  1  0.130600  0.485600  0.860900  1.0  0.7244
  C  C82  1  0.149400  0.412700  0.803800  1.0  -0.0492
  C  C83  1  0.869400  0.355000  0.360900  1.0  0.724
  C  C84  1  0.850600  0.263300  0.303800  1.0  -0.0481
  C  C85  1  0.485600  0.130600  0.360900  1.0  0.7231
  C  C86  1  0.412700  0.149400  0.303800  1.0  -0.0481
  C  C87  1  0.645000  0.514400  0.360900  1.0  0.7237
  C  C88  1  0.736700  0.587300  0.303800  1.0  -0.0495
  C  C89  1  0.130600  0.645000  0.360900  1.0  0.7231
  C  C90  1  0.149400  0.736700  0.303800  1.0  -0.0481
  C  C91  1  0.514400  0.869400  0.360900  1.0  0.7239
  C  C92  1  0.587300  0.850600  0.303800  1.0  -0.0483
  C  C93  1  0.355000  0.485600  0.360900  1.0  0.7248
  C  C94  1  0.263300  0.412700  0.303800  1.0  -0.0493
  C  C95  1  0.514400  0.645000  0.139100  1.0  0.7229
  C  C96  1  0.587300  0.736700  0.196200  1.0  -0.049
  C  C97  1  0.355000  0.869400  0.139100  1.0  0.7224
  C  C98  1  0.263300  0.850600  0.196200  1.0  -0.0478
  C  C99  1  0.130600  0.485600  0.139100  1.0  0.7237
  C  C100  1  0.149400  0.412700  0.196200  1.0  -0.0492
  C  C101  1  0.485600  0.355000  0.139100  1.0  0.7231
  C  C102  1  0.412700  0.263300  0.196200  1.0  -0.0476
  C  C103  1  0.645000  0.130600  0.139100  1.0  0.7231
  C  C104  1  0.736700  0.149400  0.196200  1.0  -0.0485
  C  C105  1  0.869400  0.514400  0.139100  1.0  0.7228
  C  C106  1  0.850600  0.587300  0.196200  1.0  -0.0497
  O  O107  1  0.195500  0.612500  0.644400  1.0  -0.7012
  O  O108  1  0.052900  0.610300  0.589400  1.0  -0.6121
  O  O109  1  0.417000  0.804500  0.644400  1.0  -0.7006
  O  O110  1  0.557400  0.947100  0.589400  1.0  -0.6133
  O  O111  1  0.387500  0.583000  0.644400  1.0  -0.701
  O  O112  1  0.389700  0.442600  0.589400  1.0  -0.6132
  O  O113  1  0.804500  0.387500  0.644400  1.0  -0.7011
  O  O114  1  0.947100  0.389700  0.589400  1.0  -0.6113
  O  O115  1  0.583000  0.195500  0.644400  1.0  -0.7
  O  O116  1  0.442600  0.052900  0.589400  1.0  -0.6118
  O  O117  1  0.612500  0.417000  0.644400  1.0  -0.701
  O  O118  1  0.610300  0.557400  0.589400  1.0  -0.6119
  O  O119  1  0.583000  0.387500  0.855600  1.0  -0.702
  O  O120  1  0.442600  0.389700  0.910600  1.0  -0.6118
  O  O121  1  0.612500  0.195500  0.855600  1.0  -0.7012
  O  O122  1  0.610300  0.052900  0.910600  1.0  -0.6119
  O  O123  1  0.804500  0.417000  0.855600  1.0  -0.7026
  O  O124  1  0.947100  0.557400  0.910600  1.0  -0.6126
  O  O125  1  0.417000  0.612500  0.855600  1.0  -0.7024
  O  O126  1  0.557400  0.610300  0.910600  1.0  -0.6104
  O  O127  1  0.387500  0.804500  0.855600  1.0  -0.7016
  O  O128  1  0.389700  0.947100  0.910600  1.0  -0.6117
  O  O129  1  0.195500  0.583000  0.855600  1.0  -0.7027
  O  O130  1  0.052900  0.442600  0.910600  1.0  -0.6107
  O  O131  1  0.804500  0.387500  0.355600  1.0  -0.7021
  O  O132  1  0.947100  0.389700  0.410600  1.0  -0.6116
  O  O133  1  0.583000  0.195500  0.355600  1.0  -0.7008
  O  O134  1  0.442600  0.052900  0.410600  1.0  -0.6126
  O  O135  1  0.612500  0.417000  0.355600  1.0  -0.7028
  O  O136  1  0.610300  0.557400  0.410600  1.0  -0.6124
  O  O137  1  0.195500  0.612500  0.355600  1.0  -0.7023
  O  O138  1  0.052900  0.610300  0.410600  1.0  -0.6118
  O  O139  1  0.417000  0.804500  0.355600  1.0  -0.7019
  O  O140  1  0.557400  0.947100  0.410600  1.0  -0.6122
  O  O141  1  0.387500  0.583000  0.355600  1.0  -0.7025
  O  O142  1  0.389700  0.442600  0.410600  1.0  -0.6125
  O  O143  1  0.417000  0.612500  0.144400  1.0  -0.701
  O  O144  1  0.557400  0.610300  0.089400  1.0  -0.613
  O  O145  1  0.387500  0.804500  0.144400  1.0  -0.7005
  O  O146  1  0.389700  0.947100  0.089400  1.0  -0.6138
  O  O147  1  0.195500  0.583000  0.144400  1.0  -0.701
  O  O148  1  0.052900  0.442600  0.089400  1.0  -0.6129
  O  O149  1  0.583000  0.387500  0.144400  1.0  -0.7015
  O  O150  1  0.442600  0.389700  0.089400  1.0  -0.6123
  O  O151  1  0.612500  0.195500  0.144400  1.0  -0.6999
  O  O152  1  0.610300  0.052900  0.089400  1.0  -0.613
  O  O153  1  0.804500  0.417000  0.144400  1.0  -0.701
  O  O154  1  0.947100  0.557400  0.089400  1.0  -0.6138
  O  O155  1  0.236150  0.763850  0.750000  1.0  -0.341
  O  O156  1  0.527700  0.763850  0.750000  1.0  -0.341
  O  O157  1  0.236150  0.472300  0.750000  1.0  -0.3407
  O  O158  1  0.763850  0.236150  0.750000  1.0  -0.3409
  O  O159  1  0.472300  0.236150  0.750000  1.0  -0.3408
  O  O160  1  0.763850  0.527700  0.750000  1.0  -0.3418
  O  O161  1  0.763850  0.236150  0.250000  1.0  -0.3409
  O  O162  1  0.472300  0.236150  0.250000  1.0  -0.3408
  O  O163  1  0.763850  0.527700  0.250000  1.0  -0.3418
  O  O164  1  0.236150  0.763850  0.250000  1.0  -0.341
  O  O165  1  0.527700  0.763850  0.250000  1.0  -0.341
  O  O166  1  0.236150  0.472300  0.250000  1.0  -0.3407
