# generated using pymatgen
data_MnH24(C5N)8
_symmetry_space_group_name_H-M   'P 1'
_cell_length_a   33.32000000
_cell_length_b   33.32000000
_cell_length_c   9.28560000
_cell_angle_alpha   90.00000000
_cell_angle_beta   90.00000000
_cell_angle_gamma   120.00000000
_symmetry_Int_Tables_number   1
_chemical_formula_structural   MnH24(C5N)8
_chemical_formula_sum   'Mn9 H216 C360 N72'
_cell_volume   8927.92613738
_cell_formula_units_Z   9
loop_
 _symmetry_equiv_pos_site_id
 _symmetry_equiv_pos_as_xyz
  1  'x, y, z'
loop_
 _atom_site_type_symbol
 _atom_site_label
 _atom_site_symmetry_multiplicity
 _atom_site_fract_x
 _atom_site_fract_y
 _atom_site_fract_z
 _atom_site_occupancy
 _atom_site_charge
  Mn  Mn1  1  0.500000  0.000000  0.500000  1.0  0.7777
  Mn  Mn2  1  0.166670  0.333333  0.833330  1.0  0.7765
  Mn  Mn3  1  0.833330  0.666667  0.166670  1.0  0.7767
  Mn  Mn4  1  0.000000  0.500000  0.500000  1.0  0.7777
  Mn  Mn5  1  0.666667  0.833330  0.833330  1.0  0.7766
  Mn  Mn6  1  0.333333  0.166670  0.166670  1.0  0.7766
  Mn  Mn7  1  0.500000  0.500000  0.500000  1.0  0.7776
  Mn  Mn8  1  0.166670  0.833330  0.833330  1.0  0.7777
  Mn  Mn9  1  0.833330  0.166670  0.166670  1.0  0.7779
  H  H10  1  0.372600  0.863600  0.206300  1.0  0.105
  H  H11  1  0.332100  0.867700  0.421100  1.0  0.1069
  H  H12  1  0.551100  0.954000  0.031700  1.0  0.1123
  H  H13  1  0.467100  0.943500  0.914600  1.0  0.11
  H  H14  1  0.622400  0.021600  0.124300  1.0  0.1142
  H  H15  1  0.441700  0.838700  0.178900  1.0  0.121
  H  H16  1  0.421900  0.791500  0.982100  1.0  0.0709
  H  H17  1  0.444500  0.893200  0.728100  1.0  0.0636
  H  H18  1  0.317300  0.947100  0.533700  1.0  0.121
  H  H19  1  0.340900  0.870500  0.816100  1.0  0.1234
  H  H20  1  0.241000  0.907500  0.599000  1.0  0.0683
  H  H21  1  0.263400  0.833300  0.869800  1.0  0.0673
  H  H22  1  0.627400  0.136400  0.793700  1.0  0.1047
  H  H23  1  0.667900  0.132300  0.578900  1.0  0.1064
  H  H24  1  0.448900  0.046000  0.968300  1.0  0.1121
  H  H25  1  0.532900  0.056500  0.085400  1.0  0.1101
  H  H26  1  0.377600  0.978400  0.875700  1.0  0.1143
  H  H27  1  0.558300  0.161300  0.821100  1.0  0.1204
  H  H28  1  0.578100  0.208500  0.017900  1.0  0.0713
  H  H29  1  0.555500  0.106800  0.271900  1.0  0.0635
  H  H30  1  0.682700  0.052900  0.466300  1.0  0.121
  H  H31  1  0.659100  0.129500  0.183900  1.0  0.1231
  H  H32  1  0.759000  0.092500  0.401000  1.0  0.0684
  H  H33  1  0.736600  0.166700  0.130200  1.0  0.0679
  H  H34  1  0.039270  0.196930  0.539630  1.0  0.105
  H  H35  1  0.998770  0.201030  0.754430  1.0  0.1069
  H  H36  1  0.217770  0.287330  0.365030  1.0  0.1123
  H  H37  1  0.133770  0.276830  0.247930  1.0  0.11
  H  H38  1  0.289070  0.354930  0.457630  1.0  0.1143
  H  H39  1  0.108370  0.172030  0.512230  1.0  0.1211
  H  H40  1  0.088570  0.124830  0.315430  1.0  0.0709
  H  H41  1  0.111170  0.226530  0.061430  1.0  0.0635
  H  H42  1  0.983970  0.280430  0.867030  1.0  0.121
  H  H43  1  0.007570  0.203830  0.149430  1.0  0.1234
  H  H44  1  0.907670  0.240830  0.932330  1.0  0.0682
  H  H45  1  0.930070  0.166630  0.203130  1.0  0.0672
  H  H46  1  0.294070  0.469730  0.127030  1.0  0.1047
  H  H47  1  0.334570  0.465630  0.912230  1.0  0.1064
  H  H48  1  0.115570  0.379330  0.301630  1.0  0.1121
  H  H49  1  0.199570  0.389830  0.418730  1.0  0.1101
  H  H50  1  0.044270  0.311730  0.209030  1.0  0.1143
  H  H51  1  0.224970  0.494630  0.154430  1.0  0.1204
  H  H52  1  0.244770  0.541830  0.351230  1.0  0.0713
  H  H53  1  0.222170  0.440130  0.605230  1.0  0.0635
  H  H54  1  0.349370  0.386230  0.799630  1.0  0.121
  H  H55  1  0.325770  0.462830  0.517230  1.0  0.1231
  H  H56  1  0.425670  0.425830  0.734330  1.0  0.0684
  H  H57  1  0.403270  0.500030  0.463530  1.0  0.0679
  H  H58  1  0.705930  0.530270  0.872970  1.0  0.105
  H  H59  1  0.665430  0.534370  0.087770  1.0  0.1069
  H  H60  1  0.884430  0.620670  0.698370  1.0  0.1123
  H  H61  1  0.800430  0.610170  0.581270  1.0  0.11
  H  H62  1  0.955730  0.688270  0.790970  1.0  0.1142
  H  H63  1  0.775030  0.505370  0.845570  1.0  0.121
  H  H64  1  0.755230  0.458170  0.648770  1.0  0.0709
  H  H65  1  0.777830  0.559870  0.394770  1.0  0.0636
  H  H66  1  0.650630  0.613770  0.200370  1.0  0.121
  H  H67  1  0.674230  0.537170  0.482770  1.0  0.1234
  H  H68  1  0.574330  0.574170  0.265670  1.0  0.0683
  H  H69  1  0.596730  0.499970  0.536470  1.0  0.0673
  H  H70  1  0.960730  0.803070  0.460370  1.0  0.1047
  H  H71  1  0.001230  0.798970  0.245570  1.0  0.1064
  H  H72  1  0.782230  0.712670  0.634970  1.0  0.1121
  H  H73  1  0.866230  0.723170  0.752070  1.0  0.1101
  H  H74  1  0.710930  0.645070  0.542370  1.0  0.1143
  H  H75  1  0.891630  0.827970  0.487770  1.0  0.1204
  H  H76  1  0.911430  0.875170  0.684570  1.0  0.0713
  H  H77  1  0.888830  0.773470  0.938570  1.0  0.0634
  H  H78  1  0.016030  0.719570  0.132970  1.0  0.121
  H  H79  1  0.992430  0.796170  0.850570  1.0  0.1231
  H  H80  1  0.092330  0.759170  0.067670  1.0  0.0684
  H  H81  1  0.069930  0.833370  0.796870  1.0  0.0678
  H  H82  1  0.136400  0.509000  0.206300  1.0  0.1042
  H  H83  1  0.132300  0.464400  0.421100  1.0  0.1076
  H  H84  1  0.046000  0.597100  0.031700  1.0  0.1123
  H  H85  1  0.056500  0.523600  0.914600  1.0  0.1097
  H  H86  1  0.978400  0.600800  0.124300  1.0  0.1129
  H  H87  1  0.161300  0.603000  0.178900  1.0  0.12
  H  H88  1  0.208500  0.630400  0.982100  1.0  0.0716
  H  H89  1  0.106800  0.551300  0.728100  1.0  0.0658
  H  H90  1  0.052900  0.370200  0.533700  1.0  0.1209
  H  H91  1  0.129500  0.470400  0.816100  1.0  0.1234
  H  H92  1  0.092500  0.333500  0.599000  1.0  0.067
  H  H93  1  0.166700  0.430100  0.869800  1.0  0.0654
  H  H94  1  0.863600  0.491000  0.793700  1.0  0.1049
  H  H95  1  0.867700  0.535600  0.578900  1.0  0.1078
  H  H96  1  0.954000  0.402900  0.968300  1.0  0.112
  H  H97  1  0.943500  0.476400  0.085400  1.0  0.1097
  H  H98  1  0.021600  0.399200  0.875700  1.0  0.1131
  H  H99  1  0.838700  0.397000  0.821100  1.0  0.1207
  H  H100  1  0.791500  0.369600  0.017900  1.0  0.0704
  H  H101  1  0.893200  0.448700  0.271900  1.0  0.0652
  H  H102  1  0.947100  0.629800  0.466300  1.0  0.1209
  H  H103  1  0.870500  0.529600  0.183900  1.0  0.1244
  H  H104  1  0.907500  0.666500  0.401000  1.0  0.0679
  H  H105  1  0.833300  0.569900  0.130200  1.0  0.0654
  H  H106  1  0.803070  0.842330  0.539630  1.0  0.1042
  H  H107  1  0.798970  0.797730  0.754430  1.0  0.1076
  H  H108  1  0.712670  0.930430  0.365030  1.0  0.1123
  H  H109  1  0.723170  0.856930  0.247930  1.0  0.1097
  H  H110  1  0.645070  0.934130  0.457630  1.0  0.1128
  H  H111  1  0.827970  0.936330  0.512230  1.0  0.1199
  H  H112  1  0.875170  0.963730  0.315430  1.0  0.0718
  H  H113  1  0.773470  0.884630  0.061430  1.0  0.0659
  H  H114  1  0.719570  0.703530  0.867030  1.0  0.1209
  H  H115  1  0.796170  0.803730  0.149430  1.0  0.1233
  H  H116  1  0.759170  0.666830  0.932330  1.0  0.0669
  H  H117  1  0.833370  0.763430  0.203130  1.0  0.0654
  H  H118  1  0.530270  0.824330  0.127030  1.0  0.1049
  H  H119  1  0.534370  0.868930  0.912230  1.0  0.1078
  H  H120  1  0.620670  0.736230  0.301630  1.0  0.1119
  H  H121  1  0.610170  0.809730  0.418730  1.0  0.1097
  H  H122  1  0.688270  0.732530  0.209030  1.0  0.1131
  H  H123  1  0.505370  0.730330  0.154430  1.0  0.1207
  H  H124  1  0.458170  0.702930  0.351230  1.0  0.0704
  H  H125  1  0.559870  0.782030  0.605230  1.0  0.0652
  H  H126  1  0.613770  0.963130  0.799630  1.0  0.1209
  H  H127  1  0.537170  0.862930  0.517230  1.0  0.1244
  H  H128  1  0.574170  0.999830  0.734330  1.0  0.0679
  H  H129  1  0.499970  0.903230  0.463530  1.0  0.0654
  H  H130  1  0.469730  0.175670  0.872970  1.0  0.1042
  H  H131  1  0.465630  0.131070  0.087770  1.0  0.1076
  H  H132  1  0.379330  0.263770  0.698370  1.0  0.1123
  H  H133  1  0.389830  0.190270  0.581270  1.0  0.1097
  H  H134  1  0.311730  0.267470  0.790970  1.0  0.1128
  H  H135  1  0.494630  0.269670  0.845570  1.0  0.12
  H  H136  1  0.541830  0.297070  0.648770  1.0  0.0716
  H  H137  1  0.440130  0.217970  0.394770  1.0  0.0658
  H  H138  1  0.386230  0.036870  0.200370  1.0  0.1208
  H  H139  1  0.462830  0.137070  0.482770  1.0  0.1234
  H  H140  1  0.425830  0.000170  0.265670  1.0  0.0669
  H  H141  1  0.500030  0.096770  0.536470  1.0  0.0654
  H  H142  1  0.196930  0.157670  0.460370  1.0  0.1049
  H  H143  1  0.201030  0.202270  0.245570  1.0  0.1079
  H  H144  1  0.287330  0.069570  0.634970  1.0  0.112
  H  H145  1  0.276830  0.143070  0.752070  1.0  0.1097
  H  H146  1  0.354930  0.065870  0.542370  1.0  0.1131
  H  H147  1  0.172030  0.063670  0.487770  1.0  0.1207
  H  H148  1  0.124830  0.036270  0.684570  1.0  0.0704
  H  H149  1  0.226530  0.115370  0.938570  1.0  0.0654
  H  H150  1  0.280430  0.296470  0.132970  1.0  0.1209
  H  H151  1  0.203830  0.196270  0.850570  1.0  0.1243
  H  H152  1  0.240830  0.333170  0.067670  1.0  0.0679
  H  H153  1  0.166630  0.236570  0.796870  1.0  0.0655
  H  H154  1  0.491000  0.627400  0.206300  1.0  0.1047
  H  H155  1  0.535600  0.667900  0.421100  1.0  0.1083
  H  H156  1  0.402900  0.448900  0.031700  1.0  0.1122
  H  H157  1  0.476400  0.532900  0.914600  1.0  0.1107
  H  H158  1  0.399200  0.377600  0.124300  1.0  0.1141
  H  H159  1  0.397000  0.558300  0.178900  1.0  0.1199
  H  H160  1  0.369600  0.578100  0.982100  1.0  0.0699
  H  H161  1  0.448700  0.555500  0.728100  1.0  0.0644
  H  H162  1  0.629800  0.682700  0.533700  1.0  0.1213
  H  H163  1  0.529600  0.659100  0.816100  1.0  0.1244
  H  H164  1  0.666500  0.759000  0.599000  1.0  0.0672
  H  H165  1  0.569900  0.736600  0.869800  1.0  0.0652
  H  H166  1  0.509000  0.372600  0.793700  1.0  0.1049
  H  H167  1  0.464400  0.332100  0.578900  1.0  0.1083
  H  H168  1  0.597100  0.551100  0.968300  1.0  0.1121
  H  H169  1  0.523600  0.467100  0.085400  1.0  0.1097
  H  H170  1  0.600800  0.622400  0.875700  1.0  0.1139
  H  H171  1  0.603000  0.441700  0.821100  1.0  0.1205
  H  H172  1  0.630400  0.421900  0.017900  1.0  0.0703
  H  H173  1  0.551300  0.444500  0.271900  1.0  0.0646
  H  H174  1  0.370200  0.317300  0.466300  1.0  0.1214
  H  H175  1  0.470400  0.340900  0.183900  1.0  0.124
  H  H176  1  0.333500  0.241000  0.401000  1.0  0.0676
  H  H177  1  0.430100  0.263400  0.130200  1.0  0.0653
  H  H178  1  0.157670  0.960730  0.539630  1.0  0.1047
  H  H179  1  0.202270  0.001230  0.754430  1.0  0.1083
  H  H180  1  0.069570  0.782230  0.365030  1.0  0.1123
  H  H181  1  0.143070  0.866230  0.247930  1.0  0.1108
  H  H182  1  0.065870  0.710930  0.457630  1.0  0.1142
  H  H183  1  0.063670  0.891630  0.512230  1.0  0.1199
  H  H184  1  0.036270  0.911430  0.315430  1.0  0.0693
  H  H185  1  0.115370  0.888830  0.061430  1.0  0.0642
  H  H186  1  0.296470  0.016030  0.867030  1.0  0.1213
  H  H187  1  0.196270  0.992430  0.149430  1.0  0.1244
  H  H188  1  0.333170  0.092330  0.932330  1.0  0.0672
  H  H189  1  0.236570  0.069930  0.203130  1.0  0.0652
  H  H190  1  0.175670  0.705930  0.127030  1.0  0.1049
  H  H191  1  0.131070  0.665430  0.912230  1.0  0.1083
  H  H192  1  0.263770  0.884430  0.301630  1.0  0.1122
  H  H193  1  0.190270  0.800430  0.418730  1.0  0.1097
  H  H194  1  0.267470  0.955730  0.209030  1.0  0.114
  H  H195  1  0.269670  0.775030  0.154430  1.0  0.1205
  H  H196  1  0.297070  0.755230  0.351230  1.0  0.0703
  H  H197  1  0.217970  0.777830  0.605230  1.0  0.0646
  H  H198  1  0.036870  0.650630  0.799630  1.0  0.1214
  H  H199  1  0.137070  0.674230  0.517230  1.0  0.124
  H  H200  1  0.000170  0.574330  0.734330  1.0  0.0677
  H  H201  1  0.096770  0.596730  0.463530  1.0  0.0653
  H  H202  1  0.824330  0.294070  0.872970  1.0  0.1047
  H  H203  1  0.868930  0.334570  0.087770  1.0  0.1083
  H  H204  1  0.736230  0.115570  0.698370  1.0  0.1122
  H  H205  1  0.809730  0.199570  0.581270  1.0  0.1107
  H  H206  1  0.732530  0.044270  0.790970  1.0  0.1141
  H  H207  1  0.730330  0.224970  0.845570  1.0  0.1199
  H  H208  1  0.702930  0.244770  0.648770  1.0  0.0699
  H  H209  1  0.782030  0.222170  0.394770  1.0  0.0644
  H  H210  1  0.963130  0.349370  0.200370  1.0  0.1213
  H  H211  1  0.862930  0.325770  0.482770  1.0  0.1244
  H  H212  1  0.999830  0.425670  0.265670  1.0  0.0672
  H  H213  1  0.903230  0.403270  0.536470  1.0  0.0652
  H  H214  1  0.842330  0.039270  0.460370  1.0  0.1049
  H  H215  1  0.797730  0.998770  0.245570  1.0  0.1083
  H  H216  1  0.930430  0.217770  0.634970  1.0  0.1122
  H  H217  1  0.856930  0.133770  0.752070  1.0  0.1097
  H  H218  1  0.934130  0.289070  0.542370  1.0  0.114
  H  H219  1  0.936330  0.108370  0.487770  1.0  0.1205
  H  H220  1  0.963730  0.088570  0.684570  1.0  0.0703
  H  H221  1  0.884630  0.111170  0.938570  1.0  0.0644
  H  H222  1  0.703530  0.983970  0.132970  1.0  0.1214
  H  H223  1  0.803730  0.007570  0.850570  1.0  0.124
  H  H224  1  0.666830  0.907670  0.067670  1.0  0.0676
  H  H225  1  0.763430  0.930070  0.796870  1.0  0.0652
  C  C226  1  0.469590  0.928870  0.197000  1.0  -0.0329
  C  C227  1  0.434390  0.918390  0.299300  1.0  0.1971
  C  C228  1  0.397750  0.922480  0.491600  1.0  0.1878
  C  C229  1  0.388810  0.937670  0.622600  1.0  -0.0473
  C  C230  1  0.385910  0.883760  0.283600  1.0  -0.175
  C  C231  1  0.516060  0.966000  0.204900  1.0  0.1706
  C  C232  1  0.580410  0.026280  0.287400  1.0  0.1783
  C  C233  1  0.456940  0.897240  0.070600  1.0  0.1115
  C  C234  1  0.363550  0.886090  0.401500  1.0  -0.1784
  C  C235  1  0.553460  0.972010  0.111300  1.0  -0.1675
  C  C236  1  0.457620  0.912530  0.931700  1.0  -0.2038
  C  C237  1  0.592820  0.009340  0.162900  1.0  -0.1728
  C  C238  1  0.442910  0.850700  0.087600  1.0  -0.2298
  C  C239  1  0.430820  0.822530  0.968700  1.0  0.1443
  C  C240  1  0.444420  0.882160  0.820200  1.0  0.1643
  C  C241  1  0.338190  0.913070  0.665900  1.0  0.1201
  C  C242  1  0.307260  0.923850  0.602900  1.0  -0.2213
  C  C243  1  0.321360  0.878700  0.769300  1.0  -0.2042
  C  C244  1  0.261380  0.899920  0.643200  1.0  0.1801
  C  C245  1  0.274630  0.856790  0.801100  1.0  0.1792
  C  C246  1  0.530410  0.071130  0.803000  1.0  -0.0334
  C  C247  1  0.565610  0.081610  0.700700  1.0  0.1971
  C  C248  1  0.602250  0.077520  0.508400  1.0  0.1883
  C  C249  1  0.611190  0.062330  0.377400  1.0  -0.0472
  C  C250  1  0.614090  0.116240  0.716400  1.0  -0.1734
  C  C251  1  0.483940  0.034000  0.795100  1.0  0.1709
  C  C252  1  0.419590  0.973720  0.712600  1.0  0.1781
  C  C253  1  0.543060  0.102760  0.929400  1.0  0.112
  C  C254  1  0.636450  0.113910  0.598500  1.0  -0.1779
  C  C255  1  0.446540  0.027990  0.888700  1.0  -0.1652
  C  C256  1  0.542380  0.087470  0.068300  1.0  -0.2066
  C  C257  1  0.407180  0.990660  0.837100  1.0  -0.1737
  C  C258  1  0.557090  0.149300  0.912400  1.0  -0.2348
  C  C259  1  0.569180  0.177470  0.031300  1.0  0.1498
  C  C260  1  0.555580  0.117840  0.179800  1.0  0.1659
  C  C261  1  0.661810  0.086930  0.334100  1.0  0.12
  C  C262  1  0.692740  0.076150  0.397100  1.0  -0.2204
  C  C263  1  0.678640  0.121300  0.230700  1.0  -0.205
  C  C264  1  0.738620  0.100080  0.356800  1.0  0.1808
  C  C265  1  0.725370  0.143210  0.198900  1.0  0.1783
  C  C266  1  0.136260  0.262200  0.530330  1.0  -0.0329
  C  C267  1  0.101060  0.251720  0.632630  1.0  0.1971
  C  C268  1  0.064420  0.255810  0.824930  1.0  0.1878
  C  C269  1  0.055480  0.271000  0.955930  1.0  -0.0473
  C  C270  1  0.052580  0.217090  0.616930  1.0  -0.175
  C  C271  1  0.182730  0.299330  0.538230  1.0  0.1706
  C  C272  1  0.247080  0.359610  0.620730  1.0  0.1783
  C  C273  1  0.123610  0.230570  0.403930  1.0  0.1115
  C  C274  1  0.030220  0.219420  0.734830  1.0  -0.1784
  C  C275  1  0.220130  0.305340  0.444630  1.0  -0.1675
  C  C276  1  0.124290  0.245860  0.265030  1.0  -0.2038
  C  C277  1  0.259490  0.342670  0.496230  1.0  -0.1729
  C  C278  1  0.109580  0.184030  0.420930  1.0  -0.2298
  C  C279  1  0.097490  0.155860  0.302030  1.0  0.1443
  C  C280  1  0.111090  0.215490  0.153530  1.0  0.1643
  C  C281  1  0.004860  0.246400  0.999230  1.0  0.1201
  C  C282  1  0.973930  0.257180  0.936230  1.0  -0.2213
  C  C283  1  0.988030  0.212030  0.102630  1.0  -0.2042
  C  C284  1  0.928050  0.233250  0.976530  1.0  0.1799
  C  C285  1  0.941300  0.190120  0.134430  1.0  0.1792
  C  C286  1  0.197080  0.404460  0.136330  1.0  -0.0334
  C  C287  1  0.232280  0.414940  0.034030  1.0  0.1971
  C  C288  1  0.268920  0.410850  0.841730  1.0  0.1883
  C  C289  1  0.277860  0.395660  0.710730  1.0  -0.047
  C  C290  1  0.280760  0.449570  0.049730  1.0  -0.1734
  C  C291  1  0.150610  0.367330  0.128430  1.0  0.1709
  C  C292  1  0.086260  0.307050  0.045930  1.0  0.1779
  C  C293  1  0.209730  0.436090  0.262730  1.0  0.112
  C  C294  1  0.303120  0.447240  0.931830  1.0  -0.1779
  C  C295  1  0.113210  0.361320  0.222030  1.0  -0.1652
  C  C296  1  0.209050  0.420800  0.401630  1.0  -0.2066
  C  C297  1  0.073850  0.323990  0.170430  1.0  -0.1737
  C  C298  1  0.223760  0.482630  0.245730  1.0  -0.2348
  C  C299  1  0.235850  0.510800  0.364630  1.0  0.1498
  C  C300  1  0.222250  0.451170  0.513130  1.0  0.1659
  C  C301  1  0.328480  0.420260  0.667430  1.0  0.12
  C  C302  1  0.359410  0.409480  0.730430  1.0  -0.2204
  C  C303  1  0.345310  0.454630  0.564030  1.0  -0.205
  C  C304  1  0.405290  0.433410  0.690130  1.0  0.1808
  C  C305  1  0.392040  0.476540  0.532230  1.0  0.1783
  C  C306  1  0.802920  0.595540  0.863670  1.0  -0.0329
  C  C307  1  0.767720  0.585060  0.965970  1.0  0.1971
  C  C308  1  0.731080  0.589150  0.158270  1.0  0.1878
  C  C309  1  0.722140  0.604340  0.289270  1.0  -0.0471
  C  C310  1  0.719240  0.550430  0.950270  1.0  -0.175
  C  C311  1  0.849390  0.632670  0.871570  1.0  0.1706
  C  C312  1  0.913740  0.692950  0.954070  1.0  0.1782
  C  C313  1  0.790270  0.563910  0.737270  1.0  0.1115
  C  C314  1  0.696880  0.552760  0.068170  1.0  -0.1784
  C  C315  1  0.886790  0.638680  0.777970  1.0  -0.1675
  C  C316  1  0.790950  0.579200  0.598370  1.0  -0.2038
  C  C317  1  0.926150  0.676010  0.829570  1.0  -0.1728
  C  C318  1  0.776240  0.517370  0.754270  1.0  -0.2298
  C  C319  1  0.764150  0.489200  0.635370  1.0  0.1443
  C  C320  1  0.777750  0.548830  0.486870  1.0  0.1643
  C  C321  1  0.671520  0.579740  0.332570  1.0  0.1201
  C  C322  1  0.640590  0.590520  0.269570  1.0  -0.2213
  C  C323  1  0.654690  0.545370  0.435970  1.0  -0.2042
  C  C324  1  0.594710  0.566590  0.309870  1.0  0.1801
  C  C325  1  0.607960  0.523460  0.467770  1.0  0.1792
  C  C326  1  0.863740  0.737800  0.469670  1.0  -0.0334
  C  C327  1  0.898940  0.748280  0.367370  1.0  0.1971
  C  C328  1  0.935580  0.744190  0.175070  1.0  0.1882
  C  C329  1  0.944520  0.729000  0.044070  1.0  -0.0472
  C  C330  1  0.947420  0.782910  0.383070  1.0  -0.1734
  C  C331  1  0.817270  0.700670  0.461770  1.0  0.1709
  C  C332  1  0.752920  0.640390  0.379270  1.0  0.1781
  C  C333  1  0.876390  0.769430  0.596070  1.0  0.112
  C  C334  1  0.969780  0.780580  0.265170  1.0  -0.1779
  C  C335  1  0.779870  0.694660  0.555370  1.0  -0.1653
  C  C336  1  0.875710  0.754140  0.734970  1.0  -0.2065
  C  C337  1  0.740510  0.657330  0.503770  1.0  -0.1737
  C  C338  1  0.890420  0.815970  0.579070  1.0  -0.2348
  C  C339  1  0.902510  0.844140  0.697970  1.0  0.1497
  C  C340  1  0.888910  0.784510  0.846470  1.0  0.1659
  C  C341  1  0.995140  0.753600  0.000770  1.0  0.12
  C  C342  1  0.026070  0.742820  0.063770  1.0  -0.2204
  C  C343  1  0.011970  0.787970  0.897370  1.0  -0.205
  C  C344  1  0.071950  0.766750  0.023470  1.0  0.1805
  C  C345  1  0.058700  0.809880  0.865570  1.0  0.1782
  C  C346  1  0.071130  0.540720  0.197000  1.0  -0.0335
  C  C347  1  0.081610  0.516000  0.299300  1.0  0.1966
  C  C348  1  0.077520  0.475270  0.491600  1.0  0.1868
  C  C349  1  0.062330  0.451140  0.622600  1.0  -0.0473
  C  C350  1  0.116240  0.502150  0.283600  1.0  -0.1724
  C  C351  1  0.034000  0.550060  0.204900  1.0  0.1702
  C  C352  1  0.973720  0.554130  0.287400  1.0  0.178
  C  C353  1  0.102760  0.559700  0.070600  1.0  0.1109
  C  C354  1  0.113910  0.477460  0.401500  1.0  -0.1779
  C  C355  1  0.027990  0.581450  0.111300  1.0  -0.1679
  C  C356  1  0.087470  0.545090  0.931700  1.0  -0.2019
  C  C357  1  0.990660  0.583480  0.162900  1.0  -0.1754
  C  C358  1  0.149300  0.592210  0.087600  1.0  -0.2316
  C  C359  1  0.177470  0.608290  0.968700  1.0  0.1398
  C  C360  1  0.117840  0.562260  0.820200  1.0  0.1657
  C  C361  1  0.086930  0.425120  0.665900  1.0  0.1201
  C  C362  1  0.076150  0.383410  0.602900  1.0  -0.2212
  C  C363  1  0.121300  0.442660  0.769300  1.0  -0.2068
  C  C364  1  0.100080  0.361460  0.643200  1.0  0.1794
  C  C365  1  0.143210  0.417840  0.801100  1.0  0.178
  C  C366  1  0.928870  0.459280  0.803000  1.0  -0.0345
  C  C367  1  0.918390  0.484000  0.700700  1.0  0.1978
  C  C368  1  0.922480  0.524730  0.508400  1.0  0.1873
  C  C369  1  0.937670  0.548860  0.377400  1.0  -0.047
  C  C370  1  0.883760  0.497850  0.716400  1.0  -0.1722
  C  C371  1  0.966000  0.449940  0.795100  1.0  0.1712
  C  C372  1  0.026280  0.445870  0.712600  1.0  0.1775
  C  C373  1  0.897240  0.440300  0.929400  1.0  0.1112
  C  C374  1  0.886090  0.522540  0.598500  1.0  -0.1771
  C  C375  1  0.972010  0.418550  0.888700  1.0  -0.1669
  C  C376  1  0.912530  0.454910  0.068300  1.0  -0.2029
  C  C377  1  0.009340  0.416520  0.837100  1.0  -0.1761
  C  C378  1  0.850700  0.407790  0.912400  1.0  -0.2316
  C  C379  1  0.822530  0.391710  0.031300  1.0  0.1411
  C  C380  1  0.882160  0.437740  0.179800  1.0  0.1673
  C  C381  1  0.913070  0.574880  0.334100  1.0  0.12
  C  C382  1  0.923850  0.616590  0.397100  1.0  -0.2241
  C  C383  1  0.878700  0.557340  0.230700  1.0  -0.2078
  C  C384  1  0.899920  0.638540  0.356800  1.0  0.1786
  C  C385  1  0.856790  0.582160  0.198900  1.0  0.1759
  C  C386  1  0.737800  0.874050  0.530330  1.0  -0.0335
  C  C387  1  0.748280  0.849330  0.632630  1.0  0.1966
  C  C388  1  0.744190  0.808600  0.824930  1.0  0.1868
  C  C389  1  0.729000  0.784470  0.955930  1.0  -0.0473
  C  C390  1  0.782910  0.835480  0.616930  1.0  -0.1724
  C  C391  1  0.700670  0.883390  0.538230  1.0  0.1702
  C  C392  1  0.640390  0.887460  0.620730  1.0  0.178
  C  C393  1  0.769430  0.893030  0.403930  1.0  0.1109
  C  C394  1  0.780580  0.810790  0.734830  1.0  -0.1775
  C  C395  1  0.694660  0.914780  0.444630  1.0  -0.1679
  C  C396  1  0.754140  0.878420  0.265030  1.0  -0.2019
  C  C397  1  0.657330  0.916810  0.496230  1.0  -0.1754
  C  C398  1  0.815970  0.925540  0.420930  1.0  -0.2316
  C  C399  1  0.844140  0.941620  0.302030  1.0  0.1398
  C  C400  1  0.784510  0.895590  0.153530  1.0  0.1657
  C  C401  1  0.753600  0.758450  0.999230  1.0  0.1201
  C  C402  1  0.742820  0.716740  0.936230  1.0  -0.2212
  C  C403  1  0.787970  0.775990  0.102630  1.0  -0.2069
  C  C404  1  0.766750  0.694790  0.976530  1.0  0.1796
  C  C405  1  0.809880  0.751170  0.134430  1.0  0.1781
  C  C406  1  0.595540  0.792610  0.136330  1.0  -0.0345
  C  C407  1  0.585060  0.817330  0.034030  1.0  0.1978
  C  C408  1  0.589150  0.858060  0.841730  1.0  0.1873
  C  C409  1  0.604340  0.882190  0.710730  1.0  -0.047
  C  C410  1  0.550430  0.831180  0.049730  1.0  -0.1722
  C  C411  1  0.632670  0.783270  0.128430  1.0  0.1712
  C  C412  1  0.692950  0.779200  0.045930  1.0  0.1777
  C  C413  1  0.563910  0.773630  0.262730  1.0  0.1112
  C  C414  1  0.552760  0.855870  0.931830  1.0  -0.177
  C  C415  1  0.638680  0.751880  0.222030  1.0  -0.1669
  C  C416  1  0.579200  0.788240  0.401630  1.0  -0.2029
  C  C417  1  0.676010  0.749850  0.170430  1.0  -0.1761
  C  C418  1  0.517370  0.741120  0.245730  1.0  -0.2316
  C  C419  1  0.489200  0.725040  0.364630  1.0  0.1411
  C  C420  1  0.548830  0.771070  0.513130  1.0  0.1673
  C  C421  1  0.579740  0.908210  0.667430  1.0  0.12
  C  C422  1  0.590520  0.949920  0.730430  1.0  -0.2241
  C  C423  1  0.545370  0.890670  0.564030  1.0  -0.2078
  C  C424  1  0.566590  0.971870  0.690130  1.0  0.1786
  C  C425  1  0.523460  0.915490  0.532230  1.0  0.1759
  C  C426  1  0.404460  0.207390  0.863670  1.0  -0.0336
  C  C427  1  0.414940  0.182670  0.965970  1.0  0.1966
  C  C428  1  0.410850  0.141940  0.158270  1.0  0.1868
  C  C429  1  0.395660  0.117810  0.289270  1.0  -0.0472
  C  C430  1  0.449570  0.168820  0.950270  1.0  -0.1724
  C  C431  1  0.367330  0.216730  0.871570  1.0  0.1702
  C  C432  1  0.307050  0.220800  0.954070  1.0  0.1782
  C  C433  1  0.436090  0.226370  0.737270  1.0  0.1109
  C  C434  1  0.447240  0.144130  0.068170  1.0  -0.1778
  C  C435  1  0.361320  0.248120  0.777970  1.0  -0.1679
  C  C436  1  0.420800  0.211760  0.598370  1.0  -0.2019
  C  C437  1  0.323990  0.250150  0.829570  1.0  -0.1754
  C  C438  1  0.482630  0.258880  0.754270  1.0  -0.2316
  C  C439  1  0.510800  0.274960  0.635370  1.0  0.1398
  C  C440  1  0.451170  0.228930  0.486870  1.0  0.1657
  C  C441  1  0.420260  0.091790  0.332570  1.0  0.1201
  C  C442  1  0.409480  0.050080  0.269570  1.0  -0.2212
  C  C443  1  0.454630  0.109330  0.435970  1.0  -0.2068
  C  C444  1  0.433410  0.028130  0.309870  1.0  0.1794
  C  C445  1  0.476540  0.084510  0.467770  1.0  0.178
  C  C446  1  0.262200  0.125950  0.469670  1.0  -0.0345
  C  C447  1  0.251720  0.150670  0.367370  1.0  0.1978
  C  C448  1  0.255810  0.191400  0.175070  1.0  0.1873
  C  C449  1  0.271000  0.215530  0.044070  1.0  -0.047
  C  C450  1  0.217090  0.164520  0.383070  1.0  -0.1722
  C  C451  1  0.299330  0.116610  0.461770  1.0  0.1712
  C  C452  1  0.359610  0.112540  0.379270  1.0  0.1775
  C  C453  1  0.230570  0.106970  0.596070  1.0  0.1112
  C  C454  1  0.219420  0.189210  0.265170  1.0  -0.1766
  C  C455  1  0.305340  0.085220  0.555370  1.0  -0.1669
  C  C456  1  0.245860  0.121580  0.734970  1.0  -0.2029
  C  C457  1  0.342670  0.083190  0.503770  1.0  -0.1761
  C  C458  1  0.184030  0.074460  0.579070  1.0  -0.2316
  C  C459  1  0.155860  0.058380  0.697970  1.0  0.1411
  C  C460  1  0.215490  0.104410  0.846470  1.0  0.1673
  C  C461  1  0.246400  0.241550  0.000770  1.0  0.12
  C  C462  1  0.257180  0.283260  0.063770  1.0  -0.2241
  C  C463  1  0.212030  0.224010  0.897370  1.0  -0.208
  C  C464  1  0.233250  0.305210  0.023470  1.0  0.1787
  C  C465  1  0.190120  0.248830  0.865570  1.0  0.1759
  C  C466  1  0.459280  0.530410  0.197000  1.0  -0.0339
  C  C467  1  0.484000  0.565610  0.299300  1.0  0.1967
  C  C468  1  0.524730  0.602250  0.491600  1.0  0.187
  C  C469  1  0.548860  0.611190  0.622600  1.0  -0.046
  C  C470  1  0.497850  0.614090  0.283600  1.0  -0.1735
  C  C471  1  0.449940  0.483940  0.204900  1.0  0.17
  C  C472  1  0.445870  0.419590  0.287400  1.0  0.1778
  C  C473  1  0.440300  0.543060  0.070600  1.0  0.1104
  C  C474  1  0.522540  0.636450  0.401500  1.0  -0.1761
  C  C475  1  0.418550  0.446540  0.111300  1.0  -0.1678
  C  C476  1  0.454910  0.542380  0.931700  1.0  -0.206
  C  C477  1  0.416520  0.407180  0.162900  1.0  -0.1749
  C  C478  1  0.407790  0.557090  0.087600  1.0  -0.2285
  C  C479  1  0.391710  0.569180  0.968700  1.0  0.1418
  C  C480  1  0.437740  0.555580  0.820200  1.0  0.1665
  C  C481  1  0.574880  0.661810  0.665900  1.0  0.1195
  C  C482  1  0.616590  0.692740  0.602900  1.0  -0.2199
  C  C483  1  0.557340  0.678640  0.769300  1.0  -0.2042
  C  C484  1  0.638540  0.738620  0.643200  1.0  0.1811
  C  C485  1  0.582160  0.725370  0.801100  1.0  0.1773
  C  C486  1  0.540720  0.469590  0.803000  1.0  -0.0342
  C  C487  1  0.516000  0.434390  0.700700  1.0  0.1967
  C  C488  1  0.475270  0.397750  0.508400  1.0  0.1888
  C  C489  1  0.451140  0.388810  0.377400  1.0  -0.0464
  C  C490  1  0.502150  0.385910  0.716400  1.0  -0.1747
  C  C491  1  0.550060  0.516060  0.795100  1.0  0.1703
  C  C492  1  0.554130  0.580410  0.712600  1.0  0.1774
  C  C493  1  0.559700  0.456940  0.929400  1.0  0.1105
  C  C494  1  0.477460  0.363550  0.598500  1.0  -0.1764
  C  C495  1  0.581450  0.553460  0.888700  1.0  -0.1666
  C  C496  1  0.545090  0.457620  0.068300  1.0  -0.2057
  C  C497  1  0.583480  0.592820  0.837100  1.0  -0.1745
  C  C498  1  0.592210  0.442910  0.912400  1.0  -0.2288
  C  C499  1  0.608290  0.430820  0.031300  1.0  0.1425
  C  C500  1  0.562260  0.444420  0.179800  1.0  0.1681
  C  C501  1  0.425120  0.338190  0.334100  1.0  0.1211
  C  C502  1  0.383410  0.307260  0.397100  1.0  -0.2194
  C  C503  1  0.442660  0.321360  0.230700  1.0  -0.205
  C  C504  1  0.361460  0.261380  0.356800  1.0  0.1815
  C  C505  1  0.417840  0.274630  0.198900  1.0  0.1767
  C  C506  1  0.125950  0.863740  0.530330  1.0  -0.0339
  C  C507  1  0.150670  0.898940  0.632630  1.0  0.1967
  C  C508  1  0.191400  0.935580  0.824930  1.0  0.187
  C  C509  1  0.215530  0.944520  0.955930  1.0  -0.046
  C  C510  1  0.164520  0.947420  0.616930  1.0  -0.1735
  C  C511  1  0.116610  0.817270  0.538230  1.0  0.17
  C  C512  1  0.112540  0.752920  0.620730  1.0  0.1777
  C  C513  1  0.106970  0.876390  0.403930  1.0  0.1104
  C  C514  1  0.189210  0.969780  0.734830  1.0  -0.1762
  C  C515  1  0.085220  0.779870  0.444630  1.0  -0.1678
  C  C516  1  0.121580  0.875710  0.265030  1.0  -0.206
  C  C517  1  0.083190  0.740510  0.496230  1.0  -0.1749
  C  C518  1  0.074460  0.890420  0.420930  1.0  -0.2285
  C  C519  1  0.058380  0.902510  0.302030  1.0  0.1418
  C  C520  1  0.104410  0.888910  0.153530  1.0  0.1665
  C  C521  1  0.241550  0.995140  0.999230  1.0  0.1195
  C  C522  1  0.283260  0.026070  0.936230  1.0  -0.2199
  C  C523  1  0.224010  0.011970  0.102630  1.0  -0.2042
  C  C524  1  0.305210  0.071950  0.976530  1.0  0.1809
  C  C525  1  0.248830  0.058700  0.134430  1.0  0.1773
  C  C526  1  0.207390  0.802920  0.136330  1.0  -0.0342
  C  C527  1  0.182670  0.767720  0.034030  1.0  0.1967
  C  C528  1  0.141940  0.731080  0.841730  1.0  0.189
  C  C529  1  0.117810  0.722140  0.710730  1.0  -0.0464
  C  C530  1  0.168820  0.719240  0.049730  1.0  -0.1747
  C  C531  1  0.216730  0.849390  0.128430  1.0  0.1703
  C  C532  1  0.220800  0.913740  0.045930  1.0  0.1774
  C  C533  1  0.226370  0.790270  0.262730  1.0  0.1105
  C  C534  1  0.144130  0.696880  0.931830  1.0  -0.1764
  C  C535  1  0.248120  0.886790  0.222030  1.0  -0.1666
  C  C536  1  0.211760  0.790950  0.401630  1.0  -0.2057
  C  C537  1  0.250150  0.926150  0.170430  1.0  -0.1745
  C  C538  1  0.258880  0.776240  0.245730  1.0  -0.2288
  C  C539  1  0.274960  0.764150  0.364630  1.0  0.1425
  C  C540  1  0.228930  0.777750  0.513130  1.0  0.1681
  C  C541  1  0.091790  0.671520  0.667430  1.0  0.1211
  C  C542  1  0.050080  0.640590  0.730430  1.0  -0.2194
  C  C543  1  0.109330  0.654690  0.564030  1.0  -0.205
  C  C544  1  0.028130  0.594710  0.690130  1.0  0.1815
  C  C545  1  0.084510  0.607960  0.532230  1.0  0.1767
  C  C546  1  0.792610  0.197080  0.863670  1.0  -0.0339
  C  C547  1  0.817330  0.232280  0.965970  1.0  0.1967
  C  C548  1  0.858060  0.268920  0.158270  1.0  0.1871
  C  C549  1  0.882190  0.277860  0.289270  1.0  -0.046
  C  C550  1  0.831180  0.280760  0.950270  1.0  -0.1735
  C  C551  1  0.783270  0.150610  0.871570  1.0  0.17
  C  C552  1  0.779200  0.086260  0.954070  1.0  0.1778
  C  C553  1  0.773630  0.209730  0.737270  1.0  0.1104
  C  C554  1  0.855870  0.303120  0.068170  1.0  -0.1762
  C  C555  1  0.751880  0.113210  0.777970  1.0  -0.1678
  C  C556  1  0.788240  0.209050  0.598370  1.0  -0.206
  C  C557  1  0.749850  0.073850  0.829570  1.0  -0.1749
  C  C558  1  0.741120  0.223760  0.754270  1.0  -0.2285
  C  C559  1  0.725040  0.235850  0.635370  1.0  0.1418
  C  C560  1  0.771070  0.222250  0.486870  1.0  0.1665
  C  C561  1  0.908210  0.328480  0.332570  1.0  0.1195
  C  C562  1  0.949920  0.359410  0.269570  1.0  -0.2199
  C  C563  1  0.890670  0.345310  0.435970  1.0  -0.2042
  C  C564  1  0.971870  0.405290  0.309870  1.0  0.1811
  C  C565  1  0.915490  0.392040  0.467770  1.0  0.1773
  C  C566  1  0.874050  0.136260  0.469670  1.0  -0.0342
  C  C567  1  0.849330  0.101060  0.367370  1.0  0.1967
  C  C568  1  0.808600  0.064420  0.175070  1.0  0.1888
  C  C569  1  0.784470  0.055480  0.044070  1.0  -0.0464
  C  C570  1  0.835480  0.052580  0.383070  1.0  -0.1747
  C  C571  1  0.883390  0.182730  0.461770  1.0  0.1704
  C  C572  1  0.887460  0.247080  0.379270  1.0  0.1773
  C  C573  1  0.893030  0.123610  0.596070  1.0  0.1105
  C  C574  1  0.810790  0.030220  0.265170  1.0  -0.1765
  C  C575  1  0.914780  0.220130  0.555370  1.0  -0.1667
  C  C576  1  0.878420  0.124290  0.734970  1.0  -0.2057
  C  C577  1  0.916810  0.259490  0.503770  1.0  -0.1744
  C  C578  1  0.925540  0.109580  0.579070  1.0  -0.2288
  C  C579  1  0.941620  0.097490  0.697970  1.0  0.1425
  C  C580  1  0.895590  0.111090  0.846470  1.0  0.168
  C  C581  1  0.758450  0.004860  0.000770  1.0  0.1211
  C  C582  1  0.716740  0.973930  0.063770  1.0  -0.2194
  C  C583  1  0.775990  0.988030  0.897370  1.0  -0.205
  C  C584  1  0.694790  0.928050  0.023470  1.0  0.1814
  C  C585  1  0.751170  0.941300  0.865570  1.0  0.1767
  N  N586  1  0.440290  0.940770  0.426600  1.0  -0.3813
  N  N587  1  0.533410  0.999650  0.308100  1.0  -0.3887
  N  N588  1  0.244790  0.866700  0.741400  1.0  -0.3521
  N  N589  1  0.431250  0.837250  0.835200  1.0  -0.4467
  N  N590  1  0.559710  0.059230  0.573400  1.0  -0.3821
  N  N591  1  0.466590  0.000350  0.691900  1.0  -0.3876
  N  N592  1  0.755210  0.133300  0.258600  1.0  -0.3519
  N  N593  1  0.568750  0.162750  0.164800  1.0  -0.4469
  N  N594  1  0.106960  0.274100  0.759930  1.0  -0.3812
  N  N595  1  0.200080  0.332980  0.641430  1.0  -0.3887
  N  N596  1  0.911460  0.200030  0.074730  1.0  -0.3521
  N  N597  1  0.097920  0.170580  0.168530  1.0  -0.4464
  N  N598  1  0.226380  0.392560  0.906730  1.0  -0.3818
  N  N599  1  0.133260  0.333680  0.025230  1.0  -0.3879
  N  N600  1  0.421880  0.466630  0.591930  1.0  -0.352
  N  N601  1  0.235420  0.496080  0.498130  1.0  -0.4469
  N  N602  1  0.773620  0.607440  0.093270  1.0  -0.3811
  N  N603  1  0.866740  0.666320  0.974770  1.0  -0.3887
  N  N604  1  0.578120  0.533370  0.408070  1.0  -0.3522
  N  N605  1  0.764580  0.503920  0.501870  1.0  -0.4467
  N  N606  1  0.893040  0.725900  0.240070  1.0  -0.3819
  N  N607  1  0.799920  0.667020  0.358570  1.0  -0.3879
  N  N608  1  0.088540  0.799970  0.925270  1.0  -0.3519
  N  N609  1  0.902080  0.829420  0.831470  1.0  -0.4465
  N  N610  1  0.059230  0.499520  0.426600  1.0  -0.3835
  N  N611  1  0.000350  0.533760  0.308100  1.0  -0.3871
  N  N612  1  0.133300  0.378090  0.741400  1.0  -0.3513
  N  N613  1  0.162750  0.594000  0.835200  1.0  -0.4479
  N  N614  1  0.940770  0.500480  0.573400  1.0  -0.3806
  N  N615  1  0.999650  0.466240  0.691900  1.0  -0.3857
  N  N616  1  0.866700  0.621910  0.258600  1.0  -0.3512
  N  N617  1  0.837250  0.406000  0.164800  1.0  -0.4462
  N  N618  1  0.725900  0.832850  0.759930  1.0  -0.3836
  N  N619  1  0.667020  0.867090  0.641430  1.0  -0.3871
  N  N620  1  0.799970  0.711420  0.074730  1.0  -0.3512
  N  N621  1  0.829420  0.927330  0.168530  1.0  -0.4478
  N  N622  1  0.607440  0.833810  0.906730  1.0  -0.3802
  N  N623  1  0.666320  0.799570  0.025230  1.0  -0.3856
  N  N624  1  0.533370  0.955240  0.591930  1.0  -0.3512
  N  N625  1  0.503920  0.739330  0.498130  1.0  -0.4462
  N  N626  1  0.392560  0.166190  0.093270  1.0  -0.3831
  N  N627  1  0.333680  0.200430  0.974770  1.0  -0.3869
  N  N628  1  0.466630  0.044760  0.408070  1.0  -0.3513
  N  N629  1  0.496080  0.260670  0.501870  1.0  -0.4479
  N  N630  1  0.274100  0.167150  0.240070  1.0  -0.3806
  N  N631  1  0.332980  0.132910  0.358570  1.0  -0.3857
  N  N632  1  0.200030  0.288580  0.925270  1.0  -0.3512
  N  N633  1  0.170580  0.072670  0.831470  1.0  -0.446
  N  N634  1  0.500480  0.559710  0.426600  1.0  -0.3814
  N  N635  1  0.466240  0.466590  0.308100  1.0  -0.3872
  N  N636  1  0.621910  0.755210  0.741400  1.0  -0.3506
  N  N637  1  0.406000  0.568750  0.835200  1.0  -0.4496
  N  N638  1  0.499520  0.440290  0.573400  1.0  -0.3814
  N  N639  1  0.533760  0.533410  0.691900  1.0  -0.3868
  N  N640  1  0.378090  0.244790  0.258600  1.0  -0.3505
  N  N641  1  0.594000  0.431250  0.164800  1.0  -0.4485
  N  N642  1  0.167150  0.893040  0.759930  1.0  -0.3817
  N  N643  1  0.132910  0.799920  0.641430  1.0  -0.3872
  N  N644  1  0.288580  0.088540  0.074730  1.0  -0.3506
  N  N645  1  0.072670  0.902080  0.168530  1.0  -0.4499
  N  N646  1  0.166190  0.773620  0.906730  1.0  -0.3817
  N  N647  1  0.200430  0.866740  0.025230  1.0  -0.3868
  N  N648  1  0.044760  0.578120  0.591930  1.0  -0.3505
  N  N649  1  0.260670  0.764580  0.498130  1.0  -0.4485
  N  N650  1  0.833810  0.226380  0.093270  1.0  -0.3816
  N  N651  1  0.799570  0.133260  0.974770  1.0  -0.3872
  N  N652  1  0.955240  0.421880  0.408070  1.0  -0.3506
  N  N653  1  0.739330  0.235420  0.501870  1.0  -0.4496
  N  N654  1  0.832850  0.106960  0.240070  1.0  -0.3815
  N  N655  1  0.867090  0.200080  0.358570  1.0  -0.3868
  N  N656  1  0.711420  0.911460  0.925270  1.0  -0.3505
  N  N657  1  0.927330  0.097920  0.831470  1.0  -0.4488
