# generated using pymatgen
data_Sm2CuH6C16(NO7)2
_symmetry_space_group_name_H-M   'P 1'
_cell_length_a   7.89580000
_cell_length_b   9.60830000
_cell_length_c   15.51400000
_cell_angle_alpha   101.85000000
_cell_angle_beta   90.00000000
_cell_angle_gamma   90.00000000
_symmetry_Int_Tables_number   1
_chemical_formula_structural   Sm2CuH6C16(NO7)2
_chemical_formula_sum   'Sm4 Cu2 H12 C32 N4 O28'
_cell_volume   1151.88995884
_cell_formula_units_Z   2
loop_
 _symmetry_equiv_pos_site_id
 _symmetry_equiv_pos_as_xyz
  1  'x, y, z'
loop_
 _atom_site_type_symbol
 _atom_site_label
 _atom_site_symmetry_multiplicity
 _atom_site_fract_x
 _atom_site_fract_y
 _atom_site_fract_z
 _atom_site_occupancy
 _atom_site_charge
  Sm  Sm1  1  0.398430  0.510740  0.542030  1.0  2.3469
  Sm  Sm2  1  0.386590  0.016180  0.536900  1.0  2.3436
  Sm  Sm3  1  0.898430  0.489260  0.457970  1.0  2.3453
  Sm  Sm4  1  0.886590  0.983820  0.463100  1.0  2.341
  Cu  Cu5  1  0.543800  0.746510  0.005570  1.0  0.8473
  Cu  Cu6  1  0.043800  0.253490  0.994430  1.0  0.847
  H  H7  1  0.583400  0.630400  0.807400  1.0  0.0886
  H  H8  1  0.062000  0.892800  0.893000  1.0  0.1172
  H  H9  1  0.020700  0.783400  0.741500  1.0  0.1049
  H  H10  1  0.025200  0.598000  0.111700  1.0  0.102
  H  H11  1  0.005100  0.755800  0.244700  1.0  0.1138
  H  H12  1  0.470100  0.897600  0.200200  1.0  0.0957
  H  H13  1  0.083400  0.369600  0.192600  1.0  0.0892
  H  H14  1  0.562000  0.107200  0.107000  1.0  0.1177
  H  H15  1  0.520700  0.216600  0.258500  1.0  0.1048
  H  H16  1  0.525200  0.402000  0.888300  1.0  0.1019
  H  H17  1  0.505100  0.244200  0.755300  1.0  0.1129
  H  H18  1  0.970100  0.102400  0.799800  1.0  0.0962
  C  C19  1  0.748500  0.633600  0.663400  1.0  0.7799
  C  C20  1  0.799100  0.701900  0.761500  1.0  -0.2028
  C  C21  1  0.679500  0.685000  0.824600  1.0  0.1694
  C  C22  1  0.841300  0.825100  0.933300  1.0  0.1101
  C  C23  1  0.964500  0.840800  0.874700  1.0  -0.112
  C  C24  1  0.939800  0.774900  0.783700  1.0  0.0181
  C  C25  1  0.834200  0.901400  0.028900  1.0  0.6296
  C  C26  1  0.254100  0.585700  0.980000  1.0  0.6129
  C  C27  1  0.241600  0.673000  0.074300  1.0  0.1438
  C  C28  1  0.110000  0.665100  0.129000  1.0  -0.098
  C  C29  1  0.100500  0.754600  0.209400  1.0  0.0133
  C  C30  1  0.237300  0.844200  0.237200  1.0  -0.1924
  C  C31  1  0.375800  0.841500  0.181400  1.0  0.1763
  C  C32  1  0.228800  0.944600  0.326500  1.0  0.7141
  C  C33  1  0.181600  0.266800  0.545200  1.0  1.0912
  C  C34  1  0.706000  0.244000  0.481000  1.0  1.0505
  C  C35  1  0.248500  0.366400  0.336600  1.0  0.7785
  C  C36  1  0.299100  0.298100  0.238500  1.0  -0.2025
  C  C37  1  0.179500  0.315000  0.175400  1.0  0.1697
  C  C38  1  0.341300  0.174900  0.066700  1.0  0.1092
  C  C39  1  0.464500  0.159200  0.125300  1.0  -0.1121
  C  C40  1  0.439800  0.225100  0.216300  1.0  0.02
  C  C41  1  0.334200  0.098600  0.971100  1.0  0.6296
  C  C42  1  0.754100  0.414300  0.020000  1.0  0.6114
  C  C43  1  0.741600  0.327000  0.925700  1.0  0.1427
  C  C44  1  0.610000  0.334900  0.871000  1.0  -0.0978
  C  C45  1  0.600500  0.245400  0.790600  1.0  0.0134
  C  C46  1  0.737300  0.155800  0.762800  1.0  -0.1913
  C  C47  1  0.875800  0.158500  0.818600  1.0  0.1763
  C  C48  1  0.728800  0.055400  0.673500  1.0  0.7091
  C  C49  1  0.681600  0.733200  0.454800  1.0  1.0907
  C  C50  1  0.206000  0.756000  0.519000  1.0  1.051
  N  N51  1  0.700900  0.746000  0.908900  1.0  -0.3069
  N  N52  1  0.374000  0.757400  0.099400  1.0  -0.3121
  N  N53  1  0.200900  0.254000  0.091100  1.0  -0.3067
  N  N54  1  0.874000  0.242600  0.900600  1.0  -0.312
  O  O55  1  0.599100  0.606600  0.651100  1.0  -0.7097
  O  O56  1  0.873300  0.619300  0.610000  1.0  -0.7339
  O  O57  1  0.714900  0.866500  0.073700  1.0  -0.5753
  O  O58  1  0.944200  0.991800  0.056500  1.0  -0.5804
  O  O59  1  0.375700  0.624900  0.935200  1.0  -0.5854
  O  O60  1  0.155200  0.488600  0.953500  1.0  -0.5858
  O  O61  1  0.363500  0.978900  0.369100  1.0  -0.6806
  O  O62  1  0.079900  0.985700  0.349200  1.0  -0.7608
  O  O63  1  0.335800  0.272000  0.567900  1.0  -0.8816
  O  O64  1  0.109800  0.145100  0.530100  1.0  -0.8899
  O  O65  1  0.104800  0.382000  0.538500  1.0  -0.8802
  O  O66  1  0.656100  0.371900  0.513200  1.0  -0.8379
  O  O67  1  0.834900  0.226600  0.430200  1.0  -0.8391
  O  O68  1  0.637300  0.133900  0.501700  1.0  -0.8936
  O  O69  1  0.099100  0.393400  0.348900  1.0  -0.7094
  O  O70  1  0.373300  0.380700  0.390000  1.0  -0.7329
  O  O71  1  0.214900  0.133500  0.926300  1.0  -0.5761
  O  O72  1  0.444200  0.008200  0.943500  1.0  -0.5817
  O  O73  1  0.875700  0.375100  0.064800  1.0  -0.5864
  O  O74  1  0.655200  0.511400  0.046500  1.0  -0.5853
  O  O75  1  0.863500  0.021100  0.630900  1.0  -0.6851
  O  O76  1  0.579900  0.014300  0.650800  1.0  -0.7604
  O  O77  1  0.835800  0.728000  0.432100  1.0  -0.8826
  O  O78  1  0.609800  0.854900  0.469900  1.0  -0.8885
  O  O79  1  0.604800  0.618000  0.461500  1.0  -0.8806
  O  O80  1  0.156100  0.628100  0.486800  1.0  -0.8472
  O  O81  1  0.334900  0.773400  0.569800  1.0  -0.8402
  O  O82  1  0.137300  0.866100  0.498300  1.0  -0.8899
