# generated using pymatgen
data_LuH6(CO)6
_symmetry_space_group_name_H-M   'P 1'
_cell_length_a   5.22400000
_cell_length_b   8.80000000
_cell_length_c   26.05500000
_cell_angle_alpha   90.00000000
_cell_angle_beta   90.00000000
_cell_angle_gamma   97.38000000
_symmetry_Int_Tables_number   1
_chemical_formula_structural   LuH6(CO)6
_chemical_formula_sum   'Lu4 H24 C24 O24'
_cell_volume   1187.85728166
_cell_formula_units_Z   4
loop_
 _symmetry_equiv_pos_site_id
 _symmetry_equiv_pos_as_xyz
  1  'x, y, z'
loop_
 _atom_site_type_symbol
 _atom_site_label
 _atom_site_symmetry_multiplicity
 _atom_site_fract_x
 _atom_site_fract_y
 _atom_site_fract_z
 _atom_site_occupancy
 _atom_site_charge
  Lu  Lu1  1  0.596520  0.478560  0.659170  1.0  1.9387
  Lu  Lu2  1  0.403480  0.021440  0.159170  1.0  1.9387
  Lu  Lu3  1  0.403480  0.521440  0.340830  1.0  1.9386
  Lu  Lu4  1  0.596520  0.978560  0.840830  1.0  1.9388
  H  H5  1  0.995000  0.880000  0.644200  1.0  0.1321
  H  H6  1  0.944000  0.851000  0.701600  1.0  0.1301
  H  H7  1  0.414000  0.987000  0.664700  1.0  0.1295
  H  H8  1  0.231000  0.079000  0.694300  1.0  0.1234
  H  H9  1  0.776200  0.550000  0.483000  1.0  0.1136
  H  H10  1  0.999500  0.652600  0.511100  1.0  0.1234
  H  H11  1  0.005000  0.620000  0.144200  1.0  0.1341
  H  H12  1  0.056000  0.649000  0.201600  1.0  0.1308
  H  H13  1  0.586000  0.513000  0.164700  1.0  0.1278
  H  H14  1  0.769000  0.421000  0.194300  1.0  0.1203
  H  H15  1  0.223800  0.950000  0.983000  1.0  0.1127
  H  H16  1  0.000500  0.847400  0.011100  1.0  0.1221
  H  H17  1  0.005000  0.120000  0.355800  1.0  0.1353
  H  H18  1  0.056000  0.149000  0.298400  1.0  0.1303
  H  H19  1  0.586000  0.013000  0.335300  1.0  0.1314
  H  H20  1  0.769000  0.921000  0.305700  1.0  0.1191
  H  H21  1  0.223800  0.450000  0.517000  1.0  0.1136
  H  H22  1  0.000500  0.347400  0.488900  1.0  0.1225
  H  H23  1  0.995000  0.380000  0.855800  1.0  0.1348
  H  H24  1  0.944000  0.351000  0.798400  1.0  0.1301
  H  H25  1  0.414000  0.487000  0.835300  1.0  0.1293
  H  H26  1  0.231000  0.579000  0.805700  1.0  0.1219
  H  H27  1  0.776200  0.050000  0.017000  1.0  0.1143
  H  H28  1  0.999500  0.152600  0.988900  1.0  0.1235
  C  C29  1  0.165000  0.704600  0.668500  1.0  0.796
  C  C30  1  0.076400  0.858300  0.675970  1.0  -0.3187
  C  C31  1  0.290000  0.984100  0.689850  1.0  -0.2671
  C  C32  1  0.413200  0.967000  0.741400  1.0  0.721
  C  C33  1  0.780300  0.510500  0.559610  1.0  0.7304
  C  C34  1  0.909700  0.549200  0.508860  1.0  -0.2705
  C  C35  1  0.835000  0.795400  0.168500  1.0  0.7977
  C  C36  1  0.923600  0.641700  0.175970  1.0  -0.3162
  C  C37  1  0.710000  0.515900  0.189850  1.0  -0.2675
  C  C38  1  0.586800  0.533000  0.241400  1.0  0.7201
  C  C39  1  0.219700  0.989500  0.059610  1.0  0.7311
  C  C40  1  0.090300  0.950800  0.008860  1.0  -0.2701
  C  C41  1  0.835000  0.295400  0.331500  1.0  0.7987
  C  C42  1  0.923600  0.141700  0.324030  1.0  -0.3175
  C  C43  1  0.710000  0.015900  0.310150  1.0  -0.267
  C  C44  1  0.586800  0.033000  0.258600  1.0  0.7218
  C  C45  1  0.219700  0.489500  0.440390  1.0  0.7342
  C  C46  1  0.090300  0.450800  0.491140  1.0  -0.2703
  C  C47  1  0.165000  0.204600  0.831500  1.0  0.7975
  C  C48  1  0.076400  0.358300  0.824030  1.0  -0.319
  C  C49  1  0.290000  0.484100  0.810150  1.0  -0.2677
  C  C50  1  0.413200  0.467000  0.758600  1.0  0.7218
  C  C51  1  0.780300  0.010500  0.940390  1.0  0.7345
  C  C52  1  0.909700  0.049200  0.991140  1.0  -0.271
  O  O53  1  0.400000  0.692400  0.666460  1.0  -0.6422
  O  O54  1  0.995900  0.589700  0.663870  1.0  -0.7372
  O  O55  1  0.626900  0.046100  0.751620  1.0  -0.6603
  O  O56  1  0.302300  0.880200  0.775860  1.0  -0.6812
  O  O57  1  0.811300  0.390100  0.584010  1.0  -0.6989
  O  O58  1  0.642200  0.603700  0.578210  1.0  -0.6647
  O  O59  1  0.600000  0.807600  0.166460  1.0  -0.6423
  O  O60  1  0.004100  0.910300  0.163870  1.0  -0.7376
  O  O61  1  0.373100  0.453900  0.251620  1.0  -0.6608
  O  O62  1  0.697700  0.619800  0.275860  1.0  -0.6812
  O  O63  1  0.188700  0.109900  0.084010  1.0  -0.6984
  O  O64  1  0.357800  0.896300  0.078210  1.0  -0.6655
  O  O65  1  0.600000  0.307600  0.333540  1.0  -0.6439
  O  O66  1  0.004100  0.410300  0.336130  1.0  -0.7382
  O  O67  1  0.373100  0.953900  0.248380  1.0  -0.6605
  O  O68  1  0.697700  0.119800  0.224140  1.0  -0.6799
  O  O69  1  0.188700  0.609900  0.415990  1.0  -0.6976
  O  O70  1  0.357800  0.396300  0.421790  1.0  -0.6658
  O  O71  1  0.400000  0.192400  0.833540  1.0  -0.6441
  O  O72  1  0.995900  0.089700  0.836130  1.0  -0.7378
  O  O73  1  0.626900  0.546100  0.748380  1.0  -0.6602
  O  O74  1  0.302300  0.380200  0.724140  1.0  -0.6803
  O  O75  1  0.811300  0.890100  0.915990  1.0  -0.6992
  O  O76  1  0.642200  0.103700  0.921790  1.0  -0.6651
