# generated using pymatgen
data_Zn3H24C16(NO2)4
_symmetry_space_group_name_H-M   'P 1'
_cell_length_a   12.68460000
_cell_length_b   21.73790000
_cell_length_c   21.28020000
_cell_angle_alpha   90.00000000
_cell_angle_beta   90.00000000
_cell_angle_gamma   90.00000000
_symmetry_Int_Tables_number   1
_chemical_formula_structural   Zn3H24C16(NO2)4
_chemical_formula_sum   'Zn24 H192 C128 N32 O64'
_cell_volume   5867.72927903
_cell_formula_units_Z   8
loop_
 _symmetry_equiv_pos_site_id
 _symmetry_equiv_pos_as_xyz
  1  'x, y, z'
loop_
 _atom_site_type_symbol
 _atom_site_label
 _atom_site_symmetry_multiplicity
 _atom_site_fract_x
 _atom_site_fract_y
 _atom_site_fract_z
 _atom_site_occupancy
 _atom_site_charge
  Zn  Zn1  1  0.759170  0.128030  0.125170  1.0  0.5962
  Zn  Zn2  1  0.740040  0.889650  0.359210  1.0  0.5548
  Zn  Zn3  1  0.259170  0.628030  0.125170  1.0  0.5962
  Zn  Zn4  1  0.240040  0.389650  0.359210  1.0  0.5548
  Zn  Zn5  1  0.240830  0.871970  0.625170  1.0  0.5948
  Zn  Zn6  1  0.259960  0.110350  0.859210  1.0  0.5501
  Zn  Zn7  1  0.740830  0.371970  0.625170  1.0  0.5948
  Zn  Zn8  1  0.759960  0.610350  0.859210  1.0  0.5501
  Zn  Zn9  1  0.240830  0.128030  0.374830  1.0  0.5924
  Zn  Zn10  1  0.259960  0.889650  0.140790  1.0  0.5525
  Zn  Zn11  1  0.740830  0.628030  0.374830  1.0  0.5924
  Zn  Zn12  1  0.759960  0.389650  0.140790  1.0  0.5525
  Zn  Zn13  1  0.759170  0.871970  0.874830  1.0  0.5981
  Zn  Zn14  1  0.740040  0.110350  0.640790  1.0  0.549
  Zn  Zn15  1  0.259170  0.371970  0.874830  1.0  0.5981
  Zn  Zn16  1  0.240040  0.610350  0.640790  1.0  0.549
  Zn  Zn17  1  0.019610  0.000000  0.000000  1.0  0.9516
  Zn  Zn18  1  0.519610  0.500000  0.000000  1.0  0.9516
  Zn  Zn19  1  0.980390  0.000000  0.500000  1.0  0.9515
  Zn  Zn20  1  0.480390  0.500000  0.500000  1.0  0.9515
  Zn  Zn21  1  0.486200  0.000000  0.500000  1.0  0.8791
  Zn  Zn22  1  0.986200  0.500000  0.500000  1.0  0.8791
  Zn  Zn23  1  0.513800  0.000000  0.000000  1.0  0.8797
  Zn  Zn24  1  0.013800  0.500000  0.000000  1.0  0.8797
  H  H25  1  0.728300  0.979500  0.119500  1.0  0.0756
  H  H26  1  0.819500  0.959900  0.165100  1.0  0.0659
  H  H27  1  0.604400  0.022900  0.182300  1.0  0.06
  H  H28  1  0.633400  0.065800  0.239000  1.0  0.0616
  H  H29  1  0.591400  0.968800  0.277100  1.0  0.055
  H  H30  1  0.675900  0.938400  0.233300  1.0  0.0475
  H  H31  1  0.868800  0.960000  0.257700  1.0  0.0709
  H  H32  1  0.893000  0.003800  0.314400  1.0  0.0693
  H  H33  1  0.820900  0.087300  0.261000  1.0  0.0525
  H  H34  1  0.907500  0.057300  0.218400  1.0  0.0561
  H  H35  1  0.676600  0.060100  0.336700  1.0  0.0621
  H  H36  1  0.769600  0.038500  0.380000  1.0  0.0748
  H  H37  1  0.191300  0.118000  0.519600  1.0  0.0651
  H  H38  1  0.281200  0.156100  0.552100  1.0  0.0563
  H  H39  1  0.402300  0.200200  0.455700  1.0  0.0467
  H  H40  1  0.353200  0.239600  0.510200  1.0  0.0537
  H  H41  1  0.396600  0.303500  0.425300  1.0  0.066
  H  H42  1  0.325200  0.264300  0.380600  1.0  0.0699
  H  H43  1  0.128700  0.268700  0.398400  1.0  0.071
  H  H44  1  0.088800  0.308400  0.454900  1.0  0.0753
  H  H45  1  0.164200  0.240800  0.526400  1.0  0.0553
  H  H46  1  0.090500  0.203300  0.481200  1.0  0.0592
  H  H47  1  0.286800  0.331400  0.526800  1.0  0.057
  H  H48  1  0.194000  0.375400  0.507400  1.0  0.0826
  H  H49  1  0.228300  0.479500  0.119500  1.0  0.0756
  H  H50  1  0.319500  0.459900  0.165100  1.0  0.0659
  H  H51  1  0.104400  0.522900  0.182300  1.0  0.06
  H  H52  1  0.133400  0.565800  0.239000  1.0  0.0616
  H  H53  1  0.091400  0.468800  0.277100  1.0  0.055
  H  H54  1  0.175900  0.438400  0.233300  1.0  0.0475
  H  H55  1  0.368800  0.460000  0.257700  1.0  0.0709
  H  H56  1  0.393000  0.503800  0.314400  1.0  0.0693
  H  H57  1  0.320900  0.587300  0.261000  1.0  0.0523
  H  H58  1  0.407500  0.557300  0.218400  1.0  0.0561
  H  H59  1  0.176600  0.560100  0.336700  1.0  0.0621
  H  H60  1  0.269600  0.538500  0.380000  1.0  0.0756
  H  H61  1  0.691300  0.618000  0.519600  1.0  0.0651
  H  H62  1  0.781200  0.656100  0.552100  1.0  0.0563
  H  H63  1  0.902300  0.700200  0.455700  1.0  0.0467
  H  H64  1  0.853200  0.739600  0.510200  1.0  0.0537
  H  H65  1  0.896600  0.803500  0.425300  1.0  0.066
  H  H66  1  0.825200  0.764300  0.380600  1.0  0.0699
  H  H67  1  0.628700  0.768700  0.398400  1.0  0.071
  H  H68  1  0.588800  0.808400  0.454900  1.0  0.0753
  H  H69  1  0.664200  0.740800  0.526400  1.0  0.0553
  H  H70  1  0.590500  0.703300  0.481200  1.0  0.0592
  H  H71  1  0.786800  0.831400  0.526800  1.0  0.057
  H  H72  1  0.694000  0.875400  0.507400  1.0  0.0826
  H  H73  1  0.271700  0.020500  0.619500  1.0  0.0757
  H  H74  1  0.180500  0.040100  0.665100  1.0  0.065
  H  H75  1  0.395600  0.977100  0.682300  1.0  0.0579
  H  H76  1  0.366600  0.934200  0.739000  1.0  0.06
  H  H77  1  0.408600  0.031200  0.777100  1.0  0.0547
  H  H78  1  0.324100  0.061600  0.733300  1.0  0.0511
  H  H79  1  0.131200  0.040000  0.757700  1.0  0.0706
  H  H80  1  0.107000  0.996200  0.814400  1.0  0.0718
  H  H81  1  0.179100  0.912700  0.761000  1.0  0.0498
  H  H82  1  0.092500  0.942700  0.718400  1.0  0.0556
  H  H83  1  0.323400  0.939900  0.836700  1.0  0.062
  H  H84  1  0.230400  0.961500  0.880000  1.0  0.0761
  H  H85  1  0.808700  0.882000  0.019600  1.0  0.0665
  H  H86  1  0.718800  0.843900  0.052100  1.0  0.0562
  H  H87  1  0.597700  0.799800  0.955700  1.0  0.0498
  H  H88  1  0.646800  0.760400  0.010200  1.0  0.0544
  H  H89  1  0.603400  0.696500  0.925300  1.0  0.0663
  H  H90  1  0.674800  0.735700  0.880600  1.0  0.0691
  H  H91  1  0.871300  0.731300  0.898400  1.0  0.0727
  H  H92  1  0.911200  0.691600  0.954900  1.0  0.0747
  H  H93  1  0.835800  0.759200  0.026400  1.0  0.0554
  H  H94  1  0.909500  0.796700  0.981200  1.0  0.0611
  H  H95  1  0.713200  0.668600  0.026800  1.0  0.0546
  H  H96  1  0.806000  0.624600  0.007400  1.0  0.0801
  H  H97  1  0.771700  0.520500  0.619500  1.0  0.0757
  H  H98  1  0.680500  0.540100  0.665100  1.0  0.065
  H  H99  1  0.895600  0.477100  0.682300  1.0  0.0579
  H  H100  1  0.866600  0.434200  0.739000  1.0  0.06
  H  H101  1  0.908600  0.531200  0.777100  1.0  0.0547
  H  H102  1  0.824100  0.561600  0.733300  1.0  0.0511
  H  H103  1  0.631200  0.540000  0.757700  1.0  0.0706
  H  H104  1  0.607000  0.496200  0.814400  1.0  0.0718
  H  H105  1  0.679100  0.412700  0.761000  1.0  0.0498
  H  H106  1  0.592500  0.442700  0.718400  1.0  0.0556
  H  H107  1  0.823400  0.439900  0.836700  1.0  0.062
  H  H108  1  0.730400  0.461500  0.880000  1.0  0.0769
  H  H109  1  0.308700  0.382000  0.019600  1.0  0.0665
  H  H110  1  0.218800  0.343900  0.052100  1.0  0.0562
  H  H111  1  0.097700  0.299800  0.955700  1.0  0.0498
  H  H112  1  0.146800  0.260400  0.010200  1.0  0.0544
  H  H113  1  0.103400  0.196500  0.925300  1.0  0.0663
  H  H114  1  0.174800  0.235700  0.880600  1.0  0.0691
  H  H115  1  0.371300  0.231300  0.898400  1.0  0.0727
  H  H116  1  0.411200  0.191600  0.954900  1.0  0.0747
  H  H117  1  0.335800  0.259200  0.026400  1.0  0.0554
  H  H118  1  0.409500  0.296700  0.981200  1.0  0.0611
  H  H119  1  0.213200  0.168600  0.026800  1.0  0.0546
  H  H120  1  0.306000  0.124600  0.007400  1.0  0.0801
  H  H121  1  0.271700  0.979500  0.380500  1.0  0.0756
  H  H122  1  0.180500  0.959900  0.334900  1.0  0.065
  H  H123  1  0.395600  0.022900  0.317700  1.0  0.0576
  H  H124  1  0.366600  0.065800  0.261000  1.0  0.0628
  H  H125  1  0.408600  0.968800  0.222900  1.0  0.0541
  H  H126  1  0.324100  0.938400  0.266700  1.0  0.0473
  H  H127  1  0.131200  0.960000  0.242300  1.0  0.0713
  H  H128  1  0.107000  0.003800  0.185600  1.0  0.0715
  H  H129  1  0.179100  0.087300  0.239000  1.0  0.0535
  H  H130  1  0.092500  0.057300  0.281600  1.0  0.0553
  H  H131  1  0.323400  0.060100  0.163300  1.0  0.0612
  H  H132  1  0.230400  0.038500  0.120000  1.0  0.0766
  H  H133  1  0.808700  0.118000  0.980400  1.0  0.0666
  H  H134  1  0.718800  0.156100  0.947900  1.0  0.0581
  H  H135  1  0.597700  0.200200  0.044300  1.0  0.0478
  H  H136  1  0.646800  0.239600  0.989800  1.0  0.0535
  H  H137  1  0.603400  0.303500  0.074700  1.0  0.0664
  H  H138  1  0.674800  0.264300  0.119400  1.0  0.0695
  H  H139  1  0.871300  0.268700  0.101600  1.0  0.0703
  H  H140  1  0.911200  0.308400  0.045100  1.0  0.0762
  H  H141  1  0.835800  0.240800  0.973600  1.0  0.0563
  H  H142  1  0.909500  0.203300  0.018800  1.0  0.0608
  H  H143  1  0.713200  0.331400  0.973200  1.0  0.0556
  H  H144  1  0.806000  0.375400  0.992600  1.0  0.0812
  H  H145  1  0.771700  0.479500  0.380500  1.0  0.0756
  H  H146  1  0.680500  0.459900  0.334900  1.0  0.065
  H  H147  1  0.895600  0.522900  0.317700  1.0  0.0576
  H  H148  1  0.866600  0.565800  0.261000  1.0  0.0628
  H  H149  1  0.908600  0.468800  0.222900  1.0  0.0541
  H  H150  1  0.824100  0.438400  0.266700  1.0  0.0473
  H  H151  1  0.631200  0.460000  0.242300  1.0  0.0713
  H  H152  1  0.607000  0.503800  0.185600  1.0  0.0715
  H  H153  1  0.679100  0.587300  0.239000  1.0  0.0522
  H  H154  1  0.592500  0.557300  0.281600  1.0  0.0553
  H  H155  1  0.823400  0.560100  0.163300  1.0  0.0612
  H  H156  1  0.730400  0.538500  0.120000  1.0  0.0778
  H  H157  1  0.308700  0.618000  0.980400  1.0  0.0666
  H  H158  1  0.218800  0.656100  0.947900  1.0  0.0581
  H  H159  1  0.097700  0.700200  0.044300  1.0  0.0478
  H  H160  1  0.146800  0.739600  0.989800  1.0  0.0535
  H  H161  1  0.103400  0.803500  0.074700  1.0  0.0664
  H  H162  1  0.174800  0.764300  0.119400  1.0  0.0695
  H  H163  1  0.371300  0.768700  0.101600  1.0  0.0703
  H  H164  1  0.411200  0.808400  0.045100  1.0  0.0762
  H  H165  1  0.335800  0.740800  0.973600  1.0  0.0563
  H  H166  1  0.409500  0.703300  0.018800  1.0  0.0608
  H  H167  1  0.213200  0.831400  0.973200  1.0  0.0556
  H  H168  1  0.306000  0.875400  0.992600  1.0  0.0812
  H  H169  1  0.728300  0.020500  0.880500  1.0  0.0753
  H  H170  1  0.819500  0.040100  0.834900  1.0  0.0653
  H  H171  1  0.604400  0.977100  0.817700  1.0  0.0593
  H  H172  1  0.633400  0.934200  0.761000  1.0  0.0617
  H  H173  1  0.591400  0.031200  0.722900  1.0  0.0555
  H  H174  1  0.675900  0.061600  0.766700  1.0  0.051
  H  H175  1  0.868800  0.040000  0.742300  1.0  0.0689
  H  H176  1  0.893000  0.996200  0.685600  1.0  0.0695
  H  H177  1  0.820900  0.912700  0.739000  1.0  0.0527
  H  H178  1  0.907500  0.942700  0.781600  1.0  0.0559
  H  H179  1  0.676600  0.939900  0.663300  1.0  0.0625
  H  H180  1  0.769600  0.961500  0.620000  1.0  0.076
  H  H181  1  0.191300  0.882000  0.480400  1.0  0.0654
  H  H182  1  0.281200  0.843900  0.447900  1.0  0.0557
  H  H183  1  0.402300  0.799800  0.544300  1.0  0.0469
  H  H184  1  0.353200  0.760400  0.489800  1.0  0.0531
  H  H185  1  0.396600  0.696500  0.574700  1.0  0.0617
  H  H186  1  0.325200  0.735700  0.619400  1.0  0.0683
  H  H187  1  0.128700  0.731300  0.601600  1.0  0.0719
  H  H188  1  0.088800  0.691600  0.545100  1.0  0.0759
  H  H189  1  0.164200  0.759200  0.473600  1.0  0.0553
  H  H190  1  0.090500  0.796700  0.518800  1.0  0.0594
  H  H191  1  0.286800  0.668600  0.473200  1.0  0.0565
  H  H192  1  0.194000  0.624600  0.492600  1.0  0.0827
  H  H193  1  0.228300  0.520500  0.880500  1.0  0.0753
  H  H194  1  0.319500  0.540100  0.834900  1.0  0.0653
  H  H195  1  0.104400  0.477100  0.817700  1.0  0.0593
  H  H196  1  0.133400  0.434200  0.761000  1.0  0.0617
  H  H197  1  0.091400  0.531200  0.722900  1.0  0.0555
  H  H198  1  0.175900  0.561600  0.766700  1.0  0.051
  H  H199  1  0.368800  0.540000  0.742300  1.0  0.0689
  H  H200  1  0.393000  0.496200  0.685600  1.0  0.0695
  H  H201  1  0.320900  0.412700  0.739000  1.0  0.0527
  H  H202  1  0.407500  0.442700  0.781600  1.0  0.0559
  H  H203  1  0.176600  0.439900  0.663300  1.0  0.0625
  H  H204  1  0.269600  0.461500  0.620000  1.0  0.0759
  H  H205  1  0.691300  0.382000  0.480400  1.0  0.0654
  H  H206  1  0.781200  0.343900  0.447900  1.0  0.0557
  H  H207  1  0.902300  0.299800  0.544300  1.0  0.0469
  H  H208  1  0.853200  0.260400  0.489800  1.0  0.0531
  H  H209  1  0.896600  0.196500  0.574700  1.0  0.0617
  H  H210  1  0.825200  0.235700  0.619400  1.0  0.0683
  H  H211  1  0.628700  0.231300  0.601600  1.0  0.0719
  H  H212  1  0.588800  0.191600  0.545100  1.0  0.0759
  H  H213  1  0.664200  0.259200  0.473600  1.0  0.0553
  H  H214  1  0.590500  0.296700  0.518800  1.0  0.0594
  H  H215  1  0.786800  0.168600  0.473200  1.0  0.0565
  H  H216  1  0.694000  0.124600  0.492600  1.0  0.0827
  C  C217  1  0.870400  0.016400  0.094700  1.0  0.7348
  C  C218  1  0.790400  0.994100  0.141600  1.0  -0.1316
  C  C219  1  0.656100  0.030200  0.215100  1.0  -0.0488
  C  C220  1  0.660300  0.974600  0.258300  1.0  -0.0514
  C  C221  1  0.843000  0.995300  0.281000  1.0  -0.0445
  C  C222  1  0.838300  0.050900  0.236800  1.0  -0.0464
  C  C223  1  0.707900  0.024700  0.357100  1.0  -0.1522
  C  C224  1  0.629400  0.997200  0.402800  1.0  0.7082
  C  C225  1  0.339000  0.091600  0.490600  1.0  0.7297
  C  C226  1  0.258400  0.138250  0.512620  1.0  -0.0985
  C  C227  1  0.342000  0.225000  0.467700  1.0  -0.0374
  C  C228  1  0.332100  0.279600  0.423300  1.0  -0.0399
  C  C229  1  0.146400  0.282800  0.440300  1.0  -0.022
  C  C230  1  0.155200  0.227000  0.483400  1.0  -0.0331
  C  C231  1  0.260100  0.357470  0.493440  1.0  -0.1216
  C  C232  1  0.339600  0.408700  0.479300  1.0  0.7047
  C  C233  1  0.370400  0.516400  0.094700  1.0  0.7348
  C  C234  1  0.290400  0.494100  0.141600  1.0  -0.1316
  C  C235  1  0.156100  0.530200  0.215100  1.0  -0.0488
  C  C236  1  0.160300  0.474600  0.258300  1.0  -0.0514
  C  C237  1  0.343000  0.495300  0.281000  1.0  -0.0445
  C  C238  1  0.338300  0.550900  0.236800  1.0  -0.0462
  C  C239  1  0.207900  0.524700  0.357100  1.0  -0.1522
  C  C240  1  0.129400  0.497200  0.402800  1.0  0.7082
  C  C241  1  0.839000  0.591600  0.490600  1.0  0.7297
  C  C242  1  0.758400  0.638250  0.512620  1.0  -0.0985
  C  C243  1  0.842000  0.725000  0.467700  1.0  -0.0374
  C  C244  1  0.832100  0.779600  0.423300  1.0  -0.0399
  C  C245  1  0.646400  0.782800  0.440300  1.0  -0.022
  C  C246  1  0.655200  0.727000  0.483400  1.0  -0.0331
  C  C247  1  0.760100  0.857470  0.493440  1.0  -0.1216
  C  C248  1  0.839600  0.908700  0.479300  1.0  0.7047
  C  C249  1  0.129600  0.983600  0.594700  1.0  0.7344
  C  C250  1  0.209600  0.005900  0.641600  1.0  -0.1291
  C  C251  1  0.343900  0.969800  0.715100  1.0  -0.0505
  C  C252  1  0.339700  0.025400  0.758300  1.0  -0.0515
  C  C253  1  0.157000  0.004700  0.781000  1.0  -0.0451
  C  C254  1  0.161700  0.949100  0.736800  1.0  -0.0441
  C  C255  1  0.292100  0.975300  0.857100  1.0  -0.1513
  C  C256  1  0.370600  0.002800  0.902800  1.0  0.7081
  C  C257  1  0.661000  0.908400  0.990600  1.0  0.7294
  C  C258  1  0.741600  0.861750  0.012620  1.0  -0.0976
  C  C259  1  0.658000  0.775000  0.967700  1.0  -0.0339
  C  C260  1  0.667900  0.720400  0.923300  1.0  -0.0396
  C  C261  1  0.853600  0.717200  0.940300  1.0  -0.0214
  C  C262  1  0.844800  0.773000  0.983400  1.0  -0.0355
  C  C263  1  0.739900  0.642530  0.993440  1.0  -0.1218
  C  C264  1  0.660400  0.591300  0.979300  1.0  0.7047
  C  C265  1  0.629600  0.483600  0.594700  1.0  0.7344
  C  C266  1  0.709600  0.505900  0.641600  1.0  -0.1291
  C  C267  1  0.843900  0.469800  0.715100  1.0  -0.0505
  C  C268  1  0.839700  0.525400  0.758300  1.0  -0.0515
  C  C269  1  0.657000  0.504700  0.781000  1.0  -0.0451
  C  C270  1  0.661700  0.449100  0.736800  1.0  -0.0446
  C  C271  1  0.792100  0.475300  0.857100  1.0  -0.1513
  C  C272  1  0.870600  0.502800  0.902800  1.0  0.7081
  C  C273  1  0.161000  0.408400  0.990600  1.0  0.7294
  C  C274  1  0.241600  0.361750  0.012620  1.0  -0.0976
  C  C275  1  0.158000  0.275000  0.967700  1.0  -0.0339
  C  C276  1  0.167900  0.220400  0.923300  1.0  -0.0396
  C  C277  1  0.353600  0.217200  0.940300  1.0  -0.0214
  C  C278  1  0.344800  0.273000  0.983400  1.0  -0.0355
  C  C279  1  0.239900  0.142530  0.993440  1.0  -0.1218
  C  C280  1  0.160400  0.091300  0.979300  1.0  0.7047
  C  C281  1  0.129600  0.016400  0.405300  1.0  0.7324
  C  C282  1  0.209600  0.994100  0.358400  1.0  -0.1299
  C  C283  1  0.343900  0.030200  0.284900  1.0  -0.0502
  C  C284  1  0.339700  0.974600  0.241700  1.0  -0.0513
  C  C285  1  0.157000  0.995300  0.219000  1.0  -0.0448
  C  C286  1  0.161700  0.050900  0.263200  1.0  -0.0452
  C  C287  1  0.292100  0.024700  0.142900  1.0  -0.1522
  C  C288  1  0.370600  0.997200  0.097200  1.0  0.7094
  C  C289  1  0.661000  0.091600  0.009400  1.0  0.7297
  C  C290  1  0.741600  0.138250  0.987380  1.0  -0.0946
  C  C291  1  0.658000  0.225000  0.032300  1.0  -0.0343
  C  C292  1  0.667900  0.279600  0.076700  1.0  -0.0406
  C  C293  1  0.853600  0.282800  0.059700  1.0  -0.0214
  C  C294  1  0.844800  0.227000  0.016600  1.0  -0.0339
  C  C295  1  0.739900  0.357470  0.006560  1.0  -0.1209
  C  C296  1  0.660400  0.408700  0.020700  1.0  0.7043
  C  C297  1  0.629600  0.516400  0.405300  1.0  0.7324
  C  C298  1  0.709600  0.494100  0.358400  1.0  -0.1299
  C  C299  1  0.843900  0.530200  0.284900  1.0  -0.0502
  C  C300  1  0.839700  0.474600  0.241700  1.0  -0.0516
  C  C301  1  0.657000  0.495300  0.219000  1.0  -0.0448
  C  C302  1  0.661700  0.550900  0.263200  1.0  -0.0453
  C  C303  1  0.792100  0.524700  0.142900  1.0  -0.1522
  C  C304  1  0.870600  0.497200  0.097200  1.0  0.7094
  C  C305  1  0.161000  0.591600  0.009400  1.0  0.7297
  C  C306  1  0.241600  0.638250  0.987380  1.0  -0.0946
  C  C307  1  0.158000  0.725000  0.032300  1.0  -0.0343
  C  C308  1  0.167900  0.779600  0.076700  1.0  -0.0406
  C  C309  1  0.353600  0.782800  0.059700  1.0  -0.0214
  C  C310  1  0.344800  0.727000  0.016600  1.0  -0.0339
  C  C311  1  0.239900  0.857470  0.006560  1.0  -0.1209
  C  C312  1  0.160400  0.908700  0.020700  1.0  0.7043
  C  C313  1  0.870400  0.983600  0.905300  1.0  0.7325
  C  C314  1  0.790400  0.005900  0.858400  1.0  -0.1346
  C  C315  1  0.656100  0.969800  0.784900  1.0  -0.0476
  C  C316  1  0.660300  0.025400  0.741700  1.0  -0.0513
  C  C317  1  0.843000  0.004700  0.719000  1.0  -0.044
  C  C318  1  0.838300  0.949100  0.763200  1.0  -0.0452
  C  C319  1  0.707900  0.975300  0.642900  1.0  -0.1497
  C  C320  1  0.629400  0.002800  0.597200  1.0  0.7104
  C  C321  1  0.339000  0.908400  0.509400  1.0  0.7289
  C  C322  1  0.258400  0.861750  0.487380  1.0  -0.0958
  C  C323  1  0.342000  0.775000  0.532300  1.0  -0.0354
  C  C324  1  0.332100  0.720400  0.576700  1.0  -0.0396
  C  C325  1  0.146400  0.717200  0.559700  1.0  -0.0226
  C  C326  1  0.155200  0.773000  0.516600  1.0  -0.0321
  C  C327  1  0.260100  0.642530  0.506560  1.0  -0.1238
  C  C328  1  0.339600  0.591300  0.520700  1.0  0.7045
  C  C329  1  0.370400  0.483600  0.905300  1.0  0.7325
  C  C330  1  0.290400  0.505900  0.858400  1.0  -0.1346
  C  C331  1  0.156100  0.469800  0.784900  1.0  -0.0476
  C  C332  1  0.160300  0.525400  0.741700  1.0  -0.0515
  C  C333  1  0.343000  0.504700  0.719000  1.0  -0.044
  C  C334  1  0.338300  0.449100  0.763200  1.0  -0.0469
  C  C335  1  0.207900  0.475300  0.642900  1.0  -0.1497
  C  C336  1  0.129400  0.502800  0.597200  1.0  0.7104
  C  C337  1  0.839000  0.408400  0.509400  1.0  0.7289
  C  C338  1  0.758400  0.361750  0.487380  1.0  -0.0958
  C  C339  1  0.842000  0.275000  0.532300  1.0  -0.0354
  C  C340  1  0.832100  0.220400  0.576700  1.0  -0.0396
  C  C341  1  0.646400  0.217200  0.559700  1.0  -0.0226
  C  C342  1  0.655200  0.273000  0.516600  1.0  -0.0321
  C  C343  1  0.760100  0.142530  0.506560  1.0  -0.1238
  C  C344  1  0.839600  0.091300  0.520700  1.0  0.7045
  N  N345  1  0.759800  0.043560  0.185570  1.0  -0.1644
  N  N346  1  0.739800  0.979560  0.309310  1.0  -0.169
  N  N347  1  0.245700  0.187200  0.465380  1.0  -0.2409
  N  N348  1  0.242300  0.320670  0.436610  1.0  -0.178
  N  N349  1  0.259800  0.543560  0.185570  1.0  -0.1644
  N  N350  1  0.239800  0.479560  0.309310  1.0  -0.169
  N  N351  1  0.745700  0.687200  0.465380  1.0  -0.2409
  N  N352  1  0.742300  0.820670  0.436610  1.0  -0.178
  N  N353  1  0.240200  0.956440  0.685570  1.0  -0.1638
  N  N354  1  0.260200  0.020440  0.809310  1.0  -0.1686
  N  N355  1  0.754300  0.812800  0.965380  1.0  -0.2405
  N  N356  1  0.757700  0.679330  0.936610  1.0  -0.1787
  N  N357  1  0.740200  0.456440  0.685570  1.0  -0.1638
  N  N358  1  0.760200  0.520440  0.809310  1.0  -0.1686
  N  N359  1  0.254300  0.312800  0.965380  1.0  -0.2405
  N  N360  1  0.257700  0.179330  0.936610  1.0  -0.1787
  N  N361  1  0.240200  0.043560  0.314430  1.0  -0.1636
  N  N362  1  0.260200  0.979560  0.190690  1.0  -0.1702
  N  N363  1  0.754300  0.187200  0.034620  1.0  -0.2461
  N  N364  1  0.757700  0.320670  0.063390  1.0  -0.1786
  N  N365  1  0.740200  0.543560  0.314430  1.0  -0.1636
  N  N366  1  0.760200  0.479560  0.190690  1.0  -0.1702
  N  N367  1  0.254300  0.687200  0.034620  1.0  -0.2461
  N  N368  1  0.257700  0.820670  0.063390  1.0  -0.1786
  N  N369  1  0.759800  0.956440  0.814430  1.0  -0.163
  N  N370  1  0.739800  0.020440  0.690690  1.0  -0.1701
  N  N371  1  0.245700  0.812800  0.534620  1.0  -0.2462
  N  N372  1  0.242300  0.679330  0.563390  1.0  -0.1777
  N  N373  1  0.259800  0.456440  0.814430  1.0  -0.163
  N  N374  1  0.239800  0.520440  0.690690  1.0  -0.1701
  N  N375  1  0.745700  0.312800  0.534620  1.0  -0.2462
  N  N376  1  0.742300  0.179330  0.563390  1.0  -0.1777
  O  O377  1  0.880800  0.071910  0.083180  1.0  -0.6027
  O  O378  1  0.924000  0.974690  0.068080  1.0  -0.6296
  O  O379  1  0.619900  0.941260  0.408020  1.0  -0.5935
  O  O380  1  0.579500  0.036290  0.436160  1.0  -0.6257
  O  O381  1  0.390500  0.064350  0.533040  1.0  -0.6216
  O  O382  1  0.349600  0.081800  0.433500  1.0  -0.5847
  O  O383  1  0.389900  0.430540  0.525470  1.0  -0.6208
  O  O384  1  0.348800  0.427810  0.425210  1.0  -0.5908
  O  O385  1  0.380800  0.571910  0.083180  1.0  -0.6027
  O  O386  1  0.424000  0.474690  0.068080  1.0  -0.6296
  O  O387  1  0.119900  0.441260  0.408020  1.0  -0.5935
  O  O388  1  0.079500  0.536290  0.436160  1.0  -0.6257
  O  O389  1  0.890500  0.564350  0.533040  1.0  -0.6216
  O  O390  1  0.849600  0.581800  0.433500  1.0  -0.5847
  O  O391  1  0.889900  0.930540  0.525470  1.0  -0.6208
  O  O392  1  0.848800  0.927810  0.425210  1.0  -0.5908
  O  O393  1  0.119200  0.928090  0.583180  1.0  -0.6037
  O  O394  1  0.076000  0.025310  0.568080  1.0  -0.6305
  O  O395  1  0.380100  0.058740  0.908020  1.0  -0.594
  O  O396  1  0.420500  0.963710  0.936160  1.0  -0.6258
  O  O397  1  0.609500  0.935650  0.033040  1.0  -0.6225
  O  O398  1  0.650400  0.918200  0.933500  1.0  -0.5848
  O  O399  1  0.610100  0.569460  0.025470  1.0  -0.6212
  O  O400  1  0.651200  0.572190  0.925210  1.0  -0.5914
  O  O401  1  0.619200  0.428090  0.583180  1.0  -0.6037
  O  O402  1  0.576000  0.525310  0.568080  1.0  -0.6305
  O  O403  1  0.880100  0.558740  0.908020  1.0  -0.594
  O  O404  1  0.920500  0.463710  0.936160  1.0  -0.6258
  O  O405  1  0.109500  0.435650  0.033040  1.0  -0.6225
  O  O406  1  0.150400  0.418200  0.933500  1.0  -0.5848
  O  O407  1  0.110100  0.069460  0.025470  1.0  -0.6212
  O  O408  1  0.151200  0.072190  0.925210  1.0  -0.5914
  O  O409  1  0.119200  0.071910  0.416820  1.0  -0.6034
  O  O410  1  0.076000  0.974690  0.431920  1.0  -0.6299
  O  O411  1  0.380100  0.941260  0.091980  1.0  -0.5937
  O  O412  1  0.420500  0.036290  0.063840  1.0  -0.6251
  O  O413  1  0.609500  0.064350  0.966960  1.0  -0.6222
  O  O414  1  0.650400  0.081800  0.066500  1.0  -0.5837
  O  O415  1  0.610100  0.430540  0.974530  1.0  -0.6214
  O  O416  1  0.651200  0.427810  0.074790  1.0  -0.5919
  O  O417  1  0.619200  0.571910  0.416820  1.0  -0.6034
  O  O418  1  0.576000  0.474690  0.431920  1.0  -0.6299
  O  O419  1  0.880100  0.441260  0.091980  1.0  -0.5937
  O  O420  1  0.920500  0.536290  0.063840  1.0  -0.6251
  O  O421  1  0.109500  0.564350  0.966960  1.0  -0.6222
  O  O422  1  0.150400  0.581800  0.066500  1.0  -0.5837
  O  O423  1  0.110100  0.930540  0.974530  1.0  -0.6214
  O  O424  1  0.151200  0.927810  0.074790  1.0  -0.5919
  O  O425  1  0.880800  0.928090  0.916820  1.0  -0.6045
  O  O426  1  0.924000  0.025310  0.931920  1.0  -0.6299
  O  O427  1  0.619900  0.058740  0.591980  1.0  -0.5942
  O  O428  1  0.579500  0.963710  0.563840  1.0  -0.6266
  O  O429  1  0.390500  0.935650  0.466960  1.0  -0.6218
  O  O430  1  0.349600  0.918200  0.566500  1.0  -0.5833
  O  O431  1  0.389900  0.569460  0.474530  1.0  -0.6207
  O  O432  1  0.348800  0.572190  0.574790  1.0  -0.5911
  O  O433  1  0.380800  0.428090  0.916820  1.0  -0.6045
  O  O434  1  0.424000  0.525310  0.931920  1.0  -0.6299
  O  O435  1  0.119900  0.558740  0.591980  1.0  -0.5942
  O  O436  1  0.079500  0.463710  0.563840  1.0  -0.6266
  O  O437  1  0.890500  0.435650  0.466960  1.0  -0.6218
  O  O438  1  0.849600  0.418200  0.566500  1.0  -0.5833
  O  O439  1  0.889900  0.069460  0.474530  1.0  -0.6207
  O  O440  1  0.848800  0.072190  0.574790  1.0  -0.5911
