# generated using pymatgen
data_Ce2H18C42(SO6)3
_symmetry_space_group_name_H-M   'P 1'
_cell_length_a   18.92800000
_cell_length_b   19.71100000
_cell_length_c   23.09950000
_cell_angle_alpha   112.90600000
_cell_angle_beta   90.00000000
_cell_angle_gamma   90.00000000
_symmetry_Int_Tables_number   1
_chemical_formula_structural   Ce2H18C42(SO6)3
_chemical_formula_sum   'Ce8 H72 C168 S12 O72'
_cell_volume   7938.59780058
_cell_formula_units_Z   4
loop_
 _symmetry_equiv_pos_site_id
 _symmetry_equiv_pos_as_xyz
  1  'x, y, z'
loop_
 _atom_site_type_symbol
 _atom_site_label
 _atom_site_symmetry_multiplicity
 _atom_site_fract_x
 _atom_site_fract_y
 _atom_site_fract_z
 _atom_site_occupancy
 _atom_site_charge
  Ce  Ce1  1  0.013760  0.620420  0.024160  1.0  2.1366
  Ce  Ce2  1  0.996050  0.886090  0.983590  1.0  2.2892
  Ce  Ce3  1  0.513760  0.879580  0.475840  1.0  2.1413
  Ce  Ce4  1  0.496050  0.613910  0.516410  1.0  2.2907
  Ce  Ce5  1  0.986240  0.379580  0.975840  1.0  2.1384
  Ce  Ce6  1  0.003950  0.113910  0.016410  1.0  2.2881
  Ce  Ce7  1  0.486240  0.120420  0.524160  1.0  2.1382
  Ce  Ce8  1  0.503950  0.386090  0.483590  1.0  2.2895
  H  H9  1  0.967400  0.945500  0.174900  1.0  0.1017
  H  H10  1  0.844800  0.766000  0.136100  1.0  0.1284
  H  H11  1  0.900900  0.010400  0.263300  1.0  0.1365
  H  H12  1  0.809500  0.066200  0.350000  1.0  0.1379
  H  H13  1  0.641700  0.890000  0.347100  1.0  0.1283
  H  H14  1  0.717700  0.096800  0.422400  1.0  0.1129
  H  H15  1  0.178900  0.363000  0.830400  1.0  0.1047
  H  H16  1  0.112100  0.566800  0.855300  1.0  0.1219
  H  H17  1  0.263700  0.366800  0.758700  1.0  0.1277
  H  H18  1  0.346800  0.390800  0.685000  1.0  0.1268
  H  H19  1  0.305600  0.618200  0.673000  1.0  0.1152
  H  H20  1  0.416700  0.429000  0.622000  1.0  0.1131
  H  H21  1  0.703700  0.434800  0.604000  1.0  0.1088
  H  H22  1  0.682200  0.653500  0.656500  1.0  0.1273
  H  H23  1  0.798800  0.451600  0.670500  1.0  0.1276
  H  H24  1  0.892900  0.494300  0.759700  1.0  0.1101
  H  H25  1  0.914600  0.751400  0.843100  1.0  0.1254
  H  H26  1  0.973300  0.552800  0.840800  1.0  0.1042
  H  H27  1  0.467400  0.554500  0.325100  1.0  0.1018
  H  H28  1  0.344800  0.734000  0.363900  1.0  0.1273
  H  H29  1  0.400900  0.489600  0.236700  1.0  0.1371
  H  H30  1  0.309500  0.433800  0.150000  1.0  0.1393
  H  H31  1  0.141700  0.610000  0.152900  1.0  0.129
  H  H32  1  0.217700  0.403200  0.077600  1.0  0.1125
  H  H33  1  0.678900  0.137000  0.669600  1.0  0.1053
  H  H34  1  0.612100  0.933200  0.644700  1.0  0.1215
  H  H35  1  0.763700  0.133200  0.741300  1.0  0.1268
  H  H36  1  0.846800  0.109200  0.815000  1.0  0.1272
  H  H37  1  0.805600  0.881800  0.827000  1.0  0.1152
  H  H38  1  0.916700  0.071000  0.878000  1.0  0.113
  H  H39  1  0.203700  0.065200  0.896000  1.0  0.1093
  H  H40  1  0.182200  0.846500  0.843500  1.0  0.1273
  H  H41  1  0.298800  0.048400  0.829500  1.0  0.1275
  H  H42  1  0.392900  0.005700  0.740300  1.0  0.1084
  H  H43  1  0.414600  0.748600  0.656900  1.0  0.1249
  H  H44  1  0.473300  0.947200  0.659200  1.0  0.1043
  H  H45  1  0.032600  0.054500  0.825100  1.0  0.1022
  H  H46  1  0.155200  0.234000  0.863900  1.0  0.1272
  H  H47  1  0.099100  0.989600  0.736700  1.0  0.1365
  H  H48  1  0.190500  0.933800  0.650000  1.0  0.1388
  H  H49  1  0.358300  0.110000  0.652900  1.0  0.1287
  H  H50  1  0.282300  0.903200  0.577600  1.0  0.1123
  H  H51  1  0.821100  0.637000  0.169600  1.0  0.1051
  H  H52  1  0.887900  0.433200  0.144700  1.0  0.1209
  H  H53  1  0.736300  0.633200  0.241300  1.0  0.1277
  H  H54  1  0.653200  0.609200  0.315000  1.0  0.1275
  H  H55  1  0.694400  0.381800  0.327000  1.0  0.1151
  H  H56  1  0.583300  0.571000  0.378000  1.0  0.1136
  H  H57  1  0.296300  0.565200  0.396000  1.0  0.109
  H  H58  1  0.317800  0.346500  0.343500  1.0  0.1274
  H  H59  1  0.201200  0.548400  0.329500  1.0  0.1279
  H  H60  1  0.107100  0.505700  0.240300  1.0  0.1096
  H  H61  1  0.085400  0.248600  0.156900  1.0  0.125
  H  H62  1  0.026700  0.447200  0.159200  1.0  0.1042
  H  H63  1  0.532600  0.445500  0.674900  1.0  0.102
  H  H64  1  0.655200  0.266000  0.636100  1.0  0.1284
  H  H65  1  0.599100  0.510400  0.763300  1.0  0.1365
  H  H66  1  0.690500  0.566200  0.850000  1.0  0.1388
  H  H67  1  0.858300  0.390000  0.847100  1.0  0.1287
  H  H68  1  0.782300  0.596800  0.922400  1.0  0.1129
  H  H69  1  0.321100  0.863000  0.330400  1.0  0.1049
  H  H70  1  0.387900  0.066800  0.355300  1.0  0.1214
  H  H71  1  0.236300  0.866800  0.258700  1.0  0.1281
  H  H72  1  0.153200  0.890800  0.185000  1.0  0.127
  H  H73  1  0.194400  0.118200  0.173000  1.0  0.1153
  H  H74  1  0.083300  0.929000  0.122000  1.0  0.1134
  H  H75  1  0.796300  0.934800  0.104000  1.0  0.1082
  H  H76  1  0.817800  0.153500  0.156500  1.0  0.1274
  H  H77  1  0.701200  0.951600  0.170500  1.0  0.1273
  H  H78  1  0.607100  0.994300  0.259700  1.0  0.1098
  H  H79  1  0.585400  0.251400  0.343100  1.0  0.1252
  H  H80  1  0.526700  0.052800  0.340800  1.0  0.1039
  C  C81  1  0.958400  0.806900  0.090500  1.0  0.7145
  C  C82  1  0.913900  0.849400  0.147500  1.0  -0.1318
  C  C83  1  0.929300  0.922600  0.185300  1.0  -0.019
  C  C84  1  0.856000  0.814500  0.160900  1.0  -0.0009
  C  C85  1  0.889200  0.962100  0.237900  1.0  -0.1263
  C  C86  1  0.815700  0.855500  0.213100  1.0  -0.2389
  C  C87  1  0.831600  0.928200  0.251800  1.0  -0.0243
  C  C88  1  0.779600  0.959900  0.303700  1.0  0.0776
  C  C89  1  0.727500  0.908900  0.304000  1.0  -0.1707
  C  C90  1  0.776000  0.031200  0.348800  1.0  -0.1204
  C  C91  1  0.674300  0.925500  0.347400  1.0  -0.0309
  C  C92  1  0.720800  0.048900  0.392300  1.0  -0.0208
  C  C93  1  0.670800  0.998200  0.392400  1.0  -0.1304
  C  C94  1  0.611600  0.022400  0.439500  1.0  0.7282
  C  C95  1  0.089200  0.464800  0.902400  1.0  0.778
  C  C96  1  0.138600  0.464700  0.851400  1.0  -0.1676
  C  C97  1  0.182700  0.404700  0.821000  1.0  -0.046
  C  C98  1  0.141100  0.526300  0.835500  1.0  -0.0057
  C  C99  1  0.187900  0.524900  0.789600  1.0  -0.1239
  C  C100  1  0.234400  0.467000  0.759900  1.0  0.0603
  C  C101  1  0.232500  0.405900  0.776700  1.0  -0.1056
  C  C102  1  0.283100  0.480300  0.716100  1.0  0.0597
  C  C103  1  0.272500  0.548900  0.711800  1.0  -0.2077
  C  C104  1  0.338200  0.436000  0.682300  1.0  -0.1245
  C  C105  1  0.313700  0.572700  0.675000  1.0  0.0241
  C  C106  1  0.380100  0.459100  0.644700  1.0  -0.0338
  C  C107  1  0.368600  0.526900  0.640100  1.0  -0.1655
  C  C108  1  0.414100  0.551400  0.598300  1.0  0.7339
  C  C109  1  0.616300  0.528800  0.583500  1.0  0.7623
  C  C110  1  0.681800  0.542200  0.624400  1.0  -0.1259
  C  C111  1  0.718400  0.482400  0.628600  1.0  -0.0104
  C  C112  1  0.705200  0.613100  0.659200  1.0  0.0276
  C  C113  1  0.763500  0.623000  0.697900  1.0  -0.2677
  C  C114  1  0.775700  0.492100  0.668300  1.0  -0.0778
  C  C115  1  0.798400  0.562800  0.704900  1.0  0.0566
  C  C116  1  0.854700  0.586800  0.753000  1.0  0.0462
  C  C117  1  0.896800  0.545400  0.776400  1.0  -0.0786
  C  C118  1  0.862700  0.664100  0.780200  1.0  -0.2689
  C  C119  1  0.910200  0.700300  0.827300  1.0  -0.0275
  C  C120  1  0.945300  0.580700  0.825300  1.0  -0.0658
  C  C121  1  0.951400  0.657800  0.850600  1.0  -0.1509
  C  C122  1  0.002100  0.697300  0.903800  1.0  0.7091
  C  C123  1  0.458400  0.693100  0.409500  1.0  0.7138
  C  C124  1  0.413900  0.650600  0.352500  1.0  -0.1334
  C  C125  1  0.429300  0.577400  0.314700  1.0  -0.018
  C  C126  1  0.356000  0.685500  0.339100  1.0  -0.0028
  C  C127  1  0.389200  0.537900  0.262100  1.0  -0.1268
  C  C128  1  0.315700  0.644500  0.286900  1.0  -0.2396
  C  C129  1  0.331600  0.571800  0.248200  1.0  -0.0268
  C  C130  1  0.279600  0.540100  0.196300  1.0  0.0769
  C  C131  1  0.227500  0.591100  0.196000  1.0  -0.1717
  C  C132  1  0.276000  0.468800  0.151200  1.0  -0.1217
  C  C133  1  0.174300  0.574500  0.152600  1.0  -0.0316
  C  C134  1  0.220800  0.451100  0.107700  1.0  -0.023
  C  C135  1  0.170800  0.501800  0.107600  1.0  -0.1313
  C  C136  1  0.111600  0.477600  0.060500  1.0  0.729
  C  C137  1  0.589200  0.035200  0.597600  1.0  0.7797
  C  C138  1  0.638600  0.035300  0.648600  1.0  -0.1673
  C  C139  1  0.682700  0.095300  0.679000  1.0  -0.0454
  C  C140  1  0.641100  0.973700  0.664500  1.0  -0.0059
  C  C141  1  0.687900  0.975100  0.710400  1.0  -0.124
  C  C142  1  0.734400  0.033000  0.740100  1.0  0.0602
  C  C143  1  0.732500  0.094100  0.723300  1.0  -0.1051
  C  C144  1  0.783100  0.019700  0.783900  1.0  0.0597
  C  C145  1  0.772500  0.951100  0.788200  1.0  -0.2079
  C  C146  1  0.838200  0.064000  0.817700  1.0  -0.124
  C  C147  1  0.813700  0.927300  0.825000  1.0  0.0242
  C  C148  1  0.880100  0.040900  0.855300  1.0  -0.0332
  C  C149  1  0.868600  0.973100  0.859900  1.0  -0.1653
  C  C150  1  0.914100  0.948600  0.901700  1.0  0.7341
  C  C151  1  0.116300  0.971200  0.916500  1.0  0.7621
  C  C152  1  0.181800  0.957800  0.875600  1.0  -0.1255
  C  C153  1  0.218400  0.017600  0.871400  1.0  -0.0099
  C  C154  1  0.205200  0.886900  0.840800  1.0  0.0297
  C  C155  1  0.263500  0.877000  0.802100  1.0  -0.2663
  C  C156  1  0.275700  0.007900  0.831700  1.0  -0.0767
  C  C157  1  0.298400  0.937200  0.795100  1.0  0.0572
  C  C158  1  0.354700  0.913200  0.747000  1.0  0.0468
  C  C159  1  0.396800  0.954600  0.723600  1.0  -0.082
  C  C160  1  0.362700  0.835900  0.719800  1.0  -0.2684
  C  C161  1  0.410200  0.799700  0.672700  1.0  -0.0249
  C  C162  1  0.445300  0.919300  0.674700  1.0  -0.0662
  C  C163  1  0.451400  0.842200  0.649400  1.0  -0.1507
  C  C164  1  0.502100  0.802700  0.596200  1.0  0.7106
  C  C165  1  0.041600  0.193100  0.909500  1.0  0.7115
  C  C166  1  0.086100  0.150600  0.852500  1.0  -0.1336
  C  C167  1  0.070700  0.077400  0.814700  1.0  -0.0171
  C  C168  1  0.144000  0.185500  0.839100  1.0  -0.0017
  C  C169  1  0.110800  0.037900  0.762100  1.0  -0.1263
  C  C170  1  0.184300  0.144500  0.786900  1.0  -0.2393
  C  C171  1  0.168400  0.071800  0.748200  1.0  -0.027
  C  C172  1  0.220400  0.040100  0.696300  1.0  0.0766
  C  C173  1  0.272500  0.091100  0.696000  1.0  -0.1722
  C  C174  1  0.224000  0.968800  0.651200  1.0  -0.1198
  C  C175  1  0.325700  0.074500  0.652600  1.0  -0.0302
  C  C176  1  0.279200  0.951100  0.607700  1.0  -0.0228
  C  C177  1  0.329200  0.001800  0.607600  1.0  -0.1322
  C  C178  1  0.388400  0.977600  0.560500  1.0  0.734
  C  C179  1  0.910800  0.535200  0.097600  1.0  0.7793
  C  C180  1  0.861400  0.535300  0.148600  1.0  -0.1668
  C  C181  1  0.817300  0.595300  0.179000  1.0  -0.0457
  C  C182  1  0.858900  0.473700  0.164500  1.0  -0.007
  C  C183  1  0.812100  0.475100  0.210400  1.0  -0.1234
  C  C184  1  0.765600  0.533000  0.240100  1.0  0.0608
  C  C185  1  0.767500  0.594100  0.223300  1.0  -0.1049
  C  C186  1  0.716900  0.519700  0.283900  1.0  0.0598
  C  C187  1  0.727500  0.451100  0.288200  1.0  -0.2065
  C  C188  1  0.661800  0.564000  0.317700  1.0  -0.1237
  C  C189  1  0.686300  0.427300  0.325000  1.0  0.0248
  C  C190  1  0.619900  0.540900  0.355300  1.0  -0.0337
  C  C191  1  0.631400  0.473100  0.359900  1.0  -0.1644
  C  C192  1  0.585900  0.448600  0.401700  1.0  0.7334
  C  C193  1  0.383700  0.471200  0.416500  1.0  0.7629
  C  C194  1  0.318200  0.457800  0.375600  1.0  -0.1255
  C  C195  1  0.281600  0.517600  0.371400  1.0  -0.0095
  C  C196  1  0.294800  0.386900  0.340800  1.0  0.0303
  C  C197  1  0.236500  0.377000  0.302100  1.0  -0.2664
  C  C198  1  0.224300  0.507900  0.331700  1.0  -0.075
  C  C199  1  0.201600  0.437200  0.295100  1.0  0.0577
  C  C200  1  0.145300  0.413200  0.247000  1.0  0.0464
  C  C201  1  0.103200  0.454600  0.223600  1.0  -0.0817
  C  C202  1  0.137300  0.335900  0.219800  1.0  -0.2691
  C  C203  1  0.089800  0.299700  0.172700  1.0  -0.024
  C  C204  1  0.054700  0.419300  0.174700  1.0  -0.0643
  C  C205  1  0.048600  0.342200  0.149400  1.0  -0.1512
  C  C206  1  0.997900  0.302700  0.096200  1.0  0.7125
  C  C207  1  0.541600  0.306900  0.590500  1.0  0.7139
  C  C208  1  0.586100  0.349400  0.647500  1.0  -0.1333
  C  C209  1  0.570700  0.422600  0.685300  1.0  -0.0177
  C  C210  1  0.644000  0.314500  0.660900  1.0  0.0003
  C  C211  1  0.610800  0.462100  0.737900  1.0  -0.1288
  C  C212  1  0.684300  0.355500  0.713100  1.0  -0.2383
  C  C213  1  0.668400  0.428200  0.751800  1.0  -0.0245
  C  C214  1  0.720400  0.459900  0.803700  1.0  0.0766
  C  C215  1  0.772500  0.408900  0.804000  1.0  -0.1712
  C  C216  1  0.724000  0.531200  0.848800  1.0  -0.1224
  C  C217  1  0.825700  0.425500  0.847400  1.0  -0.0298
  C  C218  1  0.779200  0.548900  0.892300  1.0  -0.0211
  C  C219  1  0.829200  0.498200  0.892400  1.0  -0.1317
  C  C220  1  0.888400  0.522400  0.939500  1.0  0.7325
  C  C221  1  0.410800  0.964800  0.402400  1.0  0.7774
  C  C222  1  0.361400  0.964700  0.351400  1.0  -0.1669
  C  C223  1  0.317300  0.904700  0.321000  1.0  -0.0463
  C  C224  1  0.358900  0.026300  0.335500  1.0  -0.0064
  C  C225  1  0.312100  0.024900  0.289600  1.0  -0.1235
  C  C226  1  0.265600  0.967000  0.259900  1.0  0.0607
  C  C227  1  0.267500  0.905900  0.276700  1.0  -0.1054
  C  C228  1  0.216900  0.980300  0.216100  1.0  0.0598
  C  C229  1  0.227500  0.048900  0.211800  1.0  -0.2058
  C  C230  1  0.161800  0.936000  0.182300  1.0  -0.1252
  C  C231  1  0.186300  0.072700  0.175000  1.0  0.0242
  C  C232  1  0.119900  0.959100  0.144700  1.0  -0.0344
  C  C233  1  0.131400  0.026900  0.140100  1.0  -0.1649
  C  C234  1  0.085900  0.051400  0.098300  1.0  0.7335
  C  C235  1  0.883700  0.028800  0.083500  1.0  0.7627
  C  C236  1  0.818200  0.042200  0.124400  1.0  -0.1242
  C  C237  1  0.781600  0.982400  0.128600  1.0  -0.0095
  C  C238  1  0.794800  0.113100  0.159200  1.0  0.0282
  C  C239  1  0.736500  0.123000  0.197900  1.0  -0.2677
  C  C240  1  0.724300  0.992100  0.168300  1.0  -0.0753
  C  C241  1  0.701600  0.062800  0.204900  1.0  0.057
  C  C242  1  0.645300  0.086800  0.253000  1.0  0.046
  C  C243  1  0.603200  0.045400  0.276400  1.0  -0.0783
  C  C244  1  0.637300  0.164100  0.280200  1.0  -0.2693
  C  C245  1  0.589800  0.200300  0.327300  1.0  -0.0268
  C  C246  1  0.554700  0.080700  0.325300  1.0  -0.0642
  C  C247  1  0.548600  0.157800  0.350600  1.0  -0.1503
  C  C248  1  0.497900  0.197300  0.403800  1.0  0.7114
  S  S249  1  0.738730  0.824310  0.238750  1.0  1.1477
  S  S250  1  0.197910  0.593980  0.758460  1.0  1.1089
  S  S251  1  0.804020  0.707270  0.745550  1.0  1.1427
  S  S252  1  0.238730  0.675690  0.261250  1.0  1.1478
  S  S253  1  0.697910  0.906020  0.741540  1.0  1.11
  S  S254  1  0.304020  0.792730  0.754450  1.0  1.143
  S  S255  1  0.261270  0.175690  0.761250  1.0  1.1475
  S  S256  1  0.802090  0.406020  0.241540  1.0  1.1092
  S  S257  1  0.195980  0.292730  0.254450  1.0  1.1427
  S  S258  1  0.761270  0.324310  0.738750  1.0  1.1462
  S  S259  1  0.302090  0.093980  0.258460  1.0  1.1087
  S  S260  1  0.695980  0.207270  0.245550  1.0  1.1424
  O  O261  1  0.000500  0.842860  0.070960  1.0  -0.6778
  O  O262  1  0.952100  0.737510  0.067310  1.0  -0.7259
  O  O263  1  0.574600  0.971800  0.444900  1.0  -0.725
  O  O264  1  0.602000  0.088500  0.469600  1.0  -0.6643
  O  O265  1  0.681700  0.811900  0.194000  1.0  -0.565
  O  O266  1  0.755100  0.765600  0.258500  1.0  -0.5209
  O  O267  1  0.075500  0.405520  0.907420  1.0  -0.6489
  O  O268  1  0.060800  0.524200  0.934400  1.0  -0.6906
  O  O269  1  0.414000  0.618070  0.606270  1.0  -0.7281
  O  O270  1  0.138500  0.591800  0.717900  1.0  -0.5418
  O  O271  1  0.215800  0.663440  0.806740  1.0  -0.5278
  O  O272  1  0.600600  0.463640  0.550440  1.0  -0.7155
  O  O273  1  0.582200  0.585670  0.587270  1.0  -0.707
  O  O274  1  0.755400  0.755300  0.790600  1.0  -0.5241
  O  O275  1  0.843700  0.737300  0.707200  1.0  -0.5662
  O  O276  1  0.023300  0.662820  0.936220  1.0  -0.6776
  O  O277  1  0.020700  0.761220  0.911220  1.0  -0.6961
  O  O278  1  0.451900  0.502940  0.556440  1.0  -0.7957
  O  O279  1  0.500500  0.657140  0.429040  1.0  -0.6787
  O  O280  1  0.452100  0.762490  0.432690  1.0  -0.7235
  O  O281  1  0.074600  0.528200  0.055100  1.0  -0.7263
  O  O282  1  0.102000  0.411500  0.030400  1.0  -0.6647
  O  O283  1  0.181700  0.688100  0.306000  1.0  -0.5649
  O  O284  1  0.255100  0.734400  0.241500  1.0  -0.5219
  O  O285  1  0.575500  0.094480  0.592580  1.0  -0.6504
  O  O286  1  0.560800  0.975800  0.565600  1.0  -0.6902
  O  O287  1  0.914000  0.881930  0.893730  1.0  -0.7279
  O  O288  1  0.638500  0.908200  0.782100  1.0  -0.5383
  O  O289  1  0.715800  0.836560  0.693260  1.0  -0.5286
  O  O290  1  0.100600  0.036360  0.949560  1.0  -0.7156
  O  O291  1  0.082200  0.914330  0.912730  1.0  -0.7092
  O  O292  1  0.255400  0.744700  0.709400  1.0  -0.5246
  O  O293  1  0.343700  0.762700  0.792800  1.0  -0.5653
  O  O294  1  0.523300  0.837180  0.563780  1.0  -0.6775
  O  O295  1  0.520700  0.738780  0.588780  1.0  -0.6996
  O  O296  1  0.951900  0.997060  0.943560  1.0  -0.7962
  O  O297  1  0.999500  0.157140  0.929040  1.0  -0.6784
  O  O298  1  0.047900  0.262490  0.932690  1.0  -0.7244
  O  O299  1  0.425400  0.028200  0.555100  1.0  -0.7268
  O  O300  1  0.398000  0.911500  0.530400  1.0  -0.6646
  O  O301  1  0.318300  0.188100  0.806000  1.0  -0.5681
  O  O302  1  0.244900  0.234400  0.741500  1.0  -0.5214
  O  O303  1  0.924500  0.594480  0.092580  1.0  -0.6504
  O  O304  1  0.939200  0.475800  0.065600  1.0  -0.6905
  O  O305  1  0.586000  0.381930  0.393730  1.0  -0.7273
  O  O306  1  0.861500  0.408200  0.282100  1.0  -0.5416
  O  O307  1  0.784200  0.336560  0.193260  1.0  -0.5284
  O  O308  1  0.399400  0.536360  0.449560  1.0  -0.7158
  O  O309  1  0.417800  0.414330  0.412730  1.0  -0.7096
  O  O310  1  0.244600  0.244700  0.209400  1.0  -0.524
  O  O311  1  0.156300  0.262700  0.292800  1.0  -0.5647
  O  O312  1  0.976700  0.337180  0.063780  1.0  -0.6768
  O  O313  1  0.979300  0.238780  0.088780  1.0  -0.6967
  O  O314  1  0.548100  0.497060  0.443560  1.0  -0.7956
  O  O315  1  0.499500  0.342860  0.570960  1.0  -0.6775
  O  O316  1  0.547900  0.237510  0.567310  1.0  -0.7258
  O  O317  1  0.925400  0.471800  0.944900  1.0  -0.724
  O  O318  1  0.898000  0.588500  0.969600  1.0  -0.6656
  O  O319  1  0.818300  0.311900  0.694000  1.0  -0.5657
  O  O320  1  0.744900  0.265600  0.758500  1.0  -0.52
  O  O321  1  0.424500  0.905520  0.407420  1.0  -0.6493
  O  O322  1  0.439200  0.024200  0.434400  1.0  -0.6909
  O  O323  1  0.086000  0.118070  0.106270  1.0  -0.7264
  O  O324  1  0.361500  0.091800  0.217900  1.0  -0.5416
  O  O325  1  0.284200  0.163440  0.306740  1.0  -0.5286
  O  O326  1  0.899400  0.963640  0.050440  1.0  -0.7154
  O  O327  1  0.917800  0.085670  0.087270  1.0  -0.7083
  O  O328  1  0.744600  0.255300  0.290600  1.0  -0.5258
  O  O329  1  0.656300  0.237300  0.207200  1.0  -0.5668
  O  O330  1  0.476700  0.162820  0.436220  1.0  -0.6771
  O  O331  1  0.479300  0.261220  0.411220  1.0  -0.6968
  O  O332  1  0.048100  0.002940  0.056440  1.0  -0.7953
