# generated using pymatgen
data_Be12P16H17O48
_symmetry_space_group_name_H-M   'P 1'
_cell_length_a   18.00260000
_cell_length_b   18.00260000
_cell_length_c   13.33160000
_cell_angle_alpha   90.00000000
_cell_angle_beta   90.00000000
_cell_angle_gamma   120.00000000
_symmetry_Int_Tables_number   1
_chemical_formula_structural   Be12P16H17O48
_chemical_formula_sum   'Be24 P32 H34 O96'
_cell_volume   3741.82412173
_cell_formula_units_Z   2
loop_
 _symmetry_equiv_pos_site_id
 _symmetry_equiv_pos_as_xyz
  1  'x, y, z'
loop_
 _atom_site_type_symbol
 _atom_site_label
 _atom_site_symmetry_multiplicity
 _atom_site_fract_x
 _atom_site_fract_y
 _atom_site_fract_z
 _atom_site_occupancy
 _atom_site_charge
  Be  Be1  1  0.404500  0.047600  0.618400  1.0  1.11
  Be  Be2  1  0.952400  0.356900  0.618400  1.0  1.1097
  Be  Be3  1  0.643100  0.595500  0.618400  1.0  1.1087
  Be  Be4  1  0.595500  0.952400  0.118400  1.0  1.109
  Be  Be5  1  0.047600  0.643100  0.118400  1.0  1.1098
  Be  Be6  1  0.356900  0.404500  0.118400  1.0  1.1091
  Be  Be7  1  0.595500  0.952400  0.381600  1.0  1.1073
  Be  Be8  1  0.047600  0.643100  0.381600  1.0  1.1079
  Be  Be9  1  0.356900  0.404500  0.381600  1.0  1.1073
  Be  Be10  1  0.404500  0.047600  0.881600  1.0  1.1082
  Be  Be11  1  0.952400  0.356900  0.881600  1.0  1.1085
  Be  Be12  1  0.643100  0.595500  0.881600  1.0  1.107
  Be  Be13  1  0.353900  0.307900  0.750000  1.0  1.122
  Be  Be14  1  0.200900  0.715100  0.750000  1.0  1.1305
  Be  Be15  1  0.692100  0.046000  0.750000  1.0  1.1207
  Be  Be16  1  0.284900  0.485800  0.750000  1.0  1.1321
  Be  Be17  1  0.954000  0.646100  0.750000  1.0  1.1207
  Be  Be18  1  0.514200  0.799100  0.750000  1.0  1.1312
  Be  Be19  1  0.646100  0.692100  0.250000  1.0  1.1209
  Be  Be20  1  0.799100  0.284900  0.250000  1.0  1.1312
  Be  Be21  1  0.307900  0.954000  0.250000  1.0  1.1204
  Be  Be22  1  0.715100  0.514200  0.250000  1.0  1.1299
  Be  Be23  1  0.046000  0.353900  0.250000  1.0  1.1208
  Be  Be24  1  0.485800  0.200900  0.250000  1.0  1.1327
  P  P25  1  0.080820  0.701250  0.589810  1.0  1.5844
  P  P26  1  0.298750  0.379570  0.589810  1.0  1.5812
  P  P27  1  0.620430  0.919180  0.589810  1.0  1.5797
  P  P28  1  0.919180  0.298750  0.089810  1.0  1.585
  P  P29  1  0.701250  0.620430  0.089810  1.0  1.5815
  P  P30  1  0.379570  0.080820  0.089810  1.0  1.5784
  P  P31  1  0.919180  0.298750  0.410190  1.0  1.5842
  P  P32  1  0.701250  0.620430  0.410190  1.0  1.581
  P  P33  1  0.379570  0.080820  0.410190  1.0  1.578
  P  P34  1  0.080820  0.701250  0.910190  1.0  1.5839
  P  P35  1  0.298750  0.379570  0.910190  1.0  1.5807
  P  P36  1  0.620430  0.919180  0.910190  1.0  1.5792
  P  P37  1  0.398070  0.172280  0.750000  1.0  1.569
  P  P38  1  0.525210  0.037170  0.750000  1.0  1.4903
  P  P39  1  0.283020  0.906260  0.750000  1.0  1.6471
  P  P40  1  0.827720  0.225790  0.750000  1.0  1.5685
  P  P41  1  0.962830  0.488040  0.750000  1.0  1.4743
  P  P42  1  0.093740  0.376760  0.750000  1.0  1.6513
  P  P43  1  0.774210  0.601930  0.750000  1.0  1.5718
  P  P44  1  0.511960  0.474790  0.750000  1.0  1.4789
  P  P45  1  0.623240  0.716980  0.750000  1.0  1.6552
  P  P46  1  0.601930  0.827720  0.250000  1.0  1.5684
  P  P47  1  0.474790  0.962830  0.250000  1.0  1.4784
  P  P48  1  0.716980  0.093740  0.250000  1.0  1.6508
  P  P49  1  0.172280  0.774210  0.250000  1.0  1.5698
  P  P50  1  0.037170  0.511960  0.250000  1.0  1.4724
  P  P51  1  0.906260  0.623240  0.250000  1.0  1.6507
  P  P52  1  0.225790  0.398070  0.250000  1.0  1.5698
  P  P53  1  0.488040  0.525210  0.250000  1.0  1.4863
  P  P54  1  0.376760  0.283020  0.250000  1.0  1.6528
  P  P55  1  0.333333  0.666667  0.750000  1.0  1.5064
  P  P56  1  0.666667  0.333333  0.250000  1.0  1.5064
  H  H57  1  0.125500  0.781600  0.546500  1.0  -0.1314
  H  H58  1  0.218400  0.343900  0.546500  1.0  -0.1279
  H  H59  1  0.656100  0.874500  0.546500  1.0  -0.1274
  H  H60  1  0.874500  0.218400  0.046500  1.0  -0.1301
  H  H61  1  0.781600  0.656100  0.046500  1.0  -0.1272
  H  H62  1  0.343900  0.125500  0.046500  1.0  -0.1282
  H  H63  1  0.874500  0.218400  0.453500  1.0  -0.1309
  H  H64  1  0.781600  0.656100  0.453500  1.0  -0.1278
  H  H65  1  0.343900  0.125500  0.453500  1.0  -0.1282
  H  H66  1  0.125500  0.781600  0.953500  1.0  -0.1319
  H  H67  1  0.218400  0.343900  0.953500  1.0  -0.1283
  H  H68  1  0.656100  0.874500  0.953500  1.0  -0.1276
  H  H69  1  0.482700  0.236800  0.750000  1.0  -0.128
  H  H70  1  0.496000  0.962300  0.750000  1.0  0.0281
  H  H71  1  0.201700  0.900500  0.750000  1.0  -0.1209
  H  H72  1  0.763200  0.245900  0.750000  1.0  -0.1256
  H  H73  1  0.037700  0.533700  0.750000  1.0  0.0278
  H  H74  1  0.099500  0.301200  0.750000  1.0  -0.1224
  H  H75  1  0.754100  0.517300  0.750000  1.0  -0.1295
  H  H76  1  0.466300  0.504000  0.750000  1.0  0.0291
  H  H77  1  0.698800  0.798300  0.750000  1.0  -0.1238
  H  H78  1  0.517300  0.763200  0.250000  1.0  -0.1281
  H  H79  1  0.504000  0.037700  0.250000  1.0  0.0273
  H  H80  1  0.798300  0.099500  0.250000  1.0  -0.1227
  H  H81  1  0.236800  0.754100  0.250000  1.0  -0.1289
  H  H82  1  0.962300  0.466300  0.250000  1.0  0.0288
  H  H83  1  0.900500  0.698800  0.250000  1.0  -0.1229
  H  H84  1  0.245900  0.482700  0.250000  1.0  -0.1306
  H  H85  1  0.533700  0.496000  0.250000  1.0  0.0282
  H  H86  1  0.301200  0.201700  0.250000  1.0  -0.1235
  H  H87  1  0.333333  0.666667  0.658100  1.0  0.1098
  H  H88  1  0.666667  0.333333  0.158100  1.0  0.1098
  H  H89  1  0.666667  0.333333  0.341900  1.0  0.1063
  H  H90  1  0.333333  0.666667  0.841900  1.0  0.1063
  O  O91  1  0.385100  0.121300  0.655900  1.0  -0.743
  O  O92  1  0.495260  0.060900  0.655600  1.0  -0.7165
  O  O93  1  0.328600  0.952830  0.654800  1.0  -0.9121
  O  O94  1  0.144230  0.687200  0.650100  1.0  -0.789
  O  O95  1  0.049400  0.639400  0.502700  1.0  -0.7724
  O  O96  1  0.008700  0.696000  0.651700  1.0  -0.7756
  O  O97  1  0.878700  0.263800  0.655900  1.0  -0.7448
  O  O98  1  0.939100  0.434360  0.655600  1.0  -0.7145
  O  O99  1  0.047170  0.375770  0.654800  1.0  -0.9113
  O  O100  1  0.312800  0.457030  0.650100  1.0  -0.7878
  O  O101  1  0.360600  0.410000  0.502700  1.0  -0.7711
  O  O102  1  0.304000  0.312700  0.651700  1.0  -0.7753
  O  O103  1  0.736200  0.614900  0.655900  1.0  -0.743
  O  O104  1  0.565640  0.504740  0.655600  1.0  -0.7164
  O  O105  1  0.624230  0.671400  0.654800  1.0  -0.9139
  O  O106  1  0.542970  0.855770  0.650100  1.0  -0.7895
  O  O107  1  0.590000  0.950600  0.502700  1.0  -0.7714
  O  O108  1  0.687300  0.991300  0.651700  1.0  -0.7714
  O  O109  1  0.614900  0.878700  0.155900  1.0  -0.7406
  O  O110  1  0.504740  0.939100  0.155600  1.0  -0.7164
  O  O111  1  0.671400  0.047170  0.154800  1.0  -0.9128
  O  O112  1  0.855770  0.312800  0.150100  1.0  -0.7884
  O  O113  1  0.950600  0.360600  0.002700  1.0  -0.7733
  O  O114  1  0.991300  0.304000  0.151700  1.0  -0.7733
  O  O115  1  0.121300  0.736200  0.155900  1.0  -0.7431
  O  O116  1  0.060900  0.565640  0.155600  1.0  -0.7169
  O  O117  1  0.952830  0.624230  0.154800  1.0  -0.9117
  O  O118  1  0.687200  0.542970  0.150100  1.0  -0.7884
  O  O119  1  0.639400  0.590000  0.002700  1.0  -0.7719
  O  O120  1  0.696000  0.687300  0.151700  1.0  -0.7772
  O  O121  1  0.263800  0.385100  0.155900  1.0  -0.7414
  O  O122  1  0.434360  0.495260  0.155600  1.0  -0.7174
  O  O123  1  0.375770  0.328600  0.154800  1.0  -0.9142
  O  O124  1  0.457030  0.144230  0.150100  1.0  -0.7897
  O  O125  1  0.410000  0.049400  0.002700  1.0  -0.771
  O  O126  1  0.312700  0.008700  0.151700  1.0  -0.7727
  O  O127  1  0.614900  0.878700  0.344100  1.0  -0.7453
  O  O128  1  0.504740  0.939100  0.344400  1.0  -0.718
  O  O129  1  0.671400  0.047170  0.345200  1.0  -0.913
  O  O130  1  0.855770  0.312800  0.349900  1.0  -0.7886
  O  O131  1  0.950600  0.360600  0.497300  1.0  -0.7737
  O  O132  1  0.991300  0.304000  0.348300  1.0  -0.7744
  O  O133  1  0.121300  0.736200  0.344100  1.0  -0.748
  O  O134  1  0.060900  0.565640  0.344400  1.0  -0.7171
  O  O135  1  0.952830  0.624230  0.345200  1.0  -0.9127
  O  O136  1  0.687200  0.542970  0.349900  1.0  -0.7883
  O  O137  1  0.639400  0.590000  0.497300  1.0  -0.7723
  O  O138  1  0.696000  0.687300  0.348300  1.0  -0.7789
  O  O139  1  0.263800  0.385100  0.344100  1.0  -0.7454
  O  O140  1  0.434360  0.495260  0.344400  1.0  -0.7185
  O  O141  1  0.375770  0.328600  0.345200  1.0  -0.9147
  O  O142  1  0.457030  0.144230  0.349900  1.0  -0.7899
  O  O143  1  0.410000  0.049400  0.497300  1.0  -0.7715
  O  O144  1  0.312700  0.008700  0.348300  1.0  -0.7734
  O  O145  1  0.385100  0.121300  0.844100  1.0  -0.7448
  O  O146  1  0.495260  0.060900  0.844400  1.0  -0.7169
  O  O147  1  0.328600  0.952830  0.845200  1.0  -0.913
  O  O148  1  0.144230  0.687200  0.849900  1.0  -0.789
  O  O149  1  0.049400  0.639400  0.997300  1.0  -0.773
  O  O150  1  0.008700  0.696000  0.848300  1.0  -0.777
  O  O151  1  0.878700  0.263800  0.844100  1.0  -0.7464
  O  O152  1  0.939100  0.434360  0.844400  1.0  -0.7157
  O  O153  1  0.047170  0.375770  0.845200  1.0  -0.912
  O  O154  1  0.312800  0.457030  0.849900  1.0  -0.7879
  O  O155  1  0.360600  0.410000  0.997300  1.0  -0.7716
  O  O156  1  0.304000  0.312700  0.848300  1.0  -0.7764
  O  O157  1  0.736200  0.614900  0.844100  1.0  -0.7453
  O  O158  1  0.565640  0.504740  0.844400  1.0  -0.7177
  O  O159  1  0.624230  0.671400  0.845200  1.0  -0.9144
  O  O160  1  0.542970  0.855770  0.849900  1.0  -0.7897
  O  O161  1  0.590000  0.950600  0.997300  1.0  -0.7718
  O  O162  1  0.687300  0.991300  0.848300  1.0  -0.7729
  O  O163  1  0.342700  0.213100  0.750000  1.0  -0.7511
  O  O164  1  0.621200  0.075300  0.750000  1.0  -0.7807
  O  O165  1  0.270500  0.817400  0.750000  1.0  -0.8252
  O  O166  1  0.252300  0.663800  0.750000  1.0  -0.6495
  O  O167  1  0.786900  0.129600  0.750000  1.0  -0.7506
  O  O168  1  0.924700  0.545900  0.750000  1.0  -0.7718
  O  O169  1  0.182600  0.453100  0.750000  1.0  -0.8252
  O  O170  1  0.336200  0.588500  0.750000  1.0  -0.6537
  O  O171  1  0.870400  0.657300  0.750000  1.0  -0.7527
  O  O172  1  0.454100  0.378800  0.750000  1.0  -0.7774
  O  O173  1  0.546900  0.729500  0.750000  1.0  -0.8252
  O  O174  1  0.411500  0.747700  0.750000  1.0  -0.6587
  O  O175  1  0.657300  0.786900  0.250000  1.0  -0.7497
  O  O176  1  0.378800  0.924700  0.250000  1.0  -0.7775
  O  O177  1  0.729500  0.182600  0.250000  1.0  -0.8243
  O  O178  1  0.747700  0.336200  0.250000  1.0  -0.6542
  O  O179  1  0.213100  0.870400  0.250000  1.0  -0.75
  O  O180  1  0.075300  0.454100  0.250000  1.0  -0.7787
  O  O181  1  0.817400  0.546900  0.250000  1.0  -0.825
  O  O182  1  0.663800  0.411500  0.250000  1.0  -0.651
  O  O183  1  0.129600  0.342700  0.250000  1.0  -0.7532
  O  O184  1  0.545900  0.621200  0.250000  1.0  -0.7767
  O  O185  1  0.453100  0.270500  0.250000  1.0  -0.825
  O  O186  1  0.588500  0.252300  0.250000  1.0  -0.6536
