# generated using pymatgen
data_MnH5C9N7
_symmetry_space_group_name_H-M   'P 1'
_cell_length_a   19.69200000
_cell_length_b   19.69200000
_cell_length_c   20.10100000
_cell_angle_alpha   90.00000000
_cell_angle_beta   90.00000000
_cell_angle_gamma   90.00000000
_symmetry_Int_Tables_number   1
_chemical_formula_structural   MnH5C9N7
_chemical_formula_sum   'Mn16 H80 C144 N112'
_cell_volume   7794.66254126
_cell_formula_units_Z   16
loop_
 _symmetry_equiv_pos_site_id
 _symmetry_equiv_pos_as_xyz
  1  'x, y, z'
loop_
 _atom_site_type_symbol
 _atom_site_label
 _atom_site_symmetry_multiplicity
 _atom_site_fract_x
 _atom_site_fract_y
 _atom_site_fract_z
 _atom_site_occupancy
 _atom_site_charge
  Mn  Mn1  1  0.604560  0.515430  0.027300  1.0  0.9984
  Mn  Mn2  1  0.104560  0.015430  0.527300  1.0  0.9984
  Mn  Mn3  1  0.895440  0.484570  0.527300  1.0  1.0012
  Mn  Mn4  1  0.395440  0.984570  0.027300  1.0  1.0012
  Mn  Mn5  1  0.234570  0.854560  0.277300  1.0  1.0019
  Mn  Mn6  1  0.734570  0.354560  0.777300  1.0  1.0019
  Mn  Mn7  1  0.265430  0.145440  0.777300  1.0  1.0008
  Mn  Mn8  1  0.765430  0.645440  0.277300  1.0  1.0008
  Mn  Mn9  1  0.395440  0.484570  0.972700  1.0  1.0026
  Mn  Mn10  1  0.895440  0.984570  0.472700  1.0  1.0026
  Mn  Mn11  1  0.104560  0.515430  0.472700  1.0  0.9992
  Mn  Mn12  1  0.604560  0.015430  0.972700  1.0  0.9992
  Mn  Mn13  1  0.765430  0.145440  0.722700  1.0  1.0016
  Mn  Mn14  1  0.265430  0.645440  0.222700  1.0  1.0016
  Mn  Mn15  1  0.734570  0.854560  0.222700  1.0  1.0027
  Mn  Mn16  1  0.234570  0.354560  0.722700  1.0  1.0027
  H  H17  1  0.898600  0.315200  0.770900  1.0  0.0632
  H  H18  1  0.999600  0.347800  0.816300  1.0  0.103
  H  H19  1  0.000400  0.424000  0.903100  1.0  0.105
  H  H20  1  0.897100  0.465000  0.943500  1.0  0.1124
  H  H21  1  0.458800  0.428900  0.825500  1.0  0.0556
  H  H22  1  0.398600  0.815200  0.270900  1.0  0.0632
  H  H23  1  0.499600  0.847800  0.316300  1.0  0.103
  H  H24  1  0.500400  0.924000  0.403100  1.0  0.1046
  H  H25  1  0.397100  0.965000  0.443500  1.0  0.1124
  H  H26  1  0.958800  0.928900  0.325500  1.0  0.0556
  H  H27  1  0.601400  0.684800  0.270900  1.0  0.0635
  H  H28  1  0.500400  0.652200  0.316300  1.0  0.1026
  H  H29  1  0.499600  0.576000  0.403100  1.0  0.105
  H  H30  1  0.602900  0.535000  0.443500  1.0  0.1126
  H  H31  1  0.041200  0.571100  0.325500  1.0  0.0557
  H  H32  1  0.101400  0.184800  0.770900  1.0  0.0635
  H  H33  1  0.000400  0.152200  0.816300  1.0  0.1026
  H  H34  1  0.999600  0.076000  0.903100  1.0  0.1054
  H  H35  1  0.102900  0.035000  0.943500  1.0  0.1126
  H  H36  1  0.541200  0.071100  0.825500  1.0  0.0557
  H  H37  1  0.434800  0.148600  0.020900  1.0  0.0632
  H  H38  1  0.402200  0.249600  0.066300  1.0  0.1054
  H  H39  1  0.326000  0.250400  0.153100  1.0  0.1055
  H  H40  1  0.285000  0.147100  0.193500  1.0  0.1135
  H  H41  1  0.321100  0.708800  0.075500  1.0  0.057
  H  H42  1  0.934800  0.648600  0.520900  1.0  0.0632
  H  H43  1  0.902200  0.749600  0.566300  1.0  0.1054
  H  H44  1  0.826000  0.750400  0.653100  1.0  0.1055
  H  H45  1  0.785000  0.647100  0.693500  1.0  0.1135
  H  H46  1  0.821100  0.208800  0.575500  1.0  0.057
  H  H47  1  0.065200  0.851400  0.520900  1.0  0.0631
  H  H48  1  0.097800  0.750400  0.566300  1.0  0.1047
  H  H49  1  0.174000  0.749600  0.653100  1.0  0.1062
  H  H50  1  0.215000  0.852900  0.693500  1.0  0.1134
  H  H51  1  0.178900  0.291200  0.575500  1.0  0.0567
  H  H52  1  0.565200  0.351400  0.020900  1.0  0.0631
  H  H53  1  0.597800  0.250400  0.066300  1.0  0.1047
  H  H54  1  0.674000  0.249600  0.153100  1.0  0.1062
  H  H55  1  0.715000  0.352900  0.193500  1.0  0.1134
  H  H56  1  0.678900  0.791200  0.075500  1.0  0.0567
  H  H57  1  0.101400  0.684800  0.229100  1.0  0.0623
  H  H58  1  0.000400  0.652200  0.183700  1.0  0.1021
  H  H59  1  0.999600  0.576000  0.096900  1.0  0.1052
  H  H60  1  0.102900  0.535000  0.056500  1.0  0.1123
  H  H61  1  0.541200  0.571100  0.174500  1.0  0.0563
  H  H62  1  0.601400  0.184800  0.729100  1.0  0.0623
  H  H63  1  0.500400  0.152200  0.683700  1.0  0.1021
  H  H64  1  0.499600  0.076000  0.596900  1.0  0.1047
  H  H65  1  0.602900  0.035000  0.556500  1.0  0.1123
  H  H66  1  0.041200  0.071100  0.674500  1.0  0.0563
  H  H67  1  0.398600  0.315200  0.729100  1.0  0.062
  H  H68  1  0.499600  0.347800  0.683700  1.0  0.1026
  H  H69  1  0.500400  0.424000  0.596900  1.0  0.1047
  H  H70  1  0.397100  0.465000  0.556500  1.0  0.1124
  H  H71  1  0.958800  0.428900  0.674500  1.0  0.0562
  H  H72  1  0.898600  0.815200  0.229100  1.0  0.062
  H  H73  1  0.999600  0.847800  0.183700  1.0  0.1026
  H  H74  1  0.000400  0.924000  0.096900  1.0  0.1052
  H  H75  1  0.897100  0.965000  0.056500  1.0  0.1124
  H  H76  1  0.458800  0.928900  0.174500  1.0  0.0562
  H  H77  1  0.565200  0.851400  0.979100  1.0  0.0622
  H  H78  1  0.597800  0.750400  0.933700  1.0  0.1042
  H  H79  1  0.674000  0.749600  0.846900  1.0  0.1059
  H  H80  1  0.715000  0.852900  0.806500  1.0  0.1133
  H  H81  1  0.678900  0.291200  0.924500  1.0  0.0571
  H  H82  1  0.065200  0.351400  0.479100  1.0  0.0622
  H  H83  1  0.097800  0.250400  0.433700  1.0  0.1042
  H  H84  1  0.174000  0.249600  0.346900  1.0  0.1059
  H  H85  1  0.215000  0.352900  0.306500  1.0  0.1133
  H  H86  1  0.178900  0.791200  0.424500  1.0  0.0571
  H  H87  1  0.934800  0.148600  0.479100  1.0  0.0621
  H  H88  1  0.902200  0.249600  0.433700  1.0  0.1051
  H  H89  1  0.826000  0.250400  0.346900  1.0  0.1058
  H  H90  1  0.785000  0.147100  0.306500  1.0  0.1131
  H  H91  1  0.821100  0.708800  0.424500  1.0  0.0575
  H  H92  1  0.434800  0.648600  0.979100  1.0  0.0621
  H  H93  1  0.402200  0.749600  0.933700  1.0  0.1051
  H  H94  1  0.326000  0.750400  0.846900  1.0  0.1058
  H  H95  1  0.285000  0.647100  0.806500  1.0  0.1131
  H  H96  1  0.321100  0.208800  0.924500  1.0  0.0575
  C  C97  1  0.898300  0.346000  0.806000  1.0  0.1489
  C  C98  1  0.959100  0.365200  0.833000  1.0  -0.1409
  C  C99  1  0.959600  0.409900  0.884300  1.0  -0.0886
  C  C100  1  0.898100  0.434200  0.908400  1.0  -0.1483
  C  C101  1  0.838700  0.412000  0.879500  1.0  0.1694
  C  C102  1  0.771500  0.435000  0.900600  1.0  0.277
  C  C103  1  0.665900  0.449000  0.902300  1.0  0.278
  C  C104  1  0.593500  0.448200  0.890300  1.0  0.282
  C  C105  1  0.495300  0.438200  0.853400  1.0  0.2765
  C  C106  1  0.398300  0.846000  0.306000  1.0  0.1489
  C  C107  1  0.459100  0.865200  0.333000  1.0  -0.1409
  C  C108  1  0.459600  0.909900  0.384300  1.0  -0.0886
  C  C109  1  0.398100  0.934200  0.408400  1.0  -0.1483
  C  C110  1  0.338700  0.912000  0.379500  1.0  0.1694
  C  C111  1  0.271500  0.935000  0.400600  1.0  0.277
  C  C112  1  0.165900  0.949000  0.402300  1.0  0.278
  C  C113  1  0.093500  0.948200  0.390300  1.0  0.282
  C  C114  1  0.995300  0.938200  0.353400  1.0  0.2765
  C  C115  1  0.601700  0.654000  0.306000  1.0  0.1497
  C  C116  1  0.540900  0.634800  0.333000  1.0  -0.142
  C  C117  1  0.540400  0.590100  0.384300  1.0  -0.0879
  C  C118  1  0.601900  0.565800  0.408400  1.0  -0.1475
  C  C119  1  0.661300  0.588000  0.379500  1.0  0.1708
  C  C120  1  0.728500  0.565000  0.400600  1.0  0.2753
  C  C121  1  0.834100  0.551000  0.402300  1.0  0.2775
  C  C122  1  0.906500  0.551800  0.390300  1.0  0.2818
  C  C123  1  0.004700  0.561800  0.353400  1.0  0.275
  C  C124  1  0.101700  0.154000  0.806000  1.0  0.1497
  C  C125  1  0.040900  0.134800  0.833000  1.0  -0.142
  C  C126  1  0.040400  0.090100  0.884300  1.0  -0.0879
  C  C127  1  0.101900  0.065800  0.908400  1.0  -0.1475
  C  C128  1  0.161300  0.088000  0.879500  1.0  0.1708
  C  C129  1  0.228500  0.065000  0.900600  1.0  0.2753
  C  C130  1  0.334100  0.051000  0.902300  1.0  0.2775
  C  C131  1  0.406500  0.051800  0.890300  1.0  0.2818
  C  C132  1  0.504700  0.061800  0.853400  1.0  0.275
  C  C133  1  0.404000  0.148300  0.056000  1.0  0.1504
  C  C134  1  0.384800  0.209100  0.083000  1.0  -0.141
  C  C135  1  0.340100  0.209600  0.134300  1.0  -0.0877
  C  C136  1  0.315800  0.148100  0.158400  1.0  -0.1485
  C  C137  1  0.338000  0.088700  0.129500  1.0  0.1684
  C  C138  1  0.315000  0.021500  0.150600  1.0  0.2775
  C  C139  1  0.301000  0.915900  0.152300  1.0  0.2771
  C  C140  1  0.301800  0.843500  0.140300  1.0  0.2813
  C  C141  1  0.311800  0.745300  0.103400  1.0  0.2752
  C  C142  1  0.904000  0.648300  0.556000  1.0  0.1504
  C  C143  1  0.884800  0.709100  0.583000  1.0  -0.141
  C  C144  1  0.840100  0.709600  0.634300  1.0  -0.0877
  C  C145  1  0.815800  0.648100  0.658400  1.0  -0.1485
  C  C146  1  0.838000  0.588700  0.629500  1.0  0.1684
  C  C147  1  0.815000  0.521500  0.650600  1.0  0.2775
  C  C148  1  0.801000  0.415900  0.652300  1.0  0.2771
  C  C149  1  0.801800  0.343500  0.640300  1.0  0.2813
  C  C150  1  0.811800  0.245300  0.603400  1.0  0.2752
  C  C151  1  0.096000  0.851700  0.556000  1.0  0.15
  C  C152  1  0.115200  0.790900  0.583000  1.0  -0.1421
  C  C153  1  0.159900  0.790400  0.634300  1.0  -0.0904
  C  C154  1  0.184200  0.851900  0.658400  1.0  -0.1481
  C  C155  1  0.162000  0.911300  0.629500  1.0  0.1677
  C  C156  1  0.185000  0.978500  0.650600  1.0  0.2771
  C  C157  1  0.199000  0.084100  0.652300  1.0  0.277
  C  C158  1  0.198200  0.156500  0.640300  1.0  0.2803
  C  C159  1  0.188200  0.254700  0.603400  1.0  0.275
  C  C160  1  0.596000  0.351700  0.056000  1.0  0.15
  C  C161  1  0.615200  0.290900  0.083000  1.0  -0.1421
  C  C162  1  0.659900  0.290400  0.134300  1.0  -0.0904
  C  C163  1  0.684200  0.351900  0.158400  1.0  -0.1481
  C  C164  1  0.662000  0.411300  0.129500  1.0  0.1677
  C  C165  1  0.685000  0.478500  0.150600  1.0  0.2771
  C  C166  1  0.699000  0.584100  0.152300  1.0  0.277
  C  C167  1  0.698200  0.656500  0.140300  1.0  0.2803
  C  C168  1  0.688200  0.754700  0.103400  1.0  0.275
  C  C169  1  0.101700  0.654000  0.194000  1.0  0.1491
  C  C170  1  0.040900  0.634800  0.167000  1.0  -0.1416
  C  C171  1  0.040400  0.590100  0.115700  1.0  -0.0878
  C  C172  1  0.101900  0.565800  0.091600  1.0  -0.1462
  C  C173  1  0.161300  0.588000  0.120500  1.0  0.1707
  C  C174  1  0.228500  0.565000  0.099400  1.0  0.275
  C  C175  1  0.334100  0.551000  0.097700  1.0  0.2783
  C  C176  1  0.406500  0.551800  0.109700  1.0  0.2817
  C  C177  1  0.504700  0.561800  0.146600  1.0  0.2777
  C  C178  1  0.601700  0.154000  0.694000  1.0  0.1491
  C  C179  1  0.540900  0.134800  0.667000  1.0  -0.1416
  C  C180  1  0.540400  0.090100  0.615700  1.0  -0.0878
  C  C181  1  0.601900  0.065800  0.591600  1.0  -0.1462
  C  C182  1  0.661300  0.088000  0.620500  1.0  0.1707
  C  C183  1  0.728500  0.065000  0.599400  1.0  0.275
  C  C184  1  0.834100  0.051000  0.597700  1.0  0.2783
  C  C185  1  0.906500  0.051800  0.609700  1.0  0.2817
  C  C186  1  0.004700  0.061800  0.646600  1.0  0.2777
  C  C187  1  0.398300  0.346000  0.694000  1.0  0.1495
  C  C188  1  0.459100  0.365200  0.667000  1.0  -0.1402
  C  C189  1  0.459600  0.409900  0.615700  1.0  -0.0875
  C  C190  1  0.398100  0.434200  0.591600  1.0  -0.1471
  C  C191  1  0.338700  0.412000  0.620500  1.0  0.1688
  C  C192  1  0.271500  0.435000  0.599400  1.0  0.2773
  C  C193  1  0.165900  0.449000  0.597700  1.0  0.2777
  C  C194  1  0.093500  0.448200  0.609700  1.0  0.2818
  C  C195  1  0.995300  0.438200  0.646600  1.0  0.2789
  C  C196  1  0.898300  0.846000  0.194000  1.0  0.1495
  C  C197  1  0.959100  0.865200  0.167000  1.0  -0.1402
  C  C198  1  0.959600  0.909900  0.115700  1.0  -0.0875
  C  C199  1  0.898100  0.934200  0.091600  1.0  -0.1471
  C  C200  1  0.838700  0.912000  0.120500  1.0  0.1688
  C  C201  1  0.771500  0.935000  0.099400  1.0  0.2773
  C  C202  1  0.665900  0.949000  0.097700  1.0  0.2777
  C  C203  1  0.593500  0.948200  0.109700  1.0  0.2818
  C  C204  1  0.495300  0.938200  0.146600  1.0  0.2789
  C  C205  1  0.596000  0.851700  0.944000  1.0  0.1506
  C  C206  1  0.615200  0.790900  0.917000  1.0  -0.1416
  C  C207  1  0.659900  0.790400  0.865700  1.0  -0.0894
  C  C208  1  0.684200  0.851900  0.841600  1.0  -0.1468
  C  C209  1  0.662000  0.911300  0.870500  1.0  0.1677
  C  C210  1  0.685000  0.978500  0.849400  1.0  0.2769
  C  C211  1  0.699000  0.084100  0.847700  1.0  0.2771
  C  C212  1  0.698200  0.156500  0.859700  1.0  0.2809
  C  C213  1  0.688200  0.254700  0.896600  1.0  0.2769
  C  C214  1  0.096000  0.351700  0.444000  1.0  0.1506
  C  C215  1  0.115200  0.290900  0.417000  1.0  -0.1416
  C  C216  1  0.159900  0.290400  0.365700  1.0  -0.0894
  C  C217  1  0.184200  0.351900  0.341600  1.0  -0.1468
  C  C218  1  0.162000  0.411300  0.370500  1.0  0.1677
  C  C219  1  0.185000  0.478500  0.349400  1.0  0.2769
  C  C220  1  0.199000  0.584100  0.347700  1.0  0.2771
  C  C221  1  0.198200  0.656500  0.359700  1.0  0.2809
  C  C222  1  0.188200  0.754700  0.396600  1.0  0.2769
  C  C223  1  0.904000  0.148300  0.444000  1.0  0.1497
  C  C224  1  0.884800  0.209100  0.417000  1.0  -0.1402
  C  C225  1  0.840100  0.209600  0.365700  1.0  -0.0873
  C  C226  1  0.815800  0.148100  0.341600  1.0  -0.1467
  C  C227  1  0.838000  0.088700  0.370500  1.0  0.1674
  C  C228  1  0.815000  0.021500  0.349400  1.0  0.2776
  C  C229  1  0.801000  0.915900  0.347700  1.0  0.2778
  C  C230  1  0.801800  0.843500  0.359700  1.0  0.281
  C  C231  1  0.811800  0.745300  0.396600  1.0  0.2778
  C  C232  1  0.404000  0.648300  0.944000  1.0  0.1497
  C  C233  1  0.384800  0.709100  0.917000  1.0  -0.1402
  C  C234  1  0.340100  0.709600  0.865700  1.0  -0.0873
  C  C235  1  0.315800  0.648100  0.841600  1.0  -0.1467
  C  C236  1  0.338000  0.588700  0.870500  1.0  0.1674
  C  C237  1  0.315000  0.521500  0.849400  1.0  0.2776
  C  C238  1  0.301000  0.415900  0.847700  1.0  0.2778
  C  C239  1  0.301800  0.343500  0.859700  1.0  0.281
  C  C240  1  0.311800  0.245300  0.896600  1.0  0.2778
  N  N241  1  0.838500  0.369500  0.827640  1.0  -0.3251
  N  N242  1  0.689800  0.478500  0.957060  1.0  -0.2738
  N  N243  1  0.758800  0.469300  0.956520  1.0  -0.3373
  N  N244  1  0.715220  0.420610  0.865070  1.0  -0.4394
  N  N245  1  0.552690  0.470660  0.938240  1.0  -0.3109
  N  N246  1  0.487900  0.463800  0.913670  1.0  -0.3346
  N  N247  1  0.560700  0.426700  0.835780  1.0  -0.4772
  N  N248  1  0.338500  0.869500  0.327640  1.0  -0.3251
  N  N249  1  0.189800  0.978500  0.457060  1.0  -0.2738
  N  N250  1  0.258800  0.969300  0.456520  1.0  -0.3373
  N  N251  1  0.215220  0.920610  0.365070  1.0  -0.4394
  N  N252  1  0.052690  0.970660  0.438240  1.0  -0.3109
  N  N253  1  0.987900  0.963800  0.413670  1.0  -0.3346
  N  N254  1  0.060700  0.926700  0.335780  1.0  -0.4772
  N  N255  1  0.661500  0.630500  0.327640  1.0  -0.3246
  N  N256  1  0.810200  0.521500  0.457060  1.0  -0.276
  N  N257  1  0.741200  0.530700  0.456520  1.0  -0.3358
  N  N258  1  0.784780  0.579390  0.365070  1.0  -0.4384
  N  N259  1  0.947310  0.529340  0.438240  1.0  -0.3103
  N  N260  1  0.012100  0.536200  0.413670  1.0  -0.3343
  N  N261  1  0.939300  0.573300  0.335780  1.0  -0.4756
  N  N262  1  0.161500  0.130500  0.827640  1.0  -0.3246
  N  N263  1  0.310200  0.021500  0.957060  1.0  -0.276
  N  N264  1  0.241200  0.030700  0.956520  1.0  -0.3358
  N  N265  1  0.284780  0.079390  0.865070  1.0  -0.4384
  N  N266  1  0.447310  0.029340  0.938240  1.0  -0.3103
  N  N267  1  0.512100  0.036200  0.913670  1.0  -0.3343
  N  N268  1  0.439300  0.073300  0.835780  1.0  -0.4756
  N  N269  1  0.380500  0.088500  0.077640  1.0  -0.3235
  N  N270  1  0.271500  0.939800  0.207060  1.0  -0.2718
  N  N271  1  0.280700  0.008800  0.206520  1.0  -0.3365
  N  N272  1  0.329390  0.965220  0.115070  1.0  -0.4393
  N  N273  1  0.279340  0.802690  0.188240  1.0  -0.3115
  N  N274  1  0.286200  0.737900  0.163670  1.0  -0.3358
  N  N275  1  0.323300  0.810700  0.085780  1.0  -0.4766
  N  N276  1  0.880500  0.588500  0.577640  1.0  -0.3235
  N  N277  1  0.771500  0.439800  0.707060  1.0  -0.2718
  N  N278  1  0.780700  0.508800  0.706520  1.0  -0.3365
  N  N279  1  0.829390  0.465220  0.615070  1.0  -0.4393
  N  N280  1  0.779340  0.302690  0.688240  1.0  -0.3115
  N  N281  1  0.786200  0.237900  0.663670  1.0  -0.3358
  N  N282  1  0.823300  0.310700  0.585780  1.0  -0.4766
  N  N283  1  0.119500  0.911500  0.577640  1.0  -0.3235
  N  N284  1  0.228500  0.060200  0.707060  1.0  -0.2754
  N  N285  1  0.219300  0.991200  0.706520  1.0  -0.3362
  N  N286  1  0.170610  0.034780  0.615070  1.0  -0.4398
  N  N287  1  0.220660  0.197310  0.688240  1.0  -0.3115
  N  N288  1  0.213800  0.262100  0.663670  1.0  -0.3353
  N  N289  1  0.176700  0.189300  0.585780  1.0  -0.4773
  N  N290  1  0.619500  0.411500  0.077640  1.0  -0.3235
  N  N291  1  0.728500  0.560200  0.207060  1.0  -0.2754
  N  N292  1  0.719300  0.491200  0.206520  1.0  -0.3362
  N  N293  1  0.670610  0.534780  0.115070  1.0  -0.4398
  N  N294  1  0.720660  0.697310  0.188240  1.0  -0.3115
  N  N295  1  0.713800  0.762100  0.163670  1.0  -0.3353
  N  N296  1  0.676700  0.689300  0.085780  1.0  -0.4773
  N  N297  1  0.161500  0.630500  0.172360  1.0  -0.3248
  N  N298  1  0.310200  0.521500  0.042940  1.0  -0.2762
  N  N299  1  0.241200  0.530700  0.043480  1.0  -0.3361
  N  N300  1  0.284780  0.579390  0.134930  1.0  -0.4401
  N  N301  1  0.447310  0.529340  0.061760  1.0  -0.3093
  N  N302  1  0.512100  0.536200  0.086330  1.0  -0.3342
  N  N303  1  0.439300  0.573300  0.164220  1.0  -0.4746
  N  N304  1  0.661500  0.130500  0.672360  1.0  -0.3248
  N  N305  1  0.810200  0.021500  0.542940  1.0  -0.2762
  N  N306  1  0.741200  0.030700  0.543480  1.0  -0.3361
  N  N307  1  0.784780  0.079390  0.634930  1.0  -0.4401
  N  N308  1  0.947310  0.029340  0.561760  1.0  -0.3093
  N  N309  1  0.012100  0.036200  0.586330  1.0  -0.3342
  N  N310  1  0.939300  0.073300  0.664220  1.0  -0.4746
  N  N311  1  0.338500  0.369500  0.672360  1.0  -0.3249
  N  N312  1  0.189800  0.478500  0.542940  1.0  -0.2749
  N  N313  1  0.258800  0.469300  0.543480  1.0  -0.3381
  N  N314  1  0.215220  0.420610  0.634930  1.0  -0.4412
  N  N315  1  0.052690  0.470660  0.561760  1.0  -0.3098
  N  N316  1  0.987900  0.463800  0.586330  1.0  -0.3336
  N  N317  1  0.060700  0.426700  0.664220  1.0  -0.4739
  N  N318  1  0.838500  0.869500  0.172360  1.0  -0.3249
  N  N319  1  0.689800  0.978500  0.042940  1.0  -0.2749
  N  N320  1  0.758800  0.969300  0.043480  1.0  -0.3381
  N  N321  1  0.715220  0.920610  0.134930  1.0  -0.4412
  N  N322  1  0.552690  0.970660  0.061760  1.0  -0.3098
  N  N323  1  0.487900  0.963800  0.086330  1.0  -0.3336
  N  N324  1  0.560700  0.926700  0.164220  1.0  -0.4739
  N  N325  1  0.619500  0.911500  0.922360  1.0  -0.3238
  N  N326  1  0.728500  0.060200  0.792940  1.0  -0.2757
  N  N327  1  0.719300  0.991200  0.793480  1.0  -0.3372
  N  N328  1  0.670610  0.034780  0.884930  1.0  -0.4422
  N  N329  1  0.720660  0.197310  0.811760  1.0  -0.3102
  N  N330  1  0.713800  0.262100  0.836330  1.0  -0.335
  N  N331  1  0.676700  0.189300  0.914220  1.0  -0.4745
  N  N332  1  0.119500  0.411500  0.422360  1.0  -0.3238
  N  N333  1  0.228500  0.560200  0.292940  1.0  -0.2757
  N  N334  1  0.219300  0.491200  0.293480  1.0  -0.3372
  N  N335  1  0.170610  0.534780  0.384930  1.0  -0.4422
  N  N336  1  0.220660  0.697310  0.311760  1.0  -0.3102
  N  N337  1  0.213800  0.762100  0.336330  1.0  -0.335
  N  N338  1  0.176700  0.689300  0.414220  1.0  -0.4745
  N  N339  1  0.880500  0.088500  0.422360  1.0  -0.3235
  N  N340  1  0.771500  0.939800  0.292940  1.0  -0.2726
  N  N341  1  0.780700  0.008800  0.293480  1.0  -0.3362
  N  N342  1  0.829390  0.965220  0.384930  1.0  -0.4402
  N  N343  1  0.779340  0.802690  0.311760  1.0  -0.31
  N  N344  1  0.786200  0.737900  0.336330  1.0  -0.335
  N  N345  1  0.823300  0.810700  0.414220  1.0  -0.4745
  N  N346  1  0.380500  0.588500  0.922360  1.0  -0.3235
  N  N347  1  0.271500  0.439800  0.792940  1.0  -0.2726
  N  N348  1  0.280700  0.508800  0.793480  1.0  -0.3362
  N  N349  1  0.329390  0.465220  0.884930  1.0  -0.4402
  N  N350  1  0.279340  0.302690  0.811760  1.0  -0.31
  N  N351  1  0.286200  0.237900  0.836330  1.0  -0.335
  N  N352  1  0.323300  0.310700  0.914220  1.0  -0.4745
