# generated using pymatgen
data_FeH6C9N7
_symmetry_space_group_name_H-M   'P 1'
_cell_length_a   19.62300000
_cell_length_b   19.62300000
_cell_length_c   19.14700000
_cell_angle_alpha   90.00000000
_cell_angle_beta   90.00000000
_cell_angle_gamma   90.00000000
_symmetry_Int_Tables_number   1
_chemical_formula_structural   FeH6C9N7
_chemical_formula_sum   'Fe16 H96 C144 N112'
_cell_volume   7372.78458396
_cell_formula_units_Z   16
loop_
 _symmetry_equiv_pos_site_id
 _symmetry_equiv_pos_as_xyz
  1  'x, y, z'
loop_
 _atom_site_type_symbol
 _atom_site_label
 _atom_site_symmetry_multiplicity
 _atom_site_fract_x
 _atom_site_fract_y
 _atom_site_fract_z
 _atom_site_occupancy
 _atom_site_charge
  Fe  Fe1  1  0.396240  0.521760  0.020030  1.0  0.844
  Fe  Fe2  1  0.896240  0.021760  0.520030  1.0  0.844
  Fe  Fe3  1  0.103760  0.478240  0.520030  1.0  0.8435
  Fe  Fe4  1  0.603760  0.978240  0.020030  1.0  0.8435
  Fe  Fe5  1  0.228240  0.646240  0.270030  1.0  0.8504
  Fe  Fe6  1  0.728240  0.146240  0.770030  1.0  0.8504
  Fe  Fe7  1  0.271760  0.353760  0.770030  1.0  0.8507
  Fe  Fe8  1  0.771760  0.853760  0.270030  1.0  0.8507
  Fe  Fe9  1  0.603760  0.478240  0.979970  1.0  0.8453
  Fe  Fe10  1  0.103760  0.978240  0.479970  1.0  0.8453
  Fe  Fe11  1  0.896240  0.521760  0.479970  1.0  0.8451
  Fe  Fe12  1  0.396240  0.021760  0.979970  1.0  0.8451
  Fe  Fe13  1  0.771760  0.353760  0.729970  1.0  0.8523
  Fe  Fe14  1  0.271760  0.853760  0.229970  1.0  0.8523
  Fe  Fe15  1  0.728240  0.646240  0.229970  1.0  0.8523
  Fe  Fe16  1  0.228240  0.146240  0.729970  1.0  0.8523
  H  H17  1  0.253900  0.467100  0.227600  1.0  0.3097
  H  H18  1  0.445600  0.356900  0.018700  1.0  0.0873
  H  H19  1  0.412400  0.258800  0.071200  1.0  0.0641
  H  H20  1  0.336300  0.256300  0.157500  1.0  0.0952
  H  H21  1  0.283500  0.355400  0.187100  1.0  0.091
  H  H22  1  0.340400  0.798900  0.082000  1.0  0.0525
  H  H23  1  0.753900  0.967100  0.727600  1.0  0.3097
  H  H24  1  0.945600  0.856900  0.518700  1.0  0.0873
  H  H25  1  0.912400  0.758800  0.571200  1.0  0.0641
  H  H26  1  0.836300  0.756300  0.657500  1.0  0.0952
  H  H27  1  0.783500  0.855400  0.687100  1.0  0.091
  H  H28  1  0.840400  0.298900  0.582000  1.0  0.0525
  H  H29  1  0.246100  0.532900  0.727600  1.0  0.3081
  H  H30  1  0.054400  0.643100  0.518700  1.0  0.0865
  H  H31  1  0.087600  0.741200  0.571200  1.0  0.0643
  H  H32  1  0.163700  0.743700  0.657500  1.0  0.094
  H  H33  1  0.216500  0.644600  0.687100  1.0  0.0913
  H  H34  1  0.159600  0.201100  0.582000  1.0  0.0536
  H  H35  1  0.746100  0.032900  0.227600  1.0  0.3081
  H  H36  1  0.554400  0.143100  0.018700  1.0  0.0865
  H  H37  1  0.587600  0.241200  0.071200  1.0  0.0643
  H  H38  1  0.663700  0.243700  0.157500  1.0  0.094
  H  H39  1  0.716500  0.144600  0.187100  1.0  0.0913
  H  H40  1  0.659600  0.701100  0.082000  1.0  0.0536
  H  H41  1  0.282900  0.503900  0.477600  1.0  0.3085
  H  H42  1  0.393100  0.695600  0.268700  1.0  0.0874
  H  H43  1  0.491200  0.662400  0.321200  1.0  0.0635
  H  H44  1  0.493700  0.586300  0.407500  1.0  0.0913
  H  H45  1  0.394600  0.533500  0.437100  1.0  0.0899
  H  H46  1  0.951100  0.590400  0.332000  1.0  0.0513
  H  H47  1  0.782900  0.003900  0.977600  1.0  0.3085
  H  H48  1  0.893100  0.195600  0.768700  1.0  0.0874
  H  H49  1  0.991200  0.162400  0.821200  1.0  0.0635
  H  H50  1  0.993700  0.086300  0.907500  1.0  0.0913
  H  H51  1  0.894600  0.033500  0.937100  1.0  0.0899
  H  H52  1  0.451100  0.090400  0.832000  1.0  0.0513
  H  H53  1  0.217100  0.496100  0.977600  1.0  0.3088
  H  H54  1  0.106900  0.304400  0.768700  1.0  0.0871
  H  H55  1  0.008800  0.337600  0.821200  1.0  0.0633
  H  H56  1  0.006300  0.413700  0.907500  1.0  0.0914
  H  H57  1  0.105400  0.466500  0.937100  1.0  0.0902
  H  H58  1  0.548900  0.409600  0.832000  1.0  0.0516
  H  H59  1  0.717100  0.996100  0.477600  1.0  0.3088
  H  H60  1  0.606900  0.804400  0.268700  1.0  0.0871
  H  H61  1  0.508800  0.837600  0.321200  1.0  0.0633
  H  H62  1  0.506300  0.913700  0.407500  1.0  0.0914
  H  H63  1  0.605400  0.966500  0.437100  1.0  0.0902
  H  H64  1  0.048900  0.909600  0.332000  1.0  0.0516
  H  H65  1  0.746100  0.532900  0.772400  1.0  0.3086
  H  H66  1  0.554400  0.643100  0.981300  1.0  0.0866
  H  H67  1  0.587600  0.741200  0.928800  1.0  0.064
  H  H68  1  0.663700  0.743700  0.842500  1.0  0.0947
  H  H69  1  0.716500  0.644600  0.812900  1.0  0.0909
  H  H70  1  0.659600  0.201100  0.918000  1.0  0.0537
  H  H71  1  0.246100  0.032900  0.272400  1.0  0.3086
  H  H72  1  0.054400  0.143100  0.481300  1.0  0.0866
  H  H73  1  0.087600  0.241200  0.428800  1.0  0.064
  H  H74  1  0.163700  0.243700  0.342500  1.0  0.0947
  H  H75  1  0.216500  0.144600  0.312900  1.0  0.0909
  H  H76  1  0.159600  0.701100  0.418000  1.0  0.0537
  H  H77  1  0.753900  0.467100  0.272400  1.0  0.309
  H  H78  1  0.945600  0.356900  0.481300  1.0  0.0875
  H  H79  1  0.912400  0.258800  0.428800  1.0  0.0638
  H  H80  1  0.836300  0.256300  0.342500  1.0  0.0944
  H  H81  1  0.783500  0.355400  0.312900  1.0  0.0908
  H  H82  1  0.840400  0.798900  0.418000  1.0  0.0526
  H  H83  1  0.253900  0.967100  0.772400  1.0  0.309
  H  H84  1  0.445600  0.856900  0.981300  1.0  0.0875
  H  H85  1  0.412400  0.758800  0.928800  1.0  0.0638
  H  H86  1  0.336300  0.756300  0.842500  1.0  0.0944
  H  H87  1  0.283500  0.855400  0.812900  1.0  0.0908
  H  H88  1  0.340400  0.298900  0.918000  1.0  0.0526
  H  H89  1  0.717100  0.496100  0.522400  1.0  0.3086
  H  H90  1  0.606900  0.304400  0.731300  1.0  0.0873
  H  H91  1  0.508800  0.337600  0.678800  1.0  0.0631
  H  H92  1  0.506300  0.413700  0.592500  1.0  0.0914
  H  H93  1  0.605400  0.466500  0.562900  1.0  0.0901
  H  H94  1  0.048900  0.409600  0.668000  1.0  0.0519
  H  H95  1  0.217100  0.996100  0.022400  1.0  0.3086
  H  H96  1  0.106900  0.804400  0.231300  1.0  0.0873
  H  H97  1  0.008800  0.837600  0.178800  1.0  0.0631
  H  H98  1  0.006300  0.913700  0.092500  1.0  0.0914
  H  H99  1  0.105400  0.966500  0.062900  1.0  0.0901
  H  H100  1  0.548900  0.909600  0.168000  1.0  0.0519
  H  H101  1  0.782900  0.503900  0.022400  1.0  0.3087
  H  H102  1  0.893100  0.695600  0.231300  1.0  0.0877
  H  H103  1  0.991200  0.662400  0.178800  1.0  0.0633
  H  H104  1  0.993700  0.586300  0.092500  1.0  0.0919
  H  H105  1  0.894600  0.533500  0.062900  1.0  0.0898
  H  H106  1  0.451100  0.590400  0.168000  1.0  0.0513
  H  H107  1  0.282900  0.003900  0.522400  1.0  0.3087
  H  H108  1  0.393100  0.195600  0.731300  1.0  0.0877
  H  H109  1  0.491200  0.162400  0.678800  1.0  0.0633
  H  H110  1  0.493700  0.086300  0.592500  1.0  0.0919
  H  H111  1  0.394600  0.033500  0.562900  1.0  0.0898
  H  H112  1  0.951100  0.090400  0.668000  1.0  0.0513
  C  C113  1  0.412200  0.358000  0.053200  1.0  0.0799
  C  C114  1  0.392500  0.299500  0.085500  1.0  -0.101
  C  C115  1  0.347300  0.297100  0.135400  1.0  -0.1228
  C  C116  1  0.317600  0.355500  0.153500  1.0  -0.1597
  C  C117  1  0.336900  0.416800  0.122800  1.0  0.1286
  C  C118  1  0.309900  0.482700  0.142900  1.0  0.279
  C  C119  1  0.298160  0.588530  0.144400  1.0  0.2615
  C  C120  1  0.303150  0.662180  0.135320  1.0  0.2623
  C  C121  1  0.324900  0.761200  0.106800  1.0  0.2743
  C  C122  1  0.912200  0.858000  0.553200  1.0  0.0799
  C  C123  1  0.892500  0.799500  0.585500  1.0  -0.101
  C  C124  1  0.847300  0.797100  0.635400  1.0  -0.1228
  C  C125  1  0.817600  0.855500  0.653500  1.0  -0.1597
  C  C126  1  0.836900  0.916800  0.622800  1.0  0.1286
  C  C127  1  0.809900  0.982700  0.642900  1.0  0.279
  C  C128  1  0.798160  0.088530  0.644400  1.0  0.2615
  C  C129  1  0.803150  0.162180  0.635320  1.0  0.2623
  C  C130  1  0.824900  0.261200  0.606800  1.0  0.2743
  C  C131  1  0.087800  0.642000  0.553200  1.0  0.0797
  C  C132  1  0.107500  0.700500  0.585500  1.0  -0.097
  C  C133  1  0.152700  0.702900  0.635400  1.0  -0.1201
  C  C134  1  0.182400  0.644500  0.653500  1.0  -0.1584
  C  C135  1  0.163100  0.583200  0.622800  1.0  0.1292
  C  C136  1  0.190100  0.517300  0.642900  1.0  0.2792
  C  C137  1  0.201840  0.411470  0.644400  1.0  0.2605
  C  C138  1  0.196850  0.337820  0.635320  1.0  0.262
  C  C139  1  0.175100  0.238800  0.606800  1.0  0.276
  C  C140  1  0.587800  0.142000  0.053200  1.0  0.0797
  C  C141  1  0.607500  0.200500  0.085500  1.0  -0.097
  C  C142  1  0.652700  0.202900  0.135400  1.0  -0.1201
  C  C143  1  0.682400  0.144500  0.153500  1.0  -0.1584
  C  C144  1  0.663100  0.083200  0.122800  1.0  0.1292
  C  C145  1  0.690100  0.017300  0.142900  1.0  0.2792
  C  C146  1  0.701840  0.911470  0.144400  1.0  0.2605
  C  C147  1  0.696850  0.837820  0.135320  1.0  0.262
  C  C148  1  0.675100  0.738800  0.106800  1.0  0.276
  C  C149  1  0.392000  0.662200  0.303200  1.0  0.0791
  C  C150  1  0.450500  0.642500  0.335500  1.0  -0.095
  C  C151  1  0.452900  0.597300  0.385400  1.0  -0.1165
  C  C152  1  0.394500  0.567600  0.403500  1.0  -0.1602
  C  C153  1  0.333200  0.586900  0.372800  1.0  0.1303
  C  C154  1  0.267300  0.559900  0.392900  1.0  0.2786
  C  C155  1  0.161470  0.548160  0.394400  1.0  0.2605
  C  C156  1  0.087820  0.553150  0.385320  1.0  0.2636
  C  C157  1  0.988800  0.574900  0.356800  1.0  0.274
  C  C158  1  0.892000  0.162200  0.803200  1.0  0.0791
  C  C159  1  0.950500  0.142500  0.835500  1.0  -0.095
  C  C160  1  0.952900  0.097300  0.885400  1.0  -0.1165
  C  C161  1  0.894500  0.067600  0.903500  1.0  -0.1602
  C  C162  1  0.833200  0.086900  0.872800  1.0  0.1303
  C  C163  1  0.767300  0.059900  0.892900  1.0  0.2786
  C  C164  1  0.661470  0.048160  0.894400  1.0  0.2605
  C  C165  1  0.587820  0.053150  0.885320  1.0  0.2636
  C  C166  1  0.488800  0.074900  0.856800  1.0  0.274
  C  C167  1  0.108000  0.337800  0.803200  1.0  0.079
  C  C168  1  0.049500  0.357500  0.835500  1.0  -0.0945
  C  C169  1  0.047100  0.402700  0.885400  1.0  -0.1175
  C  C170  1  0.105500  0.432400  0.903500  1.0  -0.1604
  C  C171  1  0.166800  0.413100  0.872800  1.0  0.132
  C  C172  1  0.232700  0.440100  0.892900  1.0  0.2769
  C  C173  1  0.338530  0.451840  0.894400  1.0  0.2613
  C  C174  1  0.412180  0.446850  0.885320  1.0  0.2632
  C  C175  1  0.511200  0.425100  0.856800  1.0  0.2741
  C  C176  1  0.608000  0.837800  0.303200  1.0  0.079
  C  C177  1  0.549500  0.857500  0.335500  1.0  -0.0945
  C  C178  1  0.547100  0.902700  0.385400  1.0  -0.1175
  C  C179  1  0.605500  0.932400  0.403500  1.0  -0.1604
  C  C180  1  0.666800  0.913100  0.372800  1.0  0.132
  C  C181  1  0.732700  0.940100  0.392900  1.0  0.2769
  C  C182  1  0.838530  0.951840  0.394400  1.0  0.2613
  C  C183  1  0.912180  0.946850  0.385320  1.0  0.2632
  C  C184  1  0.011200  0.925100  0.356800  1.0  0.2741
  C  C185  1  0.587800  0.642000  0.946800  1.0  0.0804
  C  C186  1  0.607500  0.700500  0.914500  1.0  -0.0975
  C  C187  1  0.652700  0.702900  0.864600  1.0  -0.1213
  C  C188  1  0.682400  0.644500  0.846500  1.0  -0.1597
  C  C189  1  0.663100  0.583200  0.877200  1.0  0.1298
  C  C190  1  0.690100  0.517300  0.857100  1.0  0.2784
  C  C191  1  0.701840  0.411470  0.855600  1.0  0.2604
  C  C192  1  0.696850  0.337820  0.864680  1.0  0.2623
  C  C193  1  0.675100  0.238800  0.893200  1.0  0.2755
  C  C194  1  0.087800  0.142000  0.446800  1.0  0.0804
  C  C195  1  0.107500  0.200500  0.414500  1.0  -0.0975
  C  C196  1  0.152700  0.202900  0.364600  1.0  -0.1213
  C  C197  1  0.182400  0.144500  0.346500  1.0  -0.1597
  C  C198  1  0.163100  0.083200  0.377200  1.0  0.1298
  C  C199  1  0.190100  0.017300  0.357100  1.0  0.2784
  C  C200  1  0.201840  0.911470  0.355600  1.0  0.2604
  C  C201  1  0.196850  0.837820  0.364680  1.0  0.2623
  C  C202  1  0.175100  0.738800  0.393200  1.0  0.2755
  C  C203  1  0.912200  0.358000  0.446800  1.0  0.0805
  C  C204  1  0.892500  0.299500  0.414500  1.0  -0.1008
  C  C205  1  0.847300  0.297100  0.364600  1.0  -0.122
  C  C206  1  0.817600  0.355500  0.346500  1.0  -0.1591
  C  C207  1  0.836900  0.416800  0.377200  1.0  0.1301
  C  C208  1  0.809900  0.482700  0.357100  1.0  0.2781
  C  C209  1  0.798160  0.588530  0.355600  1.0  0.2602
  C  C210  1  0.803150  0.662180  0.364680  1.0  0.263
  C  C211  1  0.824900  0.761200  0.393200  1.0  0.2747
  C  C212  1  0.412200  0.858000  0.946800  1.0  0.0805
  C  C213  1  0.392500  0.799500  0.914500  1.0  -0.1008
  C  C214  1  0.347300  0.797100  0.864600  1.0  -0.122
  C  C215  1  0.317600  0.855500  0.846500  1.0  -0.1591
  C  C216  1  0.336900  0.916800  0.877200  1.0  0.1301
  C  C217  1  0.309900  0.982700  0.857100  1.0  0.2781
  C  C218  1  0.298160  0.088530  0.855600  1.0  0.2602
  C  C219  1  0.303150  0.162180  0.864680  1.0  0.263
  C  C220  1  0.324900  0.261200  0.893200  1.0  0.2747
  C  C221  1  0.608000  0.337800  0.696800  1.0  0.0799
  C  C222  1  0.549500  0.357500  0.664500  1.0  -0.0945
  C  C223  1  0.547100  0.402700  0.614600  1.0  -0.1164
  C  C224  1  0.605500  0.432400  0.596500  1.0  -0.1583
  C  C225  1  0.666800  0.413100  0.627200  1.0  0.1326
  C  C226  1  0.732700  0.440100  0.607100  1.0  0.2768
  C  C227  1  0.838530  0.451840  0.605600  1.0  0.2605
  C  C228  1  0.912180  0.446850  0.614680  1.0  0.2637
  C  C229  1  0.011200  0.425100  0.643200  1.0  0.2741
  C  C230  1  0.108000  0.837800  0.196800  1.0  0.0799
  C  C231  1  0.049500  0.857500  0.164500  1.0  -0.0945
  C  C232  1  0.047100  0.902700  0.114600  1.0  -0.1164
  C  C233  1  0.105500  0.932400  0.096500  1.0  -0.1583
  C  C234  1  0.166800  0.913100  0.127200  1.0  0.1326
  C  C235  1  0.232700  0.940100  0.107100  1.0  0.2768
  C  C236  1  0.338530  0.951840  0.105600  1.0  0.2605
  C  C237  1  0.412180  0.946850  0.114680  1.0  0.2637
  C  C238  1  0.511200  0.925100  0.143200  1.0  0.2741
  C  C239  1  0.892000  0.662200  0.196800  1.0  0.079
  C  C240  1  0.950500  0.642500  0.164500  1.0  -0.0949
  C  C241  1  0.952900  0.597300  0.114600  1.0  -0.1166
  C  C242  1  0.894500  0.567600  0.096500  1.0  -0.1607
  C  C243  1  0.833200  0.586900  0.127200  1.0  0.1312
  C  C244  1  0.767300  0.559900  0.107100  1.0  0.2774
  C  C245  1  0.661470  0.548160  0.105600  1.0  0.2596
  C  C246  1  0.587820  0.553150  0.114680  1.0  0.2637
  C  C247  1  0.488800  0.574900  0.143200  1.0  0.2735
  C  C248  1  0.392000  0.162200  0.696800  1.0  0.079
  C  C249  1  0.450500  0.142500  0.664500  1.0  -0.0949
  C  C250  1  0.452900  0.097300  0.614600  1.0  -0.1166
  C  C251  1  0.394500  0.067600  0.596500  1.0  -0.1607
  C  C252  1  0.333200  0.086900  0.627200  1.0  0.1312
  C  C253  1  0.267300  0.059900  0.607100  1.0  0.2774
  C  C254  1  0.161470  0.048160  0.605600  1.0  0.2596
  C  C255  1  0.087820  0.053150  0.614680  1.0  0.2637
  C  C256  1  0.988800  0.074900  0.643200  1.0  0.2735
  N  N257  1  0.382930  0.417540  0.071400  1.0  -0.3618
  N  N258  1  0.329190  0.539580  0.107160  1.0  -0.4884
  N  N259  1  0.270500  0.495980  0.198400  1.0  -0.1718
  N  N260  1  0.262400  0.564830  0.198830  1.0  -0.2974
  N  N261  1  0.335000  0.696820  0.084890  1.0  -0.5341
  N  N262  1  0.276320  0.701400  0.184930  1.0  -0.2915
  N  N263  1  0.290980  0.766860  0.166370  1.0  -0.3097
  N  N264  1  0.882930  0.917540  0.571400  1.0  -0.3618
  N  N265  1  0.829190  0.039580  0.607160  1.0  -0.4884
  N  N266  1  0.770500  0.995980  0.698400  1.0  -0.1718
  N  N267  1  0.762400  0.064830  0.698830  1.0  -0.2974
  N  N268  1  0.835000  0.196820  0.584890  1.0  -0.5341
  N  N269  1  0.776320  0.201400  0.684930  1.0  -0.2915
  N  N270  1  0.790980  0.266860  0.666370  1.0  -0.3097
  N  N271  1  0.117070  0.582460  0.571400  1.0  -0.3618
  N  N272  1  0.170810  0.460420  0.607160  1.0  -0.4863
  N  N273  1  0.229500  0.504020  0.698400  1.0  -0.1705
  N  N274  1  0.237600  0.435170  0.698830  1.0  -0.2992
  N  N275  1  0.165000  0.303180  0.584890  1.0  -0.5335
  N  N276  1  0.223680  0.298600  0.684930  1.0  -0.2904
  N  N277  1  0.209020  0.233140  0.666370  1.0  -0.3097
  N  N278  1  0.617070  0.082460  0.071400  1.0  -0.3618
  N  N279  1  0.670810  0.960420  0.107160  1.0  -0.4863
  N  N280  1  0.729500  0.004020  0.198400  1.0  -0.1705
  N  N281  1  0.737600  0.935170  0.198830  1.0  -0.2992
  N  N282  1  0.665000  0.803180  0.084890  1.0  -0.5335
  N  N283  1  0.723680  0.798600  0.184930  1.0  -0.2904
  N  N284  1  0.709020  0.733140  0.166370  1.0  -0.3097
  N  N285  1  0.332460  0.632930  0.321400  1.0  -0.361
  N  N286  1  0.210420  0.579190  0.357160  1.0  -0.4879
  N  N287  1  0.254020  0.520500  0.448400  1.0  -0.1744
  N  N288  1  0.185170  0.512400  0.448830  1.0  -0.2954
  N  N289  1  0.053180  0.585000  0.334890  1.0  -0.5316
  N  N290  1  0.048600  0.526320  0.434930  1.0  -0.2923
  N  N291  1  0.983140  0.540980  0.416370  1.0  -0.3105
  N  N292  1  0.832460  0.132930  0.821400  1.0  -0.361
  N  N293  1  0.710420  0.079190  0.857160  1.0  -0.4879
  N  N294  1  0.754020  0.020500  0.948400  1.0  -0.1744
  N  N295  1  0.685170  0.012400  0.948830  1.0  -0.2954
  N  N296  1  0.553180  0.085000  0.834890  1.0  -0.5316
  N  N297  1  0.548600  0.026320  0.934930  1.0  -0.2923
  N  N298  1  0.483140  0.040980  0.916370  1.0  -0.3105
  N  N299  1  0.167540  0.367070  0.821400  1.0  -0.3593
  N  N300  1  0.289580  0.420810  0.857160  1.0  -0.487
  N  N301  1  0.245980  0.479500  0.948400  1.0  -0.1737
  N  N302  1  0.314830  0.487600  0.948830  1.0  -0.2932
  N  N303  1  0.446820  0.415000  0.834890  1.0  -0.5339
  N  N304  1  0.451400  0.473680  0.934930  1.0  -0.2943
  N  N305  1  0.516860  0.459020  0.916370  1.0  -0.3099
  N  N306  1  0.667540  0.867070  0.321400  1.0  -0.3593
  N  N307  1  0.789580  0.920810  0.357160  1.0  -0.487
  N  N308  1  0.745980  0.979500  0.448400  1.0  -0.1737
  N  N309  1  0.814830  0.987600  0.448830  1.0  -0.2932
  N  N310  1  0.946820  0.915000  0.334890  1.0  -0.5339
  N  N311  1  0.951400  0.973680  0.434930  1.0  -0.2943
  N  N312  1  0.016860  0.959020  0.416370  1.0  -0.3099
  N  N313  1  0.617070  0.582460  0.928600  1.0  -0.3624
  N  N314  1  0.670810  0.460420  0.892840  1.0  -0.4862
  N  N315  1  0.729500  0.504020  0.801600  1.0  -0.1707
  N  N316  1  0.737600  0.435170  0.801170  1.0  -0.3001
  N  N317  1  0.665000  0.303180  0.915110  1.0  -0.5356
  N  N318  1  0.723680  0.298600  0.815070  1.0  -0.2918
  N  N319  1  0.709020  0.233140  0.833630  1.0  -0.3094
  N  N320  1  0.117070  0.082460  0.428600  1.0  -0.3624
  N  N321  1  0.170810  0.960420  0.392840  1.0  -0.4862
  N  N322  1  0.229500  0.004020  0.301600  1.0  -0.1707
  N  N323  1  0.237600  0.935170  0.301170  1.0  -0.3001
  N  N324  1  0.165000  0.803180  0.415110  1.0  -0.5356
  N  N325  1  0.223680  0.798600  0.315070  1.0  -0.2918
  N  N326  1  0.209020  0.733140  0.333630  1.0  -0.3094
  N  N327  1  0.882930  0.417540  0.428600  1.0  -0.3621
  N  N328  1  0.829190  0.539580  0.392840  1.0  -0.4884
  N  N329  1  0.770500  0.495980  0.301600  1.0  -0.1725
  N  N330  1  0.762400  0.564830  0.301170  1.0  -0.298
  N  N331  1  0.835000  0.696820  0.415110  1.0  -0.5335
  N  N332  1  0.776320  0.701400  0.315070  1.0  -0.2915
  N  N333  1  0.790980  0.766860  0.333630  1.0  -0.309
  N  N334  1  0.382930  0.917540  0.928600  1.0  -0.3621
  N  N335  1  0.329190  0.039580  0.892840  1.0  -0.4884
  N  N336  1  0.270500  0.995980  0.801600  1.0  -0.1725
  N  N337  1  0.262400  0.064830  0.801170  1.0  -0.298
  N  N338  1  0.335000  0.196820  0.915110  1.0  -0.5335
  N  N339  1  0.276320  0.201400  0.815070  1.0  -0.2915
  N  N340  1  0.290980  0.266860  0.833630  1.0  -0.309
  N  N341  1  0.667540  0.367070  0.678600  1.0  -0.3598
  N  N342  1  0.789580  0.420810  0.642840  1.0  -0.4875
  N  N343  1  0.745980  0.479500  0.551600  1.0  -0.1732
  N  N344  1  0.814830  0.487600  0.551170  1.0  -0.2947
  N  N345  1  0.946820  0.415000  0.665110  1.0  -0.5337
  N  N346  1  0.951400  0.473680  0.565070  1.0  -0.2936
  N  N347  1  0.016860  0.459020  0.583630  1.0  -0.3101
  N  N348  1  0.167540  0.867070  0.178600  1.0  -0.3598
  N  N349  1  0.289580  0.920810  0.142840  1.0  -0.4875
  N  N350  1  0.245980  0.979500  0.051600  1.0  -0.1732
  N  N351  1  0.314830  0.987600  0.051170  1.0  -0.2947
  N  N352  1  0.446820  0.915000  0.165110  1.0  -0.5337
  N  N353  1  0.451400  0.973680  0.065070  1.0  -0.2936
  N  N354  1  0.516860  0.959020  0.083630  1.0  -0.3101
  N  N355  1  0.832460  0.632930  0.178600  1.0  -0.3613
  N  N356  1  0.710420  0.579190  0.142840  1.0  -0.4889
  N  N357  1  0.754020  0.520500  0.051600  1.0  -0.1756
  N  N358  1  0.685170  0.512400  0.051170  1.0  -0.2963
  N  N359  1  0.553180  0.585000  0.165110  1.0  -0.5325
  N  N360  1  0.548600  0.526320  0.065070  1.0  -0.293
  N  N361  1  0.483140  0.540980  0.083630  1.0  -0.3103
  N  N362  1  0.332460  0.132930  0.678600  1.0  -0.3613
  N  N363  1  0.210420  0.079190  0.642840  1.0  -0.4889
  N  N364  1  0.254020  0.020500  0.551600  1.0  -0.1756
  N  N365  1  0.185170  0.012400  0.551170  1.0  -0.2963
  N  N366  1  0.053180  0.085000  0.665110  1.0  -0.5325
  N  N367  1  0.048600  0.026320  0.565070  1.0  -0.293
  N  N368  1  0.983140  0.040980  0.583630  1.0  -0.3103
