# generated using pymatgen
data_AgH12C14N4O
_symmetry_space_group_name_H-M   'P 1'
_cell_length_a   7.93410000
_cell_length_b   11.55000000
_cell_length_c   18.11570000
_cell_angle_alpha   90.00000000
_cell_angle_beta   90.00000000
_cell_angle_gamma   90.00000000
_symmetry_Int_Tables_number   1
_chemical_formula_structural   AgH12C14N4O
_chemical_formula_sum   'Ag4 H48 C56 N16 O4'
_cell_volume   1660.10200552
_cell_formula_units_Z   4
loop_
 _symmetry_equiv_pos_site_id
 _symmetry_equiv_pos_as_xyz
  1  'x, y, z'
loop_
 _atom_site_type_symbol
 _atom_site_label
 _atom_site_symmetry_multiplicity
 _atom_site_fract_x
 _atom_site_fract_y
 _atom_site_fract_z
 _atom_site_occupancy
 _atom_site_charge
  Ag  Ag1  1  0.500000  0.500000  0.098980  1.0  0.368
  Ag  Ag2  1  0.500000  0.500000  0.901020  1.0  0.3702
  Ag  Ag3  1  0.000000  0.000000  0.401020  1.0  0.3702
  Ag  Ag4  1  0.000000  0.000000  0.598980  1.0  0.368
  H  H5  1  0.424800  0.783800  0.307800  1.0  0.0915
  H  H6  1  0.473000  0.697800  0.193700  1.0  0.0904
  H  H7  1  0.235600  0.964100  0.092900  1.0  0.0906
  H  H8  1  0.192600  0.052400  0.206500  1.0  0.0819
  H  H9  1  0.290000  0.050000  0.333000  1.0  0.3142
  H  H10  1  0.317000  0.955000  0.368000  1.0  0.321
  H  H11  1  0.575200  0.216200  0.307800  1.0  0.0914
  H  H12  1  0.527000  0.302200  0.193700  1.0  0.0907
  H  H13  1  0.764400  0.035900  0.092900  1.0  0.0913
  H  H14  1  0.807400  0.947600  0.206500  1.0  0.0817
  H  H15  1  0.710000  0.950000  0.333000  1.0  0.3104
  H  H16  1  0.683000  0.045000  0.368000  1.0  0.3209
  H  H17  1  0.575200  0.216200  0.692200  1.0  0.0923
  H  H18  1  0.527000  0.302200  0.806300  1.0  0.0907
  H  H19  1  0.764400  0.035900  0.907100  1.0  0.0911
  H  H20  1  0.807400  0.947600  0.793500  1.0  0.0815
  H  H21  1  0.710000  0.950000  0.667000  1.0  0.3108
  H  H22  1  0.683000  0.045000  0.632000  1.0  0.318
  H  H23  1  0.424800  0.783800  0.692200  1.0  0.0926
  H  H24  1  0.473000  0.697800  0.806300  1.0  0.0905
  H  H25  1  0.235600  0.964100  0.907100  1.0  0.0909
  H  H26  1  0.192600  0.052400  0.793500  1.0  0.0815
  H  H27  1  0.290000  0.050000  0.667000  1.0  0.3152
  H  H28  1  0.317000  0.955000  0.632000  1.0  0.318
  H  H29  1  0.075200  0.283800  0.192200  1.0  0.0925
  H  H30  1  0.027000  0.197800  0.306300  1.0  0.0903
  H  H31  1  0.264400  0.464100  0.407100  1.0  0.091
  H  H32  1  0.307400  0.552400  0.293500  1.0  0.0819
  H  H33  1  0.210000  0.550000  0.167000  1.0  0.3142
  H  H34  1  0.183000  0.455000  0.132000  1.0  0.3175
  H  H35  1  0.924800  0.716200  0.192200  1.0  0.0923
  H  H36  1  0.973000  0.802200  0.306300  1.0  0.0906
  H  H37  1  0.735600  0.535900  0.407100  1.0  0.0913
  H  H38  1  0.692600  0.447600  0.293500  1.0  0.0817
  H  H39  1  0.790000  0.450000  0.167000  1.0  0.3112
  H  H40  1  0.817000  0.545000  0.132000  1.0  0.318
  H  H41  1  0.924800  0.716200  0.807800  1.0  0.0914
  H  H42  1  0.973000  0.802200  0.693700  1.0  0.0906
  H  H43  1  0.735600  0.535900  0.592900  1.0  0.0911
  H  H44  1  0.692600  0.447600  0.706500  1.0  0.0817
  H  H45  1  0.790000  0.450000  0.833000  1.0  0.3104
  H  H46  1  0.817000  0.545000  0.868000  1.0  0.3204
  H  H47  1  0.075200  0.283800  0.807800  1.0  0.0915
  H  H48  1  0.027000  0.197800  0.693700  1.0  0.0902
  H  H49  1  0.264400  0.464100  0.592900  1.0  0.0911
  H  H50  1  0.307400  0.552400  0.706500  1.0  0.0824
  H  H51  1  0.210000  0.550000  0.833000  1.0  0.3135
  H  H52  1  0.183000  0.455000  0.868000  1.0  0.3208
  C  C53  1  0.305000  0.927500  0.268430  1.0  0.2232
  C  C54  1  0.387400  0.821100  0.264000  1.0  -0.1713
  C  C55  1  0.414800  0.769600  0.196250  1.0  -0.0993
  C  C56  1  0.358400  0.821400  0.132080  1.0  -0.1484
  C  C57  1  0.274900  0.927600  0.136600  1.0  -0.0583
  C  C58  1  0.249100  0.980000  0.204100  1.0  -0.178
  C  C59  1  0.384800  0.770700  0.059190  1.0  0.2625
  C  C60  1  0.695000  0.072500  0.268430  1.0  0.2235
  C  C61  1  0.612600  0.178900  0.264000  1.0  -0.1725
  C  C62  1  0.585200  0.230400  0.196250  1.0  -0.0973
  C  C63  1  0.641600  0.178600  0.132080  1.0  -0.1475
  C  C64  1  0.725100  0.072400  0.136600  1.0  -0.0583
  C  C65  1  0.750900  0.020000  0.204100  1.0  -0.1791
  C  C66  1  0.615200  0.229300  0.059190  1.0  0.2627
  C  C67  1  0.695000  0.072500  0.731570  1.0  0.2243
  C  C68  1  0.612600  0.178900  0.736000  1.0  -0.1724
  C  C69  1  0.585200  0.230400  0.803750  1.0  -0.097
  C  C70  1  0.641600  0.178600  0.867920  1.0  -0.1482
  C  C71  1  0.725100  0.072400  0.863400  1.0  -0.0561
  C  C72  1  0.750900  0.020000  0.795900  1.0  -0.1788
  C  C73  1  0.615200  0.229300  0.940810  1.0  0.2627
  C  C74  1  0.305000  0.927500  0.731570  1.0  0.2238
  C  C75  1  0.387400  0.821100  0.736000  1.0  -0.1711
  C  C76  1  0.414800  0.769600  0.803750  1.0  -0.0992
  C  C77  1  0.358400  0.821400  0.867920  1.0  -0.1479
  C  C78  1  0.274900  0.927600  0.863400  1.0  -0.058
  C  C79  1  0.249100  0.980000  0.795900  1.0  -0.1771
  C  C80  1  0.384800  0.770700  0.940810  1.0  0.2624
  C  C81  1  0.195000  0.427500  0.231570  1.0  0.2244
  C  C82  1  0.112600  0.321100  0.236000  1.0  -0.1717
  C  C83  1  0.085200  0.269600  0.303750  1.0  -0.0983
  C  C84  1  0.141600  0.321400  0.367920  1.0  -0.148
  C  C85  1  0.225100  0.427600  0.363400  1.0  -0.057
  C  C86  1  0.250900  0.480000  0.295900  1.0  -0.1772
  C  C87  1  0.115200  0.270700  0.440810  1.0  0.2626
  C  C88  1  0.805000  0.572500  0.231570  1.0  0.2237
  C  C89  1  0.887400  0.678900  0.236000  1.0  -0.1715
  C  C90  1  0.914800  0.730400  0.303750  1.0  -0.0983
  C  C91  1  0.858400  0.678600  0.367920  1.0  -0.1482
  C  C92  1  0.774900  0.572400  0.363400  1.0  -0.0573
  C  C93  1  0.749100  0.520000  0.295900  1.0  -0.1786
  C  C94  1  0.884800  0.729300  0.440810  1.0  0.2624
  C  C95  1  0.805000  0.572500  0.768430  1.0  0.2231
  C  C96  1  0.887400  0.678900  0.764000  1.0  -0.1717
  C  C97  1  0.914800  0.730400  0.696250  1.0  -0.0987
  C  C98  1  0.858400  0.678600  0.632080  1.0  -0.1474
  C  C99  1  0.774900  0.572400  0.636600  1.0  -0.0579
  C  C100  1  0.749100  0.520000  0.704100  1.0  -0.1789
  C  C101  1  0.884800  0.729300  0.559190  1.0  0.2626
  C  C102  1  0.195000  0.427500  0.768430  1.0  0.2237
  C  C103  1  0.112600  0.321100  0.764000  1.0  -0.172
  C  C104  1  0.085200  0.269600  0.696250  1.0  -0.0982
  C  C105  1  0.141600  0.321400  0.632080  1.0  -0.1485
  C  C106  1  0.225100  0.427600  0.636600  1.0  -0.0589
  C  C107  1  0.250900  0.480000  0.704100  1.0  -0.1784
  C  C108  1  0.115200  0.270700  0.559190  1.0  0.2627
  N  N109  1  0.273500  0.982300  0.336910  1.0  -0.6024
  N  N110  1  0.438200  0.669600  0.039040  1.0  -0.2864
  N  N111  1  0.726500  0.017700  0.336910  1.0  -0.6045
  N  N112  1  0.561800  0.330400  0.039040  1.0  -0.2872
  N  N113  1  0.726500  0.017700  0.663090  1.0  -0.6004
  N  N114  1  0.561800  0.330400  0.960960  1.0  -0.285
  N  N115  1  0.273500  0.982300  0.663090  1.0  -0.5982
  N  N116  1  0.438200  0.669600  0.960960  1.0  -0.2847
  N  N117  1  0.226500  0.482300  0.163090  1.0  -0.6012
  N  N118  1  0.061800  0.169600  0.460960  1.0  -0.2873
  N  N119  1  0.773500  0.517700  0.163090  1.0  -0.5976
  N  N120  1  0.938200  0.830400  0.460960  1.0  -0.2867
  N  N121  1  0.773500  0.517700  0.836910  1.0  -0.6026
  N  N122  1  0.938200  0.830400  0.539040  1.0  -0.2852
  N  N123  1  0.226500  0.482300  0.836910  1.0  -0.604
  N  N124  1  0.061800  0.169600  0.539040  1.0  -0.2855
  O  O125  1  0.350000  0.839000  0.000000  1.0  -0.2306
  O  O126  1  0.650000  0.161000  0.000000  1.0  -0.2351
  O  O127  1  0.150000  0.339000  0.500000  1.0  -0.2328
  O  O128  1  0.850000  0.661000  0.500000  1.0  -0.2335
