# generated using pymatgen
data_CdH26C26N4O5
_symmetry_space_group_name_H-M   'P 1'
_cell_length_a   9.33450000
_cell_length_b   12.04270000
_cell_length_c   27.51400000
_cell_angle_alpha   90.00000000
_cell_angle_beta   90.00000000
_cell_angle_gamma   112.80300000
_symmetry_Int_Tables_number   1
_chemical_formula_structural   CdH26C26N4O5
_chemical_formula_sum   'Cd4 H104 C104 N16 O20'
_cell_volume   2851.18604615
_cell_formula_units_Z   4
loop_
 _symmetry_equiv_pos_site_id
 _symmetry_equiv_pos_as_xyz
  1  'x, y, z'
loop_
 _atom_site_type_symbol
 _atom_site_label
 _atom_site_symmetry_multiplicity
 _atom_site_fract_x
 _atom_site_fract_y
 _atom_site_fract_z
 _atom_site_occupancy
 _atom_site_charge
  Cd  Cd1  1  0.649160  0.000000  0.500000  1.0  0.9548
  Cd  Cd2  1  0.350840  0.000000  0.000000  1.0  0.955
  Cd  Cd3  1  0.744040  0.488080  0.250000  1.0  0.9702
  Cd  Cd4  1  0.255960  0.511920  0.750000  1.0  0.9722
  H  H5  1  0.742900  0.628200  0.509000  1.0  0.0988
  H  H6  1  0.889300  0.515400  0.493900  1.0  0.114
  H  H7  1  0.134800  0.751600  0.393400  1.0  0.1158
  H  H8  1  0.979700  0.862200  0.406900  1.0  0.0915
  H  H9  1  0.413300  0.645800  0.447400  1.0  0.1168
  H  H10  1  0.590900  0.646200  0.389600  1.0  0.0908
  H  H11  1  0.252600  0.520600  0.291100  1.0  0.1038
  H  H12  1  0.074600  0.523400  0.349600  1.0  0.1157
  H  H13  1  0.478600  0.237600  0.259100  1.0  0.1286
  H  H14  1  0.320500  0.238800  0.240300  1.0  0.1357
  H  H15  1  0.367100  0.130400  0.227600  1.0  0.1268
  H  H16  1  0.745300  0.455200  0.125700  1.0  0.1003
  H  H17  1  0.526400  0.325000  0.076300  1.0  0.138
  H  H18  1  0.273900  0.136000  0.096600  1.0  0.0961
  H  H19  1  0.243300  0.095200  0.151100  1.0  0.0782
  H  H20  1  0.149700  0.243800  0.166300  1.0  0.0723
  H  H21  1  0.186100  0.290000  0.112700  1.0  0.0809
  H  H22  1  0.995000  0.111400  0.083600  1.0  0.0907
  H  H23  1  0.962500  0.059000  0.136600  1.0  0.0793
  H  H24  1  0.906400  0.263200  0.106200  1.0  0.0864
  H  H25  1  0.871700  0.209000  0.158700  1.0  0.0907
  H  H26  1  0.618300  0.004800  0.168400  1.0  0.142
  H  H27  1  0.393800  0.910800  0.115800  1.0  0.1019
  H  H28  1  0.697200  0.155600  0.994100  1.0  0.1393
  H  H29  1  0.725400  0.267200  0.027800  1.0  0.1378
  H  H30  1  0.847900  0.207800  0.026100  1.0  0.1295
  H  H31  1  0.257100  0.371800  0.009000  1.0  0.0992
  H  H32  1  0.110700  0.484600  0.993900  1.0  0.1139
  H  H33  1  0.865200  0.248400  0.893400  1.0  0.1155
  H  H34  1  0.020300  0.137800  0.906900  1.0  0.0914
  H  H35  1  0.586700  0.354200  0.947400  1.0  0.1171
  H  H36  1  0.409100  0.353800  0.889600  1.0  0.0905
  H  H37  1  0.747400  0.479400  0.791100  1.0  0.1039
  H  H38  1  0.925400  0.476600  0.849600  1.0  0.1159
  H  H39  1  0.521400  0.762400  0.759100  1.0  0.1289
  H  H40  1  0.679500  0.761200  0.740300  1.0  0.136
  H  H41  1  0.632900  0.869600  0.727600  1.0  0.1264
  H  H42  1  0.254700  0.544800  0.625700  1.0  0.0999
  H  H43  1  0.473600  0.675000  0.576300  1.0  0.1377
  H  H44  1  0.726100  0.864000  0.596600  1.0  0.0963
  H  H45  1  0.756700  0.904800  0.651100  1.0  0.0771
  H  H46  1  0.850300  0.756200  0.666300  1.0  0.0732
  H  H47  1  0.813900  0.710000  0.612700  1.0  0.0814
  H  H48  1  0.005000  0.888600  0.583600  1.0  0.0912
  H  H49  1  0.037500  0.941000  0.636600  1.0  0.0782
  H  H50  1  0.093600  0.736800  0.606200  1.0  0.087
  H  H51  1  0.128300  0.791000  0.658700  1.0  0.0908
  H  H52  1  0.381700  0.995200  0.668400  1.0  0.142
  H  H53  1  0.606200  0.089200  0.615800  1.0  0.1021
  H  H54  1  0.302800  0.844400  0.494100  1.0  0.139
  H  H55  1  0.274600  0.732800  0.527800  1.0  0.1369
  H  H56  1  0.152100  0.792200  0.526100  1.0  0.1262
  H  H57  1  0.885300  0.628200  0.991000  1.0  0.0994
  H  H58  1  0.626100  0.515400  0.006100  1.0  0.1139
  H  H59  1  0.616800  0.751600  0.106600  1.0  0.116
  H  H60  1  0.882500  0.862200  0.093100  1.0  0.0916
  H  H61  1  0.232500  0.645800  0.052600  1.0  0.1161
  H  H62  1  0.055300  0.646200  0.110400  1.0  0.0909
  H  H63  1  0.268000  0.520600  0.208900  1.0  0.1033
  H  H64  1  0.448800  0.523400  0.150400  1.0  0.1156
  H  H65  1  0.759000  0.237600  0.240900  1.0  0.1281
  H  H66  1  0.918300  0.238800  0.259700  1.0  0.1357
  H  H67  1  0.763300  0.130400  0.272400  1.0  0.1275
  H  H68  1  0.709900  0.455200  0.374300  1.0  0.1005
  H  H69  1  0.798600  0.325000  0.423700  1.0  0.1371
  H  H70  1  0.862100  0.136000  0.403400  1.0  0.0965
  H  H71  1  0.851900  0.095200  0.348900  1.0  0.0768
  H  H72  1  0.094100  0.243800  0.333700  1.0  0.0726
  H  H73  1  0.103900  0.290000  0.387300  1.0  0.0808
  H  H74  1  0.116400  0.111400  0.416400  1.0  0.0904
  H  H75  1  0.096500  0.059000  0.363400  1.0  0.0765
  H  H76  1  0.356800  0.263200  0.393800  1.0  0.0866
  H  H77  1  0.337300  0.209000  0.341300  1.0  0.0902
  H  H78  1  0.386500  0.004800  0.331600  1.0  0.1422
  H  H79  1  0.517000  0.910800  0.384200  1.0  0.1014
  H  H80  1  0.458400  0.155600  0.505900  1.0  0.1405
  H  H81  1  0.541800  0.267200  0.472200  1.0  0.1375
  H  H82  1  0.359900  0.207800  0.473900  1.0  0.1262
  H  H83  1  0.114700  0.371800  0.491000  1.0  0.0995
  H  H84  1  0.373900  0.484600  0.506100  1.0  0.1141
  H  H85  1  0.383200  0.248400  0.606600  1.0  0.1162
  H  H86  1  0.117500  0.137800  0.593100  1.0  0.0919
  H  H87  1  0.767500  0.354200  0.552600  1.0  0.1158
  H  H88  1  0.944700  0.353800  0.610400  1.0  0.0908
  H  H89  1  0.732000  0.479400  0.708900  1.0  0.1038
  H  H90  1  0.551200  0.476600  0.650400  1.0  0.1156
  H  H91  1  0.241000  0.762400  0.740900  1.0  0.1282
  H  H92  1  0.081700  0.761200  0.759700  1.0  0.1358
  H  H93  1  0.236700  0.869600  0.772400  1.0  0.1266
  H  H94  1  0.290100  0.544800  0.874300  1.0  0.1001
  H  H95  1  0.201400  0.675000  0.923700  1.0  0.1378
  H  H96  1  0.137900  0.864000  0.903400  1.0  0.0959
  H  H97  1  0.148100  0.904800  0.848900  1.0  0.0796
  H  H98  1  0.905900  0.756200  0.833700  1.0  0.073
  H  H99  1  0.896100  0.710000  0.887300  1.0  0.0823
  H  H100  1  0.883600  0.888600  0.916400  1.0  0.0903
  H  H101  1  0.903500  0.941000  0.863400  1.0  0.0793
  H  H102  1  0.643200  0.736800  0.893800  1.0  0.0876
  H  H103  1  0.662700  0.791000  0.841300  1.0  0.0905
  H  H104  1  0.613500  0.995200  0.831600  1.0  0.1424
  H  H105  1  0.483000  0.089200  0.884200  1.0  0.1018
  H  H106  1  0.541600  0.844400  0.005900  1.0  0.1392
  H  H107  1  0.458200  0.732800  0.972200  1.0  0.1365
  H  H108  1  0.640100  0.792200  0.973900  1.0  0.1296
  C  C109  1  0.756700  0.834000  0.469200  1.0  0.6561
  C  C110  1  0.846700  0.755000  0.459600  1.0  -0.1935
  C  C111  1  0.820400  0.653000  0.485500  1.0  0.0019
  C  C112  1  0.909200  0.586400  0.476800  1.0  -0.2383
  C  C113  1  0.025700  0.623800  0.443400  1.0  0.2907
  C  C114  1  0.055700  0.726800  0.416400  1.0  -0.2362
  C  C115  1  0.963100  0.792800  0.424800  1.0  0.02
  C  C116  1  0.225500  0.576600  0.404200  1.0  0.2703
  C  C117  1  0.380500  0.618400  0.416100  1.0  -0.2325
  C  C118  1  0.486200  0.619600  0.381500  1.0  -0.0098
  C  C119  1  0.439700  0.582000  0.334900  1.0  -0.1597
  C  C120  1  0.285300  0.545200  0.322700  1.0  -0.0229
  C  C121  1  0.178600  0.545200  0.357900  1.0  -0.2299
  C  C122  1  0.553900  0.568600  0.298800  1.0  0.6362
  C  C123  1  0.405600  0.215800  0.232700  1.0  -0.4153
  C  C124  1  0.484100  0.279000  0.187600  1.0  0.3442
  C  C125  1  0.655000  0.395400  0.137500  1.0  0.0431
  C  C126  1  0.534800  0.323800  0.110000  1.0  -0.1541
  C  C127  1  0.272700  0.164400  0.129600  1.0  -0.0184
  C  C128  1  0.154200  0.218800  0.133000  1.0  -0.1362
  C  C129  1  0.992800  0.132400  0.117600  1.0  -0.1502
  C  C130  1  0.873900  0.188800  0.124600  1.0  -0.0218
  C  C131  1  0.609400  0.024800  0.136200  1.0  -0.1651
  C  C132  1  0.485700  0.973800  0.107000  1.0  0.0451
  C  C133  1  0.656900  0.110800  0.064900  1.0  0.3335
  C  C134  1  0.739100  0.192600  0.024700  1.0  -0.428
  C  C135  1  0.243300  0.166000  0.969200  1.0  0.658
  C  C136  1  0.153300  0.245000  0.959600  1.0  -0.1918
  C  C137  1  0.179600  0.347000  0.985500  1.0  -0.0027
  C  C138  1  0.090800  0.413600  0.976800  1.0  -0.238
  C  C139  1  0.974300  0.376200  0.943400  1.0  0.2899
  C  C140  1  0.944300  0.273200  0.916400  1.0  -0.2348
  C  C141  1  0.036900  0.207200  0.924800  1.0  0.0191
  C  C142  1  0.774500  0.423400  0.904200  1.0  0.2701
  C  C143  1  0.619500  0.381600  0.916100  1.0  -0.2332
  C  C144  1  0.513800  0.380400  0.881500  1.0  -0.0059
  C  C145  1  0.560300  0.418000  0.834900  1.0  -0.1607
  C  C146  1  0.714700  0.454800  0.822700  1.0  -0.0226
  C  C147  1  0.821400  0.454800  0.857900  1.0  -0.2303
  C  C148  1  0.446100  0.431400  0.798800  1.0  0.6367
  C  C149  1  0.594400  0.784200  0.732700  1.0  -0.4148
  C  C150  1  0.515900  0.721000  0.687600  1.0  0.3448
  C  C151  1  0.345000  0.604600  0.637500  1.0  0.0417
  C  C152  1  0.465200  0.676200  0.610000  1.0  -0.1543
  C  C153  1  0.727300  0.835600  0.629600  1.0  -0.0165
  C  C154  1  0.845800  0.781200  0.633000  1.0  -0.1362
  C  C155  1  0.007200  0.867600  0.617600  1.0  -0.1493
  C  C156  1  0.126100  0.811200  0.624600  1.0  -0.0212
  C  C157  1  0.390600  0.975200  0.636200  1.0  -0.1637
  C  C158  1  0.514300  0.026200  0.607000  1.0  0.0451
  C  C159  1  0.343100  0.889200  0.564900  1.0  0.3333
  C  C160  1  0.260900  0.807400  0.524700  1.0  -0.4297
  C  C161  1  0.077300  0.834000  0.030800  1.0  0.6577
  C  C162  1  0.908300  0.755000  0.040400  1.0  -0.1915
  C  C163  1  0.832600  0.653000  0.014500  1.0  -0.0021
  C  C164  1  0.677200  0.586400  0.023200  1.0  -0.2371
  C  C165  1  0.598100  0.623800  0.056600  1.0  0.2902
  C  C166  1  0.671100  0.726800  0.083600  1.0  -0.2364
  C  C167  1  0.829700  0.792800  0.075200  1.0  0.0202
  C  C168  1  0.351100  0.576600  0.095800  1.0  0.2709
  C  C169  1  0.237900  0.618400  0.083900  1.0  -0.2341
  C  C170  1  0.133400  0.619600  0.118500  1.0  -0.0078
  C  C171  1  0.142300  0.582000  0.165100  1.0  -0.1607
  C  C172  1  0.259900  0.545200  0.177300  1.0  -0.0209
  C  C173  1  0.366600  0.545200  0.142100  1.0  -0.23
  C  C174  1  0.014700  0.568600  0.201200  1.0  0.6352
  C  C175  1  0.810200  0.215800  0.267300  1.0  -0.4159
  C  C176  1  0.794900  0.279000  0.312400  1.0  0.3448
  C  C177  1  0.740400  0.395400  0.362500  1.0  0.0412
  C  C178  1  0.789000  0.323800  0.390000  1.0  -0.1541
  C  C179  1  0.891700  0.164400  0.370400  1.0  -0.0183
  C  C180  1  0.064600  0.218800  0.367000  1.0  -0.1368
  C  C181  1  0.139600  0.132400  0.382400  1.0  -0.1506
  C  C182  1  0.314900  0.188800  0.375400  1.0  -0.0226
  C  C183  1  0.415400  0.024800  0.363800  1.0  -0.1648
  C  C184  1  0.488100  0.973800  0.393000  1.0  0.0435
  C  C185  1  0.453900  0.110800  0.435100  1.0  0.3342
  C  C186  1  0.453500  0.192600  0.475300  1.0  -0.4271
  C  C187  1  0.922700  0.166000  0.530800  1.0  0.6565
  C  C188  1  0.091700  0.245000  0.540400  1.0  -0.1932
  C  C189  1  0.167400  0.347000  0.514500  1.0  0.0021
  C  C190  1  0.322800  0.413600  0.523200  1.0  -0.2355
  C  C191  1  0.401900  0.376200  0.556600  1.0  0.29
  C  C192  1  0.328900  0.273200  0.583600  1.0  -0.2372
  C  C193  1  0.170300  0.207200  0.575200  1.0  0.0187
  C  C194  1  0.648900  0.423400  0.595800  1.0  0.2709
  C  C195  1  0.762100  0.381600  0.583900  1.0  -0.2333
  C  C196  1  0.866600  0.380400  0.618500  1.0  -0.0105
  C  C197  1  0.857700  0.418000  0.665100  1.0  -0.1605
  C  C198  1  0.740100  0.454800  0.677300  1.0  -0.0183
  C  C199  1  0.633400  0.454800  0.642100  1.0  -0.2296
  C  C200  1  0.985300  0.431400  0.701200  1.0  0.6364
  C  C201  1  0.189800  0.784200  0.767300  1.0  -0.4165
  C  C202  1  0.205100  0.721000  0.812400  1.0  0.3444
  C  C203  1  0.259600  0.604600  0.862500  1.0  0.0425
  C  C204  1  0.211000  0.676200  0.890000  1.0  -0.1529
  C  C205  1  0.108300  0.835600  0.870400  1.0  -0.016
  C  C206  1  0.935400  0.781200  0.867000  1.0  -0.1367
  C  C207  1  0.860400  0.867600  0.882400  1.0  -0.1504
  C  C208  1  0.685100  0.811200  0.875400  1.0  -0.0219
  C  C209  1  0.584600  0.975200  0.863800  1.0  -0.1651
  C  C210  1  0.511900  0.026200  0.893000  1.0  0.0447
  C  C211  1  0.546100  0.889200  0.935100  1.0  0.3346
  C  C212  1  0.546500  0.807400  0.975300  1.0  -0.4272
  N  N213  1  0.623700  0.366600  0.185700  1.0  -0.4535
  N  N214  1  0.426600  0.248000  0.142200  1.0  -0.0066
  N  N215  1  0.718800  0.111400  0.109600  1.0  0.0123
  N  N216  1  0.514700  0.027600  0.062640  1.0  -0.4412
  N  N217  1  0.376300  0.633400  0.685700  1.0  -0.4532
  N  N218  1  0.573400  0.752000  0.642200  1.0  -0.0063
  N  N219  1  0.281200  0.888600  0.609600  1.0  0.0126
  N  N220  1  0.485300  0.972400  0.562640  1.0  -0.4394
  N  N221  1  0.742900  0.366600  0.314300  1.0  -0.4496
  N  N222  1  0.821400  0.248000  0.357800  1.0  -0.0064
  N  N223  1  0.392600  0.111400  0.390400  1.0  0.0123
  N  N224  1  0.512900  0.027600  0.437360  1.0  -0.439
  N  N225  1  0.257100  0.633400  0.814300  1.0  -0.4505
  N  N226  1  0.178600  0.752000  0.857800  1.0  -0.0061
  N  N227  1  0.607400  0.888600  0.890400  1.0  0.0129
  N  N228  1  0.487100  0.972400  0.937360  1.0  -0.4426
  O  O229  1  0.656300  0.805400  0.502800  1.0  -0.6226
  O  O230  1  0.786300  0.925400  0.444700  1.0  -0.6064
  O  O231  1  0.118500  0.558600  0.441880  1.0  -0.2628
  O  O232  1  0.698600  0.619800  0.308000  1.0  -0.6135
  O  O233  1  0.502200  0.502800  0.261900  1.0  -0.6034
  O  O234  1  0.343700  0.194600  0.002800  1.0  -0.6233
  O  O235  1  0.213700  0.074600  0.944700  1.0  -0.6068
  O  O236  1  0.881500  0.441400  0.941880  1.0  -0.2621
  O  O237  1  0.301400  0.380200  0.808000  1.0  -0.6113
  O  O238  1  0.497800  0.497200  0.761900  1.0  -0.6034
  O  O239  1  0.149100  0.805400  0.997200  1.0  -0.6226
  O  O240  1  0.139100  0.925400  0.055300  1.0  -0.6051
  O  O241  1  0.440100  0.558600  0.058120  1.0  -0.2633
  O  O242  1  0.921200  0.619800  0.192000  1.0  -0.6131
  O  O243  1  0.000600  0.502800  0.238100  1.0  -0.6047
  O  O244  1  0.850900  0.194600  0.497200  1.0  -0.6221
  O  O245  1  0.860900  0.074600  0.555300  1.0  -0.6056
  O  O246  1  0.559900  0.441400  0.558120  1.0  -0.2627
  O  O247  1  0.078800  0.380200  0.692000  1.0  -0.6121
  O  O248  1  0.999400  0.497200  0.738100  1.0  -0.6034
