# generated using pymatgen
data_ZnH16(C17N5)2
_symmetry_space_group_name_H-M   'P 1'
_cell_length_a   12.61400000
_cell_length_b   22.85700000
_cell_length_c   14.60400000
_cell_angle_alpha   90.00000000
_cell_angle_beta   90.00000000
_cell_angle_gamma   90.00000000
_symmetry_Int_Tables_number   1
_chemical_formula_structural   ZnH16(C17N5)2
_chemical_formula_sum   'Zn4 H64 C136 N40'
_cell_volume   4210.59896359
_cell_formula_units_Z   4
loop_
 _symmetry_equiv_pos_site_id
 _symmetry_equiv_pos_as_xyz
  1  'x, y, z'
loop_
 _atom_site_type_symbol
 _atom_site_label
 _atom_site_symmetry_multiplicity
 _atom_site_fract_x
 _atom_site_fract_y
 _atom_site_fract_z
 _atom_site_occupancy
 _atom_site_charge
  Zn  Zn1  1  0.500000  0.750000  0.761420  1.0  0.8491
  Zn  Zn2  1  0.500000  0.250000  0.738580  1.0  0.8494
  Zn  Zn3  1  0.500000  0.250000  0.238580  1.0  0.8494
  Zn  Zn4  1  0.500000  0.750000  0.261420  1.0  0.8491
  H  H5  1  0.073000  0.904000  0.862000  1.0  0.113
  H  H6  1  0.201000  0.840200  0.868000  1.0  0.1121
  H  H7  1  0.210000  0.845200  0.153000  1.0  0.1196
  H  H8  1  0.080000  0.918900  0.149000  1.0  0.1094
  H  H9  1  0.652000  0.950900  0.796000  1.0  0.1267
  H  H10  1  0.638000  0.856400  0.795800  1.0  0.0799
  H  H11  1  0.351000  0.854600  0.724000  1.0  0.0795
  H  H12  1  0.341000  0.951800  0.707000  1.0  0.1274
  H  H13  1  0.927000  0.596000  0.862000  1.0  0.1128
  H  H14  1  0.799000  0.659800  0.868000  1.0  0.1127
  H  H15  1  0.790000  0.654800  0.153000  1.0  0.1211
  H  H16  1  0.920000  0.581100  0.149000  1.0  0.1096
  H  H17  1  0.348000  0.549100  0.796000  1.0  0.1261
  H  H18  1  0.362000  0.643600  0.795800  1.0  0.0803
  H  H19  1  0.649000  0.645400  0.724000  1.0  0.0788
  H  H20  1  0.659000  0.548200  0.707000  1.0  0.1273
  H  H21  1  0.073000  0.096000  0.638000  1.0  0.1117
  H  H22  1  0.201000  0.159800  0.632000  1.0  0.1135
  H  H23  1  0.210000  0.154800  0.347000  1.0  0.12
  H  H24  1  0.080000  0.081100  0.351000  1.0  0.1103
  H  H25  1  0.652000  0.049100  0.704000  1.0  0.1262
  H  H26  1  0.638000  0.143600  0.704200  1.0  0.0787
  H  H27  1  0.351000  0.145400  0.776000  1.0  0.08
  H  H28  1  0.341000  0.048200  0.793000  1.0  0.1278
  H  H29  1  0.927000  0.404000  0.638000  1.0  0.1122
  H  H30  1  0.799000  0.340200  0.632000  1.0  0.1114
  H  H31  1  0.790000  0.345200  0.347000  1.0  0.1189
  H  H32  1  0.920000  0.418900  0.351000  1.0  0.1103
  H  H33  1  0.348000  0.450900  0.704000  1.0  0.1251
  H  H34  1  0.362000  0.356400  0.704200  1.0  0.0799
  H  H35  1  0.649000  0.354600  0.776000  1.0  0.0789
  H  H36  1  0.659000  0.451800  0.793000  1.0  0.1277
  H  H37  1  0.927000  0.096000  0.138000  1.0  0.1118
  H  H38  1  0.799000  0.159800  0.132000  1.0  0.1131
  H  H39  1  0.790000  0.154800  0.847000  1.0  0.1205
  H  H40  1  0.920000  0.081100  0.851000  1.0  0.1105
  H  H41  1  0.348000  0.049100  0.204000  1.0  0.1258
  H  H42  1  0.362000  0.143600  0.204200  1.0  0.0806
  H  H43  1  0.649000  0.145400  0.276000  1.0  0.0791
  H  H44  1  0.659000  0.048200  0.293000  1.0  0.1278
  H  H45  1  0.073000  0.404000  0.138000  1.0  0.1121
  H  H46  1  0.201000  0.340200  0.132000  1.0  0.113
  H  H47  1  0.210000  0.345200  0.847000  1.0  0.1187
  H  H48  1  0.080000  0.418900  0.851000  1.0  0.1101
  H  H49  1  0.652000  0.450900  0.204000  1.0  0.126
  H  H50  1  0.638000  0.356400  0.204200  1.0  0.0781
  H  H51  1  0.351000  0.354600  0.276000  1.0  0.0798
  H  H52  1  0.341000  0.451800  0.293000  1.0  0.1278
  H  H53  1  0.927000  0.904000  0.362000  1.0  0.1117
  H  H54  1  0.799000  0.840200  0.368000  1.0  0.111
  H  H55  1  0.790000  0.845200  0.653000  1.0  0.1198
  H  H56  1  0.920000  0.918900  0.649000  1.0  0.1096
  H  H57  1  0.348000  0.950900  0.296000  1.0  0.1255
  H  H58  1  0.362000  0.856400  0.295800  1.0  0.0794
  H  H59  1  0.649000  0.854600  0.224000  1.0  0.0785
  H  H60  1  0.659000  0.951800  0.207000  1.0  0.1273
  H  H61  1  0.073000  0.596000  0.362000  1.0  0.1131
  H  H62  1  0.201000  0.659800  0.368000  1.0  0.1134
  H  H63  1  0.210000  0.654800  0.653000  1.0  0.121
  H  H64  1  0.080000  0.581100  0.649000  1.0  0.1094
  H  H65  1  0.652000  0.549100  0.296000  1.0  0.1269
  H  H66  1  0.638000  0.643600  0.295800  1.0  0.0799
  H  H67  1  0.351000  0.645400  0.224000  1.0  0.0797
  H  H68  1  0.341000  0.548200  0.207000  1.0  0.1273
  C  C69  1  0.185900  0.860530  0.089750  1.0  -0.1699
  C  C70  1  0.224300  0.835710  0.008280  1.0  0.1851
  C  C71  1  0.345260  0.766470  0.929900  1.0  0.435
  C  C72  1  0.344910  0.768320  0.091760  1.0  0.4332
  C  C73  1  0.303180  0.789520  0.010140  1.0  -0.4358
  C  C74  1  0.585300  0.875860  0.776600  1.0  0.1901
  C  C75  1  0.588800  0.936590  0.772220  1.0  -0.192
  C  C76  1  0.496650  0.967490  0.752300  1.0  0.1043
  C  C77  1  0.182900  0.856030  0.925680  1.0  -0.1486
  C  C78  1  0.404600  0.935430  0.736600  1.0  -0.1987
  C  C79  1  0.976300  0.966980  0.002100  1.0  0.0169
  C  C80  1  0.908600  0.962860  0.083900  1.0  0.2861
  C  C81  1  0.908400  0.959470  0.920500  1.0  0.2779
  C  C82  1  0.105700  0.902190  0.087400  1.0  -0.0936
  C  C83  1  0.063500  0.920600  0.004320  1.0  -0.0504
  C  C84  1  0.409300  0.874650  0.740400  1.0  0.1819
  C  C85  1  0.103800  0.897520  0.923500  1.0  -0.1159
  C  C86  1  0.814100  0.639470  0.089750  1.0  -0.1737
  C  C87  1  0.775700  0.664290  0.008280  1.0  0.183
  C  C88  1  0.654740  0.733530  0.929900  1.0  0.4349
  C  C89  1  0.655090  0.731680  0.091760  1.0  0.4332
  C  C90  1  0.696820  0.710480  0.010140  1.0  -0.436
  C  C91  1  0.414700  0.624140  0.776600  1.0  0.1909
  C  C92  1  0.411200  0.563410  0.772220  1.0  -0.1932
  C  C93  1  0.503350  0.532510  0.752300  1.0  0.1035
  C  C94  1  0.817100  0.643970  0.925680  1.0  -0.1481
  C  C95  1  0.595400  0.564570  0.736600  1.0  -0.1967
  C  C96  1  0.023700  0.533020  0.002100  1.0  0.0165
  C  C97  1  0.091400  0.537140  0.083900  1.0  0.2856
  C  C98  1  0.091600  0.540530  0.920500  1.0  0.2774
  C  C99  1  0.894300  0.597810  0.087400  1.0  -0.0931
  C  C100  1  0.936500  0.579400  0.004320  1.0  -0.0502
  C  C101  1  0.590700  0.625350  0.740400  1.0  0.1815
  C  C102  1  0.896200  0.602480  0.923500  1.0  -0.1165
  C  C103  1  0.185900  0.139470  0.410250  1.0  -0.1692
  C  C104  1  0.224300  0.164290  0.491720  1.0  0.1855
  C  C105  1  0.345260  0.233530  0.570100  1.0  0.4339
  C  C106  1  0.344910  0.231680  0.408240  1.0  0.4333
  C  C107  1  0.303180  0.210480  0.489860  1.0  -0.4365
  C  C108  1  0.585300  0.124140  0.723400  1.0  0.1899
  C  C109  1  0.588800  0.063410  0.727780  1.0  -0.1947
  C  C110  1  0.496650  0.032510  0.747700  1.0  0.1035
  C  C111  1  0.182900  0.143970  0.574320  1.0  -0.1493
  C  C112  1  0.404600  0.064570  0.763400  1.0  -0.1967
  C  C113  1  0.976300  0.033020  0.497900  1.0  0.0153
  C  C114  1  0.908600  0.037140  0.416100  1.0  0.2873
  C  C115  1  0.908400  0.040530  0.579500  1.0  0.276
  C  C116  1  0.105700  0.097810  0.412600  1.0  -0.0958
  C  C117  1  0.063500  0.079400  0.495680  1.0  -0.0501
  C  C118  1  0.409300  0.125350  0.759600  1.0  0.1814
  C  C119  1  0.103800  0.102480  0.576500  1.0  -0.1151
  C  C120  1  0.814100  0.360530  0.410250  1.0  -0.1713
  C  C121  1  0.775700  0.335710  0.491720  1.0  0.1826
  C  C122  1  0.654740  0.266470  0.570100  1.0  0.4352
  C  C123  1  0.655090  0.268320  0.408240  1.0  0.433
  C  C124  1  0.696820  0.289520  0.489860  1.0  -0.4349
  C  C125  1  0.414700  0.375860  0.723400  1.0  0.1894
  C  C126  1  0.411200  0.436590  0.727780  1.0  -0.193
  C  C127  1  0.503350  0.467490  0.747700  1.0  0.1043
  C  C128  1  0.817100  0.356030  0.574320  1.0  -0.1473
  C  C129  1  0.595400  0.435430  0.763400  1.0  -0.1972
  C  C130  1  0.023700  0.466980  0.497900  1.0  0.0158
  C  C131  1  0.091400  0.462860  0.416100  1.0  0.2865
  C  C132  1  0.091600  0.459470  0.579500  1.0  0.2721
  C  C133  1  0.894300  0.402190  0.412600  1.0  -0.0917
  C  C134  1  0.936500  0.420600  0.495680  1.0  -0.0501
  C  C135  1  0.590700  0.374650  0.759600  1.0  0.1808
  C  C136  1  0.896200  0.397520  0.576500  1.0  -0.1155
  C  C137  1  0.814100  0.139470  0.910250  1.0  -0.1725
  C  C138  1  0.775700  0.164290  0.991720  1.0  0.1831
  C  C139  1  0.654740  0.233530  0.070100  1.0  0.4347
  C  C140  1  0.655090  0.231680  0.908240  1.0  0.4332
  C  C141  1  0.696820  0.210480  0.989860  1.0  -0.4357
  C  C142  1  0.414700  0.124140  0.223400  1.0  0.1896
  C  C143  1  0.411200  0.063410  0.227780  1.0  -0.1954
  C  C144  1  0.503350  0.032510  0.247700  1.0  0.1035
  C  C145  1  0.817100  0.143970  0.074320  1.0  -0.1484
  C  C146  1  0.595400  0.064570  0.263400  1.0  -0.1967
  C  C147  1  0.023700  0.033020  0.997900  1.0  0.0149
  C  C148  1  0.091400  0.037140  0.916100  1.0  0.2872
  C  C149  1  0.091600  0.040530  0.079500  1.0  0.276
  C  C150  1  0.894300  0.097810  0.912600  1.0  -0.0932
  C  C151  1  0.936500  0.079400  0.995680  1.0  -0.0501
  C  C152  1  0.590700  0.125350  0.259600  1.0  0.1809
  C  C153  1  0.896200  0.102480  0.076500  1.0  -0.1163
  C  C154  1  0.185900  0.360530  0.910250  1.0  -0.1686
  C  C155  1  0.224300  0.335710  0.991720  1.0  0.1853
  C  C156  1  0.345260  0.266470  0.070100  1.0  0.4348
  C  C157  1  0.344910  0.268320  0.908240  1.0  0.4337
  C  C158  1  0.303180  0.289520  0.989860  1.0  -0.4353
  C  C159  1  0.585300  0.375860  0.223400  1.0  0.1894
  C  C160  1  0.588800  0.436590  0.227780  1.0  -0.1939
  C  C161  1  0.496650  0.467490  0.247700  1.0  0.1043
  C  C162  1  0.182900  0.356030  0.074320  1.0  -0.1482
  C  C163  1  0.404600  0.435430  0.263400  1.0  -0.1988
  C  C164  1  0.976300  0.466980  0.997900  1.0  0.0156
  C  C165  1  0.908600  0.462860  0.916100  1.0  0.2864
  C  C166  1  0.908400  0.459470  0.079500  1.0  0.2774
  C  C167  1  0.105700  0.402190  0.912600  1.0  -0.0939
  C  C168  1  0.063500  0.420600  0.995680  1.0  -0.0503
  C  C169  1  0.409300  0.374650  0.259600  1.0  0.1816
  C  C170  1  0.103800  0.397520  0.076500  1.0  -0.1149
  C  C171  1  0.814100  0.860530  0.589750  1.0  -0.1723
  C  C172  1  0.775700  0.835710  0.508280  1.0  0.1824
  C  C173  1  0.654740  0.766470  0.429900  1.0  0.4351
  C  C174  1  0.655090  0.768320  0.591760  1.0  0.4329
  C  C175  1  0.696820  0.789520  0.510140  1.0  -0.4353
  C  C176  1  0.414700  0.875860  0.276600  1.0  0.1906
  C  C177  1  0.411200  0.936590  0.272220  1.0  -0.1948
  C  C178  1  0.503350  0.967490  0.252300  1.0  0.1043
  C  C179  1  0.817100  0.856030  0.425680  1.0  -0.1485
  C  C180  1  0.595400  0.935430  0.236600  1.0  -0.1971
  C  C181  1  0.023700  0.966980  0.502100  1.0  0.0171
  C  C182  1  0.091400  0.962860  0.583900  1.0  0.2864
  C  C183  1  0.091600  0.959470  0.420500  1.0  0.272
  C  C184  1  0.894300  0.902190  0.587400  1.0  -0.0907
  C  C185  1  0.936500  0.920600  0.504320  1.0  -0.0502
  C  C186  1  0.590700  0.874650  0.240400  1.0  0.1813
  C  C187  1  0.896200  0.897520  0.423500  1.0  -0.1156
  C  C188  1  0.185900  0.639470  0.589750  1.0  -0.1707
  C  C189  1  0.224300  0.664290  0.508280  1.0  0.1854
  C  C190  1  0.345260  0.733530  0.429900  1.0  0.4347
  C  C191  1  0.344910  0.731680  0.591760  1.0  0.4328
  C  C192  1  0.303180  0.710480  0.510140  1.0  -0.4368
  C  C193  1  0.585300  0.624140  0.276600  1.0  0.1907
  C  C194  1  0.588800  0.563410  0.272220  1.0  -0.1936
  C  C195  1  0.496650  0.532510  0.252300  1.0  0.1034
  C  C196  1  0.182900  0.643970  0.425680  1.0  -0.1489
  C  C197  1  0.404600  0.564570  0.236600  1.0  -0.1968
  C  C198  1  0.976300  0.533020  0.502100  1.0  0.017
  C  C199  1  0.908600  0.537140  0.583900  1.0  0.2856
  C  C200  1  0.908400  0.540530  0.420500  1.0  0.2776
  C  C201  1  0.105700  0.597810  0.587400  1.0  -0.0946
  C  C202  1  0.063500  0.579400  0.504320  1.0  -0.0502
  C  C203  1  0.409300  0.625350  0.240400  1.0  0.1817
  C  C204  1  0.103800  0.602480  0.423500  1.0  -0.1158
  N  N205  1  0.379700  0.748250  0.863170  1.0  -0.4882
  N  N206  1  0.378900  0.751150  0.159110  1.0  -0.4888
  N  N207  1  0.861200  0.958400  0.149600  1.0  -0.3476
  N  N208  1  0.496690  0.844950  0.760040  1.0  -0.3256
  N  N209  1  0.859400  0.952430  0.855600  1.0  -0.3401
  N  N210  1  0.620300  0.751750  0.863170  1.0  -0.4879
  N  N211  1  0.621100  0.748850  0.159110  1.0  -0.4882
  N  N212  1  0.138800  0.541600  0.149600  1.0  -0.3485
  N  N213  1  0.503310  0.655050  0.760040  1.0  -0.3256
  N  N214  1  0.140600  0.547570  0.855600  1.0  -0.3407
  N  N215  1  0.379700  0.251750  0.636830  1.0  -0.4885
  N  N216  1  0.378900  0.248850  0.340890  1.0  -0.4888
  N  N217  1  0.861200  0.041600  0.350400  1.0  -0.3477
  N  N218  1  0.496690  0.155050  0.739960  1.0  -0.3259
  N  N219  1  0.859400  0.047570  0.644400  1.0  -0.3421
  N  N220  1  0.620300  0.248250  0.636830  1.0  -0.4888
  N  N221  1  0.621100  0.251150  0.340890  1.0  -0.4886
  N  N222  1  0.138800  0.458400  0.350400  1.0  -0.3481
  N  N223  1  0.503310  0.344950  0.739960  1.0  -0.3256
  N  N224  1  0.140600  0.452430  0.644400  1.0  -0.3419
  N  N225  1  0.620300  0.251750  0.136830  1.0  -0.4885
  N  N226  1  0.621100  0.248850  0.840890  1.0  -0.488
  N  N227  1  0.138800  0.041600  0.850400  1.0  -0.3479
  N  N228  1  0.503310  0.155050  0.239960  1.0  -0.3255
  N  N229  1  0.140600  0.047570  0.144400  1.0  -0.3428
  N  N230  1  0.379700  0.248250  0.136830  1.0  -0.4885
  N  N231  1  0.378900  0.251150  0.840890  1.0  -0.489
  N  N232  1  0.861200  0.458400  0.850400  1.0  -0.3479
  N  N233  1  0.496690  0.344950  0.239960  1.0  -0.3254
  N  N234  1  0.859400  0.452430  0.144400  1.0  -0.3411
  N  N235  1  0.620300  0.748250  0.363170  1.0  -0.4883
  N  N236  1  0.621100  0.751150  0.659110  1.0  -0.4887
  N  N237  1  0.138800  0.958400  0.649600  1.0  -0.3482
  N  N238  1  0.503310  0.844950  0.260040  1.0  -0.3257
  N  N239  1  0.140600  0.952430  0.355600  1.0  -0.3407
  N  N240  1  0.379700  0.751750  0.363170  1.0  -0.4883
  N  N241  1  0.378900  0.748850  0.659110  1.0  -0.4886
  N  N242  1  0.861200  0.541600  0.649600  1.0  -0.3482
  N  N243  1  0.496690  0.655050  0.260040  1.0  -0.3261
  N  N244  1  0.859400  0.547570  0.355600  1.0  -0.3402
