# generated using pymatgen
data_ZnH16(C17N5)2
_symmetry_space_group_name_H-M   'P 1'
_cell_length_a   11.41900000
_cell_length_b   12.67000000
_cell_length_c   14.75200000
_cell_angle_alpha   90.00000000
_cell_angle_beta   90.00000000
_cell_angle_gamma   90.00000000
_symmetry_Int_Tables_number   1
_chemical_formula_structural   ZnH16(C17N5)2
_chemical_formula_sum   'Zn2 H32 C68 N20'
_cell_volume   2134.30062496
_cell_formula_units_Z   2
loop_
 _symmetry_equiv_pos_site_id
 _symmetry_equiv_pos_as_xyz
  1  'x, y, z'
loop_
 _atom_site_type_symbol
 _atom_site_label
 _atom_site_symmetry_multiplicity
 _atom_site_fract_x
 _atom_site_fract_y
 _atom_site_fract_z
 _atom_site_occupancy
 _atom_site_charge
  Zn  Zn1  1  0.500000  0.500000  0.250000  1.0  0.853
  Zn  Zn2  1  0.500000  0.500000  0.750000  1.0  0.853
  H  H3  1  0.910800  0.655500  0.274800  1.0  0.1268
  H  H4  1  0.698000  0.779700  0.136100  1.0  0.1099
  H  H5  1  0.709700  0.650400  0.276400  1.0  0.0809
  H  H6  1  0.839500  0.909100  0.135500  1.0  0.1011
  H  H7  1  0.089200  0.344500  0.274800  1.0  0.127
  H  H8  1  0.302000  0.220300  0.136100  1.0  0.1095
  H  H9  1  0.290300  0.349600  0.276400  1.0  0.0805
  H  H10  1  0.160500  0.090900  0.135500  1.0  0.1011
  H  H11  1  0.089200  0.655500  0.225200  1.0  0.1269
  H  H12  1  0.302000  0.779700  0.363900  1.0  0.1096
  H  H13  1  0.290300  0.650400  0.223600  1.0  0.0807
  H  H14  1  0.160500  0.909100  0.364500  1.0  0.101
  H  H15  1  0.910800  0.344500  0.225200  1.0  0.1269
  H  H16  1  0.698000  0.220300  0.363900  1.0  0.1096
  H  H17  1  0.709700  0.349600  0.223600  1.0  0.0805
  H  H18  1  0.839500  0.090900  0.364500  1.0  0.1011
  H  H19  1  0.089200  0.344500  0.725200  1.0  0.1268
  H  H20  1  0.302000  0.220300  0.863900  1.0  0.1095
  H  H21  1  0.290300  0.349600  0.723600  1.0  0.0805
  H  H22  1  0.160500  0.090900  0.864500  1.0  0.101
  H  H23  1  0.910800  0.655500  0.725200  1.0  0.1267
  H  H24  1  0.698000  0.779700  0.863900  1.0  0.11
  H  H25  1  0.709700  0.650400  0.723600  1.0  0.0808
  H  H26  1  0.839500  0.909100  0.864500  1.0  0.1011
  H  H27  1  0.910800  0.344500  0.774800  1.0  0.127
  H  H28  1  0.698000  0.220300  0.636100  1.0  0.1099
  H  H29  1  0.709700  0.349600  0.776400  1.0  0.0806
  H  H30  1  0.839500  0.090900  0.635500  1.0  0.1012
  H  H31  1  0.089200  0.655500  0.774800  1.0  0.127
  H  H32  1  0.302000  0.779700  0.636100  1.0  0.1093
  H  H33  1  0.290300  0.650400  0.776400  1.0  0.0808
  H  H34  1  0.160500  0.909100  0.635500  1.0  0.1011
  C  C35  1  0.750800  0.588400  0.265100  1.0  0.1645
  C  C36  1  0.871900  0.592000  0.265000  1.0  -0.1842
  C  C37  1  0.538200  0.651500  0.080410  1.0  0.4338
  C  C38  1  0.724300  0.807400  0.081400  1.0  -0.1391
  C  C39  1  0.920600  0.090000  0.080400  1.0  0.2912
  C  C40  1  0.807400  0.886000  0.081000  1.0  -0.0842
  C  C41  1  0.249200  0.411600  0.265100  1.0  0.1647
  C  C42  1  0.128100  0.408000  0.265000  1.0  -0.1837
  C  C43  1  0.461800  0.348500  0.080410  1.0  0.4337
  C  C44  1  0.275700  0.192600  0.081400  1.0  -0.1397
  C  C45  1  0.079400  0.910000  0.080400  1.0  0.2935
  C  C46  1  0.192600  0.114000  0.081000  1.0  -0.0848
  C  C47  1  0.249200  0.588400  0.234900  1.0  0.1673
  C  C48  1  0.128100  0.592000  0.235000  1.0  -0.184
  C  C49  1  0.461800  0.651500  0.419590  1.0  0.4328
  C  C50  1  0.275700  0.807400  0.418600  1.0  -0.1358
  C  C51  1  0.079400  0.090000  0.419600  1.0  0.2936
  C  C52  1  0.192600  0.886000  0.419000  1.0  -0.0845
  C  C53  1  0.750800  0.411600  0.234900  1.0  0.1667
  C  C54  1  0.871900  0.408000  0.235000  1.0  -0.1833
  C  C55  1  0.538200  0.348500  0.419590  1.0  0.4341
  C  C56  1  0.724300  0.192600  0.418600  1.0  -0.1374
  C  C57  1  0.920600  0.910000  0.419600  1.0  0.2935
  C  C58  1  0.807400  0.114000  0.419000  1.0  -0.084
  C  C59  1  0.249200  0.411600  0.734900  1.0  0.1643
  C  C60  1  0.128100  0.408000  0.735000  1.0  -0.1835
  C  C61  1  0.461800  0.348500  0.919590  1.0  0.4345
  C  C62  1  0.275700  0.192600  0.918600  1.0  -0.138
  C  C63  1  0.079400  0.910000  0.919600  1.0  0.2936
  C  C64  1  0.192600  0.114000  0.919000  1.0  -0.0878
  C  C65  1  0.750800  0.588400  0.734900  1.0  0.1652
  C  C66  1  0.871900  0.592000  0.735000  1.0  -0.1842
  C  C67  1  0.538200  0.651500  0.919590  1.0  0.4345
  C  C68  1  0.724300  0.807400  0.918600  1.0  -0.1369
  C  C69  1  0.920600  0.090000  0.919600  1.0  0.2933
  C  C70  1  0.807400  0.886000  0.919000  1.0  -0.0875
  C  C71  1  0.750800  0.411600  0.765100  1.0  0.167
  C  C72  1  0.871900  0.408000  0.765000  1.0  -0.1833
  C  C73  1  0.538200  0.348500  0.580410  1.0  0.435
  C  C74  1  0.724300  0.192600  0.581400  1.0  -0.1411
  C  C75  1  0.920600  0.910000  0.580400  1.0  0.2933
  C  C76  1  0.807400  0.114000  0.581000  1.0  -0.0879
  C  C77  1  0.249200  0.588400  0.765100  1.0  0.1667
  C  C78  1  0.128100  0.592000  0.765000  1.0  -0.1842
  C  C79  1  0.461800  0.651500  0.580410  1.0  0.4342
  C  C80  1  0.275700  0.807400  0.581400  1.0  -0.1399
  C  C81  1  0.079400  0.090000  0.580400  1.0  0.2919
  C  C82  1  0.192600  0.886000  0.581000  1.0  -0.0878
  C  C83  1  0.585000  0.691500  0.000000  1.0  -0.4291
  C  C84  1  0.678300  0.768400  0.000000  1.0  0.1732
  C  C85  1  0.932000  0.023600  0.000000  1.0  -0.0071
  C  C86  1  0.842900  0.931500  0.000000  1.0  -0.0638
  C  C87  1  0.415000  0.308500  0.000000  1.0  -0.4298
  C  C88  1  0.321700  0.231600  0.000000  1.0  0.1727
  C  C89  1  0.068000  0.976400  0.000000  1.0  -0.0054
  C  C90  1  0.157100  0.068500  0.000000  1.0  -0.0638
  C  C91  1  0.415000  0.691500  0.500000  1.0  -0.4301
  C  C92  1  0.321700  0.768400  0.500000  1.0  0.1728
  C  C93  1  0.068000  0.023600  0.500000  1.0  -0.0063
  C  C94  1  0.157100  0.931500  0.500000  1.0  -0.0636
  C  C95  1  0.585000  0.308500  0.500000  1.0  -0.4291
  C  C96  1  0.678300  0.231600  0.500000  1.0  0.1736
  C  C97  1  0.932000  0.976400  0.500000  1.0  -0.0062
  C  C98  1  0.842900  0.068500  0.500000  1.0  -0.0648
  C  C99  1  0.934700  0.500000  0.250000  1.0  0.0976
  C  C100  1  0.065300  0.500000  0.250000  1.0  0.0973
  C  C101  1  0.065300  0.500000  0.750000  1.0  0.0973
  C  C102  1  0.934700  0.500000  0.750000  1.0  0.0976
  N  N103  1  0.899000  0.135700  0.144800  1.0  -0.3434
  N  N104  1  0.501280  0.619700  0.147480  1.0  -0.499
  N  N105  1  0.101000  0.864300  0.144800  1.0  -0.3429
  N  N106  1  0.498720  0.380300  0.147480  1.0  -0.4992
  N  N107  1  0.101000  0.135700  0.355200  1.0  -0.3419
  N  N108  1  0.498720  0.619700  0.352520  1.0  -0.4992
  N  N109  1  0.899000  0.864300  0.355200  1.0  -0.3423
  N  N110  1  0.501280  0.380300  0.352520  1.0  -0.4989
  N  N111  1  0.101000  0.864300  0.855200  1.0  -0.3428
  N  N112  1  0.498720  0.380300  0.852520  1.0  -0.4993
  N  N113  1  0.899000  0.135700  0.855200  1.0  -0.3424
  N  N114  1  0.501280  0.619700  0.852520  1.0  -0.4987
  N  N115  1  0.899000  0.864300  0.644800  1.0  -0.3426
  N  N116  1  0.501280  0.380300  0.647480  1.0  -0.4989
  N  N117  1  0.101000  0.135700  0.644800  1.0  -0.3434
  N  N118  1  0.498720  0.619700  0.647480  1.0  -0.4992
  N  N119  1  0.689700  0.500000  0.250000  1.0  -0.3199
  N  N120  1  0.310300  0.500000  0.250000  1.0  -0.3188
  N  N121  1  0.310300  0.500000  0.750000  1.0  -0.3188
  N  N122  1  0.689700  0.500000  0.750000  1.0  -0.3199
