# generated using pymatgen
data_ZnH16(C17N5)2
_symmetry_space_group_name_H-M   'P 1'
_cell_length_a   11.37490000
_cell_length_b   12.72390000
_cell_length_c   14.80100000
_cell_angle_alpha   90.00000000
_cell_angle_beta   90.00000000
_cell_angle_gamma   90.00000000
_symmetry_Int_Tables_number   1
_chemical_formula_structural   ZnH16(C17N5)2
_chemical_formula_sum   'Zn2 H32 C68 N20'
_cell_volume   2142.19446672
_cell_formula_units_Z   2
loop_
 _symmetry_equiv_pos_site_id
 _symmetry_equiv_pos_as_xyz
  1  'x, y, z'
loop_
 _atom_site_type_symbol
 _atom_site_label
 _atom_site_symmetry_multiplicity
 _atom_site_fract_x
 _atom_site_fract_y
 _atom_site_fract_z
 _atom_site_occupancy
 _atom_site_charge
  Zn  Zn1  1  0.000000  0.000000  0.250000  1.0  0.8477
  Zn  Zn2  1  0.000000  0.000000  0.750000  1.0  0.8477
  H  H3  1  0.588700  0.843600  0.226800  1.0  0.127
  H  H4  1  0.792400  0.848000  0.228300  1.0  0.0832
  H  H5  1  0.196100  0.717500  0.136700  1.0  0.1037
  H  H6  1  0.330700  0.582600  0.136100  1.0  0.1032
  H  H7  1  0.411300  0.156400  0.226800  1.0  0.1271
  H  H8  1  0.207600  0.152000  0.228300  1.0  0.0834
  H  H9  1  0.803900  0.282500  0.136700  1.0  0.1034
  H  H10  1  0.669300  0.417400  0.136100  1.0  0.1031
  H  H11  1  0.411300  0.843600  0.273200  1.0  0.1272
  H  H12  1  0.207600  0.848000  0.271700  1.0  0.083
  H  H13  1  0.803900  0.717500  0.363300  1.0  0.1023
  H  H14  1  0.669300  0.582600  0.363900  1.0  0.1036
  H  H15  1  0.588700  0.156400  0.273200  1.0  0.1272
  H  H16  1  0.792400  0.152000  0.271700  1.0  0.0834
  H  H17  1  0.196100  0.282500  0.363300  1.0  0.1024
  H  H18  1  0.330700  0.417400  0.363900  1.0  0.1035
  H  H19  1  0.411300  0.156400  0.773200  1.0  0.1271
  H  H20  1  0.207600  0.152000  0.771700  1.0  0.0834
  H  H21  1  0.803900  0.282500  0.863300  1.0  0.1037
  H  H22  1  0.669300  0.417400  0.863900  1.0  0.1037
  H  H23  1  0.588700  0.843600  0.773200  1.0  0.1271
  H  H24  1  0.792400  0.848000  0.771700  1.0  0.0833
  H  H25  1  0.196100  0.717500  0.863300  1.0  0.1035
  H  H26  1  0.330700  0.582600  0.863900  1.0  0.1036
  H  H27  1  0.588700  0.156400  0.726800  1.0  0.1272
  H  H28  1  0.792400  0.152000  0.728300  1.0  0.0835
  H  H29  1  0.196100  0.282500  0.636700  1.0  0.1023
  H  H30  1  0.330700  0.417400  0.636100  1.0  0.103
  H  H31  1  0.411300  0.843600  0.726800  1.0  0.1272
  H  H32  1  0.207600  0.848000  0.728300  1.0  0.0829
  H  H33  1  0.803900  0.717500  0.636700  1.0  0.102
  H  H34  1  0.669300  0.582600  0.636100  1.0  0.1031
  C  C35  1  0.039200  0.849390  0.080530  1.0  0.4365
  C  C36  1  0.418100  0.411200  0.080600  1.0  0.2912
  C  C37  1  0.628400  0.908400  0.236480  1.0  -0.1857
  C  C38  1  0.750300  0.911600  0.237270  1.0  0.1581
  C  C39  1  0.221900  0.689200  0.080700  1.0  -0.1508
  C  C40  1  0.302300  0.609700  0.080400  1.0  -0.0812
  C  C41  1  0.960800  0.150610  0.080530  1.0  0.4359
  C  C42  1  0.581900  0.588800  0.080600  1.0  0.2905
  C  C43  1  0.371600  0.091600  0.236480  1.0  -0.1873
  C  C44  1  0.249700  0.088400  0.237270  1.0  0.1586
  C  C45  1  0.778100  0.310800  0.080700  1.0  -0.1501
  C  C46  1  0.697700  0.390300  0.080400  1.0  -0.0806
  C  C47  1  0.960800  0.849390  0.419470  1.0  0.4363
  C  C48  1  0.581900  0.411200  0.419400  1.0  0.2907
  C  C49  1  0.371600  0.908400  0.263520  1.0  -0.1866
  C  C50  1  0.249700  0.911600  0.262730  1.0  0.1615
  C  C51  1  0.778100  0.689200  0.419300  1.0  -0.1459
  C  C52  1  0.697700  0.609700  0.419600  1.0  -0.0815
  C  C53  1  0.039200  0.150610  0.419470  1.0  0.4363
  C  C54  1  0.418100  0.588800  0.419400  1.0  0.2909
  C  C55  1  0.628400  0.091600  0.263520  1.0  -0.1871
  C  C56  1  0.750300  0.088400  0.262730  1.0  0.1608
  C  C57  1  0.221900  0.310800  0.419300  1.0  -0.1456
  C  C58  1  0.302300  0.390300  0.419600  1.0  -0.0817
  C  C59  1  0.960800  0.150610  0.919470  1.0  0.4356
  C  C60  1  0.581900  0.588800  0.919400  1.0  0.2911
  C  C61  1  0.371600  0.091600  0.763520  1.0  -0.1871
  C  C62  1  0.249700  0.088400  0.762730  1.0  0.1576
  C  C63  1  0.778100  0.310800  0.919300  1.0  -0.1445
  C  C64  1  0.697700  0.390300  0.919600  1.0  -0.0825
  C  C65  1  0.039200  0.849390  0.919470  1.0  0.4368
  C  C66  1  0.418100  0.411200  0.919400  1.0  0.2911
  C  C67  1  0.628400  0.908400  0.763520  1.0  -0.1869
  C  C68  1  0.750300  0.911600  0.762730  1.0  0.1583
  C  C69  1  0.221900  0.689200  0.919300  1.0  -0.1458
  C  C70  1  0.302300  0.609700  0.919600  1.0  -0.0823
  C  C71  1  0.039200  0.150610  0.580530  1.0  0.4364
  C  C72  1  0.418100  0.588800  0.580600  1.0  0.2903
  C  C73  1  0.628400  0.091600  0.736480  1.0  -0.187
  C  C74  1  0.750300  0.088400  0.737270  1.0  0.1616
  C  C75  1  0.221900  0.310800  0.580700  1.0  -0.1497
  C  C76  1  0.302300  0.390300  0.580400  1.0  -0.0819
  C  C77  1  0.960800  0.849390  0.580530  1.0  0.4364
  C  C78  1  0.581900  0.411200  0.580600  1.0  0.291
  C  C79  1  0.371600  0.908400  0.736480  1.0  -0.1854
  C  C80  1  0.249700  0.911600  0.737270  1.0  0.1614
  C  C81  1  0.778100  0.689200  0.580700  1.0  -0.1495
  C  C82  1  0.697700  0.609700  0.580400  1.0  -0.082
  C  C83  1  0.565000  0.000000  0.250000  1.0  0.0923
  C  C84  1  0.435000  0.000000  0.250000  1.0  0.0925
  C  C85  1  0.435000  0.000000  0.750000  1.0  0.0925
  C  C86  1  0.565000  0.000000  0.750000  1.0  0.0923
  C  C87  1  0.176400  0.729900  0.000000  1.0  0.1718
  C  C88  1  0.433000  0.479400  0.000000  1.0  0.0143
  C  C89  1  0.343100  0.567800  0.000000  1.0  -0.0692
  C  C90  1  0.085200  0.809700  0.000000  1.0  -0.4045
  C  C91  1  0.823600  0.270100  0.000000  1.0  0.1714
  C  C92  1  0.567000  0.520600  0.000000  1.0  0.0147
  C  C93  1  0.656900  0.432200  0.000000  1.0  -0.0683
  C  C94  1  0.914800  0.190300  0.000000  1.0  -0.4055
  C  C95  1  0.823600  0.729900  0.500000  1.0  0.1711
  C  C96  1  0.567000  0.479400  0.500000  1.0  0.015
  C  C97  1  0.656900  0.567800  0.500000  1.0  -0.0681
  C  C98  1  0.914800  0.809700  0.500000  1.0  -0.4043
  C  C99  1  0.176400  0.270100  0.500000  1.0  0.1712
  C  C100  1  0.433000  0.520600  0.500000  1.0  0.0139
  C  C101  1  0.343100  0.432200  0.500000  1.0  -0.0691
  C  C102  1  0.085200  0.190300  0.500000  1.0  -0.405
  N  N103  1  0.404000  0.361700  0.142800  1.0  -0.3492
  N  N104  1  0.001900  0.881000  0.147060  1.0  -0.4979
  N  N105  1  0.596000  0.638300  0.142800  1.0  -0.3506
  N  N106  1  0.998100  0.119000  0.147060  1.0  -0.4985
  N  N107  1  0.596000  0.361700  0.357200  1.0  -0.3504
  N  N108  1  0.998100  0.881000  0.352940  1.0  -0.498
  N  N109  1  0.404000  0.638300  0.357200  1.0  -0.3495
  N  N110  1  0.001900  0.119000  0.352940  1.0  -0.4981
  N  N111  1  0.596000  0.638300  0.857200  1.0  -0.35
  N  N112  1  0.998100  0.119000  0.852940  1.0  -0.4985
  N  N113  1  0.404000  0.361700  0.857200  1.0  -0.3498
  N  N114  1  0.001900  0.881000  0.852940  1.0  -0.4977
  N  N115  1  0.404000  0.638300  0.642800  1.0  -0.35
  N  N116  1  0.001900  0.119000  0.647060  1.0  -0.4985
  N  N117  1  0.596000  0.361700  0.642800  1.0  -0.3501
  N  N118  1  0.998100  0.881000  0.647060  1.0  -0.4978
  N  N119  1  0.811400  0.000000  0.250000  1.0  -0.3068
  N  N120  1  0.188600  0.000000  0.250000  1.0  -0.3075
  N  N121  1  0.188600  0.000000  0.750000  1.0  -0.3075
  N  N122  1  0.811400  0.000000  0.750000  1.0  -0.3068
