# generated using pymatgen
data_ZnH16(C17N5)2
_symmetry_space_group_name_H-M   'P 1'
_cell_length_a   11.43410000
_cell_length_b   12.57910000
_cell_length_c   14.77590000
_cell_angle_alpha   90.00000000
_cell_angle_beta   90.00000000
_cell_angle_gamma   90.00000000
_symmetry_Int_Tables_number   1
_chemical_formula_structural   ZnH16(C17N5)2
_chemical_formula_sum   'Zn2 H32 C68 N20'
_cell_volume   2125.22785262
_cell_formula_units_Z   2
loop_
 _symmetry_equiv_pos_site_id
 _symmetry_equiv_pos_as_xyz
  1  'x, y, z'
loop_
 _atom_site_type_symbol
 _atom_site_label
 _atom_site_symmetry_multiplicity
 _atom_site_fract_x
 _atom_site_fract_y
 _atom_site_fract_z
 _atom_site_occupancy
 _atom_site_charge
  Zn  Zn1  1  0.500000  0.500000  0.250000  1.0  0.8529
  Zn  Zn2  1  0.500000  0.500000  0.750000  1.0  0.8529
  H  H3  1  0.696700  0.217900  0.136100  1.0  0.1056
  H  H4  1  0.828600  0.079100  0.135900  1.0  0.1029
  H  H5  1  0.910600  0.344400  0.280400  1.0  0.1241
  H  H6  1  0.709300  0.349600  0.280800  1.0  0.0819
  H  H7  1  0.303300  0.782100  0.136100  1.0  0.1051
  H  H8  1  0.171400  0.920900  0.135900  1.0  0.1023
  H  H9  1  0.089400  0.655600  0.280400  1.0  0.1241
  H  H10  1  0.290700  0.650400  0.280800  1.0  0.0823
  H  H11  1  0.303300  0.217900  0.363900  1.0  0.105
  H  H12  1  0.171400  0.079100  0.364100  1.0  0.1029
  H  H13  1  0.089400  0.344400  0.219600  1.0  0.1246
  H  H14  1  0.290700  0.349600  0.219200  1.0  0.0819
  H  H15  1  0.696700  0.782100  0.363900  1.0  0.1053
  H  H16  1  0.828600  0.920900  0.364100  1.0  0.1025
  H  H17  1  0.910600  0.655600  0.219600  1.0  0.1249
  H  H18  1  0.709300  0.650400  0.219200  1.0  0.0824
  H  H19  1  0.303300  0.782100  0.863900  1.0  0.1051
  H  H20  1  0.171400  0.920900  0.864100  1.0  0.1026
  H  H21  1  0.089400  0.655600  0.719600  1.0  0.1241
  H  H22  1  0.290700  0.650400  0.719200  1.0  0.0823
  H  H23  1  0.696700  0.217900  0.863900  1.0  0.105
  H  H24  1  0.828600  0.079100  0.864100  1.0  0.1028
  H  H25  1  0.910600  0.344400  0.719600  1.0  0.1239
  H  H26  1  0.709300  0.349600  0.719200  1.0  0.0818
  H  H27  1  0.696700  0.782100  0.636100  1.0  0.1055
  H  H28  1  0.828600  0.920900  0.635900  1.0  0.1025
  H  H29  1  0.910600  0.655600  0.780400  1.0  0.1249
  H  H30  1  0.709300  0.650400  0.780800  1.0  0.0825
  H  H31  1  0.303300  0.217900  0.636100  1.0  0.1054
  H  H32  1  0.171400  0.079100  0.635900  1.0  0.1026
  H  H33  1  0.089400  0.344400  0.780400  1.0  0.1248
  H  H34  1  0.290700  0.349600  0.780800  1.0  0.082
  C  C35  1  0.871860  0.407780  0.268130  1.0  -0.1841
  C  C36  1  0.750220  0.411680  0.267990  1.0  0.164
  C  C37  1  0.538420  0.348990  0.080350  1.0  0.4343
  C  C38  1  0.720700  0.188900  0.081330  1.0  -0.1509
  C  C39  1  0.801400  0.106600  0.081430  1.0  -0.0867
  C  C40  1  0.921400  0.909300  0.081000  1.0  0.2855
  C  C41  1  0.128140  0.592220  0.268130  1.0  -0.185
  C  C42  1  0.249780  0.588320  0.267990  1.0  0.1642
  C  C43  1  0.461580  0.651010  0.080350  1.0  0.4332
  C  C44  1  0.279300  0.811100  0.081330  1.0  -0.1491
  C  C45  1  0.198600  0.893400  0.081430  1.0  -0.0854
  C  C46  1  0.078600  0.090700  0.081000  1.0  0.2854
  C  C47  1  0.128140  0.407780  0.231870  1.0  -0.1848
  C  C48  1  0.249780  0.411680  0.232010  1.0  0.1675
  C  C49  1  0.461580  0.348990  0.419650  1.0  0.4333
  C  C50  1  0.279300  0.188900  0.418670  1.0  -0.1439
  C  C51  1  0.198600  0.106600  0.418570  1.0  -0.0868
  C  C52  1  0.078600  0.909300  0.419000  1.0  0.2856
  C  C53  1  0.871860  0.592220  0.231870  1.0  -0.1852
  C  C54  1  0.750220  0.588320  0.232010  1.0  0.1677
  C  C55  1  0.538420  0.651010  0.419650  1.0  0.4337
  C  C56  1  0.720700  0.811100  0.418670  1.0  -0.1442
  C  C57  1  0.801400  0.893400  0.418570  1.0  -0.0871
  C  C58  1  0.921400  0.090700  0.419000  1.0  0.2867
  C  C59  1  0.128140  0.592220  0.731870  1.0  -0.1854
  C  C60  1  0.249780  0.588320  0.732010  1.0  0.1651
  C  C61  1  0.461580  0.651010  0.919650  1.0  0.4341
  C  C62  1  0.279300  0.811100  0.918670  1.0  -0.1421
  C  C63  1  0.198600  0.893400  0.918570  1.0  -0.0861
  C  C64  1  0.078600  0.090700  0.919000  1.0  0.2867
  C  C65  1  0.871860  0.407780  0.731870  1.0  -0.1845
  C  C66  1  0.750220  0.411680  0.732010  1.0  0.1641
  C  C67  1  0.538420  0.348990  0.919650  1.0  0.4355
  C  C68  1  0.720700  0.188900  0.918670  1.0  -0.1462
  C  C69  1  0.801400  0.106600  0.918570  1.0  -0.0862
  C  C70  1  0.921400  0.909300  0.919000  1.0  0.2859
  C  C71  1  0.871860  0.592220  0.768130  1.0  -0.1848
  C  C72  1  0.750220  0.588320  0.767990  1.0  0.1668
  C  C73  1  0.538420  0.651010  0.580350  1.0  0.4355
  C  C74  1  0.720700  0.811100  0.581330  1.0  -0.1502
  C  C75  1  0.801400  0.893400  0.581430  1.0  -0.0855
  C  C76  1  0.921400  0.090700  0.581000  1.0  0.2855
  C  C77  1  0.128140  0.407780  0.768130  1.0  -0.1846
  C  C78  1  0.249780  0.411680  0.767990  1.0  0.1675
  C  C79  1  0.461580  0.348990  0.580350  1.0  0.4353
  C  C80  1  0.279300  0.188900  0.581330  1.0  -0.1499
  C  C81  1  0.198600  0.106600  0.581430  1.0  -0.0855
  C  C82  1  0.078600  0.909300  0.581000  1.0  0.2854
  C  C83  1  0.935100  0.500000  0.250000  1.0  0.0975
  C  C84  1  0.064900  0.500000  0.250000  1.0  0.0971
  C  C85  1  0.064900  0.500000  0.750000  1.0  0.0971
  C  C86  1  0.935100  0.500000  0.750000  1.0  0.0975
  C  C87  1  0.585200  0.310600  0.000000  1.0  -0.4308
  C  C88  1  0.676400  0.230000  0.000000  1.0  0.1729
  C  C89  1  0.841700  0.064800  0.000000  1.0  -0.0524
  C  C90  1  0.934000  0.976400  0.000000  1.0  0.0229
  C  C91  1  0.414800  0.689400  0.000000  1.0  -0.4314
  C  C92  1  0.323600  0.770000  0.000000  1.0  0.1709
  C  C93  1  0.158300  0.935200  0.000000  1.0  -0.0524
  C  C94  1  0.066000  0.023600  0.000000  1.0  0.023
  C  C95  1  0.414800  0.310600  0.500000  1.0  -0.4315
  C  C96  1  0.323600  0.230000  0.500000  1.0  0.1716
  C  C97  1  0.158300  0.064800  0.500000  1.0  -0.0527
  C  C98  1  0.066000  0.976400  0.500000  1.0  0.0234
  C  C99  1  0.585200  0.689400  0.500000  1.0  -0.43
  C  C100  1  0.676400  0.770000  0.500000  1.0  0.1716
  C  C101  1  0.841700  0.935200  0.500000  1.0  -0.0521
  C  C102  1  0.934000  0.023600  0.500000  1.0  0.0226
  N  N103  1  0.501010  0.379810  0.147650  1.0  -0.4995
  N  N104  1  0.910800  0.859200  0.144700  1.0  -0.3427
  N  N105  1  0.498990  0.620190  0.147650  1.0  -0.5001
  N  N106  1  0.089200  0.140800  0.144700  1.0  -0.3429
  N  N107  1  0.498990  0.379810  0.352350  1.0  -0.4999
  N  N108  1  0.089200  0.859200  0.355300  1.0  -0.3422
  N  N109  1  0.501010  0.620190  0.352350  1.0  -0.4995
  N  N110  1  0.910800  0.140800  0.355300  1.0  -0.3424
  N  N111  1  0.498990  0.620190  0.852350  1.0  -0.5
  N  N112  1  0.089200  0.140800  0.855300  1.0  -0.3416
  N  N113  1  0.501010  0.379810  0.852350  1.0  -0.4995
  N  N114  1  0.910800  0.859200  0.855300  1.0  -0.3426
  N  N115  1  0.501010  0.620190  0.647650  1.0  -0.4999
  N  N116  1  0.910800  0.140800  0.644700  1.0  -0.3435
  N  N117  1  0.498990  0.379810  0.647650  1.0  -0.4997
  N  N118  1  0.089200  0.859200  0.644700  1.0  -0.3425
  N  N119  1  0.689700  0.500000  0.250000  1.0  -0.3157
  N  N120  1  0.310300  0.500000  0.250000  1.0  -0.3151
  N  N121  1  0.310300  0.500000  0.750000  1.0  -0.3151
  N  N122  1  0.689700  0.500000  0.750000  1.0  -0.3157
