# generated using pymatgen
data_MnH3C7NClO3
_symmetry_space_group_name_H-M   'P 1'
_cell_length_a   9.06200000
_cell_length_b   9.61800000
_cell_length_c   25.60000000
_cell_angle_alpha   90.00000000
_cell_angle_beta   90.00000000
_cell_angle_gamma   90.00000000
_symmetry_Int_Tables_number   1
_chemical_formula_structural   MnH3C7NClO3
_chemical_formula_sum   'Mn8 H24 C56 N8 Cl8 O24'
_cell_volume   2231.25288960
_cell_formula_units_Z   8
loop_
 _symmetry_equiv_pos_site_id
 _symmetry_equiv_pos_as_xyz
  1  'x, y, z'
loop_
 _atom_site_type_symbol
 _atom_site_label
 _atom_site_symmetry_multiplicity
 _atom_site_fract_x
 _atom_site_fract_y
 _atom_site_fract_z
 _atom_site_occupancy
 _atom_site_charge
  Mn  Mn1  1  0.226900  0.750000  0.250000  1.0  0.153
  Mn  Mn2  1  0.273100  0.750000  0.750000  1.0  0.153
  Mn  Mn3  1  0.773100  0.250000  0.750000  1.0  0.153
  Mn  Mn4  1  0.726900  0.250000  0.250000  1.0  0.153
  Mn  Mn5  1  0.750000  0.444000  0.500000  1.0  1.1837
  Mn  Mn6  1  0.750000  0.056000  0.000000  1.0  1.1829
  Mn  Mn7  1  0.250000  0.556000  0.500000  1.0  1.1825
  Mn  Mn8  1  0.250000  0.944000  0.000000  1.0  1.1833
  H  H9  1  0.711700  0.710900  0.285400  1.0  0.1275
  H  H10  1  0.732400  0.634400  0.372100  1.0  0.1079
  H  H11  1  0.168600  0.650400  0.360200  1.0  0.0894
  H  H12  1  0.788300  0.710900  0.714600  1.0  0.1283
  H  H13  1  0.767600  0.634400  0.627900  1.0  0.1078
  H  H14  1  0.331400  0.650400  0.639800  1.0  0.0891
  H  H15  1  0.788300  0.789100  0.785400  1.0  0.1284
  H  H16  1  0.767600  0.865600  0.872100  1.0  0.1079
  H  H17  1  0.331400  0.849600  0.860200  1.0  0.0888
  H  H18  1  0.711700  0.789100  0.214600  1.0  0.1272
  H  H19  1  0.732400  0.865600  0.127900  1.0  0.1076
  H  H20  1  0.168600  0.849600  0.139800  1.0  0.09
  H  H21  1  0.288300  0.289100  0.714600  1.0  0.1285
  H  H22  1  0.267600  0.365600  0.627900  1.0  0.1078
  H  H23  1  0.831400  0.349600  0.639800  1.0  0.0886
  H  H24  1  0.211700  0.289100  0.285400  1.0  0.1271
  H  H25  1  0.232400  0.365600  0.372100  1.0  0.1077
  H  H26  1  0.668600  0.349600  0.360200  1.0  0.0897
  H  H27  1  0.211700  0.210900  0.214600  1.0  0.1272
  H  H28  1  0.232400  0.134400  0.127900  1.0  0.1077
  H  H29  1  0.668600  0.150400  0.139800  1.0  0.0899
  H  H30  1  0.288300  0.210900  0.785400  1.0  0.1283
  H  H31  1  0.267600  0.134400  0.872100  1.0  0.108
  H  H32  1  0.831400  0.150400  0.860200  1.0  0.0892
  C  C33  1  0.348000  0.791000  0.212500  1.0  0.1883
  C  C34  1  0.936000  0.725000  0.276200  1.0  0.1674
  C  C35  1  0.805000  0.699000  0.301800  1.0  -0.1357
  C  C36  1  0.819000  0.654000  0.352400  1.0  0.0541
  C  C37  1  0.952000  0.638000  0.374600  1.0  -0.1942
  C  C38  1  0.073000  0.662000  0.345400  1.0  0.147
  C  C39  1  0.970000  0.590000  0.429900  1.0  0.7264
  C  C40  1  0.152000  0.791000  0.787500  1.0  0.1881
  C  C41  1  0.564000  0.725000  0.723800  1.0  0.1712
  C  C42  1  0.695000  0.699000  0.698200  1.0  -0.1328
  C  C43  1  0.681000  0.654000  0.647600  1.0  0.0548
  C  C44  1  0.548000  0.638000  0.625400  1.0  -0.1964
  C  C45  1  0.427000  0.662000  0.654600  1.0  0.1462
  C  C46  1  0.530000  0.590000  0.570100  1.0  0.7262
  C  C47  1  0.152000  0.709000  0.712500  1.0  0.1886
  C  C48  1  0.564000  0.775000  0.776200  1.0  0.1704
  C  C49  1  0.695000  0.801000  0.801800  1.0  -0.1319
  C  C50  1  0.681000  0.846000  0.852400  1.0  0.0541
  C  C51  1  0.548000  0.862000  0.874600  1.0  -0.1956
  C  C52  1  0.427000  0.838000  0.845400  1.0  0.1467
  C  C53  1  0.530000  0.910000  0.929900  1.0  0.7262
  C  C54  1  0.348000  0.709000  0.287500  1.0  0.1879
  C  C55  1  0.936000  0.775000  0.223800  1.0  0.1678
  C  C56  1  0.805000  0.801000  0.198200  1.0  -0.1338
  C  C57  1  0.819000  0.846000  0.147600  1.0  0.0548
  C  C58  1  0.952000  0.862000  0.125400  1.0  -0.1952
  C  C59  1  0.073000  0.838000  0.154600  1.0  0.1476
  C  C60  1  0.970000  0.910000  0.070100  1.0  0.7264
  C  C61  1  0.652000  0.209000  0.787500  1.0  0.1884
  C  C62  1  0.064000  0.275000  0.723800  1.0  0.1708
  C  C63  1  0.195000  0.301000  0.698200  1.0  -0.133
  C  C64  1  0.181000  0.346000  0.647600  1.0  0.0543
  C  C65  1  0.048000  0.362000  0.625400  1.0  -0.1952
  C  C66  1  0.927000  0.338000  0.654600  1.0  0.147
  C  C67  1  0.030000  0.410000  0.570100  1.0  0.7266
  C  C68  1  0.848000  0.209000  0.212500  1.0  0.1883
  C  C69  1  0.436000  0.275000  0.276200  1.0  0.1673
  C  C70  1  0.305000  0.301000  0.301800  1.0  -0.136
  C  C71  1  0.319000  0.346000  0.352400  1.0  0.054
  C  C72  1  0.452000  0.362000  0.374600  1.0  -0.1956
  C  C73  1  0.573000  0.338000  0.345400  1.0  0.1474
  C  C74  1  0.470000  0.410000  0.429900  1.0  0.7263
  C  C75  1  0.848000  0.291000  0.287500  1.0  0.1879
  C  C76  1  0.436000  0.225000  0.223800  1.0  0.168
  C  C77  1  0.305000  0.199000  0.198200  1.0  -0.1336
  C  C78  1  0.319000  0.154000  0.147600  1.0  0.055
  C  C79  1  0.452000  0.138000  0.125400  1.0  -0.1964
  C  C80  1  0.573000  0.162000  0.154600  1.0  0.1475
  C  C81  1  0.470000  0.090000  0.070100  1.0  0.7262
  C  C82  1  0.652000  0.291000  0.712500  1.0  0.1884
  C  C83  1  0.064000  0.225000  0.776200  1.0  0.1707
  C  C84  1  0.195000  0.199000  0.801800  1.0  -0.1317
  C  C85  1  0.181000  0.154000  0.852400  1.0  0.0546
  C  C86  1  0.048000  0.138000  0.874600  1.0  -0.1941
  C  C87  1  0.927000  0.162000  0.845400  1.0  0.1457
  C  C88  1  0.030000  0.090000  0.929900  1.0  0.7261
  N  N89  1  0.060000  0.704000  0.295800  1.0  -0.0976
  N  N90  1  0.440000  0.704000  0.704200  1.0  -0.0999
  N  N91  1  0.440000  0.796000  0.795800  1.0  -0.0995
  N  N92  1  0.060000  0.796000  0.204200  1.0  -0.0977
  N  N93  1  0.940000  0.296000  0.704200  1.0  -0.0994
  N  N94  1  0.560000  0.296000  0.295800  1.0  -0.0969
  N  N95  1  0.560000  0.204000  0.204200  1.0  -0.0984
  N  N96  1  0.940000  0.204000  0.795800  1.0  -0.0998
  Cl  Cl97  1  0.205100  0.524000  0.211000  1.0  -0.2613
  Cl  Cl98  1  0.294900  0.524000  0.789000  1.0  -0.2621
  Cl  Cl99  1  0.294900  0.976000  0.711000  1.0  -0.2613
  Cl  Cl100  1  0.205100  0.976000  0.289000  1.0  -0.2616
  Cl  Cl101  1  0.794900  0.476000  0.789000  1.0  -0.2616
  Cl  Cl102  1  0.705100  0.476000  0.211000  1.0  -0.2615
  Cl  Cl103  1  0.705100  0.024000  0.289000  1.0  -0.2621
  Cl  Cl104  1  0.794900  0.024000  0.711000  1.0  -0.2611
  O  O105  1  0.476000  0.832000  0.174400  1.0  -0.3974
  O  O106  1  0.850000  0.592000  0.456900  1.0  -0.5961
  O  O107  1  0.095000  0.558000  0.442300  1.0  -0.5947
  O  O108  1  0.024000  0.832000  0.825600  1.0  -0.3977
  O  O109  1  0.650000  0.592000  0.543100  1.0  -0.5968
  O  O110  1  0.405000  0.558000  0.557700  1.0  -0.5954
  O  O111  1  0.024000  0.668000  0.674400  1.0  -0.3985
  O  O112  1  0.650000  0.908000  0.956900  1.0  -0.5956
  O  O113  1  0.405000  0.942000  0.942300  1.0  -0.5942
  O  O114  1  0.476000  0.668000  0.325600  1.0  -0.3971
  O  O115  1  0.850000  0.908000  0.043100  1.0  -0.597
  O  O116  1  0.095000  0.942000  0.057700  1.0  -0.595
  O  O117  1  0.524000  0.168000  0.825600  1.0  -0.3976
  O  O118  1  0.150000  0.408000  0.543100  1.0  -0.5963
  O  O119  1  0.905000  0.442000  0.557700  1.0  -0.5949
  O  O120  1  0.976000  0.168000  0.174400  1.0  -0.3985
  O  O121  1  0.350000  0.408000  0.456900  1.0  -0.5958
  O  O122  1  0.595000  0.442000  0.442300  1.0  -0.5947
  O  O123  1  0.976000  0.332000  0.325600  1.0  -0.3975
  O  O124  1  0.350000  0.092000  0.043100  1.0  -0.5961
  O  O125  1  0.595000  0.058000  0.057700  1.0  -0.5958
  O  O126  1  0.524000  0.332000  0.674400  1.0  -0.3978
  O  O127  1  0.150000  0.092000  0.956900  1.0  -0.5959
  O  O128  1  0.905000  0.058000  0.942300  1.0  -0.5948
