# generated using pymatgen
data_Zn2H14C28S3N2O15
_symmetry_space_group_name_H-M   'P 1'
_cell_length_a   12.63900000
_cell_length_b   13.97060000
_cell_length_c   16.28500000
_cell_angle_alpha   68.41400000
_cell_angle_beta   83.53200000
_cell_angle_gamma   73.82500000
_symmetry_Int_Tables_number   1
_chemical_formula_structural   Zn2H14C28S3N2O15
_chemical_formula_sum   'Zn4 H28 C56 S6 N4 O30'
_cell_volume   2567.83465881
_cell_formula_units_Z   2
loop_
 _symmetry_equiv_pos_site_id
 _symmetry_equiv_pos_as_xyz
  1  'x, y, z'
loop_
 _atom_site_type_symbol
 _atom_site_label
 _atom_site_symmetry_multiplicity
 _atom_site_fract_x
 _atom_site_fract_y
 _atom_site_fract_z
 _atom_site_occupancy
 _atom_site_charge
  Zn  Zn1  1  0.680770  0.548910  0.841000  1.0  0.9717
  Zn  Zn2  1  0.637860  0.741660  0.920620  1.0  1.0504
  Zn  Zn3  1  0.319230  0.451090  0.159000  1.0  0.9736
  Zn  Zn4  1  0.362140  0.258340  0.079380  1.0  1.0501
  H  H5  1  0.775100  0.845100  0.977900  1.0  0.1162
  H  H6  1  0.794700  0.011900  0.952800  1.0  0.1422
  H  H7  1  0.035600  0.448300  0.876200  1.0  0.1399
  H  H8  1  0.371300  0.511600  0.901600  1.0  0.1207
  H  H9  1  0.957000  0.727800  0.914800  1.0  0.1425
  H  H10  1  0.291200  0.791500  0.940300  1.0  0.1374
  H  H11  1  0.509100  0.965400  0.834800  1.0  0.103
  H  H12  1  0.519800  0.135600  0.807800  1.0  0.1511
  H  H13  1  0.835100  0.168300  0.874400  1.0  0.146
  H  H14  1  0.841000  0.337400  0.857100  1.0  0.1153
  H  H15  1  0.523400  0.444200  0.817600  1.0  0.1103
  H  H16  1  0.508500  0.278300  0.833800  1.0  0.1513
  H  H17  1  0.590300  0.727300  0.571100  1.0  0.1371
  H  H18  1  0.548600  0.964500  0.664100  1.0  0.1288
  H  H19  1  0.224900  0.154900  0.022100  1.0  0.1156
  H  H20  1  0.205300  0.988100  0.047200  1.0  0.1425
  H  H21  1  0.964400  0.551700  0.123800  1.0  0.14
  H  H22  1  0.628700  0.488400  0.098400  1.0  0.1208
  H  H23  1  0.043000  0.272200  0.085200  1.0  0.1407
  H  H24  1  0.708800  0.208500  0.059700  1.0  0.1381
  H  H25  1  0.490900  0.034600  0.165200  1.0  0.1029
  H  H26  1  0.480200  0.864400  0.192200  1.0  0.1511
  H  H27  1  0.164900  0.831700  0.125600  1.0  0.1455
  H  H28  1  0.159000  0.662600  0.142900  1.0  0.1163
  H  H29  1  0.476600  0.555800  0.182400  1.0  0.1103
  H  H30  1  0.491500  0.721700  0.166200  1.0  0.1519
  H  H31  1  0.409700  0.272700  0.428900  1.0  0.1361
  H  H32  1  0.451400  0.035500  0.335900  1.0  0.1293
  C  C33  1  0.723600  0.904300  0.943400  1.0  0.1945
  C  C34  1  0.858200  0.600800  0.891400  1.0  0.7227
  C  C35  1  0.735900  0.004300  0.928400  1.0  -0.1482
  C  C36  1  0.979100  0.590600  0.894600  1.0  -0.1435
  C  C37  1  0.123500  0.664300  0.912800  1.0  0.1162
  C  C38  1  0.058000  0.501800  0.885000  1.0  0.0296
  C  C39  1  0.317700  0.569700  0.907600  1.0  -0.0392
  C  C40  1  0.167900  0.494200  0.888700  1.0  -0.2903
  C  C41  1  0.204500  0.575300  0.902800  1.0  0.1095
  C  C42  1  0.576200  0.835700  0.631100  1.0  -0.116
  C  C43  1  0.010400  0.669800  0.908300  1.0  -0.1087
  C  C44  1  0.348500  0.649400  0.921100  1.0  -0.1152
  C  C45  1  0.269100  0.738200  0.930900  1.0  0.0074
  C  C46  1  0.158700  0.745900  0.926600  1.0  -0.3077
  C  C47  1  0.468300  0.646600  0.921300  1.0  0.6922
  C  C48  1  0.566400  0.975400  0.859200  1.0  0.1937
  C  C49  1  0.660000  0.093800  0.876600  1.0  0.1125
  C  C50  1  0.572900  0.077800  0.842100  1.0  -0.16
  C  C51  1  0.669500  0.202600  0.859600  1.0  0.1138
  C  C52  1  0.770700  0.222900  0.864100  1.0  -0.1539
  C  C53  1  0.773600  0.324800  0.853200  1.0  0.2074
  C  C54  1  0.586300  0.387800  0.829900  1.0  0.1987
  C  C55  1  0.576600  0.288200  0.840000  1.0  -0.1663
  C  C56  1  0.615100  0.757100  0.720100  1.0  0.7371
  C  C57  1  0.568300  0.799800  0.561800  1.0  0.0451
  C  C58  1  0.528800  0.870700  0.481600  1.0  -0.2636
  C  C59  1  0.496100  0.982100  0.465100  1.0  0.1263
  C  C60  1  0.544100  0.941700  0.618000  1.0  -0.026
  C  C61  1  0.276400  0.095700  0.056600  1.0  0.1952
  C  C62  1  0.141800  0.399200  0.108600  1.0  0.7232
  C  C63  1  0.264100  0.995700  0.071600  1.0  -0.148
  C  C64  1  0.020900  0.409400  0.105400  1.0  -0.1373
  C  C65  1  0.876500  0.335700  0.087200  1.0  0.1161
  C  C66  1  0.942000  0.498200  0.115000  1.0  0.0309
  C  C67  1  0.682300  0.430300  0.092400  1.0  -0.0393
  C  C68  1  0.832100  0.505800  0.111300  1.0  -0.2875
  C  C69  1  0.795500  0.424700  0.097200  1.0  0.1107
  C  C70  1  0.423800  0.164300  0.368900  1.0  -0.117
  C  C71  1  0.989600  0.330200  0.091700  1.0  -0.1074
  C  C72  1  0.651500  0.350600  0.078900  1.0  -0.1142
  C  C73  1  0.730900  0.261800  0.069100  1.0  0.006
  C  C74  1  0.841300  0.254100  0.073400  1.0  -0.3063
  C  C75  1  0.531700  0.353400  0.078700  1.0  0.6916
  C  C76  1  0.433600  0.024600  0.140800  1.0  0.1935
  C  C77  1  0.340000  0.906200  0.123400  1.0  0.1123
  C  C78  1  0.427100  0.922200  0.157900  1.0  -0.1592
  C  C79  1  0.330500  0.797400  0.140400  1.0  0.1133
  C  C80  1  0.229300  0.777100  0.135900  1.0  -0.1568
  C  C81  1  0.226400  0.675200  0.146800  1.0  0.204
  C  C82  1  0.413700  0.612200  0.170100  1.0  0.1997
  C  C83  1  0.423400  0.711800  0.160000  1.0  -0.1691
  C  C84  1  0.384900  0.242900  0.279900  1.0  0.737
  C  C85  1  0.431700  0.200200  0.438200  1.0  0.0455
  C  C86  1  0.471200  0.129300  0.518400  1.0  -0.2647
  C  C87  1  0.503900  0.017900  0.534900  1.0  0.1252
  C  C88  1  0.455900  0.058300  0.382000  1.0  -0.0262
  S  S89  1  0.263860  0.383580  0.870020  1.0  1.3941
  S  S90  1  0.060710  0.860410  0.939910  1.0  1.3956
  S  S91  1  0.515540  0.820200  0.397930  1.0  1.3805
  S  S92  1  0.736140  0.616420  0.129980  1.0  1.3935
  S  S93  1  0.939290  0.139590  0.060090  1.0  1.3964
  S  S94  1  0.484460  0.179800  0.602070  1.0  1.3806
  N  N95  1  0.682700  0.406700  0.836930  1.0  -0.3128
  N  N96  1  0.639400  0.889600  0.909600  1.0  -0.2908
  N  N97  1  0.317300  0.593300  0.163070  1.0  -0.3123
  N  N98  1  0.360600  0.110400  0.090400  1.0  -0.2902
  O  O99  1  0.828890  0.528100  0.878260  1.0  -0.5661
  O  O100  1  0.794330  0.681200  0.902070  1.0  -0.5862
  O  O101  1  0.199700  0.313300  0.868500  1.0  -0.6273
  O  O102  1  0.320000  0.428000  0.787640  1.0  -0.6084
  O  O103  1  0.342270  0.334470  0.943340  1.0  -0.7836
  O  O104  1  0.997400  0.817600  0.018900  1.0  -0.6121
  O  O105  1  0.126300  0.925400  0.950300  1.0  -0.5857
  O  O106  1  0.995100  0.910200  0.860600  1.0  -0.6072
  O  O107  1  0.538760  0.571570  0.904420  1.0  -0.587
  O  O108  1  0.489590  0.720000  0.937470  1.0  -0.5459
  O  O109  1  0.647500  0.659650  0.726610  1.0  -0.5752
  O  O110  1  0.611700  0.790140  0.782030  1.0  -0.5876
  O  O111  1  0.552400  0.705400  0.438400  1.0  -0.5483
  O  O112  1  0.584300  0.866300  0.325100  1.0  -0.5938
  O  O113  1  0.398800  0.857900  0.375700  1.0  -0.5833
  O  O114  1  0.171110  0.471900  0.121740  1.0  -0.5643
  O  O115  1  0.205670  0.318800  0.097930  1.0  -0.5876
  O  O116  1  0.800300  0.686700  0.131500  1.0  -0.6266
  O  O117  1  0.680000  0.572000  0.212360  1.0  -0.6098
  O  O118  1  0.657730  0.665530  0.056660  1.0  -0.7834
  O  O119  1  0.002600  0.182400  0.981100  1.0  -0.6091
  O  O120  1  0.873700  0.074600  0.049700  1.0  -0.5874
  O  O121  1  0.004900  0.089800  0.139400  1.0  -0.6039
  O  O122  1  0.461240  0.428430  0.095580  1.0  -0.5871
  O  O123  1  0.510410  0.280000  0.062530  1.0  -0.5448
  O  O124  1  0.352500  0.340350  0.273390  1.0  -0.5774
  O  O125  1  0.388300  0.209860  0.217970  1.0  -0.5877
  O  O126  1  0.447600  0.294600  0.561600  1.0  -0.5516
  O  O127  1  0.415700  0.133700  0.674900  1.0  -0.5944
  O  O128  1  0.601200  0.142100  0.624300  1.0  -0.59
