# generated using pymatgen
data_Ga15P20(H3O10)8
_symmetry_space_group_name_H-M   'P 1'
_cell_length_a   19.04600000
_cell_length_b   19.04600000
_cell_length_c   8.33060000
_cell_angle_alpha   90.00000000
_cell_angle_beta   90.00000000
_cell_angle_gamma   120.00000000
_symmetry_Int_Tables_number   1
_chemical_formula_structural   Ga15P20(H3O10)8
_chemical_formula_sum   'Ga15 P20 H24 O80'
_cell_volume   2617.06478512
_cell_formula_units_Z   1
loop_
 _symmetry_equiv_pos_site_id
 _symmetry_equiv_pos_as_xyz
  1  'x, y, z'
loop_
 _atom_site_type_symbol
 _atom_site_label
 _atom_site_symmetry_multiplicity
 _atom_site_fract_x
 _atom_site_fract_y
 _atom_site_fract_z
 _atom_site_occupancy
 _atom_site_charge
  Ga  Ga1  1  0.736980  0.263130  0.125900  1.0  1.6902
  Ga  Ga2  1  0.813440  0.000000  0.000000  1.0  1.6185
  Ga  Ga3  1  0.736870  0.473850  0.125900  1.0  1.6922
  Ga  Ga4  1  0.000000  0.813440  0.000000  1.0  1.6198
  Ga  Ga5  1  0.526150  0.263020  0.125900  1.0  1.6897
  Ga  Ga6  1  0.186560  0.186560  0.000000  1.0  1.6163
  Ga  Ga7  1  0.263020  0.736870  0.874100  1.0  1.6904
  Ga  Ga8  1  0.186560  0.000000  0.000000  1.0  1.6196
  Ga  Ga9  1  0.263130  0.526150  0.874100  1.0  1.6937
  Ga  Ga10  1  0.000000  0.186560  0.000000  1.0  1.6138
  Ga  Ga11  1  0.473850  0.736980  0.874100  1.0  1.691
  Ga  Ga12  1  0.813440  0.813440  0.000000  1.0  1.6165
  Ga  Ga13  1  0.666667  0.333333  0.483780  1.0  1.6437
  Ga  Ga14  1  0.333333  0.666667  0.516220  1.0  1.6403
  Ga  Ga15  1  0.000000  0.000000  0.500000  1.0  1.4761
  P  P16  1  0.821670  0.910800  0.318500  1.0  1.6408
  P  P17  1  0.831710  0.168400  0.100800  1.0  1.5813
  P  P18  1  0.582570  0.164980  0.331800  1.0  1.7455
  P  P19  1  0.089200  0.910870  0.318500  1.0  1.6445
  P  P20  1  0.831600  0.663310  0.100800  1.0  1.5803
  P  P21  1  0.835020  0.417590  0.331800  1.0  1.7454
  P  P22  1  0.089130  0.178330  0.318500  1.0  1.6468
  P  P23  1  0.336690  0.168290  0.100800  1.0  1.5783
  P  P24  1  0.582410  0.417430  0.331800  1.0  1.7463
  P  P25  1  0.178330  0.089200  0.681500  1.0  1.6441
  P  P26  1  0.168290  0.831600  0.899200  1.0  1.5793
  P  P27  1  0.417430  0.835020  0.668200  1.0  1.7446
  P  P28  1  0.910800  0.089130  0.681500  1.0  1.6448
  P  P29  1  0.168400  0.336690  0.899200  1.0  1.58
  P  P30  1  0.164980  0.582410  0.668200  1.0  1.7463
  P  P31  1  0.910870  0.821670  0.681500  1.0  1.6476
  P  P32  1  0.663310  0.831710  0.899200  1.0  1.5768
  P  P33  1  0.417590  0.582570  0.668200  1.0  1.7459
  P  P34  1  0.666667  0.333333  0.882800  1.0  2.0275
  P  P35  1  0.333333  0.666667  0.117200  1.0  2.027
  H  H36  1  0.840000  0.184000  0.257000  1.0  -0.0357
  H  H37  1  0.246800  0.162400  0.478700  1.0  0.3309
  H  H38  1  0.764700  0.927300  0.571500  1.0  0.1755
  H  H39  1  0.904200  0.950000  0.938000  1.0  0.2843
  H  H40  1  0.816000  0.656000  0.257000  1.0  -0.0352
  H  H41  1  0.837600  0.084400  0.478700  1.0  0.3329
  H  H42  1  0.072700  0.837400  0.571500  1.0  0.175
  H  H43  1  0.050000  0.954200  0.938000  1.0  0.2841
  H  H44  1  0.344000  0.160000  0.257000  1.0  -0.0359
  H  H45  1  0.915600  0.753200  0.478700  1.0  0.3331
  H  H46  1  0.162600  0.235300  0.571500  1.0  0.1761
  H  H47  1  0.045800  0.095800  0.938000  1.0  0.2855
  H  H48  1  0.160000  0.816000  0.743000  1.0  -0.0345
  H  H49  1  0.753200  0.837600  0.521300  1.0  0.3307
  H  H50  1  0.235300  0.072700  0.428500  1.0  0.1759
  H  H51  1  0.095800  0.050000  0.062000  1.0  0.2841
  H  H52  1  0.184000  0.344000  0.743000  1.0  -0.0336
  H  H53  1  0.162400  0.915600  0.521300  1.0  0.3327
  H  H54  1  0.927300  0.162600  0.428500  1.0  0.1756
  H  H55  1  0.950000  0.045800  0.062000  1.0  0.2856
  H  H56  1  0.656000  0.840000  0.743000  1.0  -0.0336
  H  H57  1  0.084400  0.246800  0.521300  1.0  0.3324
  H  H58  1  0.837400  0.764700  0.428500  1.0  0.1761
  H  H59  1  0.954200  0.904200  0.062000  1.0  0.2852
  O  O60  1  0.776200  0.887300  0.494000  1.0  -0.7096
  O  O61  1  0.911500  0.955000  0.348000  1.0  -0.886
  O  O62  1  0.796800  0.964400  0.228700  1.0  -0.7814
  O  O63  1  0.796700  0.833000  0.227900  1.0  -0.8025
  O  O64  1  0.708200  0.289400  0.939200  1.0  -0.8121
  O  O65  1  0.786300  0.082000  0.048100  1.0  -0.7958
  O  O66  1  0.918700  0.214100  0.053600  1.0  -0.7799
  O  O67  1  0.540300  0.080200  0.395800  1.0  -0.5317
  O  O68  1  0.653100  0.178500  0.228000  1.0  -0.8124
  O  O69  1  0.611000  0.224300  0.473700  1.0  -0.8446
  O  O70  1  0.526200  0.178800  0.228500  1.0  -0.794
  O  O71  1  0.788300  0.211900  0.040500  1.0  -0.8511
  O  O72  1  0.852900  0.926700  0.947600  1.0  -0.8641
  O  O73  1  0.112700  0.888900  0.494000  1.0  -0.7073
  O  O74  1  0.045000  0.956500  0.348000  1.0  -0.8854
  O  O75  1  0.035600  0.832400  0.228700  1.0  -0.783
  O  O76  1  0.167000  0.963700  0.227900  1.0  -0.7943
  O  O77  1  0.710600  0.418800  0.939200  1.0  -0.8137
  O  O78  1  0.918000  0.704300  0.048100  1.0  -0.7971
  O  O79  1  0.785900  0.704600  0.053600  1.0  -0.7776
  O  O80  1  0.919800  0.460100  0.395800  1.0  -0.5278
  O  O81  1  0.821500  0.474600  0.228000  1.0  -0.814
  O  O82  1  0.775700  0.386700  0.473700  1.0  -0.8427
  O  O83  1  0.821200  0.347400  0.228500  1.0  -0.7891
  O  O84  1  0.788100  0.576400  0.040500  1.0  -0.852
  O  O85  1  0.073300  0.926200  0.947600  1.0  -0.8602
  O  O86  1  0.111100  0.223800  0.494000  1.0  -0.7061
  O  O87  1  0.043500  0.088500  0.348000  1.0  -0.8837
  O  O88  1  0.167600  0.203200  0.228700  1.0  -0.7851
  O  O89  1  0.036300  0.203300  0.227900  1.0  -0.8041
  O  O90  1  0.581200  0.291800  0.939200  1.0  -0.8121
  O  O91  1  0.295700  0.213700  0.048100  1.0  -0.7983
  O  O92  1  0.295400  0.081300  0.053600  1.0  -0.7702
  O  O93  1  0.539900  0.459700  0.395800  1.0  -0.5282
  O  O94  1  0.525400  0.346900  0.228000  1.0  -0.811
  O  O95  1  0.613300  0.389000  0.473700  1.0  -0.8442
  O  O96  1  0.652600  0.473800  0.228500  1.0  -0.7949
  O  O97  1  0.423600  0.211700  0.040500  1.0  -0.852
  O  O98  1  0.073800  0.147100  0.947600  1.0  -0.8577
  O  O99  1  0.223800  0.112700  0.506000  1.0  -0.7072
  O  O100  1  0.088500  0.045000  0.652000  1.0  -0.8854
  O  O101  1  0.203200  0.035600  0.771300  1.0  -0.7817
  O  O102  1  0.203300  0.167000  0.772100  1.0  -0.8015
  O  O103  1  0.291800  0.710600  0.060800  1.0  -0.8133
  O  O104  1  0.213700  0.918000  0.951900  1.0  -0.7934
  O  O105  1  0.081300  0.785900  0.946400  1.0  -0.7778
  O  O106  1  0.459700  0.919800  0.604200  1.0  -0.5303
  O  O107  1  0.346900  0.821500  0.772000  1.0  -0.8138
  O  O108  1  0.389000  0.775700  0.526300  1.0  -0.8465
  O  O109  1  0.473800  0.821200  0.771500  1.0  -0.7936
  O  O110  1  0.211700  0.788100  0.959500  1.0  -0.8536
  O  O111  1  0.147100  0.073300  0.052400  1.0  -0.8608
  O  O112  1  0.887300  0.111100  0.506000  1.0  -0.7053
  O  O113  1  0.955000  0.043500  0.652000  1.0  -0.8862
  O  O114  1  0.964400  0.167600  0.771300  1.0  -0.7863
  O  O115  1  0.833000  0.036300  0.772100  1.0  -0.7959
  O  O116  1  0.289400  0.581200  0.060800  1.0  -0.813
  O  O117  1  0.082000  0.295700  0.951900  1.0  -0.7982
  O  O118  1  0.214100  0.295400  0.946400  1.0  -0.7748
  O  O119  1  0.080200  0.539900  0.604200  1.0  -0.5289
  O  O120  1  0.178500  0.525400  0.772000  1.0  -0.8146
  O  O121  1  0.224300  0.613300  0.526300  1.0  -0.8446
  O  O122  1  0.178800  0.652600  0.771500  1.0  -0.7924
  O  O123  1  0.211900  0.423600  0.959500  1.0  -0.854
  O  O124  1  0.926700  0.073800  0.052400  1.0  -0.8656
  O  O125  1  0.888900  0.776200  0.506000  1.0  -0.7064
  O  O126  1  0.956500  0.911500  0.652000  1.0  -0.884
  O  O127  1  0.832400  0.796800  0.771300  1.0  -0.7843
  O  O128  1  0.963700  0.796700  0.772100  1.0  -0.8025
  O  O129  1  0.418800  0.708200  0.060800  1.0  -0.8127
  O  O130  1  0.704300  0.786300  0.951900  1.0  -0.8003
  O  O131  1  0.704600  0.918700  0.946400  1.0  -0.771
  O  O132  1  0.460100  0.540300  0.604200  1.0  -0.5287
  O  O133  1  0.474600  0.653100  0.772000  1.0  -0.8101
  O  O134  1  0.386700  0.611000  0.526300  1.0  -0.8445
  O  O135  1  0.347400  0.526200  0.771500  1.0  -0.7934
  O  O136  1  0.576400  0.788300  0.959500  1.0  -0.854
  O  O137  1  0.926200  0.852900  0.052400  1.0  -0.8579
  O  O138  1  0.666667  0.333333  0.704300  1.0  -0.7543
  O  O139  1  0.333333  0.666667  0.295700  1.0  -0.7526
