# generated using pymatgen
data_Mn3Mo12(P4O25)2
_symmetry_space_group_name_H-M   'P 1'
_cell_length_a   16.23300000
_cell_length_b   11.87100000
_cell_length_c   17.98800000
_cell_angle_alpha   90.00000000
_cell_angle_beta   103.64000000
_cell_angle_gamma   90.00000000
_symmetry_Int_Tables_number   1
_chemical_formula_structural   Mn3Mo12(P4O25)2
_chemical_formula_sum   'Mn6 Mo24 P16 O100'
_cell_volume   3368.56048162
_cell_formula_units_Z   2
loop_
 _symmetry_equiv_pos_site_id
 _symmetry_equiv_pos_as_xyz
  1  'x, y, z'
loop_
 _atom_site_type_symbol
 _atom_site_label
 _atom_site_symmetry_multiplicity
 _atom_site_fract_x
 _atom_site_fract_y
 _atom_site_fract_z
 _atom_site_occupancy
 _atom_site_charge
  Mn  Mn1  1  0.875810  0.502670  0.865510  1.0  1.2014
  Mn  Mn2  1  0.624190  0.002670  0.634490  1.0  1.2016
  Mn  Mn3  1  0.124190  0.497330  0.134490  1.0  1.2015
  Mn  Mn4  1  0.375810  0.997330  0.365510  1.0  1.2013
  Mn  Mn5  1  0.500000  0.500000  0.000000  1.0  1.0486
  Mn  Mn6  1  0.000000  0.000000  0.500000  1.0  1.0486
  Mo  Mo7  1  0.716610  0.641150  0.067560  1.0  1.3149
  Mo  Mo8  1  0.617560  0.767110  0.966960  1.0  1.2821
  Mo  Mo9  1  0.611040  0.255550  0.921820  1.0  1.2973
  Mo  Mo10  1  0.715700  0.348020  0.036960  1.0  1.3146
  Mo  Mo11  1  0.479690  0.646040  0.805010  1.0  1.289
  Mo  Mo12  1  0.476460  0.429440  0.786800  1.0  1.2913
  Mo  Mo13  1  0.783390  0.141150  0.432440  1.0  1.3134
  Mo  Mo14  1  0.882440  0.267110  0.533040  1.0  1.2833
  Mo  Mo15  1  0.888960  0.755550  0.578180  1.0  1.2978
  Mo  Mo16  1  0.784300  0.848020  0.463040  1.0  1.315
  Mo  Mo17  1  0.020310  0.146040  0.694990  1.0  1.2848
  Mo  Mo18  1  0.023540  0.929440  0.713200  1.0  1.2878
  Mo  Mo19  1  0.283390  0.358850  0.932440  1.0  1.3135
  Mo  Mo20  1  0.382440  0.232890  0.033040  1.0  1.284
  Mo  Mo21  1  0.388960  0.744450  0.078180  1.0  1.2981
  Mo  Mo22  1  0.284300  0.651980  0.963040  1.0  1.3172
  Mo  Mo23  1  0.520310  0.353960  0.194990  1.0  1.2841
  Mo  Mo24  1  0.523540  0.570560  0.213200  1.0  1.2872
  Mo  Mo25  1  0.216610  0.858850  0.567560  1.0  1.312
  Mo  Mo26  1  0.117560  0.732890  0.466960  1.0  1.2816
  Mo  Mo27  1  0.111040  0.244450  0.421820  1.0  1.2984
  Mo  Mo28  1  0.215700  0.151980  0.536960  1.0  1.3175
  Mo  Mo29  1  0.979690  0.853960  0.305010  1.0  1.2888
  Mo  Mo30  1  0.976460  0.070560  0.286800  1.0  1.2915
  P  P31  1  0.623270  0.836880  0.790260  1.0  1.7567
  P  P32  1  0.888870  0.507350  0.058320  1.0  1.7808
  P  P33  1  0.561220  0.201350  0.737200  1.0  1.7775
  P  P34  1  0.672460  0.524520  0.886040  1.0  1.8508
  P  P35  1  0.876730  0.336880  0.709740  1.0  1.7564
  P  P36  1  0.611130  0.007350  0.441680  1.0  1.7795
  P  P37  1  0.938780  0.701350  0.762800  1.0  1.7776
  P  P38  1  0.827540  0.024520  0.613960  1.0  1.8482
  P  P39  1  0.376730  0.163120  0.209740  1.0  1.7565
  P  P40  1  0.111130  0.492650  0.941680  1.0  1.7798
  P  P41  1  0.438780  0.798650  0.262800  1.0  1.7776
  P  P42  1  0.327540  0.475480  0.113960  1.0  1.8482
  P  P43  1  0.123270  0.663120  0.290260  1.0  1.7568
  P  P44  1  0.388870  0.992650  0.558320  1.0  1.7808
  P  P45  1  0.061220  0.298650  0.237200  1.0  1.7774
  P  P46  1  0.172460  0.975480  0.386040  1.0  1.8506
  O  O47  1  0.699700  0.760700  0.780700  1.0  -0.4699
  O  O48  1  0.739600  0.745400  0.992000  1.0  -0.6178
  O  O49  1  0.592400  0.634600  0.024300  1.0  -0.7433
  O  O50  1  0.591800  0.361400  0.001200  1.0  -0.7243
  O  O51  1  0.464600  0.524300  0.875100  1.0  -0.7162
  O  O52  1  0.486200  0.290900  0.862500  1.0  -0.5738
  O  O53  1  0.485400  0.122200  0.734700  1.0  -0.4428
  O  O54  1  0.517800  0.550400  0.732300  1.0  -0.5964
  O  O55  1  0.901900  0.539300  0.982100  1.0  -0.7027
  O  O56  1  0.528600  0.324200  0.722100  1.0  -0.6606
  O  O57  1  0.843000  0.393700  0.060700  1.0  -0.6998
  O  O58  1  0.705700  0.479800  0.114600  1.0  -0.5869
  O  O59  1  0.841500  0.599600  0.091500  1.0  -0.6751
  O  O60  1  0.622100  0.196100  0.818400  1.0  -0.6692
  O  O61  1  0.539300  0.775100  0.760300  1.0  -0.6716
  O  O62  1  0.608600  0.169100  0.677400  1.0  -0.6581
  O  O63  1  0.630300  0.943300  0.748200  1.0  -0.7038
  O  O64  1  0.634500  0.862500  0.876100  1.0  -0.6831
  O  O65  1  0.977000  0.497100  0.117600  1.0  -0.7762
  O  O66  1  0.739600  0.540100  0.841800  1.0  -0.7769
  O  O67  1  0.491900  0.755400  0.900200  1.0  -0.5426
  O  O68  1  0.711800  0.510100  0.973200  1.0  -0.7869
  O  O69  1  0.734200  0.273800  0.946500  1.0  -0.6011
  O  O70  1  0.615400  0.631400  0.877600  1.0  -0.7704
  O  O71  1  0.614400  0.423400  0.858200  1.0  -0.8234
  O  O72  1  0.800300  0.260700  0.719300  1.0  -0.4699
  O  O73  1  0.760400  0.245400  0.508000  1.0  -0.6158
  O  O74  1  0.907600  0.134600  0.475700  1.0  -0.7424
  O  O75  1  0.908200  0.861400  0.498800  1.0  -0.7238
  O  O76  1  0.035400  0.024300  0.624900  1.0  -0.7196
  O  O77  1  0.013800  0.790900  0.637500  1.0  -0.5737
  O  O78  1  0.014600  0.622200  0.765300  1.0  -0.4421
  O  O79  1  0.982200  0.050400  0.767700  1.0  -0.5932
  O  O80  1  0.598100  0.039300  0.517900  1.0  -0.7017
  O  O81  1  0.971400  0.824200  0.777900  1.0  -0.6575
  O  O82  1  0.657000  0.893700  0.439300  1.0  -0.7008
  O  O83  1  0.794300  0.979800  0.385400  1.0  -0.5855
  O  O84  1  0.658500  0.099600  0.408500  1.0  -0.6773
  O  O85  1  0.877900  0.696100  0.681600  1.0  -0.668
  O  O86  1  0.960700  0.275100  0.739700  1.0  -0.6727
  O  O87  1  0.891400  0.669100  0.822600  1.0  -0.6582
  O  O88  1  0.869700  0.443300  0.751800  1.0  -0.7052
  O  O89  1  0.865500  0.362500  0.623900  1.0  -0.6832
  O  O90  1  0.523000  0.997100  0.382400  1.0  -0.7779
  O  O91  1  0.760400  0.040100  0.658200  1.0  -0.7759
  O  O92  1  0.008100  0.255400  0.599800  1.0  -0.5442
  O  O93  1  0.788200  0.010100  0.526800  1.0  -0.7861
  O  O94  1  0.765800  0.773800  0.553500  1.0  -0.6017
  O  O95  1  0.884600  0.131400  0.622400  1.0  -0.7713
  O  O96  1  0.885600  0.923400  0.641800  1.0  -0.8234
  O  O97  1  0.300300  0.239300  0.219300  1.0  -0.4695
  O  O98  1  0.260400  0.254600  0.008000  1.0  -0.6227
  O  O99  1  0.407600  0.365400  0.975700  1.0  -0.7425
  O  O100  1  0.408200  0.638600  0.998800  1.0  -0.7248
  O  O101  1  0.535400  0.475700  0.124900  1.0  -0.7197
  O  O102  1  0.513800  0.709100  0.137500  1.0  -0.574
  O  O103  1  0.514600  0.877800  0.265300  1.0  -0.4418
  O  O104  1  0.482200  0.449600  0.267700  1.0  -0.5932
  O  O105  1  0.098100  0.460700  0.017900  1.0  -0.7015
  O  O106  1  0.471400  0.675800  0.277900  1.0  -0.6582
  O  O107  1  0.157000  0.606300  0.939300  1.0  -0.7014
  O  O108  1  0.294300  0.520200  0.885400  1.0  -0.5849
  O  O109  1  0.158500  0.400400  0.908500  1.0  -0.6765
  O  O110  1  0.377900  0.803900  0.181600  1.0  -0.6691
  O  O111  1  0.460700  0.224900  0.239700  1.0  -0.673
  O  O112  1  0.391400  0.830900  0.322600  1.0  -0.6585
  O  O113  1  0.369700  0.056700  0.251800  1.0  -0.7052
  O  O114  1  0.365500  0.137500  0.123900  1.0  -0.6821
  O  O115  1  0.023000  0.502900  0.882400  1.0  -0.7782
  O  O116  1  0.260400  0.459900  0.158200  1.0  -0.7758
  O  O117  1  0.508100  0.244600  0.099800  1.0  -0.5444
  O  O118  1  0.288200  0.489900  0.026800  1.0  -0.786
  O  O119  1  0.265800  0.726200  0.053500  1.0  -0.6
  O  O120  1  0.384600  0.368600  0.122400  1.0  -0.7718
  O  O121  1  0.385600  0.576600  0.141800  1.0  -0.8236
  O  O122  1  0.199700  0.739300  0.280700  1.0  -0.4689
  O  O123  1  0.239600  0.754600  0.492000  1.0  -0.6232
  O  O124  1  0.092400  0.865400  0.524300  1.0  -0.7439
  O  O125  1  0.091800  0.138600  0.501200  1.0  -0.7254
  O  O126  1  0.964600  0.975700  0.375100  1.0  -0.7165
  O  O127  1  0.986200  0.209100  0.362500  1.0  -0.573
  O  O128  1  0.985400  0.377800  0.234700  1.0  -0.4422
  O  O129  1  0.017800  0.949600  0.232300  1.0  -0.5964
  O  O130  1  0.401900  0.960700  0.482100  1.0  -0.703
  O  O131  1  0.028600  0.175800  0.222100  1.0  -0.6603
  O  O132  1  0.343000  0.106300  0.560700  1.0  -0.6992
  O  O133  1  0.205700  0.020200  0.614600  1.0  -0.5861
  O  O134  1  0.341500  0.900400  0.591500  1.0  -0.6761
  O  O135  1  0.122100  0.303900  0.318400  1.0  -0.6692
  O  O136  1  0.039300  0.724900  0.260300  1.0  -0.6716
  O  O137  1  0.108600  0.330900  0.177400  1.0  -0.6585
  O  O138  1  0.130300  0.556700  0.248200  1.0  -0.7037
  O  O139  1  0.134500  0.637500  0.376100  1.0  -0.6839
  O  O140  1  0.477000  0.002900  0.617600  1.0  -0.7764
  O  O141  1  0.239600  0.959900  0.341800  1.0  -0.777
  O  O142  1  0.991900  0.744600  0.400200  1.0  -0.5442
  O  O143  1  0.211800  0.989900  0.473200  1.0  -0.7868
  O  O144  1  0.234200  0.226200  0.446500  1.0  -0.6009
  O  O145  1  0.115400  0.868600  0.377600  1.0  -0.771
  O  O146  1  0.114400  0.076600  0.358200  1.0  -0.8234
