# generated using pymatgen
data_Mn2Mo6P4O25
_symmetry_space_group_name_H-M   'P 1'
_cell_length_a   12.56300000
_cell_length_b   22.35400000
_cell_length_c   26.16400000
_cell_angle_alpha   90.00000000
_cell_angle_beta   99.58100000
_cell_angle_gamma   90.00000000
_symmetry_Int_Tables_number   1
_chemical_formula_structural   Mn2Mo6P4O25
_chemical_formula_sum   'Mn16 Mo48 P32 O200'
_cell_volume   7245.23122972
_cell_formula_units_Z   8
loop_
 _symmetry_equiv_pos_site_id
 _symmetry_equiv_pos_as_xyz
  1  'x, y, z'
loop_
 _atom_site_type_symbol
 _atom_site_label
 _atom_site_symmetry_multiplicity
 _atom_site_fract_x
 _atom_site_fract_y
 _atom_site_fract_z
 _atom_site_occupancy
 _atom_site_charge
  Mn  Mn1  1  0.348760  0.436520  0.203840  1.0  1.1306
  Mn  Mn2  1  0.848760  0.936520  0.203840  1.0  1.1306
  Mn  Mn3  1  0.651240  0.436520  0.296160  1.0  1.1304
  Mn  Mn4  1  0.151240  0.936520  0.296160  1.0  1.1304
  Mn  Mn5  1  0.651240  0.563480  0.796160  1.0  1.1303
  Mn  Mn6  1  0.151240  0.063480  0.796160  1.0  1.1303
  Mn  Mn7  1  0.348760  0.563480  0.703840  1.0  1.1304
  Mn  Mn8  1  0.848760  0.063480  0.703840  1.0  1.1304
  Mn  Mn9  1  0.750000  0.250000  0.000000  1.0  1.0468
  Mn  Mn10  1  0.250000  0.250000  0.500000  1.0  1.0468
  Mn  Mn11  1  0.250000  0.750000  0.000000  1.0  1.0468
  Mn  Mn12  1  0.750000  0.750000  0.500000  1.0  1.0468
  Mn  Mn13  1  0.000000  0.346600  0.250000  1.0  1.2916
  Mn  Mn14  1  0.500000  0.846600  0.250000  1.0  1.2916
  Mn  Mn15  1  0.000000  0.653400  0.750000  1.0  1.2934
  Mn  Mn16  1  0.500000  0.153400  0.750000  1.0  1.2934
  Mo  Mo17  1  0.719170  0.392470  0.077470  1.0  1.2545
  Mo  Mo18  1  0.576460  0.266920  0.108370  1.0  1.2753
  Mo  Mo19  1  0.918320  0.380100  0.062670  1.0  1.3012
  Mo  Mo20  1  0.040950  0.238440  0.074060  1.0  1.3203
  Mo  Mo21  1  0.660710  0.161380  0.112140  1.0  1.3148
  Mo  Mo22  1  0.929420  0.146220  0.094760  1.0  1.2762
  Mo  Mo23  1  0.219170  0.892470  0.077470  1.0  1.2545
  Mo  Mo24  1  0.076460  0.766920  0.108370  1.0  1.2753
  Mo  Mo25  1  0.418320  0.880100  0.062670  1.0  1.3012
  Mo  Mo26  1  0.540950  0.738440  0.074060  1.0  1.3203
  Mo  Mo27  1  0.160710  0.661380  0.112140  1.0  1.3148
  Mo  Mo28  1  0.429420  0.646220  0.094760  1.0  1.2762
  Mo  Mo29  1  0.280830  0.392470  0.422530  1.0  1.254
  Mo  Mo30  1  0.423540  0.266920  0.391630  1.0  1.2736
  Mo  Mo31  1  0.081680  0.380100  0.437330  1.0  1.3012
  Mo  Mo32  1  0.959050  0.238440  0.425940  1.0  1.3186
  Mo  Mo33  1  0.339290  0.161380  0.387860  1.0  1.3097
  Mo  Mo34  1  0.070580  0.146220  0.405240  1.0  1.2777
  Mo  Mo35  1  0.780830  0.892470  0.422530  1.0  1.254
  Mo  Mo36  1  0.923540  0.766920  0.391630  1.0  1.2736
  Mo  Mo37  1  0.581680  0.880100  0.437330  1.0  1.3012
  Mo  Mo38  1  0.459050  0.738440  0.425940  1.0  1.3186
  Mo  Mo39  1  0.839290  0.661380  0.387860  1.0  1.3097
  Mo  Mo40  1  0.570580  0.646220  0.405240  1.0  1.2777
  Mo  Mo41  1  0.280830  0.607530  0.922530  1.0  1.2533
  Mo  Mo42  1  0.423540  0.733080  0.891630  1.0  1.2739
  Mo  Mo43  1  0.081680  0.619900  0.937330  1.0  1.2992
  Mo  Mo44  1  0.959050  0.761560  0.925940  1.0  1.319
  Mo  Mo45  1  0.339290  0.838620  0.887860  1.0  1.3141
  Mo  Mo46  1  0.070580  0.853780  0.905240  1.0  1.2801
  Mo  Mo47  1  0.780830  0.107530  0.922530  1.0  1.2533
  Mo  Mo48  1  0.923540  0.233080  0.891630  1.0  1.2739
  Mo  Mo49  1  0.581680  0.119900  0.937330  1.0  1.2992
  Mo  Mo50  1  0.459050  0.261560  0.925940  1.0  1.319
  Mo  Mo51  1  0.839290  0.338620  0.887860  1.0  1.3141
  Mo  Mo52  1  0.570580  0.353780  0.905240  1.0  1.2801
  Mo  Mo53  1  0.719170  0.607530  0.577470  1.0  1.2539
  Mo  Mo54  1  0.576460  0.733080  0.608370  1.0  1.2751
  Mo  Mo55  1  0.918320  0.619900  0.562670  1.0  1.3017
  Mo  Mo56  1  0.040950  0.761560  0.574060  1.0  1.3213
  Mo  Mo57  1  0.660710  0.838620  0.612140  1.0  1.3157
  Mo  Mo58  1  0.929420  0.853780  0.594760  1.0  1.2794
  Mo  Mo59  1  0.219170  0.107530  0.577470  1.0  1.2539
  Mo  Mo60  1  0.076460  0.233080  0.608370  1.0  1.2751
  Mo  Mo61  1  0.418320  0.119900  0.562670  1.0  1.3017
  Mo  Mo62  1  0.540950  0.261560  0.574060  1.0  1.3213
  Mo  Mo63  1  0.160710  0.338620  0.612140  1.0  1.3157
  Mo  Mo64  1  0.429420  0.353780  0.594760  1.0  1.2794
  P  P65  1  0.831200  0.088000  0.197800  1.0  1.7552
  P  P66  1  0.144500  0.354130  0.143720  1.0  1.8045
  P  P67  1  0.850980  0.273840  0.147720  1.0  1.7968
  P  P68  1  0.590070  0.391080  0.179780  1.0  1.9181
  P  P69  1  0.331200  0.588000  0.197800  1.0  1.7552
  P  P70  1  0.644500  0.854130  0.143720  1.0  1.8045
  P  P71  1  0.350980  0.773840  0.147720  1.0  1.7968
  P  P72  1  0.090070  0.891080  0.179780  1.0  1.9181
  P  P73  1  0.168800  0.088000  0.302200  1.0  1.7542
  P  P74  1  0.855500  0.354130  0.356280  1.0  1.8032
  P  P75  1  0.149020  0.273840  0.352280  1.0  1.7963
  P  P76  1  0.409930  0.391080  0.320220  1.0  1.9197
  P  P77  1  0.668800  0.588000  0.302200  1.0  1.7542
  P  P78  1  0.355500  0.854130  0.356280  1.0  1.8032
  P  P79  1  0.649020  0.773840  0.352280  1.0  1.7963
  P  P80  1  0.909930  0.891080  0.320220  1.0  1.9197
  P  P81  1  0.168800  0.912000  0.802200  1.0  1.7537
  P  P82  1  0.855500  0.645870  0.856280  1.0  1.8033
  P  P83  1  0.149020  0.726160  0.852280  1.0  1.7963
  P  P84  1  0.409930  0.608920  0.820220  1.0  1.9197
  P  P85  1  0.668800  0.412000  0.802200  1.0  1.7537
  P  P86  1  0.355500  0.145870  0.856280  1.0  1.8033
  P  P87  1  0.649020  0.226160  0.852280  1.0  1.7963
  P  P88  1  0.909930  0.108920  0.820220  1.0  1.9197
  P  P89  1  0.831200  0.912000  0.697800  1.0  1.755
  P  P90  1  0.144500  0.645870  0.643720  1.0  1.8049
  P  P91  1  0.850980  0.726160  0.647720  1.0  1.7969
  P  P92  1  0.590070  0.608920  0.679780  1.0  1.9182
  P  P93  1  0.331200  0.412000  0.697800  1.0  1.755
  P  P94  1  0.644500  0.145870  0.643720  1.0  1.8049
  P  P95  1  0.350980  0.226160  0.647720  1.0  1.7969
  P  P96  1  0.090070  0.108920  0.679780  1.0  1.9182
  O  O97  1  0.896400  0.280700  0.204300  1.0  -0.784
  O  O98  1  0.850200  0.132300  0.244600  1.0  -0.4776
  O  O99  1  0.900700  0.207000  0.039800  1.0  -0.7571
  O  O100  1  0.579200  0.340500  0.059200  1.0  -0.5745
  O  O101  1  0.768600  0.118600  0.070900  1.0  -0.6027
  O  O102  1  0.110900  0.344700  0.195100  1.0  -0.8038
  O  O103  1  0.153600  0.294000  0.115100  1.0  -0.6649
  O  O104  1  0.915700  0.095400  0.161500  1.0  -0.7295
  O  O105  1  0.001600  0.314900  0.026700  1.0  -0.6261
  O  O106  1  0.722900  0.103700  0.168600  1.0  -0.6447
  O  O107  1  0.833000  0.025300  0.218000  1.0  -0.6835
  O  O108  1  0.784900  0.338700  0.031300  1.0  -0.7553
  O  O109  1  0.622200  0.213500  0.165900  1.0  -0.6407
  O  O110  1  0.047000  0.189700  0.135900  1.0  -0.6236
  O  O111  1  0.063300  0.395000  0.108100  1.0  -0.6635
  O  O112  1  0.649500  0.419600  0.138800  1.0  -0.6865
  O  O113  1  0.548200  0.328700  0.163200  1.0  -0.7161
  O  O114  1  0.743700  0.308900  0.130900  1.0  -0.8154
  O  O115  1  0.825800  0.206800  0.134000  1.0  -0.8114
  O  O116  1  0.930600  0.297000  0.112500  1.0  -0.8091
  O  O117  1  0.255300  0.384400  0.148800  1.0  -0.6602
  O  O118  1  0.667500  0.387200  0.231000  1.0  -0.6674
  O  O119  1  0.649100  0.223900  0.058000  1.0  -0.7638
  O  O120  1  0.496300  0.432800  0.184100  1.0  -0.7344
  O  O121  1  0.855100  0.417800  0.117400  1.0  -0.6231
  O  O122  1  0.396400  0.780700  0.204300  1.0  -0.784
  O  O123  1  0.350200  0.632300  0.244600  1.0  -0.4776
  O  O124  1  0.400700  0.707000  0.039800  1.0  -0.7571
  O  O125  1  0.079200  0.840500  0.059200  1.0  -0.5745
  O  O126  1  0.268600  0.618600  0.070900  1.0  -0.6027
  O  O127  1  0.610900  0.844700  0.195100  1.0  -0.8038
  O  O128  1  0.653600  0.794000  0.115100  1.0  -0.6649
  O  O129  1  0.415700  0.595400  0.161500  1.0  -0.7295
  O  O130  1  0.501600  0.814900  0.026700  1.0  -0.6261
  O  O131  1  0.222900  0.603700  0.168600  1.0  -0.6447
  O  O132  1  0.333000  0.525300  0.218000  1.0  -0.6835
  O  O133  1  0.284900  0.838700  0.031300  1.0  -0.7553
  O  O134  1  0.122200  0.713500  0.165900  1.0  -0.6407
  O  O135  1  0.547000  0.689700  0.135900  1.0  -0.6236
  O  O136  1  0.563300  0.895000  0.108100  1.0  -0.6635
  O  O137  1  0.149500  0.919600  0.138800  1.0  -0.6865
  O  O138  1  0.048200  0.828700  0.163200  1.0  -0.7161
  O  O139  1  0.243700  0.808900  0.130900  1.0  -0.8154
  O  O140  1  0.325800  0.706800  0.134000  1.0  -0.8114
  O  O141  1  0.430600  0.797000  0.112500  1.0  -0.8091
  O  O142  1  0.755300  0.884400  0.148800  1.0  -0.6602
  O  O143  1  0.167500  0.887200  0.231000  1.0  -0.6674
  O  O144  1  0.149100  0.723900  0.058000  1.0  -0.7638
  O  O145  1  0.996300  0.932800  0.184100  1.0  -0.7344
  O  O146  1  0.355100  0.917800  0.117400  1.0  -0.6231
  O  O147  1  0.103600  0.280700  0.295700  1.0  -0.7841
  O  O148  1  0.149800  0.132300  0.255400  1.0  -0.4756
  O  O149  1  0.099300  0.207000  0.460200  1.0  -0.7551
  O  O150  1  0.420800  0.340500  0.440800  1.0  -0.5753
  O  O151  1  0.231400  0.118600  0.429100  1.0  -0.6041
  O  O152  1  0.889100  0.344700  0.304900  1.0  -0.8032
  O  O153  1  0.846400  0.294000  0.384900  1.0  -0.6642
  O  O154  1  0.084300  0.095400  0.338500  1.0  -0.7299
  O  O155  1  0.998400  0.314900  0.473300  1.0  -0.6248
  O  O156  1  0.277100  0.103700  0.331400  1.0  -0.6457
  O  O157  1  0.167000  0.025300  0.282000  1.0  -0.6833
  O  O158  1  0.215100  0.338700  0.468700  1.0  -0.7555
  O  O159  1  0.377800  0.213500  0.334100  1.0  -0.645
  O  O160  1  0.953000  0.189700  0.364100  1.0  -0.6194
  O  O161  1  0.936700  0.395000  0.391900  1.0  -0.6616
  O  O162  1  0.350500  0.419600  0.361200  1.0  -0.6855
  O  O163  1  0.451800  0.328700  0.336800  1.0  -0.7146
  O  O164  1  0.256300  0.308900  0.369100  1.0  -0.8157
  O  O165  1  0.174200  0.206800  0.366000  1.0  -0.8096
  O  O166  1  0.069400  0.297000  0.387500  1.0  -0.8074
  O  O167  1  0.744700  0.384400  0.351200  1.0  -0.6623
  O  O168  1  0.332500  0.387200  0.269000  1.0  -0.6679
  O  O169  1  0.350900  0.223900  0.442000  1.0  -0.766
  O  O170  1  0.503700  0.432800  0.315900  1.0  -0.7321
  O  O171  1  0.144900  0.417800  0.382600  1.0  -0.6237
  O  O172  1  0.603600  0.780700  0.295700  1.0  -0.7841
  O  O173  1  0.649800  0.632300  0.255400  1.0  -0.4756
  O  O174  1  0.599300  0.707000  0.460200  1.0  -0.7551
  O  O175  1  0.920800  0.840500  0.440800  1.0  -0.5753
  O  O176  1  0.731400  0.618600  0.429100  1.0  -0.6041
  O  O177  1  0.389100  0.844700  0.304900  1.0  -0.8032
  O  O178  1  0.346400  0.794000  0.384900  1.0  -0.6642
  O  O179  1  0.584300  0.595400  0.338500  1.0  -0.7299
  O  O180  1  0.498400  0.814900  0.473300  1.0  -0.6248
  O  O181  1  0.777100  0.603700  0.331400  1.0  -0.6457
  O  O182  1  0.667000  0.525300  0.282000  1.0  -0.6833
  O  O183  1  0.715100  0.838700  0.468700  1.0  -0.7555
  O  O184  1  0.877800  0.713500  0.334100  1.0  -0.645
  O  O185  1  0.453000  0.689700  0.364100  1.0  -0.6194
  O  O186  1  0.436700  0.895000  0.391900  1.0  -0.6616
  O  O187  1  0.850500  0.919600  0.361200  1.0  -0.6855
  O  O188  1  0.951800  0.828700  0.336800  1.0  -0.7146
  O  O189  1  0.756300  0.808900  0.369100  1.0  -0.8157
  O  O190  1  0.674200  0.706800  0.366000  1.0  -0.8096
  O  O191  1  0.569400  0.797000  0.387500  1.0  -0.8074
  O  O192  1  0.244700  0.884400  0.351200  1.0  -0.6623
  O  O193  1  0.832500  0.887200  0.269000  1.0  -0.6679
  O  O194  1  0.850900  0.723900  0.442000  1.0  -0.766
  O  O195  1  0.003700  0.932800  0.315900  1.0  -0.7325
  O  O196  1  0.644900  0.917800  0.382600  1.0  -0.6237
  O  O197  1  0.103600  0.719300  0.795700  1.0  -0.7842
  O  O198  1  0.149800  0.867700  0.755400  1.0  -0.4757
  O  O199  1  0.099300  0.793000  0.960200  1.0  -0.7548
  O  O200  1  0.420800  0.659500  0.940800  1.0  -0.5752
  O  O201  1  0.231400  0.881400  0.929100  1.0  -0.5996
  O  O202  1  0.889100  0.655300  0.804900  1.0  -0.8042
  O  O203  1  0.846400  0.706000  0.884900  1.0  -0.6646
  O  O204  1  0.084300  0.904600  0.838500  1.0  -0.73
  O  O205  1  0.998400  0.685100  0.973300  1.0  -0.6252
  O  O206  1  0.277100  0.896300  0.831400  1.0  -0.6443
  O  O207  1  0.167000  0.974700  0.782000  1.0  -0.6826
  O  O208  1  0.215100  0.661300  0.968700  1.0  -0.7561
  O  O209  1  0.377800  0.786500  0.834100  1.0  -0.6456
  O  O210  1  0.953000  0.810300  0.864100  1.0  -0.621
  O  O211  1  0.936700  0.605000  0.891900  1.0  -0.6608
  O  O212  1  0.350500  0.580400  0.861200  1.0  -0.6867
  O  O213  1  0.451800  0.671300  0.836800  1.0  -0.7141
  O  O214  1  0.256300  0.691100  0.869100  1.0  -0.8166
  O  O215  1  0.174200  0.793200  0.866000  1.0  -0.8087
  O  O216  1  0.069400  0.703000  0.887500  1.0  -0.8079
  O  O217  1  0.744700  0.615600  0.851200  1.0  -0.6622
  O  O218  1  0.332500  0.612800  0.769000  1.0  -0.6676
  O  O219  1  0.350900  0.776100  0.942000  1.0  -0.7659
  O  O220  1  0.503700  0.567200  0.815900  1.0  -0.732
  O  O221  1  0.144900  0.582200  0.882600  1.0  -0.6287
  O  O222  1  0.603600  0.219300  0.795700  1.0  -0.7842
  O  O223  1  0.649800  0.367700  0.755400  1.0  -0.4757
  O  O224  1  0.599300  0.293000  0.960200  1.0  -0.7548
  O  O225  1  0.920800  0.159500  0.940800  1.0  -0.5752
  O  O226  1  0.731400  0.381400  0.929100  1.0  -0.5996
  O  O227  1  0.389100  0.155300  0.804900  1.0  -0.8042
  O  O228  1  0.346400  0.206000  0.884900  1.0  -0.6646
  O  O229  1  0.584300  0.404600  0.838500  1.0  -0.73
  O  O230  1  0.498400  0.185100  0.973300  1.0  -0.6252
  O  O231  1  0.777100  0.396300  0.831400  1.0  -0.6443
  O  O232  1  0.667000  0.474700  0.782000  1.0  -0.6826
  O  O233  1  0.715100  0.161300  0.968700  1.0  -0.7561
  O  O234  1  0.877800  0.286500  0.834100  1.0  -0.6456
  O  O235  1  0.453000  0.310300  0.864100  1.0  -0.621
  O  O236  1  0.436700  0.105000  0.891900  1.0  -0.6608
  O  O237  1  0.850500  0.080400  0.861200  1.0  -0.6867
  O  O238  1  0.951800  0.171300  0.836800  1.0  -0.7141
  O  O239  1  0.756300  0.191100  0.869100  1.0  -0.8166
  O  O240  1  0.674200  0.293200  0.866000  1.0  -0.8087
  O  O241  1  0.569400  0.203000  0.887500  1.0  -0.8079
  O  O242  1  0.244700  0.115600  0.851200  1.0  -0.6622
  O  O243  1  0.832500  0.112800  0.769000  1.0  -0.6676
  O  O244  1  0.850900  0.276100  0.942000  1.0  -0.7659
  O  O245  1  0.003700  0.067200  0.815900  1.0  -0.7319
  O  O246  1  0.644900  0.082200  0.882600  1.0  -0.6287
  O  O247  1  0.896400  0.719300  0.704300  1.0  -0.7842
  O  O248  1  0.850200  0.867700  0.744600  1.0  -0.4775
  O  O249  1  0.900700  0.793000  0.539800  1.0  -0.7567
  O  O250  1  0.579200  0.659500  0.559200  1.0  -0.5743
  O  O251  1  0.768600  0.881400  0.570900  1.0  -0.6004
  O  O252  1  0.110900  0.655300  0.695100  1.0  -0.8031
  O  O253  1  0.153600  0.706000  0.615100  1.0  -0.6648
  O  O254  1  0.915700  0.904600  0.661500  1.0  -0.7283
  O  O255  1  0.001600  0.685100  0.526700  1.0  -0.6255
  O  O256  1  0.722900  0.896300  0.668600  1.0  -0.6446
  O  O257  1  0.833000  0.974700  0.718000  1.0  -0.6832
  O  O258  1  0.784900  0.661300  0.531300  1.0  -0.7559
  O  O259  1  0.622200  0.786500  0.665900  1.0  -0.64
  O  O260  1  0.047000  0.810300  0.635900  1.0  -0.6227
  O  O261  1  0.063300  0.605000  0.608100  1.0  -0.6615
  O  O262  1  0.649500  0.580400  0.638800  1.0  -0.686
  O  O263  1  0.548200  0.671300  0.663200  1.0  -0.7161
  O  O264  1  0.743700  0.691100  0.630900  1.0  -0.8153
  O  O265  1  0.825800  0.793200  0.634000  1.0  -0.8108
  O  O266  1  0.930600  0.703000  0.612500  1.0  -0.809
  O  O267  1  0.255300  0.615600  0.648800  1.0  -0.661
  O  O268  1  0.667500  0.612800  0.731000  1.0  -0.6668
  O  O269  1  0.649100  0.776100  0.558000  1.0  -0.7646
  O  O270  1  0.496300  0.567200  0.684100  1.0  -0.7334
  O  O271  1  0.855100  0.582200  0.617400  1.0  -0.6291
  O  O272  1  0.396400  0.219300  0.704300  1.0  -0.7842
  O  O273  1  0.350200  0.367700  0.744600  1.0  -0.4775
  O  O274  1  0.400700  0.293000  0.539800  1.0  -0.7567
  O  O275  1  0.079200  0.159500  0.559200  1.0  -0.5743
  O  O276  1  0.268600  0.381400  0.570900  1.0  -0.6004
  O  O277  1  0.610900  0.155300  0.695100  1.0  -0.8031
  O  O278  1  0.653600  0.206000  0.615100  1.0  -0.6648
  O  O279  1  0.415700  0.404600  0.661500  1.0  -0.7283
  O  O280  1  0.501600  0.185100  0.526700  1.0  -0.6255
  O  O281  1  0.222900  0.396300  0.668600  1.0  -0.6446
  O  O282  1  0.333000  0.474700  0.718000  1.0  -0.6832
  O  O283  1  0.284900  0.161300  0.531300  1.0  -0.7559
  O  O284  1  0.122200  0.286500  0.665900  1.0  -0.64
  O  O285  1  0.547000  0.310300  0.635900  1.0  -0.6227
  O  O286  1  0.563300  0.105000  0.608100  1.0  -0.6615
  O  O287  1  0.149500  0.080400  0.638800  1.0  -0.686
  O  O288  1  0.048200  0.171300  0.663200  1.0  -0.7161
  O  O289  1  0.243700  0.191100  0.630900  1.0  -0.8153
  O  O290  1  0.325800  0.293200  0.634000  1.0  -0.8108
  O  O291  1  0.430600  0.203000  0.612500  1.0  -0.809
  O  O292  1  0.755300  0.115600  0.648800  1.0  -0.661
  O  O293  1  0.167500  0.112800  0.731000  1.0  -0.6668
  O  O294  1  0.149100  0.276100  0.558000  1.0  -0.7646
  O  O295  1  0.996300  0.067200  0.684100  1.0  -0.7338
  O  O296  1  0.355100  0.082200  0.617400  1.0  -0.6291
