# generated using pymatgen
data_FeH2(C3N4)2
_symmetry_space_group_name_H-M   'P 1'
_cell_length_a   18.82350000
_cell_length_b   18.82350000
_cell_length_c   18.82350000
_cell_angle_alpha   90.00000000
_cell_angle_beta   90.00000000
_cell_angle_gamma   90.00000000
_symmetry_Int_Tables_number   1
_chemical_formula_structural   FeH2(C3N4)2
_chemical_formula_sum   'Fe12 H24 C72 N96'
_cell_volume   6669.62067988
_cell_formula_units_Z   12
loop_
 _symmetry_equiv_pos_site_id
 _symmetry_equiv_pos_as_xyz
  1  'x, y, z'
loop_
 _atom_site_type_symbol
 _atom_site_label
 _atom_site_symmetry_multiplicity
 _atom_site_fract_x
 _atom_site_fract_y
 _atom_site_fract_z
 _atom_site_occupancy
 _atom_site_charge
  Fe  Fe1  1  0.140710  0.000000  0.500000  1.0  0.7012
  Fe  Fe2  1  0.859290  0.000000  0.500000  1.0  0.7032
  Fe  Fe3  1  0.500000  0.140710  0.000000  1.0  0.7012
  Fe  Fe4  1  0.500000  0.859290  0.000000  1.0  0.7012
  Fe  Fe5  1  0.000000  0.500000  0.140710  1.0  0.6983
  Fe  Fe6  1  0.000000  0.500000  0.859290  1.0  0.701
  Fe  Fe7  1  0.000000  0.140710  0.500000  1.0  0.7012
  Fe  Fe8  1  0.000000  0.859290  0.500000  1.0  0.7012
  Fe  Fe9  1  0.140710  0.500000  0.000000  1.0  0.7012
  Fe  Fe10  1  0.859290  0.500000  0.000000  1.0  0.7032
  Fe  Fe11  1  0.500000  0.000000  0.859290  1.0  0.701
  Fe  Fe12  1  0.500000  0.000000  0.140710  1.0  0.6983
  H  H13  1  0.108100  0.260700  0.739300  1.0  0.1202
  H  H14  1  0.891900  0.739300  0.739300  1.0  0.12
  H  H15  1  0.891900  0.260700  0.260700  1.0  0.1201
  H  H16  1  0.108100  0.739300  0.260700  1.0  0.1207
  H  H17  1  0.739300  0.108100  0.260700  1.0  0.1205
  H  H18  1  0.739300  0.891900  0.739300  1.0  0.1203
  H  H19  1  0.260700  0.891900  0.260700  1.0  0.1205
  H  H20  1  0.260700  0.108100  0.739300  1.0  0.1204
  H  H21  1  0.260700  0.739300  0.108100  1.0  0.1206
  H  H22  1  0.739300  0.739300  0.891900  1.0  0.1212
  H  H23  1  0.260700  0.260700  0.891900  1.0  0.1206
  H  H24  1  0.739300  0.260700  0.108100  1.0  0.1207
  H  H25  1  0.260700  0.108100  0.260700  1.0  0.1205
  H  H26  1  0.739300  0.891900  0.260700  1.0  0.1204
  H  H27  1  0.260700  0.891900  0.739300  1.0  0.1204
  H  H28  1  0.739300  0.108100  0.739300  1.0  0.1204
  H  H29  1  0.108100  0.739300  0.739300  1.0  0.1204
  H  H30  1  0.891900  0.739300  0.260700  1.0  0.1202
  H  H31  1  0.891900  0.260700  0.739300  1.0  0.1199
  H  H32  1  0.108100  0.260700  0.260700  1.0  0.1203
  H  H33  1  0.739300  0.260700  0.891900  1.0  0.1207
  H  H34  1  0.739300  0.739300  0.108100  1.0  0.1208
  H  H35  1  0.260700  0.260700  0.108100  1.0  0.1205
  H  H36  1  0.260700  0.739300  0.891900  1.0  0.1208
  C  C37  1  0.149560  0.240310  0.759690  1.0  -0.0616
  C  C38  1  0.850440  0.759690  0.759690  1.0  -0.0607
  C  C39  1  0.850440  0.240310  0.240310  1.0  -0.0604
  C  C40  1  0.149560  0.759690  0.240310  1.0  -0.0611
  C  C41  1  0.759690  0.149560  0.240310  1.0  -0.0617
  C  C42  1  0.759690  0.850440  0.759690  1.0  -0.0616
  C  C43  1  0.240310  0.850440  0.240310  1.0  -0.0627
  C  C44  1  0.240310  0.149560  0.759690  1.0  -0.0621
  C  C45  1  0.240310  0.759690  0.149560  1.0  -0.0626
  C  C46  1  0.759690  0.759690  0.850440  1.0  -0.0638
  C  C47  1  0.240310  0.240310  0.850440  1.0  -0.063
  C  C48  1  0.759690  0.240310  0.149560  1.0  -0.0624
  C  C49  1  0.240310  0.149560  0.240310  1.0  -0.0623
  C  C50  1  0.759690  0.850440  0.240310  1.0  -0.0631
  C  C51  1  0.240310  0.850440  0.759690  1.0  -0.0614
  C  C52  1  0.759690  0.149560  0.759690  1.0  -0.0613
  C  C53  1  0.149560  0.759690  0.759690  1.0  -0.061
  C  C54  1  0.850440  0.759690  0.240310  1.0  -0.0602
  C  C55  1  0.850440  0.240310  0.759690  1.0  -0.0606
  C  C56  1  0.149560  0.240310  0.240310  1.0  -0.0579
  C  C57  1  0.759690  0.240310  0.850440  1.0  -0.0643
  C  C58  1  0.759690  0.759690  0.149560  1.0  -0.0616
  C  C59  1  0.240310  0.240310  0.149560  1.0  -0.0626
  C  C60  1  0.240310  0.759690  0.850440  1.0  -0.0631
  C  C61  1  0.148810  0.148810  0.665720  1.0  0.3707
  C  C62  1  0.180030  0.180030  0.729420  1.0  -0.0512
  C  C63  1  0.851190  0.851190  0.665720  1.0  0.3703
  C  C64  1  0.819970  0.819970  0.729420  1.0  -0.0509
  C  C65  1  0.851190  0.148810  0.334280  1.0  0.3704
  C  C66  1  0.819970  0.180030  0.270580  1.0  -0.0512
  C  C67  1  0.148810  0.851190  0.334280  1.0  0.3705
  C  C68  1  0.180030  0.819970  0.270580  1.0  -0.0512
  C  C69  1  0.665720  0.148810  0.148810  1.0  0.3701
  C  C70  1  0.729420  0.180030  0.180030  1.0  -0.0506
  C  C71  1  0.665720  0.851190  0.851190  1.0  0.3699
  C  C72  1  0.729420  0.819970  0.819970  1.0  -0.0503
  C  C73  1  0.334280  0.851190  0.148810  1.0  0.3704
  C  C74  1  0.270580  0.819970  0.180030  1.0  -0.05
  C  C75  1  0.334280  0.148810  0.851190  1.0  0.3704
  C  C76  1  0.270580  0.180030  0.819970  1.0  -0.0499
  C  C77  1  0.148810  0.665720  0.148810  1.0  0.3705
  C  C78  1  0.180030  0.729420  0.180030  1.0  -0.05
  C  C79  1  0.851190  0.665720  0.851190  1.0  0.3702
  C  C80  1  0.819970  0.729420  0.819970  1.0  -0.0497
  C  C81  1  0.148810  0.334280  0.851190  1.0  0.3704
  C  C82  1  0.180030  0.270580  0.819970  1.0  -0.0498
  C  C83  1  0.851190  0.334280  0.148810  1.0  0.3701
  C  C84  1  0.819970  0.270580  0.180030  1.0  -0.0498
  C  C85  1  0.148810  0.148810  0.334280  1.0  0.3707
  C  C86  1  0.180030  0.180030  0.270580  1.0  -0.0512
  C  C87  1  0.851190  0.851190  0.334280  1.0  0.3702
  C  C88  1  0.819970  0.819970  0.270580  1.0  -0.0511
  C  C89  1  0.148810  0.851190  0.665720  1.0  0.3705
  C  C90  1  0.180030  0.819970  0.729420  1.0  -0.0511
  C  C91  1  0.851190  0.148810  0.665720  1.0  0.3705
  C  C92  1  0.819970  0.180030  0.729420  1.0  -0.0511
  C  C93  1  0.148810  0.665720  0.851190  1.0  0.3705
  C  C94  1  0.180030  0.729420  0.819970  1.0  -0.0499
  C  C95  1  0.851190  0.665720  0.148810  1.0  0.3703
  C  C96  1  0.819970  0.729420  0.180030  1.0  -0.0498
  C  C97  1  0.851190  0.334280  0.851190  1.0  0.3701
  C  C98  1  0.819970  0.270580  0.819970  1.0  -0.0497
  C  C99  1  0.148810  0.334280  0.148810  1.0  0.3703
  C  C100  1  0.180030  0.270580  0.180030  1.0  -0.0499
  C  C101  1  0.665720  0.148810  0.851190  1.0  0.3701
  C  C102  1  0.729420  0.180030  0.819970  1.0  -0.0504
  C  C103  1  0.665720  0.851190  0.148810  1.0  0.3699
  C  C104  1  0.729420  0.819970  0.180030  1.0  -0.0505
  C  C105  1  0.334280  0.148810  0.148810  1.0  0.3705
  C  C106  1  0.270580  0.180030  0.180030  1.0  -0.0501
  C  C107  1  0.334280  0.851190  0.851190  1.0  0.3703
  C  C108  1  0.270580  0.819970  0.819970  1.0  -0.0499
  N  N109  1  0.130830  0.081290  0.578310  1.0  -0.0571
  N  N110  1  0.174580  0.091250  0.633330  1.0  -0.3069
  N  N111  1  0.869170  0.918710  0.578310  1.0  -0.0584
  N  N112  1  0.825420  0.908750  0.633330  1.0  -0.3077
  N  N113  1  0.869170  0.081290  0.421690  1.0  -0.057
  N  N114  1  0.825420  0.091250  0.366670  1.0  -0.3094
  N  N115  1  0.130830  0.918710  0.421690  1.0  -0.0574
  N  N116  1  0.174580  0.908750  0.366670  1.0  -0.3023
  N  N117  1  0.578310  0.130830  0.081290  1.0  -0.0571
  N  N118  1  0.633330  0.174580  0.091250  1.0  -0.308
  N  N119  1  0.578310  0.869170  0.918710  1.0  -0.0577
  N  N120  1  0.633330  0.825420  0.908750  1.0  -0.3105
  N  N121  1  0.421690  0.869170  0.081290  1.0  -0.0601
  N  N122  1  0.366670  0.825420  0.091250  1.0  -0.3097
  N  N123  1  0.421690  0.130830  0.918710  1.0  -0.0583
  N  N124  1  0.366670  0.174580  0.908750  1.0  -0.3027
  N  N125  1  0.081290  0.578310  0.130830  1.0  -0.0572
  N  N126  1  0.091250  0.633330  0.174580  1.0  -0.3068
  N  N127  1  0.918710  0.578310  0.869170  1.0  -0.0575
  N  N128  1  0.908750  0.633330  0.825420  1.0  -0.3071
  N  N129  1  0.081290  0.421690  0.869170  1.0  -0.059
  N  N130  1  0.091250  0.366670  0.825420  1.0  -0.3097
  N  N131  1  0.918710  0.421690  0.130830  1.0  -0.0577
  N  N132  1  0.908750  0.366670  0.174580  1.0  -0.3017
  N  N133  1  0.081290  0.130830  0.421690  1.0  -0.0573
  N  N134  1  0.091250  0.174580  0.366670  1.0  -0.3058
  N  N135  1  0.918710  0.869170  0.421690  1.0  -0.0578
  N  N136  1  0.908750  0.825420  0.366670  1.0  -0.3077
  N  N137  1  0.081290  0.869170  0.578310  1.0  -0.0579
  N  N138  1  0.091250  0.825420  0.633330  1.0  -0.3091
  N  N139  1  0.918710  0.130830  0.578310  1.0  -0.0575
  N  N140  1  0.908750  0.174580  0.633330  1.0  -0.302
  N  N141  1  0.130830  0.578310  0.918710  1.0  -0.0572
  N  N142  1  0.174580  0.633330  0.908750  1.0  -0.3021
  N  N143  1  0.869170  0.578310  0.081290  1.0  -0.057
  N  N144  1  0.825420  0.633330  0.091250  1.0  -0.3097
  N  N145  1  0.869170  0.421690  0.918710  1.0  -0.0572
  N  N146  1  0.825420  0.366670  0.908750  1.0  -0.3089
  N  N147  1  0.130830  0.421690  0.081290  1.0  -0.0591
  N  N148  1  0.174580  0.366670  0.091250  1.0  -0.302
  N  N149  1  0.578310  0.081290  0.869170  1.0  -0.057
  N  N150  1  0.633330  0.091250  0.825420  1.0  -0.3099
  N  N151  1  0.578310  0.918710  0.130830  1.0  -0.0577
  N  N152  1  0.633330  0.908750  0.174580  1.0  -0.3028
  N  N153  1  0.421690  0.081290  0.130830  1.0  -0.058
  N  N154  1  0.366670  0.091250  0.174580  1.0  -0.3078
  N  N155  1  0.421690  0.918710  0.869170  1.0  -0.0583
  N  N156  1  0.366670  0.908750  0.825420  1.0  -0.3094
  N  N157  1  0.869170  0.918710  0.421690  1.0  -0.0576
  N  N158  1  0.825420  0.908750  0.366670  1.0  -0.3083
  N  N159  1  0.130830  0.081290  0.421690  1.0  -0.0571
  N  N160  1  0.174580  0.091250  0.366670  1.0  -0.3068
  N  N161  1  0.130830  0.918710  0.578310  1.0  -0.0577
  N  N162  1  0.174580  0.908750  0.633330  1.0  -0.3026
  N  N163  1  0.869170  0.081290  0.578310  1.0  -0.0569
  N  N164  1  0.825420  0.091250  0.633330  1.0  -0.3092
  N  N165  1  0.421690  0.869170  0.918710  1.0  -0.0582
  N  N166  1  0.366670  0.825420  0.908750  1.0  -0.3098
  N  N167  1  0.421690  0.130830  0.081290  1.0  -0.0584
  N  N168  1  0.366670  0.174580  0.091250  1.0  -0.3077
  N  N169  1  0.578310  0.130830  0.918710  1.0  -0.0581
  N  N170  1  0.633330  0.174580  0.908750  1.0  -0.3027
  N  N171  1  0.578310  0.869170  0.081290  1.0  -0.0578
  N  N172  1  0.633330  0.825420  0.091250  1.0  -0.3098
  N  N173  1  0.918710  0.421690  0.869170  1.0  -0.0577
  N  N174  1  0.908750  0.366670  0.825420  1.0  -0.3091
  N  N175  1  0.081290  0.421690  0.130830  1.0  -0.0571
  N  N176  1  0.091250  0.366670  0.174580  1.0  -0.3092
  N  N177  1  0.918710  0.578310  0.130830  1.0  -0.0574
  N  N178  1  0.908750  0.633330  0.174580  1.0  -0.3021
  N  N179  1  0.081290  0.578310  0.869170  1.0  -0.0569
  N  N180  1  0.091250  0.633330  0.825420  1.0  -0.309
  N  N181  1  0.918710  0.869170  0.578310  1.0  -0.0602
  N  N182  1  0.908750  0.825420  0.633330  1.0  -0.3072
  N  N183  1  0.081290  0.130830  0.578310  1.0  -0.057
  N  N184  1  0.091250  0.174580  0.633330  1.0  -0.3059
  N  N185  1  0.918710  0.130830  0.421690  1.0  -0.0573
  N  N186  1  0.908750  0.174580  0.366670  1.0  -0.302
  N  N187  1  0.081290  0.869170  0.421690  1.0  -0.0572
  N  N188  1  0.091250  0.825420  0.366670  1.0  -0.309
  N  N189  1  0.869170  0.421690  0.081290  1.0  -0.0589
  N  N190  1  0.825420  0.366670  0.091250  1.0  -0.309
  N  N191  1  0.130830  0.421690  0.918710  1.0  -0.057
  N  N192  1  0.174580  0.366670  0.908750  1.0  -0.3026
  N  N193  1  0.130830  0.578310  0.081290  1.0  -0.0571
  N  N194  1  0.174580  0.633330  0.091250  1.0  -0.307
  N  N195  1  0.869170  0.578310  0.918710  1.0  -0.057
  N  N196  1  0.825420  0.633330  0.908750  1.0  -0.3097
  N  N197  1  0.421690  0.918710  0.130830  1.0  -0.0583
  N  N198  1  0.366670  0.908750  0.174580  1.0  -0.3025
  N  N199  1  0.421690  0.081290  0.869170  1.0  -0.0575
  N  N200  1  0.366670  0.091250  0.825420  1.0  -0.3102
  N  N201  1  0.578310  0.918710  0.869170  1.0  -0.0573
  N  N202  1  0.633330  0.908750  0.825420  1.0  -0.3103
  N  N203  1  0.578310  0.081290  0.130830  1.0  -0.0572
  N  N204  1  0.633330  0.091250  0.174580  1.0  -0.3079
