# generated using pymatgen
data_NdH3C8NO6
_symmetry_space_group_name_H-M   'P 1'
_cell_length_a   7.70080000
_cell_length_b   9.91550000
_cell_length_c   14.98990000
_cell_angle_alpha   90.00000000
_cell_angle_beta   98.46600000
_cell_angle_gamma   90.00000000
_symmetry_Int_Tables_number   1
_chemical_formula_structural   NdH3C8NO6
_chemical_formula_sum   'Nd4 H12 C32 N4 O24'
_cell_volume   1132.11591080
_cell_formula_units_Z   4
loop_
 _symmetry_equiv_pos_site_id
 _symmetry_equiv_pos_as_xyz
  1  'x, y, z'
loop_
 _atom_site_type_symbol
 _atom_site_label
 _atom_site_symmetry_multiplicity
 _atom_site_fract_x
 _atom_site_fract_y
 _atom_site_fract_z
 _atom_site_occupancy
 _atom_site_charge
  Nd  Nd1  1  0.855080  0.543850  0.640010  1.0  2.3027
  Nd  Nd2  1  0.644920  0.043850  0.859990  1.0  2.3027
  Nd  Nd3  1  0.144920  0.456150  0.359990  1.0  2.3029
  Nd  Nd4  1  0.355080  0.956150  0.140010  1.0  2.3029
  H  H5  1  0.826100  0.110900  0.633900  1.0  0.1078
  H  H6  1  0.796000  0.109000  0.364700  1.0  0.0862
  H  H7  1  0.617300  0.801400  0.484400  1.0  0.0703
  H  H8  1  0.673900  0.610900  0.866100  1.0  0.1081
  H  H9  1  0.704000  0.609000  0.135300  1.0  0.0868
  H  H10  1  0.882700  0.301400  0.015600  1.0  0.07
  H  H11  1  0.173900  0.889100  0.366100  1.0  0.108
  H  H12  1  0.204000  0.891000  0.635300  1.0  0.0867
  H  H13  1  0.382700  0.198600  0.515600  1.0  0.0698
  H  H14  1  0.326100  0.389100  0.133900  1.0  0.1076
  H  H15  1  0.296000  0.391000  0.864700  1.0  0.0862
  H  H16  1  0.117300  0.698600  0.984400  1.0  0.0707
  C  C17  1  0.691600  0.863000  0.654880  1.0  0.8345
  C  C18  1  0.720300  0.941500  0.573060  1.0  -0.2965
  C  C19  1  0.795800  0.068700  0.578440  1.0  0.106
  C  C20  1  0.825400  0.132000  0.499110  1.0  -0.2704
  C  C21  1  0.911200  0.267900  0.500970  1.0  0.8638
  C  C22  1  0.773700  0.067200  0.417370  1.0  0.2447
  C  C23  1  0.670000  0.886000  0.487920  1.0  0.2735
  C  C24  1  0.457300  0.468200  0.538670  1.0  0.563
  C  C25  1  0.808400  0.363000  0.845120  1.0  0.8362
  C  C26  1  0.779700  0.441500  0.926940  1.0  -0.2971
  C  C27  1  0.704200  0.568700  0.921560  1.0  0.1073
  C  C28  1  0.674600  0.632000  0.000890  1.0  -0.2686
  C  C29  1  0.588800  0.767900  0.999030  1.0  0.8639
  C  C30  1  0.726300  0.567200  0.082630  1.0  0.2445
  C  C31  1  0.830000  0.386000  0.012080  1.0  0.2741
  C  C32  1  0.042700  0.968200  0.961330  1.0  0.5632
  C  C33  1  0.308400  0.137000  0.345120  1.0  0.8353
  C  C34  1  0.279700  0.058500  0.426940  1.0  -0.296
  C  C35  1  0.204200  0.931300  0.421560  1.0  0.1077
  C  C36  1  0.174600  0.868000  0.500890  1.0  -0.267
  C  C37  1  0.088800  0.732100  0.499030  1.0  0.8624
  C  C38  1  0.226300  0.932800  0.582630  1.0  0.2447
  C  C39  1  0.330000  0.114000  0.512080  1.0  0.2728
  C  C40  1  0.542700  0.531800  0.461330  1.0  0.5632
  C  C41  1  0.191600  0.637000  0.154880  1.0  0.8343
  C  C42  1  0.220300  0.558500  0.073060  1.0  -0.2968
  C  C43  1  0.295800  0.431300  0.078440  1.0  0.1067
  C  C44  1  0.325400  0.368000  0.999110  1.0  -0.2694
  C  C45  1  0.411200  0.232100  0.000970  1.0  0.8628
  C  C46  1  0.273700  0.432800  0.917370  1.0  0.245
  C  C47  1  0.170000  0.614000  0.987920  1.0  0.2723
  C  C48  1  0.957300  0.031800  0.038670  1.0  0.5632
  N  N49  1  0.692600  0.946500  0.410980  1.0  -0.4706
  N  N50  1  0.807400  0.446500  0.089020  1.0  -0.4692
  N  N51  1  0.307400  0.053500  0.589020  1.0  -0.4704
  N  N52  1  0.192600  0.553500  0.910980  1.0  -0.4703
  O  O53  1  0.664300  0.737410  0.645420  1.0  -0.757
  O  O54  1  0.696100  0.923700  0.728290  1.0  -0.798
  O  O55  1  0.914100  0.336800  0.571290  1.0  -0.7727
  O  O56  1  0.974500  0.303800  0.432760  1.0  -0.8021
  O  O57  1  0.552400  0.449300  0.612270  1.0  -0.628
  O  O58  1  0.296800  0.439300  0.520490  1.0  -0.6597
  O  O59  1  0.835700  0.237410  0.854580  1.0  -0.7595
  O  O60  1  0.803900  0.423700  0.771710  1.0  -0.7968
  O  O61  1  0.585900  0.836800  0.928710  1.0  -0.7732
  O  O62  1  0.525500  0.803800  0.067240  1.0  -0.803
  O  O63  1  0.947600  0.949300  0.887730  1.0  -0.6265
  O  O64  1  0.203200  0.939300  0.979510  1.0  -0.6596
  O  O65  1  0.335700  0.262590  0.354580  1.0  -0.7597
  O  O66  1  0.303900  0.076300  0.271710  1.0  -0.7977
  O  O67  1  0.085900  0.663200  0.428710  1.0  -0.7728
  O  O68  1  0.025500  0.696200  0.567240  1.0  -0.8021
  O  O69  1  0.447600  0.550700  0.387730  1.0  -0.6261
  O  O70  1  0.703200  0.560700  0.479510  1.0  -0.6602
  O  O71  1  0.164300  0.762590  0.145420  1.0  -0.7584
  O  O72  1  0.196100  0.576300  0.228290  1.0  -0.7979
  O  O73  1  0.414100  0.163200  0.071290  1.0  -0.7717
  O  O74  1  0.474500  0.196200  0.932760  1.0  -0.8014
  O  O75  1  0.052400  0.050700  0.112270  1.0  -0.6281
  O  O76  1  0.796800  0.060700  0.020490  1.0  -0.66
