# generated using pymatgen
data_LaH3C8NO6
_symmetry_space_group_name_H-M   'P 1'
_cell_length_a   7.76480000
_cell_length_b   9.98270000
_cell_length_c   15.15150000
_cell_angle_alpha   90.00000000
_cell_angle_beta   98.59100000
_cell_angle_gamma   90.00000000
_symmetry_Int_Tables_number   1
_chemical_formula_structural   LaH3C8NO6
_chemical_formula_sum   'La4 H12 C32 N4 O24'
_cell_volume   1161.27087770
_cell_formula_units_Z   4
loop_
 _symmetry_equiv_pos_site_id
 _symmetry_equiv_pos_as_xyz
  1  'x, y, z'
loop_
 _atom_site_type_symbol
 _atom_site_label
 _atom_site_symmetry_multiplicity
 _atom_site_fract_x
 _atom_site_fract_y
 _atom_site_fract_z
 _atom_site_occupancy
 _atom_site_charge
  La  La1  1  0.858590  0.543270  0.640680  1.0  2.1859
  La  La2  1  0.641410  0.043270  0.859320  1.0  2.1851
  La  La3  1  0.141410  0.456730  0.359320  1.0  2.1853
  La  La4  1  0.358590  0.956730  0.140680  1.0  2.186
  H  H5  1  0.795900  0.106600  0.366500  1.0  0.0728
  H  H6  1  0.619300  0.801400  0.484900  1.0  0.0708
  H  H7  1  0.824000  0.109800  0.632300  1.0  0.1021
  H  H8  1  0.704100  0.606600  0.133500  1.0  0.0729
  H  H9  1  0.880700  0.301400  0.015100  1.0  0.0712
  H  H10  1  0.676000  0.609800  0.867700  1.0  0.1022
  H  H11  1  0.204100  0.893400  0.633500  1.0  0.0728
  H  H12  1  0.380700  0.198600  0.515100  1.0  0.0708
  H  H13  1  0.176000  0.890200  0.367700  1.0  0.1021
  H  H14  1  0.295900  0.393400  0.866500  1.0  0.0729
  H  H15  1  0.119300  0.698600  0.984900  1.0  0.0713
  H  H16  1  0.324000  0.390200  0.132300  1.0  0.1021
  C  C17  1  0.690200  0.864000  0.653360  1.0  0.8103
  C  C18  1  0.910900  0.264920  0.501480  1.0  0.8555
  C  C19  1  0.824500  0.130010  0.499290  1.0  -0.2614
  C  C20  1  0.773500  0.065300  0.418550  1.0  0.2494
  C  C21  1  0.671000  0.885700  0.488370  1.0  0.259
  C  C22  1  0.719900  0.940970  0.572230  1.0  -0.2857
  C  C23  1  0.794500  0.067500  0.577410  1.0  0.0908
  C  C24  1  0.457100  0.467860  0.538220  1.0  0.5533
  C  C25  1  0.809800  0.364000  0.846640  1.0  0.8099
  C  C26  1  0.589100  0.764920  0.998520  1.0  0.8555
  C  C27  1  0.675500  0.630010  0.000710  1.0  -0.2597
  C  C28  1  0.726500  0.565300  0.081450  1.0  0.2495
  C  C29  1  0.829000  0.385700  0.011630  1.0  0.261
  C  C30  1  0.780100  0.440970  0.927770  1.0  -0.2868
  C  C31  1  0.705500  0.567500  0.922590  1.0  0.0935
  C  C32  1  0.042900  0.967860  0.961780  1.0  0.5542
  C  C33  1  0.309800  0.136000  0.346640  1.0  0.8092
  C  C34  1  0.089100  0.735080  0.498520  1.0  0.8534
  C  C35  1  0.175500  0.869990  0.500710  1.0  -0.2603
  C  C36  1  0.226500  0.934700  0.581450  1.0  0.2497
  C  C37  1  0.329000  0.114300  0.511630  1.0  0.2586
  C  C38  1  0.280100  0.059030  0.427770  1.0  -0.2854
  C  C39  1  0.205500  0.932500  0.422590  1.0  0.0942
  C  C40  1  0.542900  0.532140  0.461780  1.0  0.5541
  C  C41  1  0.190200  0.636000  0.153360  1.0  0.81
  C  C42  1  0.410900  0.235080  0.001480  1.0  0.8538
  C  C43  1  0.324500  0.369990  0.999290  1.0  -0.2624
  C  C44  1  0.273500  0.434700  0.918550  1.0  0.2497
  C  C45  1  0.171000  0.614300  0.988370  1.0  0.2568
  C  C46  1  0.219900  0.559030  0.072230  1.0  -0.2861
  C  C47  1  0.294500  0.432500  0.077410  1.0  0.0928
  C  C48  1  0.957100  0.032140  0.038220  1.0  0.5534
  N  N49  1  0.693300  0.945790  0.412100  1.0  -0.4692
  N  N50  1  0.806700  0.445790  0.087900  1.0  -0.4679
  N  N51  1  0.306700  0.054210  0.587900  1.0  -0.4699
  N  N52  1  0.193300  0.554210  0.912100  1.0  -0.4694
  O  O53  1  0.918000  0.332010  0.571650  1.0  -0.7435
  O  O54  1  0.970200  0.301200  0.433270  1.0  -0.743
  O  O55  1  0.695100  0.924660  0.725360  1.0  -0.755
  O  O56  1  0.662730  0.739450  0.644410  1.0  -0.7252
  O  O57  1  0.553020  0.446740  0.610580  1.0  -0.622
  O  O58  1  0.298250  0.440730  0.520610  1.0  -0.6453
  O  O59  1  0.582000  0.832010  0.928350  1.0  -0.7432
  O  O60  1  0.529800  0.801200  0.066730  1.0  -0.7424
  O  O61  1  0.804900  0.424660  0.774640  1.0  -0.7564
  O  O62  1  0.837270  0.239450  0.855590  1.0  -0.7281
  O  O63  1  0.946980  0.946740  0.889420  1.0  -0.6206
  O  O64  1  0.201750  0.940730  0.979390  1.0  -0.645
  O  O65  1  0.082000  0.667990  0.428350  1.0  -0.7433
  O  O66  1  0.029800  0.698800  0.566730  1.0  -0.7405
  O  O67  1  0.304900  0.075340  0.274640  1.0  -0.7558
  O  O68  1  0.337270  0.260550  0.355590  1.0  -0.728
  O  O69  1  0.446980  0.553260  0.389420  1.0  -0.6201
  O  O70  1  0.701750  0.559270  0.479390  1.0  -0.646
  O  O71  1  0.418000  0.167990  0.071650  1.0  -0.7425
  O  O72  1  0.470200  0.198800  0.933270  1.0  -0.7421
  O  O73  1  0.195100  0.575340  0.225360  1.0  -0.7561
  O  O74  1  0.162730  0.760550  0.144410  1.0  -0.7275
  O  O75  1  0.053020  0.053260  0.110580  1.0  -0.6223
  O  O76  1  0.798250  0.059270  0.020610  1.0  -0.6459
