# generated using pymatgen
data_NdH3C8NO6
_symmetry_space_group_name_H-M   'P 1'
_cell_length_a   7.70220000
_cell_length_b   9.91520000
_cell_length_c   15.82020000
_cell_angle_alpha   90.00000000
_cell_angle_beta   110.30500000
_cell_angle_gamma   90.00000000
_symmetry_Int_Tables_number   1
_chemical_formula_structural   NdH3C8NO6
_chemical_formula_sum   'Nd4 H12 C32 N4 O24'
_cell_volume   1133.09319338
_cell_formula_units_Z   4
loop_
 _symmetry_equiv_pos_site_id
 _symmetry_equiv_pos_as_xyz
  1  'x, y, z'
loop_
 _atom_site_type_symbol
 _atom_site_label
 _atom_site_symmetry_multiplicity
 _atom_site_fract_x
 _atom_site_fract_y
 _atom_site_fract_z
 _atom_site_occupancy
 _atom_site_charge
  Nd  Nd1  1  0.784780  0.043910  0.639980  1.0  2.3018
  Nd  Nd2  1  0.215220  0.543910  0.860020  1.0  2.3003
  Nd  Nd3  1  0.215220  0.956090  0.360020  1.0  2.3005
  Nd  Nd4  1  0.784780  0.456090  0.139980  1.0  2.3019
  H  H5  1  0.866200  0.301000  0.484600  1.0  0.073
  H  H6  1  0.570900  0.609700  0.365200  1.0  0.0874
  H  H7  1  0.807900  0.612300  0.633500  1.0  0.1136
  H  H8  1  0.133800  0.801000  0.015400  1.0  0.0725
  H  H9  1  0.429100  0.109700  0.134800  1.0  0.0879
  H  H10  1  0.192100  0.112300  0.866500  1.0  0.1139
  H  H11  1  0.133800  0.699000  0.515400  1.0  0.0727
  H  H12  1  0.429100  0.390300  0.634800  1.0  0.0879
  H  H13  1  0.192100  0.387700  0.366500  1.0  0.1138
  H  H14  1  0.866200  0.199000  0.984600  1.0  0.0732
  H  H15  1  0.570900  0.890300  0.865200  1.0  0.0873
  H  H16  1  0.807900  0.887700  0.133500  1.0  0.1136
  C  C17  1  0.963700  0.363200  0.655100  1.0  0.7768
  C  C18  1  0.852900  0.441000  0.573000  1.0  -0.2541
  C  C19  1  0.817400  0.385700  0.488100  1.0  0.2445
  C  C20  1  0.644600  0.567300  0.417800  1.0  0.2324
  C  C21  1  0.782400  0.569400  0.578200  1.0  0.0686
  C  C22  1  0.673400  0.631500  0.498800  1.0  -0.2106
  C  C23  1  0.590500  0.768600  0.501600  1.0  0.8091
  C  C24  1  0.082100  0.968200  0.538700  1.0  0.5474
  C  C25  1  0.036300  0.863200  0.844900  1.0  0.7756
  C  C26  1  0.147100  0.941000  0.927000  1.0  -0.2544
  C  C27  1  0.182600  0.885700  0.011900  1.0  0.2445
  C  C28  1  0.355400  0.067300  0.082200  1.0  0.2309
  C  C29  1  0.217600  0.069400  0.921800  1.0  0.0686
  C  C30  1  0.326600  0.131500  0.001200  1.0  -0.2116
  C  C31  1  0.409500  0.268600  0.998400  1.0  0.8095
  C  C32  1  0.917900  0.468200  0.961300  1.0  0.548
  C  C33  1  0.036300  0.636800  0.344900  1.0  0.7739
  C  C34  1  0.147100  0.559000  0.427000  1.0  -0.2536
  C  C35  1  0.182600  0.614300  0.511900  1.0  0.2431
  C  C36  1  0.355400  0.432700  0.582200  1.0  0.2308
  C  C37  1  0.217600  0.430600  0.421800  1.0  0.0689
  C  C38  1  0.326600  0.368500  0.501200  1.0  -0.2109
  C  C39  1  0.409500  0.231400  0.498400  1.0  0.8078
  C  C40  1  0.917900  0.031800  0.461300  1.0  0.5483
  C  C41  1  0.963700  0.136800  0.155100  1.0  0.776
  C  C42  1  0.852900  0.059000  0.073000  1.0  -0.2542
  C  C43  1  0.817400  0.114300  0.988100  1.0  0.2428
  C  C44  1  0.644600  0.932700  0.917800  1.0  0.2324
  C  C45  1  0.782400  0.930600  0.078200  1.0  0.0695
  C  C46  1  0.673400  0.868500  0.998800  1.0  -0.2102
  C  C47  1  0.590500  0.731400  0.001600  1.0  0.8075
  C  C48  1  0.082100  0.531800  0.038700  1.0  0.5478
  N  N49  1  0.718200  0.445900  0.411200  1.0  -0.4569
  N  N50  1  0.281800  0.945900  0.088800  1.0  -0.4559
  N  N51  1  0.281800  0.554100  0.588800  1.0  -0.4578
  N  N52  1  0.718200  0.054100  0.911200  1.0  -0.4572
  O  O53  1  0.060400  0.948600  0.612640  1.0  -0.6246
  O  O54  1  0.223200  0.939100  0.520510  1.0  -0.651
  O  O55  1  0.981000  0.237200  0.645380  1.0  -0.7477
  O  O56  1  0.032300  0.423200  0.728250  1.0  -0.7882
  O  O57  1  0.657300  0.837500  0.571520  1.0  -0.7419
  O  O58  1  0.458400  0.804500  0.432700  1.0  -0.7764
  O  O59  1  0.939600  0.448600  0.887360  1.0  -0.6236
  O  O60  1  0.776800  0.439100  0.979490  1.0  -0.651
  O  O61  1  0.019000  0.737200  0.854620  1.0  -0.7487
  O  O62  1  0.967700  0.923200  0.771750  1.0  -0.788
  O  O63  1  0.342700  0.337500  0.928480  1.0  -0.7407
  O  O64  1  0.541600  0.304500  0.067300  1.0  -0.777
  O  O65  1  0.939600  0.051400  0.387360  1.0  -0.6233
  O  O66  1  0.776800  0.060900  0.479490  1.0  -0.6515
  O  O67  1  0.019000  0.762800  0.354620  1.0  -0.7493
  O  O68  1  0.967700  0.576800  0.271750  1.0  -0.7889
  O  O69  1  0.342700  0.162500  0.428480  1.0  -0.7412
  O  O70  1  0.541600  0.195500  0.567300  1.0  -0.7765
  O  O71  1  0.060400  0.551400  0.112640  1.0  -0.6245
  O  O72  1  0.223200  0.560900  0.020510  1.0  -0.6515
  O  O73  1  0.981000  0.262800  0.145380  1.0  -0.7473
  O  O74  1  0.032300  0.076800  0.228250  1.0  -0.7877
  O  O75  1  0.657300  0.662500  0.071520  1.0  -0.7414
  O  O76  1  0.458400  0.695500  0.932700  1.0  -0.7764
