# generated using pymatgen
data_EuH3C8NO6
_symmetry_space_group_name_H-M   'P 1'
_cell_length_a   7.65060000
_cell_length_b   9.85960000
_cell_length_c   14.85190000
_cell_angle_alpha   90.00000000
_cell_angle_beta   98.38900000
_cell_angle_gamma   90.00000000
_symmetry_Int_Tables_number   1
_chemical_formula_structural   EuH3C8NO6
_chemical_formula_sum   'Eu4 H12 C32 N4 O24'
_cell_volume   1108.31950436
_cell_formula_units_Z   4
loop_
 _symmetry_equiv_pos_site_id
 _symmetry_equiv_pos_as_xyz
  1  'x, y, z'
loop_
 _atom_site_type_symbol
 _atom_site_label
 _atom_site_symmetry_multiplicity
 _atom_site_fract_x
 _atom_site_fract_y
 _atom_site_fract_z
 _atom_site_occupancy
 _atom_site_charge
  Eu  Eu1  1  0.852700  0.455490  0.639540  1.0  2.1801
  Eu  Eu2  1  0.647300  0.955490  0.860460  1.0  2.1795
  Eu  Eu3  1  0.147300  0.544510  0.360460  1.0  2.1794
  Eu  Eu4  1  0.352700  0.044510  0.139540  1.0  2.1799
  H  H5  1  0.884600  0.698500  0.016000  1.0  0.0831
  H  H6  1  0.674200  0.387500  0.865200  1.0  0.118
  H  H7  1  0.703900  0.389300  0.136700  1.0  0.0917
  H  H8  1  0.615400  0.198500  0.484000  1.0  0.0837
  H  H9  1  0.825800  0.887500  0.634800  1.0  0.1176
  H  H10  1  0.796100  0.889300  0.363300  1.0  0.0913
  H  H11  1  0.115400  0.301500  0.984000  1.0  0.0835
  H  H12  1  0.325800  0.612500  0.134800  1.0  0.1175
  H  H13  1  0.296100  0.610700  0.863300  1.0  0.0913
  H  H14  1  0.384600  0.801500  0.516000  1.0  0.0834
  H  H15  1  0.174200  0.112500  0.365200  1.0  0.118
  H  H16  1  0.203900  0.110700  0.636700  1.0  0.0917
  C  C17  1  0.830700  0.613700  0.012500  1.0  0.2791
  C  C18  1  0.779100  0.558200  0.926300  1.0  -0.2686
  C  C19  1  0.704100  0.430200  0.921200  1.0  0.1028
  C  C20  1  0.674100  0.366800  0.000800  1.0  -0.2541
  C  C21  1  0.726200  0.431600  0.083600  1.0  0.2499
  C  C22  1  0.807600  0.637000  0.844100  1.0  0.8154
  C  C23  1  0.588000  0.229500  0.999300  1.0  0.853
  C  C24  1  0.456600  0.531400  0.538800  1.0  0.5579
  C  C25  1  0.669300  0.113700  0.487500  1.0  0.2784
  C  C26  1  0.720900  0.058200  0.573700  1.0  -0.2699
  C  C27  1  0.795900  0.930200  0.578800  1.0  0.1043
  C  C28  1  0.825900  0.866800  0.499200  1.0  -0.2557
  C  C29  1  0.773800  0.931600  0.416400  1.0  0.2491
  C  C30  1  0.692400  0.137000  0.655900  1.0  0.8139
  C  C31  1  0.912000  0.729500  0.500700  1.0  0.8542
  C  C32  1  0.043400  0.031400  0.961200  1.0  0.5579
  C  C33  1  0.169300  0.386300  0.987500  1.0  0.2786
  C  C34  1  0.220900  0.441800  0.073700  1.0  -0.2695
  C  C35  1  0.295900  0.569800  0.078800  1.0  0.1037
  C  C36  1  0.325900  0.633200  0.999200  1.0  -0.2567
  C  C37  1  0.273800  0.568400  0.916400  1.0  0.2489
  C  C38  1  0.192400  0.363000  0.155900  1.0  0.8142
  C  C39  1  0.412000  0.770500  0.000700  1.0  0.8559
  C  C40  1  0.543400  0.468600  0.461200  1.0  0.558
  C  C41  1  0.330700  0.886300  0.512500  1.0  0.2793
  C  C42  1  0.279100  0.941800  0.426300  1.0  -0.2695
  C  C43  1  0.204100  0.069800  0.421200  1.0  0.1031
  C  C44  1  0.174100  0.133200  0.500800  1.0  -0.2553
  C  C45  1  0.226200  0.068400  0.583600  1.0  0.2495
  C  C46  1  0.307600  0.863000  0.344100  1.0  0.8168
  C  C47  1  0.088000  0.270500  0.499300  1.0  0.8547
  C  C48  1  0.956600  0.968600  0.038800  1.0  0.5578
  N  N49  1  0.807500  0.553000  0.089900  1.0  -0.4669
  N  N50  1  0.692500  0.053000  0.410100  1.0  -0.4665
  N  N51  1  0.192500  0.447000  0.910100  1.0  -0.4666
  N  N52  1  0.307500  0.947000  0.589900  1.0  -0.4656
  O  O53  1  0.804200  0.577300  0.769810  1.0  -0.7789
  O  O54  1  0.834000  0.764000  0.853530  1.0  -0.7556
  O  O55  1  0.589500  0.159000  0.928930  1.0  -0.7577
  O  O56  1  0.522400  0.193900  0.067790  1.0  -0.787
  O  O57  1  0.552900  0.549000  0.613570  1.0  -0.6212
  O  O58  1  0.296400  0.562000  0.520420  1.0  -0.6406
  O  O59  1  0.695800  0.077300  0.730190  1.0  -0.7791
  O  O60  1  0.666000  0.264000  0.646470  1.0  -0.756
  O  O61  1  0.910500  0.659000  0.571070  1.0  -0.7591
  O  O62  1  0.977600  0.693900  0.432210  1.0  -0.7868
  O  O63  1  0.947100  0.049000  0.886430  1.0  -0.6189
  O  O64  1  0.203600  0.062000  0.979580  1.0  -0.6407
  O  O65  1  0.195800  0.422700  0.230190  1.0  -0.7794
  O  O66  1  0.166000  0.236000  0.146470  1.0  -0.7548
  O  O67  1  0.410500  0.841000  0.071070  1.0  -0.7587
  O  O68  1  0.477600  0.806100  0.932210  1.0  -0.7865
  O  O69  1  0.447100  0.451000  0.386430  1.0  -0.6191
  O  O70  1  0.703600  0.438000  0.479580  1.0  -0.64
  O  O71  1  0.304200  0.922700  0.269810  1.0  -0.779
  O  O72  1  0.334000  0.736000  0.353530  1.0  -0.7555
  O  O73  1  0.089500  0.341000  0.428930  1.0  -0.7573
  O  O74  1  0.022400  0.306100  0.567790  1.0  -0.7876
  O  O75  1  0.052900  0.951000  0.113570  1.0  -0.6212
  O  O76  1  0.796400  0.938000  0.020420  1.0  -0.6406
