# generated using pymatgen
data_EuH3C8NO6
_symmetry_space_group_name_H-M   'P 1'
_cell_length_a   7.67990000
_cell_length_b   9.87420000
_cell_length_c   14.89300000
_cell_angle_alpha   90.00000000
_cell_angle_beta   98.36400000
_cell_angle_gamma   90.00000000
_symmetry_Int_Tables_number   1
_chemical_formula_structural   EuH3C8NO6
_chemical_formula_sum   'Eu4 H12 C32 N4 O24'
_cell_volume   1117.36675223
_cell_formula_units_Z   4
loop_
 _symmetry_equiv_pos_site_id
 _symmetry_equiv_pos_as_xyz
  1  'x, y, z'
loop_
 _atom_site_type_symbol
 _atom_site_label
 _atom_site_symmetry_multiplicity
 _atom_site_fract_x
 _atom_site_fract_y
 _atom_site_fract_z
 _atom_site_occupancy
 _atom_site_charge
  Eu  Eu1  1  0.853410  0.544480  0.139560  1.0  2.1823
  Eu  Eu2  1  0.646590  0.044480  0.360440  1.0  2.1819
  Eu  Eu3  1  0.146590  0.455520  0.860440  1.0  2.182
  Eu  Eu4  1  0.353410  0.955520  0.639560  1.0  2.1823
  H  H5  1  0.884000  0.301700  0.515300  1.0  0.0769
  H  H6  1  0.701700  0.609200  0.635800  1.0  0.0915
  H  H7  1  0.672700  0.611800  0.365300  1.0  0.1196
  H  H8  1  0.616000  0.801700  0.984700  1.0  0.077
  H  H9  1  0.798300  0.109200  0.864200  1.0  0.0913
  H  H10  1  0.827300  0.111800  0.134700  1.0  0.119
  H  H11  1  0.116000  0.698300  0.484700  1.0  0.0773
  H  H12  1  0.298300  0.390800  0.364200  1.0  0.0913
  H  H13  1  0.327300  0.388200  0.634700  1.0  0.1189
  H  H14  1  0.384000  0.198300  0.015300  1.0  0.0765
  H  H15  1  0.201700  0.890800  0.135800  1.0  0.0916
  H  H16  1  0.172700  0.888200  0.865300  1.0  0.1194
  C  C17  1  0.808300  0.363200  0.343900  1.0  0.8223
  C  C18  1  0.779900  0.441700  0.426600  1.0  -0.2942
  C  C19  1  0.830400  0.386400  0.511900  1.0  0.2759
  C  C20  1  0.725200  0.567700  0.582800  1.0  0.2501
  C  C21  1  0.674500  0.633400  0.501300  1.0  -0.2475
  C  C22  1  0.588800  0.769800  0.499200  1.0  0.8739
  C  C23  1  0.703700  0.569600  0.421200  1.0  0.0885
  C  C24  1  0.456400  0.468700  0.039100  1.0  0.5488
  C  C25  1  0.691700  0.863200  0.156100  1.0  0.8208
  C  C26  1  0.720100  0.941700  0.073400  1.0  -0.2933
  C  C27  1  0.669600  0.886400  0.988100  1.0  0.2753
  C  C28  1  0.774800  0.067700  0.917200  1.0  0.2501
  C  C29  1  0.825500  0.133400  0.998700  1.0  -0.2487
  C  C30  1  0.911200  0.269800  0.000800  1.0  0.8746
  C  C31  1  0.796300  0.069600  0.078800  1.0  0.0876
  C  C32  1  0.043600  0.968700  0.460900  1.0  0.5497
  C  C33  1  0.191700  0.636800  0.656100  1.0  0.8199
  C  C34  1  0.220100  0.558300  0.573400  1.0  -0.2938
  C  C35  1  0.169600  0.613600  0.488100  1.0  0.2754
  C  C36  1  0.274800  0.432300  0.417200  1.0  0.2504
  C  C37  1  0.325500  0.366600  0.498700  1.0  -0.2472
  C  C38  1  0.411200  0.230200  0.500800  1.0  0.8718
  C  C39  1  0.296300  0.430400  0.578800  1.0  0.0882
  C  C40  1  0.543600  0.531300  0.960900  1.0  0.5394
  C  C41  1  0.308300  0.136800  0.843900  1.0  0.821
  C  C42  1  0.279900  0.058300  0.926600  1.0  -0.2933
  C  C43  1  0.330400  0.113600  0.011900  1.0  0.2762
  C  C44  1  0.225200  0.932300  0.082800  1.0  0.2503
  C  C45  1  0.174500  0.866600  0.001300  1.0  -0.2456
  C  C46  1  0.088800  0.730200  0.999200  1.0  0.8707
  C  C47  1  0.203700  0.930400  0.921200  1.0  0.0889
  C  C48  1  0.956400  0.031300  0.539100  1.0  0.5389
  N  N49  1  0.807100  0.446600  0.589400  1.0  -0.4544
  N  N50  1  0.692900  0.946600  0.910600  1.0  -0.4555
  N  N51  1  0.192900  0.553400  0.410600  1.0  -0.4555
  N  N52  1  0.307100  0.053400  0.089400  1.0  -0.4556
  O  O53  1  0.805000  0.423800  0.270200  1.0  -0.7851
  O  O54  1  0.834800  0.236800  0.353860  1.0  -0.7513
  O  O55  1  0.587600  0.839700  0.428500  1.0  -0.7511
  O  O56  1  0.523400  0.805300  0.567600  1.0  -0.782
  O  O57  1  0.553100  0.450400  0.113200  1.0  -0.6113
  O  O58  1  0.297100  0.438000  0.020670  1.0  -0.6462
  O  O59  1  0.695000  0.923800  0.229800  1.0  -0.7853
  O  O60  1  0.665200  0.736800  0.146140  1.0  -0.7502
  O  O61  1  0.912400  0.339700  0.071500  1.0  -0.7523
  O  O62  1  0.976600  0.305300  0.932400  1.0  -0.7806
  O  O63  1  0.946900  0.950400  0.386800  1.0  -0.609
  O  O64  1  0.202900  0.938000  0.479330  1.0  -0.6464
  O  O65  1  0.195000  0.576200  0.729800  1.0  -0.7846
  O  O66  1  0.165200  0.763200  0.646140  1.0  -0.7513
  O  O67  1  0.412400  0.160300  0.571500  1.0  -0.752
  O  O68  1  0.476600  0.194700  0.432400  1.0  -0.7806
  O  O69  1  0.446900  0.549600  0.886800  1.0  -0.6084
  O  O70  1  0.702900  0.562000  0.979330  1.0  -0.6467
  O  O71  1  0.305000  0.076200  0.770200  1.0  -0.7853
  O  O72  1  0.334800  0.263200  0.853860  1.0  -0.7517
  O  O73  1  0.087600  0.660300  0.928500  1.0  -0.7513
  O  O74  1  0.023400  0.694700  0.067600  1.0  -0.7817
  O  O75  1  0.053100  0.049600  0.613200  1.0  -0.6111
  O  O76  1  0.797100  0.062000  0.520670  1.0  -0.647
