# generated using pymatgen
data_ZnH2(C5O4)2
_symmetry_space_group_name_H-M   'P 1'
_cell_length_a   7.35620000
_cell_length_b   7.35620000
_cell_length_c   16.30000000
_cell_angle_alpha   90.75680000
_cell_angle_beta   90.75680000
_cell_angle_gamma   95.90110000
_symmetry_Int_Tables_number   1
_chemical_formula_structural   ZnH2(C5O4)2
_chemical_formula_sum   'Zn2 H4 C20 O16'
_cell_volume   877.20819891
_cell_formula_units_Z   2
loop_
 _symmetry_equiv_pos_site_id
 _symmetry_equiv_pos_as_xyz
  1  'x, y, z'
loop_
 _atom_site_type_symbol
 _atom_site_label
 _atom_site_symmetry_multiplicity
 _atom_site_fract_x
 _atom_site_fract_y
 _atom_site_fract_z
 _atom_site_occupancy
 _atom_site_charge
  Zn  Zn1  1  0.979580  0.020420  0.750000  1.0  1.0213
  Zn  Zn2  1  0.020420  0.979580  0.250000  1.0  1.0214
  H  H3  1  0.814400  0.037800  0.011400  1.0  0.1215
  H  H4  1  0.962200  0.185600  0.488600  1.0  0.1206
  H  H5  1  0.185600  0.962200  0.988600  1.0  0.123
  H  H6  1  0.037800  0.814400  0.511400  1.0  0.1201
  C  C7  1  0.605100  0.035700  0.930100  1.0  -0.0031
  C  C8  1  0.416300  0.013700  0.922700  1.0  -0.0996
  C  C9  1  0.687600  0.022400  0.006800  1.0  -0.0031
  C  C10  1  0.732700  0.065500  0.858500  1.0  0.6029
  C  C11  1  0.318600  0.033400  0.841500  1.0  0.6737
  C  C12  1  0.964300  0.394900  0.569900  1.0  -0.0022
  C  C13  1  0.986300  0.583700  0.577300  1.0  -0.099
  C  C14  1  0.977600  0.312400  0.493200  1.0  0.0012
  C  C15  1  0.934500  0.267300  0.641500  1.0  0.604
  C  C16  1  0.966600  0.681400  0.658500  1.0  0.6692
  C  C17  1  0.394900  0.964300  0.069900  1.0  -0.0018
  C  C18  1  0.583700  0.986300  0.077300  1.0  -0.1
  C  C19  1  0.312400  0.977600  0.993200  1.0  -0.0033
  C  C20  1  0.267300  0.934500  0.141500  1.0  0.5999
  C  C21  1  0.681400  0.966600  0.158500  1.0  0.6681
  C  C22  1  0.035700  0.605100  0.430100  1.0  -0.0044
  C  C23  1  0.013700  0.416300  0.422700  1.0  -0.0998
  C  C24  1  0.022400  0.687600  0.506800  1.0  1e-04
  C  C25  1  0.065500  0.732700  0.358500  1.0  0.6042
  C  C26  1  0.033400  0.318600  0.341500  1.0  0.6719
  O  O27  1  0.154100  0.972700  0.838100  1.0  -0.5435
  O  O28  1  0.757900  0.930100  0.814500  1.0  -0.4862
  O  O29  1  0.817100  0.215700  0.849800  1.0  -0.4013
  O  O30  1  0.404900  0.109300  0.785800  1.0  -0.3649
  O  O31  1  0.027300  0.845900  0.661900  1.0  -0.5461
  O  O32  1  0.069900  0.242100  0.685500  1.0  -0.4893
  O  O33  1  0.784300  0.182900  0.650200  1.0  -0.4045
  O  O34  1  0.890700  0.595100  0.714200  1.0  -0.3653
  O  O35  1  0.845900  0.027300  0.161900  1.0  -0.5463
  O  O36  1  0.242100  0.069900  0.185500  1.0  -0.4873
  O  O37  1  0.182900  0.784300  0.150200  1.0  -0.4021
  O  O38  1  0.595100  0.890700  0.214200  1.0  -0.3635
  O  O39  1  0.972700  0.154100  0.338100  1.0  -0.5449
  O  O40  1  0.930100  0.757900  0.314500  1.0  -0.4902
  O  O41  1  0.215700  0.817100  0.349800  1.0  -0.4057
  O  O42  1  0.109300  0.404900  0.285800  1.0  -0.3658
