# generated using pymatgen
data_Cu3H22C24N9O
_symmetry_space_group_name_H-M   'P 1'
_cell_length_a   18.85300000
_cell_length_b   18.85300000
_cell_length_c   20.63900000
_cell_angle_alpha   90.00000000
_cell_angle_beta   90.00000000
_cell_angle_gamma   90.00000000
_symmetry_Int_Tables_number   1
_chemical_formula_structural   Cu3H22C24N9O
_chemical_formula_sum   'Cu24 H176 C192 N72 O8'
_cell_volume   7335.83553415
_cell_formula_units_Z   8
loop_
 _symmetry_equiv_pos_site_id
 _symmetry_equiv_pos_as_xyz
  1  'x, y, z'
loop_
 _atom_site_type_symbol
 _atom_site_label
 _atom_site_symmetry_multiplicity
 _atom_site_fract_x
 _atom_site_fract_y
 _atom_site_fract_z
 _atom_site_occupancy
 _atom_site_charge
  Cu  Cu1  1  0.718490  0.071890  0.647760  1.0  0.7324
  Cu  Cu2  1  0.637810  0.198340  0.731510  1.0  0.7069
  Cu  Cu3  1  0.566220  0.146250  0.595610  1.0  0.7059
  Cu  Cu4  1  0.281510  0.928110  0.647760  1.0  0.7339
  Cu  Cu5  1  0.362190  0.801660  0.731510  1.0  0.7059
  Cu  Cu6  1  0.433780  0.853750  0.595610  1.0  0.7052
  Cu  Cu7  1  0.928110  0.718490  0.147760  1.0  0.7338
  Cu  Cu8  1  0.801660  0.637810  0.231510  1.0  0.7059
  Cu  Cu9  1  0.853750  0.566220  0.095610  1.0  0.7024
  Cu  Cu10  1  0.071890  0.281510  0.147760  1.0  0.7328
  Cu  Cu11  1  0.198340  0.362190  0.231510  1.0  0.7061
  Cu  Cu12  1  0.146250  0.433780  0.095610  1.0  0.6998
  Cu  Cu13  1  0.218490  0.428110  0.647760  1.0  0.7328
  Cu  Cu14  1  0.137810  0.301660  0.731510  1.0  0.7059
  Cu  Cu15  1  0.066220  0.353750  0.595610  1.0  0.7053
  Cu  Cu16  1  0.781510  0.571890  0.647760  1.0  0.7334
  Cu  Cu17  1  0.862190  0.698340  0.731510  1.0  0.7066
  Cu  Cu18  1  0.933780  0.646250  0.595610  1.0  0.7058
  Cu  Cu19  1  0.428110  0.781510  0.147760  1.0  0.7332
  Cu  Cu20  1  0.301660  0.862190  0.231510  1.0  0.7057
  Cu  Cu21  1  0.353750  0.933780  0.095610  1.0  0.7024
  Cu  Cu22  1  0.571890  0.218490  0.147760  1.0  0.7331
  Cu  Cu23  1  0.698340  0.137810  0.231510  1.0  0.7062
  Cu  Cu24  1  0.646250  0.066220  0.095610  1.0  0.6999
  H  H25  1  0.599300  0.081500  0.694000  1.0  0.3789
  H  H26  1  0.737600  0.187600  0.856200  1.0  0.0695
  H  H27  1  0.826400  0.090100  0.870800  1.0  0.0923
  H  H28  1  0.825500  0.026400  0.770300  1.0  0.0722
  H  H29  1  0.413200  0.214200  0.625200  1.0  0.0579
  H  H30  1  0.385500  0.283100  0.726100  1.0  0.0924
  H  H31  1  0.499800  0.288500  0.781200  1.0  0.0711
  H  H32  1  0.755200  0.994500  0.513600  1.0  0.0735
  H  H33  1  0.681400  0.008800  0.416500  1.0  0.101
  H  H34  1  0.582100  0.093700  0.449300  1.0  0.0924
  H  H35  1  0.749100  0.311500  0.734100  1.0  0.0756
  H  H36  1  0.798300  0.388900  0.809000  1.0  0.0923
  H  H37  1  0.639700  0.345800  0.933000  1.0  0.0781
  H  H38  1  0.590500  0.268400  0.858100  1.0  0.0704
  H  H39  1  0.667500  0.466900  0.955100  1.0  0.0846
  H  H40  1  0.717100  0.538900  0.034200  1.0  0.0815
  H  H41  1  0.908800  0.454700  0.997900  1.0  0.0772
  H  H42  1  0.859200  0.382700  0.918800  1.0  0.0849
  H  H43  1  0.848400  0.137600  0.599900  1.0  0.0823
  H  H44  1  0.968700  0.112400  0.594600  1.0  0.0832
  H  H45  1  0.929300  0.911000  0.647100  1.0  0.0871
  H  H46  1  0.809000  0.936200  0.652400  1.0  0.0742
  H  H47  1  0.400700  0.918500  0.694000  1.0  0.3799
  H  H48  1  0.262400  0.812400  0.856200  1.0  0.0701
  H  H49  1  0.173600  0.909900  0.870800  1.0  0.0934
  H  H50  1  0.174500  0.973600  0.770300  1.0  0.0718
  H  H51  1  0.586800  0.785800  0.625200  1.0  0.0585
  H  H52  1  0.614500  0.716900  0.726100  1.0  0.0923
  H  H53  1  0.500200  0.711500  0.781200  1.0  0.0702
  H  H54  1  0.244800  0.005500  0.513600  1.0  0.0741
  H  H55  1  0.318600  0.991200  0.416500  1.0  0.101
  H  H56  1  0.417900  0.906300  0.449300  1.0  0.0932
  H  H57  1  0.250900  0.688500  0.734100  1.0  0.0759
  H  H58  1  0.201700  0.611100  0.809000  1.0  0.0922
  H  H59  1  0.360300  0.654200  0.933000  1.0  0.0779
  H  H60  1  0.409500  0.731600  0.858100  1.0  0.0695
  H  H61  1  0.332500  0.533100  0.955100  1.0  0.0847
  H  H62  1  0.282900  0.461100  0.034200  1.0  0.0818
  H  H63  1  0.091200  0.545300  0.997900  1.0  0.077
  H  H64  1  0.140800  0.617300  0.918800  1.0  0.0849
  H  H65  1  0.151600  0.862400  0.599900  1.0  0.0823
  H  H66  1  0.031300  0.887600  0.594600  1.0  0.0827
  H  H67  1  0.070700  0.089000  0.647100  1.0  0.0874
  H  H68  1  0.191000  0.063800  0.652400  1.0  0.075
  H  H69  1  0.918500  0.599300  0.194000  1.0  0.3776
  H  H70  1  0.812400  0.737600  0.356200  1.0  0.0704
  H  H71  1  0.909900  0.826400  0.370800  1.0  0.0925
  H  H72  1  0.973600  0.825500  0.270300  1.0  0.0723
  H  H73  1  0.785800  0.413200  0.125200  1.0  0.0585
  H  H74  1  0.716900  0.385500  0.226100  1.0  0.0924
  H  H75  1  0.711500  0.499800  0.281200  1.0  0.0709
  H  H76  1  0.005500  0.755200  0.013600  1.0  0.0736
  H  H77  1  0.991200  0.681400  0.916500  1.0  0.1011
  H  H78  1  0.906300  0.582100  0.949300  1.0  0.0926
  H  H79  1  0.688500  0.749100  0.234100  1.0  0.0751
  H  H80  1  0.611100  0.798300  0.309000  1.0  0.092
  H  H81  1  0.654200  0.639700  0.433000  1.0  0.0778
  H  H82  1  0.731600  0.590500  0.358100  1.0  0.0704
  H  H83  1  0.533100  0.667500  0.455100  1.0  0.0847
  H  H84  1  0.461100  0.717100  0.534200  1.0  0.0809
  H  H85  1  0.545300  0.908800  0.497900  1.0  0.0765
  H  H86  1  0.617300  0.859200  0.418800  1.0  0.0855
  H  H87  1  0.862400  0.848400  0.099900  1.0  0.0826
  H  H88  1  0.887600  0.968700  0.094600  1.0  0.0831
  H  H89  1  0.089000  0.929300  0.147100  1.0  0.0865
  H  H90  1  0.063800  0.809000  0.152400  1.0  0.0745
  H  H91  1  0.081500  0.400700  0.194000  1.0  0.3792
  H  H92  1  0.187600  0.262400  0.356200  1.0  0.0707
  H  H93  1  0.090100  0.173600  0.370800  1.0  0.0929
  H  H94  1  0.026400  0.174500  0.270300  1.0  0.072
  H  H95  1  0.214200  0.586800  0.125200  1.0  0.0592
  H  H96  1  0.283100  0.614500  0.226100  1.0  0.0922
  H  H97  1  0.288500  0.500200  0.281200  1.0  0.0712
  H  H98  1  0.994500  0.244800  0.013600  1.0  0.0725
  H  H99  1  0.008800  0.318600  0.916500  1.0  0.1013
  H  H100  1  0.093700  0.417900  0.949300  1.0  0.0928
  H  H101  1  0.311500  0.250900  0.234100  1.0  0.0753
  H  H102  1  0.388900  0.201700  0.309000  1.0  0.0923
  H  H103  1  0.345800  0.360300  0.433000  1.0  0.077
  H  H104  1  0.268400  0.409500  0.358100  1.0  0.0706
  H  H105  1  0.466900  0.332500  0.455100  1.0  0.0845
  H  H106  1  0.538900  0.282900  0.534200  1.0  0.0814
  H  H107  1  0.454700  0.091200  0.497900  1.0  0.0765
  H  H108  1  0.382700  0.140800  0.418800  1.0  0.0849
  H  H109  1  0.137600  0.151600  0.099900  1.0  0.0832
  H  H110  1  0.112400  0.031300  0.094600  1.0  0.0826
  H  H111  1  0.911000  0.070700  0.147100  1.0  0.0866
  H  H112  1  0.936200  0.191000  0.152400  1.0  0.0742
  H  H113  1  0.099300  0.418500  0.694000  1.0  0.3809
  H  H114  1  0.237600  0.312400  0.856200  1.0  0.0695
  H  H115  1  0.326400  0.409900  0.870800  1.0  0.0925
  H  H116  1  0.325500  0.473600  0.770300  1.0  0.0718
  H  H117  1  0.913200  0.285800  0.625200  1.0  0.0582
  H  H118  1  0.885500  0.216900  0.726100  1.0  0.0928
  H  H119  1  0.999800  0.211500  0.781200  1.0  0.0708
  H  H120  1  0.255200  0.505500  0.513600  1.0  0.0743
  H  H121  1  0.181400  0.491200  0.416500  1.0  0.101
  H  H122  1  0.082100  0.406300  0.449300  1.0  0.0928
  H  H123  1  0.249100  0.188500  0.734100  1.0  0.076
  H  H124  1  0.298300  0.111100  0.809000  1.0  0.0924
  H  H125  1  0.139700  0.154200  0.933000  1.0  0.078
  H  H126  1  0.090500  0.231600  0.858100  1.0  0.0701
  H  H127  1  0.167500  0.033100  0.955100  1.0  0.0846
  H  H128  1  0.217100  0.961100  0.034200  1.0  0.0814
  H  H129  1  0.408800  0.045300  0.997900  1.0  0.0769
  H  H130  1  0.359200  0.117300  0.918800  1.0  0.085
  H  H131  1  0.348400  0.362400  0.599900  1.0  0.0818
  H  H132  1  0.468700  0.387600  0.594600  1.0  0.083
  H  H133  1  0.429300  0.589000  0.647100  1.0  0.0874
  H  H134  1  0.309000  0.563800  0.652400  1.0  0.0751
  H  H135  1  0.900700  0.581500  0.694000  1.0  0.3786
  H  H136  1  0.762400  0.687600  0.856200  1.0  0.0699
  H  H137  1  0.673600  0.590100  0.870800  1.0  0.0932
  H  H138  1  0.674500  0.526400  0.770300  1.0  0.0719
  H  H139  1  0.086800  0.714200  0.625200  1.0  0.0584
  H  H140  1  0.114500  0.783100  0.726100  1.0  0.0919
  H  H141  1  0.000200  0.788500  0.781200  1.0  0.0704
  H  H142  1  0.744800  0.494500  0.513600  1.0  0.0731
  H  H143  1  0.818600  0.508800  0.416500  1.0  0.1009
  H  H144  1  0.917900  0.593700  0.449300  1.0  0.0929
  H  H145  1  0.750900  0.811500  0.734100  1.0  0.0756
  H  H146  1  0.701700  0.888900  0.809000  1.0  0.092
  H  H147  1  0.860300  0.845800  0.933000  1.0  0.0781
  H  H148  1  0.909500  0.768400  0.858100  1.0  0.0698
  H  H149  1  0.832500  0.966900  0.955100  1.0  0.085
  H  H150  1  0.782900  0.038900  0.034200  1.0  0.0815
  H  H151  1  0.591200  0.954700  0.997900  1.0  0.0771
  H  H152  1  0.640800  0.882700  0.918800  1.0  0.0842
  H  H153  1  0.651600  0.637600  0.599900  1.0  0.0826
  H  H154  1  0.531300  0.612400  0.594600  1.0  0.0832
  H  H155  1  0.570700  0.411000  0.647100  1.0  0.087
  H  H156  1  0.691000  0.436200  0.652400  1.0  0.0748
  H  H157  1  0.418500  0.900700  0.194000  1.0  0.3779
  H  H158  1  0.312400  0.762400  0.356200  1.0  0.0705
  H  H159  1  0.409900  0.673600  0.370800  1.0  0.0927
  H  H160  1  0.473600  0.674500  0.270300  1.0  0.0725
  H  H161  1  0.285800  0.086800  0.125200  1.0  0.0589
  H  H162  1  0.216900  0.114500  0.226100  1.0  0.0925
  H  H163  1  0.211500  0.000200  0.281200  1.0  0.0711
  H  H164  1  0.505500  0.744800  0.013600  1.0  0.0734
  H  H165  1  0.491200  0.818600  0.916500  1.0  0.1011
  H  H166  1  0.406300  0.917900  0.949300  1.0  0.0927
  H  H167  1  0.188500  0.750900  0.234100  1.0  0.0754
  H  H168  1  0.111100  0.701700  0.309000  1.0  0.092
  H  H169  1  0.154200  0.860300  0.433000  1.0  0.0772
  H  H170  1  0.231600  0.909500  0.358100  1.0  0.0703
  H  H171  1  0.033100  0.832500  0.455100  1.0  0.0846
  H  H172  1  0.961100  0.782900  0.534200  1.0  0.081
  H  H173  1  0.045300  0.591200  0.497900  1.0  0.0764
  H  H174  1  0.117300  0.640800  0.418800  1.0  0.0854
  H  H175  1  0.362400  0.651600  0.099900  1.0  0.0827
  H  H176  1  0.387600  0.531300  0.094600  1.0  0.0826
  H  H177  1  0.589000  0.570700  0.147100  1.0  0.0863
  H  H178  1  0.563800  0.691000  0.152400  1.0  0.0745
  H  H179  1  0.581500  0.099300  0.194000  1.0  0.3788
  H  H180  1  0.687600  0.237600  0.356200  1.0  0.0704
  H  H181  1  0.590100  0.326400  0.370800  1.0  0.0928
  H  H182  1  0.526400  0.325500  0.270300  1.0  0.0718
  H  H183  1  0.714200  0.913200  0.125200  1.0  0.0588
  H  H184  1  0.783100  0.885500  0.226100  1.0  0.0923
  H  H185  1  0.788500  0.999800  0.281200  1.0  0.0712
  H  H186  1  0.494500  0.255200  0.013600  1.0  0.0738
  H  H187  1  0.508800  0.181400  0.916500  1.0  0.1012
  H  H188  1  0.593700  0.082100  0.949300  1.0  0.0928
  H  H189  1  0.811500  0.249100  0.234100  1.0  0.075
  H  H190  1  0.888900  0.298300  0.309000  1.0  0.0921
  H  H191  1  0.845800  0.139700  0.433000  1.0  0.0774
  H  H192  1  0.768400  0.090500  0.358100  1.0  0.0704
  H  H193  1  0.966900  0.167500  0.455100  1.0  0.0848
  H  H194  1  0.038900  0.217100  0.534200  1.0  0.0812
  H  H195  1  0.954700  0.408800  0.497900  1.0  0.0765
  H  H196  1  0.882700  0.359200  0.418800  1.0  0.0856
  H  H197  1  0.637600  0.348400  0.099900  1.0  0.0831
  H  H198  1  0.612400  0.468700  0.094600  1.0  0.0828
  H  H199  1  0.411000  0.429300  0.147100  1.0  0.0866
  H  H200  1  0.436200  0.309000  0.152400  1.0  0.0737
  C  C201  1  0.749000  0.153200  0.825700  1.0  0.003
  C  C202  1  0.798800  0.099600  0.834400  1.0  -0.2222
  C  C203  1  0.797500  0.065900  0.779000  1.0  0.0528
  C  C204  1  0.445100  0.223000  0.658600  1.0  0.06
  C  C205  1  0.428400  0.263100  0.713400  1.0  -0.188
  C  C206  1  0.491600  0.264700  0.742500  1.0  0.0374
  C  C207  1  0.714400  0.022000  0.510300  1.0  -0.0415
  C  C208  1  0.674200  0.029500  0.456800  1.0  -0.2352
  C  C209  1  0.618100  0.076300  0.475600  1.0  -0.0529
  C  C210  1  0.727100  0.318400  0.774000  1.0  0.1257
  C  C211  1  0.756600  0.364700  0.818900  1.0  -0.1588
  C  C212  1  0.723900  0.375000  0.878500  1.0  0.0345
  C  C213  1  0.661600  0.338900  0.893200  1.0  -0.1311
  C  C214  1  0.632100  0.292600  0.848200  1.0  0.1176
  C  C215  1  0.758400  0.417600  0.929100  1.0  0.0354
  C  C216  1  0.715900  0.464500  0.963700  1.0  -0.1854
  C  C217  1  0.745600  0.507600  0.011100  1.0  0.1278
  C  C218  1  0.860400  0.457100  0.989300  1.0  0.109
  C  C219  1  0.830700  0.414000  0.942000  1.0  -0.1633
  C  C220  1  0.864600  0.092200  0.609400  1.0  0.125
  C  C221  1  0.936700  0.077100  0.606200  1.0  -0.1437
  C  C222  1  0.960900  0.009200  0.620300  1.0  0.0093
  C  C223  1  0.913100  0.956400  0.637600  1.0  -0.1561
  C  C224  1  0.841000  0.971500  0.640800  1.0  0.1027
  C  C225  1  0.251000  0.846800  0.825700  1.0  0.0039
  C  C226  1  0.201200  0.900400  0.834400  1.0  -0.2206
  C  C227  1  0.202500  0.934100  0.779000  1.0  0.0524
  C  C228  1  0.554900  0.777000  0.658600  1.0  0.0588
  C  C229  1  0.571600  0.736900  0.713400  1.0  -0.1862
  C  C230  1  0.508400  0.735300  0.742500  1.0  0.0375
  C  C231  1  0.285600  0.978000  0.510300  1.0  -0.0425
  C  C232  1  0.325800  0.970500  0.456800  1.0  -0.2341
  C  C233  1  0.381900  0.923700  0.475600  1.0  -0.0521
  C  C234  1  0.272900  0.681600  0.774000  1.0  0.1274
  C  C235  1  0.243400  0.635300  0.818900  1.0  -0.1591
  C  C236  1  0.276100  0.625000  0.878500  1.0  0.0338
  C  C237  1  0.338400  0.661100  0.893200  1.0  -0.1312
  C  C238  1  0.367900  0.707400  0.848200  1.0  0.118
  C  C239  1  0.241600  0.582400  0.929100  1.0  0.0346
  C  C240  1  0.284100  0.535500  0.963700  1.0  -0.1826
  C  C241  1  0.254400  0.492400  0.011100  1.0  0.1272
  C  C242  1  0.139600  0.542900  0.989300  1.0  0.108
  C  C243  1  0.169300  0.586000  0.942000  1.0  -0.1656
  C  C244  1  0.135400  0.907800  0.609400  1.0  0.1254
  C  C245  1  0.063300  0.922900  0.606200  1.0  -0.1454
  C  C246  1  0.039100  0.990800  0.620300  1.0  0.0089
  C  C247  1  0.086900  0.043600  0.637600  1.0  -0.1578
  C  C248  1  0.159000  0.028500  0.640800  1.0  0.1028
  C  C249  1  0.846800  0.749000  0.325700  1.0  0.0041
  C  C250  1  0.900400  0.798800  0.334400  1.0  -0.2236
  C  C251  1  0.934100  0.797500  0.279000  1.0  0.0548
  C  C252  1  0.777000  0.445100  0.158600  1.0  0.0596
  C  C253  1  0.736900  0.428400  0.213400  1.0  -0.1893
  C  C254  1  0.735300  0.491600  0.242500  1.0  0.0373
  C  C255  1  0.978000  0.714400  0.010300  1.0  -0.0425
  C  C256  1  0.970500  0.674200  0.956800  1.0  -0.2357
  C  C257  1  0.923700  0.618100  0.975600  1.0  -0.0542
  C  C258  1  0.681600  0.727100  0.274000  1.0  0.1253
  C  C259  1  0.635300  0.756600  0.318900  1.0  -0.1635
  C  C260  1  0.625000  0.723900  0.378500  1.0  0.0345
  C  C261  1  0.661100  0.661600  0.393200  1.0  -0.131
  C  C262  1  0.707400  0.632100  0.348200  1.0  0.1149
  C  C263  1  0.582400  0.758400  0.429100  1.0  0.0334
  C  C264  1  0.535500  0.715900  0.463700  1.0  -0.1851
  C  C265  1  0.492400  0.745600  0.511100  1.0  0.1328
  C  C266  1  0.542900  0.860400  0.489300  1.0  0.1069
  C  C267  1  0.586000  0.830700  0.442000  1.0  -0.1651
  C  C268  1  0.907800  0.864600  0.109400  1.0  0.1287
  C  C269  1  0.922900  0.936700  0.106200  1.0  -0.1429
  C  C270  1  0.990800  0.960900  0.120300  1.0  0.0082
  C  C271  1  0.043600  0.913100  0.137600  1.0  -0.1548
  C  C272  1  0.028500  0.841000  0.140800  1.0  0.1048
  C  C273  1  0.153200  0.251000  0.325700  1.0  0.0058
  C  C274  1  0.099600  0.201200  0.334400  1.0  -0.2237
  C  C275  1  0.065900  0.202500  0.279000  1.0  0.0539
  C  C276  1  0.223000  0.554900  0.158600  1.0  0.0615
  C  C277  1  0.263100  0.571600  0.213400  1.0  -0.1869
  C  C278  1  0.264700  0.508400  0.242500  1.0  0.0387
  C  C279  1  0.022000  0.285600  0.010300  1.0  -0.0414
  C  C280  1  0.029500  0.325800  0.956800  1.0  -0.2336
  C  C281  1  0.076300  0.381900  0.975600  1.0  -0.054
  C  C282  1  0.318400  0.272900  0.274000  1.0  0.1258
  C  C283  1  0.364700  0.243400  0.318900  1.0  -0.1633
  C  C284  1  0.375000  0.276100  0.378500  1.0  0.034
  C  C285  1  0.338900  0.338400  0.393200  1.0  -0.1315
  C  C286  1  0.292600  0.367900  0.348200  1.0  0.1145
  C  C287  1  0.417600  0.241600  0.429100  1.0  0.0337
  C  C288  1  0.464500  0.284100  0.463700  1.0  -0.1849
  C  C289  1  0.507600  0.254400  0.511100  1.0  0.1305
  C  C290  1  0.457100  0.139600  0.489300  1.0  0.1086
  C  C291  1  0.414000  0.169300  0.442000  1.0  -0.1635
  C  C292  1  0.092200  0.135400  0.109400  1.0  0.1276
  C  C293  1  0.077100  0.063300  0.106200  1.0  -0.1458
  C  C294  1  0.009200  0.039100  0.120300  1.0  0.0077
  C  C295  1  0.956400  0.086900  0.137600  1.0  -0.155
  C  C296  1  0.971500  0.159000  0.140800  1.0  0.1047
  C  C297  1  0.249000  0.346800  0.825700  1.0  0.0029
  C  C298  1  0.298800  0.400400  0.834400  1.0  -0.2223
  C  C299  1  0.297500  0.434100  0.779000  1.0  0.0523
  C  C300  1  0.945100  0.277000  0.658600  1.0  0.0601
  C  C301  1  0.928400  0.236900  0.713400  1.0  -0.1914
  C  C302  1  0.991600  0.235300  0.742500  1.0  0.0373
  C  C303  1  0.214400  0.478000  0.510300  1.0  -0.0417
  C  C304  1  0.174200  0.470500  0.456800  1.0  -0.2341
  C  C305  1  0.118100  0.423700  0.475600  1.0  -0.0528
  C  C306  1  0.227100  0.181600  0.774000  1.0  0.1263
  C  C307  1  0.256600  0.135300  0.818900  1.0  -0.1593
  C  C308  1  0.223900  0.125000  0.878500  1.0  0.0346
  C  C309  1  0.161600  0.161100  0.893200  1.0  -0.131
  C  C310  1  0.132100  0.207400  0.848200  1.0  0.1176
  C  C311  1  0.258400  0.082400  0.929100  1.0  0.0356
  C  C312  1  0.215900  0.035500  0.963700  1.0  -0.1853
  C  C313  1  0.245600  0.992400  0.011100  1.0  0.1297
  C  C314  1  0.360400  0.042900  0.989300  1.0  0.1087
  C  C315  1  0.330700  0.086000  0.942000  1.0  -0.1645
  C  C316  1  0.364600  0.407800  0.609400  1.0  0.1259
  C  C317  1  0.436700  0.422900  0.606200  1.0  -0.143
  C  C318  1  0.460900  0.490800  0.620300  1.0  0.0091
  C  C319  1  0.413100  0.543600  0.637600  1.0  -0.1574
  C  C320  1  0.341000  0.528500  0.640800  1.0  0.102
  C  C321  1  0.751000  0.653200  0.825700  1.0  0.004
  C  C322  1  0.701200  0.599600  0.834400  1.0  -0.2207
  C  C323  1  0.702500  0.565900  0.779000  1.0  0.0529
  C  C324  1  0.054900  0.723000  0.658600  1.0  0.0587
  C  C325  1  0.071600  0.763100  0.713400  1.0  -0.1891
  C  C326  1  0.008400  0.764700  0.742500  1.0  0.0375
  C  C327  1  0.785600  0.522000  0.510300  1.0  -0.0416
  C  C328  1  0.825800  0.529500  0.456800  1.0  -0.2351
  C  C329  1  0.881900  0.576300  0.475600  1.0  -0.0517
  C  C330  1  0.772900  0.818400  0.774000  1.0  0.1267
  C  C331  1  0.743400  0.864700  0.818900  1.0  -0.1584
  C  C332  1  0.776100  0.875000  0.878500  1.0  0.0336
  C  C333  1  0.838400  0.838900  0.893200  1.0  -0.1314
  C  C334  1  0.867900  0.792600  0.848200  1.0  0.1179
  C  C335  1  0.741600  0.917600  0.929100  1.0  0.0345
  C  C336  1  0.784100  0.964500  0.963700  1.0  -0.1833
  C  C337  1  0.754400  0.007600  0.011100  1.0  0.1267
  C  C338  1  0.639600  0.957100  0.989300  1.0  0.1081
  C  C339  1  0.669300  0.914000  0.942000  1.0  -0.1642
  C  C340  1  0.635400  0.592200  0.609400  1.0  0.1246
  C  C341  1  0.563300  0.577100  0.606200  1.0  -0.1461
  C  C342  1  0.539100  0.509200  0.620300  1.0  0.0089
  C  C343  1  0.586900  0.456400  0.637600  1.0  -0.1567
  C  C344  1  0.659000  0.471500  0.640800  1.0  0.1024
  C  C345  1  0.346800  0.751000  0.325700  1.0  0.0046
  C  C346  1  0.400400  0.701200  0.334400  1.0  -0.2237
  C  C347  1  0.434100  0.702500  0.279000  1.0  0.0554
  C  C348  1  0.277000  0.054900  0.158600  1.0  0.06
  C  C349  1  0.236900  0.071600  0.213400  1.0  -0.191
  C  C350  1  0.235300  0.008400  0.242500  1.0  0.0372
  C  C351  1  0.478000  0.785600  0.010300  1.0  -0.0413
  C  C352  1  0.470500  0.825800  0.956800  1.0  -0.2355
  C  C353  1  0.423700  0.881900  0.975600  1.0  -0.0546
  C  C354  1  0.181600  0.772900  0.274000  1.0  0.1259
  C  C355  1  0.135300  0.743400  0.318900  1.0  -0.1627
  C  C356  1  0.125000  0.776100  0.378500  1.0  0.0343
  C  C357  1  0.161100  0.838400  0.393200  1.0  -0.1317
  C  C358  1  0.207400  0.867900  0.348200  1.0  0.1142
  C  C359  1  0.082400  0.741600  0.429100  1.0  0.0334
  C  C360  1  0.035500  0.784100  0.463700  1.0  -0.1861
  C  C361  1  0.992400  0.754400  0.511100  1.0  0.1322
  C  C362  1  0.042900  0.639600  0.489300  1.0  0.1087
  C  C363  1  0.086000  0.669300  0.442000  1.0  -0.1642
  C  C364  1  0.407800  0.635400  0.109400  1.0  0.1282
  C  C365  1  0.422900  0.563300  0.106200  1.0  -0.1431
  C  C366  1  0.490800  0.539100  0.120300  1.0  0.0079
  C  C367  1  0.543600  0.586900  0.137600  1.0  -0.1543
  C  C368  1  0.528500  0.659000  0.140800  1.0  0.1045
  C  C369  1  0.653200  0.249000  0.325700  1.0  0.0052
  C  C370  1  0.599600  0.298800  0.334400  1.0  -0.2239
  C  C371  1  0.565900  0.297500  0.279000  1.0  0.0535
  C  C372  1  0.723000  0.945100  0.158600  1.0  0.0607
  C  C373  1  0.763100  0.928400  0.213400  1.0  -0.1915
  C  C374  1  0.764700  0.991600  0.242500  1.0  0.0389
  C  C375  1  0.522000  0.214400  0.010300  1.0  -0.0426
  C  C376  1  0.529500  0.174200  0.956800  1.0  -0.2336
  C  C377  1  0.576300  0.118100  0.975600  1.0  -0.0535
  C  C378  1  0.818400  0.227100  0.274000  1.0  0.1252
  C  C379  1  0.864700  0.256600  0.318900  1.0  -0.164
  C  C380  1  0.875000  0.223900  0.378500  1.0  0.0341
  C  C381  1  0.838900  0.161600  0.393200  1.0  -0.131
  C  C382  1  0.792600  0.132100  0.348200  1.0  0.1152
  C  C383  1  0.917600  0.258400  0.429100  1.0  0.0336
  C  C384  1  0.964500  0.215900  0.463700  1.0  -0.1833
  C  C385  1  0.007600  0.245600  0.511100  1.0  0.1314
  C  C386  1  0.957100  0.360400  0.489300  1.0  0.1067
  C  C387  1  0.914000  0.330700  0.442000  1.0  -0.1648
  C  C388  1  0.592200  0.364600  0.109400  1.0  0.1277
  C  C389  1  0.577100  0.436700  0.106200  1.0  -0.1455
  C  C390  1  0.509200  0.460900  0.120300  1.0  0.0081
  C  C391  1  0.456400  0.413100  0.137600  1.0  -0.1553
  C  C392  1  0.471500  0.341000  0.140800  1.0  0.1049
  N  N393  1  0.749500  0.095000  0.733700  1.0  -0.4232
  N  N394  1  0.720000  0.147600  0.766600  1.0  -0.184
  N  N395  1  0.541900  0.229000  0.711100  1.0  -0.3337
  N  N396  1  0.507800  0.199900  0.659000  1.0  -0.2337
  N  N397  1  0.627900  0.089900  0.538300  1.0  -0.1571
  N  N398  1  0.685400  0.061000  0.558700  1.0  -0.1814
  N  N399  1  0.664900  0.282300  0.788600  1.0  -0.3567
  N  N400  1  0.817800  0.503900  0.023900  1.0  -0.3288
  N  N401  1  0.816800  0.039400  0.626700  1.0  -0.3311
  N  N402  1  0.250500  0.905000  0.733700  1.0  -0.4234
  N  N403  1  0.280000  0.852400  0.766600  1.0  -0.1841
  N  N404  1  0.458100  0.771000  0.711100  1.0  -0.3318
  N  N405  1  0.492200  0.800100  0.659000  1.0  -0.2354
  N  N406  1  0.372100  0.910100  0.538300  1.0  -0.1577
  N  N407  1  0.314600  0.939000  0.558700  1.0  -0.1823
  N  N408  1  0.335100  0.717700  0.788600  1.0  -0.3559
  N  N409  1  0.182200  0.496100  0.023900  1.0  -0.3282
  N  N410  1  0.183200  0.960600  0.626700  1.0  -0.3296
  N  N411  1  0.905000  0.749500  0.233700  1.0  -0.4237
  N  N412  1  0.852400  0.720000  0.266600  1.0  -0.181
  N  N413  1  0.771000  0.541900  0.211100  1.0  -0.3376
  N  N414  1  0.800100  0.507800  0.159000  1.0  -0.2353
  N  N415  1  0.910100  0.627900  0.038300  1.0  -0.1572
  N  N416  1  0.939000  0.685400  0.058700  1.0  -0.1821
  N  N417  1  0.717700  0.664900  0.288600  1.0  -0.3565
  N  N418  1  0.496100  0.817800  0.523900  1.0  -0.3279
  N  N419  1  0.960600  0.816800  0.126700  1.0  -0.3305
  N  N420  1  0.095000  0.250500  0.233700  1.0  -0.4248
  N  N421  1  0.147600  0.280000  0.266600  1.0  -0.1813
  N  N422  1  0.229000  0.458100  0.211100  1.0  -0.3384
  N  N423  1  0.199900  0.492200  0.159000  1.0  -0.2346
  N  N424  1  0.089900  0.372100  0.038300  1.0  -0.1581
  N  N425  1  0.061000  0.314600  0.058700  1.0  -0.1818
  N  N426  1  0.282300  0.335100  0.288600  1.0  -0.356
  N  N427  1  0.503900  0.182200  0.523900  1.0  -0.3271
  N  N428  1  0.039400  0.183200  0.126700  1.0  -0.3306
  N  N429  1  0.249500  0.405000  0.733700  1.0  -0.4236
  N  N430  1  0.220000  0.352400  0.766600  1.0  -0.1846
  N  N431  1  0.041900  0.271000  0.711100  1.0  -0.3345
  N  N432  1  0.007800  0.300100  0.659000  1.0  -0.2341
  N  N433  1  0.127900  0.410100  0.538300  1.0  -0.1577
  N  N434  1  0.185400  0.439000  0.558700  1.0  -0.1814
  N  N435  1  0.164900  0.217700  0.788600  1.0  -0.3559
  N  N436  1  0.317800  0.996100  0.023900  1.0  -0.328
  N  N437  1  0.316800  0.460600  0.626700  1.0  -0.3308
  N  N438  1  0.750500  0.595000  0.733700  1.0  -0.4228
  N  N439  1  0.780000  0.647600  0.766600  1.0  -0.1839
  N  N440  1  0.958100  0.729000  0.711100  1.0  -0.3314
  N  N441  1  0.992200  0.699900  0.659000  1.0  -0.2356
  N  N442  1  0.872100  0.589900  0.538300  1.0  -0.1576
  N  N443  1  0.814600  0.561000  0.558700  1.0  -0.1824
  N  N444  1  0.835100  0.782300  0.788600  1.0  -0.3567
  N  N445  1  0.682200  0.003900  0.023900  1.0  -0.3287
  N  N446  1  0.683200  0.539400  0.626700  1.0  -0.33
  N  N447  1  0.405000  0.750500  0.233700  1.0  -0.4245
  N  N448  1  0.352400  0.780000  0.266600  1.0  -0.1801
  N  N449  1  0.271000  0.958100  0.211100  1.0  -0.338
  N  N450  1  0.300100  0.992200  0.159000  1.0  -0.2348
  N  N451  1  0.410100  0.872100  0.038300  1.0  -0.1568
  N  N452  1  0.439000  0.814600  0.058700  1.0  -0.1819
  N  N453  1  0.217700  0.835100  0.288600  1.0  -0.3561
  N  N454  1  0.996100  0.682200  0.523900  1.0  -0.3277
  N  N455  1  0.460600  0.683200  0.126700  1.0  -0.3304
  N  N456  1  0.595000  0.249500  0.233700  1.0  -0.4242
  N  N457  1  0.647600  0.220000  0.266600  1.0  -0.1817
  N  N458  1  0.729000  0.041900  0.211100  1.0  -0.3378
  N  N459  1  0.699900  0.007800  0.159000  1.0  -0.2348
  N  N460  1  0.589900  0.127900  0.038300  1.0  -0.158
  N  N461  1  0.561000  0.185400  0.058700  1.0  -0.1819
  N  N462  1  0.782300  0.164900  0.288600  1.0  -0.3563
  N  N463  1  0.003900  0.317800  0.523900  1.0  -0.3275
  N  N464  1  0.539400  0.316800  0.126700  1.0  -0.3308
  O  O465  1  0.626600  0.117500  0.670500  1.0  -0.9454
  O  O466  1  0.373400  0.882500  0.670500  1.0  -0.9439
  O  O467  1  0.882500  0.626600  0.170500  1.0  -0.9439
  O  O468  1  0.117500  0.373400  0.170500  1.0  -0.9456
  O  O469  1  0.126600  0.382500  0.670500  1.0  -0.9452
  O  O470  1  0.873400  0.617500  0.670500  1.0  -0.9441
  O  O471  1  0.382500  0.873400  0.170500  1.0  -0.944
  O  O472  1  0.617500  0.126600  0.170500  1.0  -0.9456
