# generated using pymatgen
data_Cd2H26C37(NO4)2
_symmetry_space_group_name_H-M   'P 1'
_cell_length_a   9.72500000
_cell_length_b   14.65400000
_cell_length_c   19.73600000
_cell_angle_alpha   80.50000000
_cell_angle_beta   77.20000000
_cell_angle_gamma   81.70000000
_symmetry_Int_Tables_number   1
_chemical_formula_structural   Cd2H26C37(NO4)2
_chemical_formula_sum   'Cd4 H52 C74 N4 O16'
_cell_volume   2688.02924576
_cell_formula_units_Z   2
loop_
 _symmetry_equiv_pos_site_id
 _symmetry_equiv_pos_as_xyz
  1  'x, y, z'
loop_
 _atom_site_type_symbol
 _atom_site_label
 _atom_site_symmetry_multiplicity
 _atom_site_fract_x
 _atom_site_fract_y
 _atom_site_fract_z
 _atom_site_occupancy
 _atom_site_charge
  Cd  Cd1  1  0.464140  0.062930  0.193580  1.0  1.0484
  Cd  Cd2  1  0.165780  0.231620  0.247840  1.0  1.0338
  Cd  Cd3  1  0.535860  0.937070  0.806420  1.0  1.0483
  Cd  Cd4  1  0.834220  0.768380  0.752160  1.0  1.0337
  H  H5  1  0.880200  0.135900  0.133100  1.0  0.1169
  H  H6  1  0.234700  0.975400  0.051400  1.0  0.1036
  H  H7  1  0.765500  0.105300  0.050200  1.0  0.1148
  H  H8  1  0.344700  0.427300  0.119500  1.0  0.1157
  H  H9  1  0.668200  0.276500  0.005300  1.0  0.1014
  H  H10  1  0.718100  0.406300  0.924600  1.0  0.1284
  H  H11  1  0.025700  0.822100  0.483700  1.0  0.1128
  H  H12  1  0.195000  0.856100  0.383400  1.0  0.112
  H  H13  1  0.145500  0.125400  0.412700  1.0  0.1002
  H  H14  1  0.199000  0.448300  0.392500  1.0  0.1122
  H  H15  1  0.836200  0.329800  0.458200  1.0  0.109
  H  H16  1  0.756800  0.425500  0.544800  1.0  0.126
  H  H17  1  0.098500  0.455100  0.229500  1.0  0.0795
  H  H18  1  0.949600  0.576600  0.191700  1.0  0.1299
  H  H19  1  0.796100  0.405700  0.096100  1.0  0.1126
  H  H20  1  0.946900  0.284800  0.141700  1.0  0.0795
  H  H21  1  0.713400  0.625500  0.141200  1.0  0.1133
  H  H22  1  0.694400  0.562500  0.085400  1.0  0.1147
  H  H23  1  0.942500  0.660300  0.063600  1.0  0.0867
  H  H24  1  0.902800  0.609100  0.006600  1.0  0.0872
  H  H25  1  0.740500  0.713400  0.988800  1.0  0.0876
  H  H26  1  0.886200  0.755100  0.980700  1.0  0.0959
  H  H27  1  0.860600  0.790300  0.128700  1.0  0.1192
  H  H28  1  0.741700  0.908400  0.188900  1.0  0.0915
  H  H29  1  0.465300  0.957800  0.067600  1.0  0.0835
  H  H30  1  0.571200  0.836700  0.008800  1.0  0.1127
  H  H31  1  0.119800  0.864100  0.866900  1.0  0.1165
  H  H32  1  0.765300  0.024600  0.948600  1.0  0.1035
  H  H33  1  0.234500  0.894700  0.949800  1.0  0.1148
  H  H34  1  0.655300  0.572700  0.880500  1.0  0.1149
  H  H35  1  0.331800  0.723500  0.994700  1.0  0.1015
  H  H36  1  0.281900  0.593700  0.075400  1.0  0.1288
  H  H37  1  0.974300  0.177900  0.516300  1.0  0.1127
  H  H38  1  0.805000  0.143900  0.616600  1.0  0.1122
  H  H39  1  0.854500  0.874600  0.587300  1.0  0.1006
  H  H40  1  0.801000  0.551700  0.607500  1.0  0.1128
  H  H41  1  0.163800  0.670200  0.541800  1.0  0.1087
  H  H42  1  0.243200  0.574500  0.455200  1.0  0.1263
  H  H43  1  0.901500  0.544900  0.770500  1.0  0.0791
  H  H44  1  0.050400  0.423400  0.808300  1.0  0.1302
  H  H45  1  0.203900  0.594300  0.903900  1.0  0.1121
  H  H46  1  0.053100  0.715200  0.858300  1.0  0.0792
  H  H47  1  0.286600  0.374500  0.858800  1.0  0.1138
  H  H48  1  0.305600  0.437500  0.914600  1.0  0.1138
  H  H49  1  0.057500  0.339700  0.936400  1.0  0.0864
  H  H50  1  0.097200  0.390900  0.993400  1.0  0.0876
  H  H51  1  0.259500  0.286600  0.011200  1.0  0.0883
  H  H52  1  0.113800  0.244900  0.019300  1.0  0.0963
  H  H53  1  0.139400  0.209700  0.871300  1.0  0.1181
  H  H54  1  0.258300  0.091600  0.811100  1.0  0.0918
  H  H55  1  0.534700  0.042200  0.932400  1.0  0.0838
  H  H56  1  0.428800  0.163300  0.991200  1.0  0.1115
  C  C57  1  0.152900  0.087600  0.147700  1.0  0.7141
  C  C58  1  0.072100  0.060000  0.098490  1.0  -0.1395
  C  C59  1  0.928700  0.097500  0.098800  1.0  -0.0639
  C  C60  1  0.139800  0.001800  0.050600  1.0  -0.1143
  C  C61  1  0.070500  0.980200  0.000070  1.0  0.0374
  C  C62  1  0.860500  0.078600  0.050200  1.0  -0.1175
  C  C63  1  0.443400  0.502800  0.029300  1.0  0.0286
  C  C64  1  0.418500  0.423200  0.079200  1.0  -0.0974
  C  C65  1  0.500400  0.339100  0.070000  1.0  -0.1477
  C  C66  1  0.611700  0.334200  0.011600  1.0  -0.0275
  C  C67  1  0.640800  0.411000  0.963300  1.0  -0.0964
  C  C68  1  0.466800  0.254500  0.122100  1.0  0.7239
  C  C69  1  0.049600  0.884000  0.469700  1.0  -0.103
  C  C70  1  0.148900  0.904300  0.410100  1.0  -0.021
  C  C71  1  0.183400  0.995800  0.387920  1.0  -0.1307
  C  C72  1  0.120000  0.064000  0.427350  1.0  -0.0925
  C  C73  1  0.017500  0.046000  0.489440  1.0  0.0596
  C  C74  1  0.287600  0.017300  0.320700  1.0  0.7074
  C  C75  1  0.110000  0.443900  0.423800  1.0  -0.1145
  C  C76  1  0.026900  0.381300  0.417700  1.0  -0.1559
  C  C77  1  0.894200  0.374200  0.463200  1.0  -0.0423
  C  C78  1  0.847200  0.430500  0.514800  1.0  -0.1097
  C  C79  1  0.933400  0.495600  0.523200  1.0  0.0374
  C  C80  1  0.072700  0.319900  0.360500  1.0  0.6397
  C  C81  1  0.034200  0.443900  0.202700  1.0  0.1783
  C  C82  1  0.948100  0.516900  0.179200  1.0  -0.224
  C  C83  1  0.858200  0.505800  0.137500  1.0  0.1191
  C  C84  1  0.857500  0.417900  0.124000  1.0  -0.2088
  C  C85  1  0.948100  0.345900  0.151700  1.0  0.175
  C  C86  1  0.765000  0.586800  0.104900  1.0  -0.2867
  C  C87  1  0.862200  0.647900  0.044400  1.0  -0.0878
  C  C88  1  0.808200  0.727200  0.015500  1.0  -0.1758
  C  C89  1  0.731900  0.802100  0.059800  1.0  0.1229
  C  C90  1  0.777800  0.824200  0.115200  1.0  -0.1852
  C  C91  1  0.705900  0.894500  0.151200  1.0  0.1404
  C  C92  1  0.546300  0.921800  0.081500  1.0  0.178
  C  C93  1  0.610900  0.851400  0.045000  1.0  -0.2178
  C  C94  1  0.847100  0.912400  0.852300  1.0  0.7183
  C  C95  1  0.927900  0.940000  0.901510  1.0  -0.1404
  C  C96  1  0.071300  0.902500  0.901200  1.0  -0.0645
  C  C97  1  0.860200  0.998200  0.949400  1.0  -0.1196
  C  C98  1  0.929500  0.019800  0.999930  1.0  0.0376
  C  C99  1  0.139500  0.921400  0.949800  1.0  -0.116
  C  C100  1  0.556600  0.497200  0.970700  1.0  0.029
  C  C101  1  0.581500  0.576800  0.920800  1.0  -0.1038
  C  C102  1  0.499600  0.660900  0.930000  1.0  -0.1478
  C  C103  1  0.388300  0.665800  0.988400  1.0  -0.0259
  C  C104  1  0.359200  0.589000  0.036700  1.0  -0.1042
  C  C105  1  0.533200  0.745500  0.877900  1.0  0.7221
  C  C106  1  0.950400  0.116000  0.530300  1.0  -0.1046
  C  C107  1  0.851100  0.095700  0.589900  1.0  -0.022
  C  C108  1  0.816600  0.004200  0.612080  1.0  -0.1302
  C  C109  1  0.880000  0.936000  0.572650  1.0  -0.0933
  C  C110  1  0.982500  0.954000  0.510560  1.0  0.0594
  C  C111  1  0.712400  0.982700  0.679300  1.0  0.7061
  C  C112  1  0.890000  0.556100  0.576200  1.0  -0.1169
  C  C113  1  0.973100  0.618700  0.582300  1.0  -0.1557
  C  C114  1  0.105800  0.625800  0.536800  1.0  -0.04
  C  C115  1  0.152800  0.569500  0.485200  1.0  -0.1098
  C  C116  1  0.066600  0.504400  0.476800  1.0  0.0375
  C  C117  1  0.927300  0.680100  0.639500  1.0  0.6409
  C  C118  1  0.965800  0.556100  0.797300  1.0  0.1779
  C  C119  1  0.051900  0.483100  0.820800  1.0  -0.2297
  C  C120  1  0.141800  0.494200  0.862500  1.0  0.1158
  C  C121  1  0.142500  0.582100  0.876000  1.0  -0.208
  C  C122  1  0.051900  0.654100  0.848300  1.0  0.1746
  C  C123  1  0.235000  0.413200  0.895100  1.0  -0.2831
  C  C124  1  0.137800  0.352100  0.955600  1.0  -0.0903
  C  C125  1  0.191800  0.272800  0.984500  1.0  -0.1727
  C  C126  1  0.268100  0.197900  0.940200  1.0  0.1245
  C  C127  1  0.222200  0.175800  0.884800  1.0  -0.1902
  C  C128  1  0.294100  0.105500  0.848800  1.0  0.1404
  C  C129  1  0.453700  0.078200  0.918500  1.0  0.1776
  C  C130  1  0.389100  0.148600  0.955000  1.0  -0.2193
  N  N131  1  0.035300  0.358000  0.191000  1.0  -0.3352
  N  N132  1  0.589600  0.943700  0.136190  1.0  -0.3118
  N  N133  1  0.964700  0.642000  0.809000  1.0  -0.3345
  N  N134  1  0.410400  0.056300  0.863810  1.0  -0.3099
  O  O135  1  0.279800  0.055700  0.142280  1.0  -0.6256
  O  O136  1  0.084700  0.142000  0.189720  1.0  -0.5986
  O  O137  1  0.536700  0.178100  0.109210  1.0  -0.6036
  O  O138  1  0.374600  0.263000  0.176430  1.0  -0.7199
  O  O139  1  0.299400  0.102800  0.295300  1.0  -0.7027
  O  O140  1  0.360300  0.953300  0.290890  1.0  -0.6208
  O  O141  1  0.991200  0.267100  0.351970  1.0  -0.6203
  O  O142  1  0.193800  0.324600  0.324300  1.0  -0.5773
  O  O143  1  0.720200  0.944300  0.857720  1.0  -0.6254
  O  O144  1  0.915300  0.858000  0.810280  1.0  -0.601
  O  O145  1  0.463300  0.821900  0.890790  1.0  -0.6041
  O  O146  1  0.625400  0.737000  0.823570  1.0  -0.7224
  O  O147  1  0.700600  0.897200  0.704700  1.0  -0.6983
  O  O148  1  0.639700  0.046700  0.709110  1.0  -0.6206
  O  O149  1  0.008800  0.732900  0.648030  1.0  -0.6207
  O  O150  1  0.806200  0.675400  0.675700  1.0  -0.5794
