# generated using pymatgen
data_CoH20C24(N2F)2
_symmetry_space_group_name_H-M   'P 1'
_cell_length_a   8.38370000
_cell_length_b   8.38370000
_cell_length_c   16.84730000
_cell_angle_alpha   90.00000000
_cell_angle_beta   90.00000000
_cell_angle_gamma   90.00000000
_symmetry_Int_Tables_number   1
_chemical_formula_structural   CoH20C24(N2F)2
_chemical_formula_sum   'Co2 H40 C48 N8 F4'
_cell_volume   1184.13649953
_cell_formula_units_Z   2
loop_
 _symmetry_equiv_pos_site_id
 _symmetry_equiv_pos_as_xyz
  1  'x, y, z'
loop_
 _atom_site_type_symbol
 _atom_site_label
 _atom_site_symmetry_multiplicity
 _atom_site_fract_x
 _atom_site_fract_y
 _atom_site_fract_z
 _atom_site_occupancy
 _atom_site_charge
  Co  Co1  1  0.500000  0.500000  0.750000  1.0  0.763
  Co  Co2  1  0.500000  0.500000  0.250000  1.0  0.763
  H  H3  1  0.538500  0.311400  0.911000  1.0  0.0711
  H  H4  1  0.391200  0.172200  0.002800  1.0  0.1114
  H  H5  1  0.995900  0.287200  0.879400  1.0  0.1093
  H  H6  1  0.154800  0.426300  0.792200  1.0  0.0801
  H  H7  1  0.103500  0.132100  0.061700  1.0  0.1013
  H  H8  1  0.461500  0.688600  0.911000  1.0  0.0725
  H  H9  1  0.608800  0.827800  0.002800  1.0  0.1113
  H  H10  1  0.004100  0.712800  0.879400  1.0  0.1088
  H  H11  1  0.845200  0.573700  0.792200  1.0  0.0804
  H  H12  1  0.896500  0.867900  0.061700  1.0  0.1014
  H  H13  1  0.311400  0.461500  0.089000  1.0  0.0718
  H  H14  1  0.172200  0.608800  0.997200  1.0  0.1111
  H  H15  1  0.287200  0.004100  0.120600  1.0  0.1099
  H  H16  1  0.426300  0.845200  0.207800  1.0  0.0802
  H  H17  1  0.132100  0.896500  0.938300  1.0  0.1021
  H  H18  1  0.688600  0.538500  0.089000  1.0  0.0712
  H  H19  1  0.827800  0.391200  0.997200  1.0  0.1119
  H  H20  1  0.712800  0.995900  0.120600  1.0  0.1102
  H  H21  1  0.573700  0.154800  0.207800  1.0  0.0806
  H  H22  1  0.867900  0.103500  0.938300  1.0  0.1016
  H  H23  1  0.538500  0.688600  0.411000  1.0  0.0714
  H  H24  1  0.391200  0.827800  0.502800  1.0  0.1114
  H  H25  1  0.995900  0.712800  0.379400  1.0  0.1093
  H  H26  1  0.154800  0.573700  0.292200  1.0  0.0804
  H  H27  1  0.103500  0.867900  0.561700  1.0  0.1016
  H  H28  1  0.461500  0.311400  0.411000  1.0  0.0719
  H  H29  1  0.608800  0.172200  0.502800  1.0  0.1111
  H  H30  1  0.004100  0.287200  0.379400  1.0  0.1087
  H  H31  1  0.845200  0.426300  0.292200  1.0  0.0802
  H  H32  1  0.896500  0.132100  0.561700  1.0  0.1011
  H  H33  1  0.311400  0.538500  0.589000  1.0  0.0711
  H  H34  1  0.172200  0.391200  0.497200  1.0  0.1118
  H  H35  1  0.287200  0.995900  0.620600  1.0  0.1101
  H  H36  1  0.426300  0.154800  0.707800  1.0  0.0806
  H  H37  1  0.132100  0.103500  0.438300  1.0  0.1019
  H  H38  1  0.688600  0.461500  0.589000  1.0  0.0719
  H  H39  1  0.827800  0.608800  0.497200  1.0  0.1115
  H  H40  1  0.712800  0.004100  0.620600  1.0  0.1101
  H  H41  1  0.573700  0.845200  0.707800  1.0  0.0802
  H  H42  1  0.867900  0.896500  0.438300  1.0  0.1018
  C  C43  1  0.427300  0.305500  0.904300  1.0  0.1634
  C  C44  1  0.339810  0.221000  0.959590  1.0  -0.2006
  C  C45  1  0.174000  0.208230  0.950960  1.0  0.0773
  C  C46  1  0.106980  0.289000  0.887060  1.0  -0.1974
  C  C47  1  0.203300  0.372200  0.834730  1.0  0.1623
  C  C48  1  0.080710  0.102960  0.005900  1.0  -0.1168
  C  C49  1  0.572700  0.694500  0.904300  1.0  0.1634
  C  C50  1  0.660190  0.779000  0.959590  1.0  -0.1996
  C  C51  1  0.826000  0.791770  0.950960  1.0  0.0767
  C  C52  1  0.893020  0.711000  0.887060  1.0  -0.1986
  C  C53  1  0.796700  0.627800  0.834730  1.0  0.1613
  C  C54  1  0.919290  0.897040  0.005900  1.0  -0.1178
  C  C55  1  0.305500  0.572700  0.095700  1.0  0.1657
  C  C56  1  0.221000  0.660190  0.040410  1.0  -0.2015
  C  C57  1  0.208230  0.826000  0.049040  1.0  0.0775
  C  C58  1  0.289000  0.893020  0.112940  1.0  -0.1984
  C  C59  1  0.372200  0.796700  0.165270  1.0  0.1621
  C  C60  1  0.102960  0.919290  0.994100  1.0  -0.1143
  C  C61  1  0.694500  0.427300  0.095700  1.0  0.1654
  C  C62  1  0.779000  0.339810  0.040410  1.0  -0.2025
  C  C63  1  0.791770  0.174000  0.049040  1.0  0.0769
  C  C64  1  0.711000  0.106980  0.112940  1.0  -0.1969
  C  C65  1  0.627800  0.203300  0.165270  1.0  0.1623
  C  C66  1  0.897040  0.080710  0.994100  1.0  -0.1147
  C  C67  1  0.427300  0.694500  0.404300  1.0  0.164
  C  C68  1  0.339810  0.779000  0.459590  1.0  -0.2004
  C  C69  1  0.174000  0.791770  0.450960  1.0  0.077
  C  C70  1  0.106980  0.711000  0.387060  1.0  -0.1976
  C  C71  1  0.203300  0.627800  0.334730  1.0  0.1618
  C  C72  1  0.080710  0.897040  0.505900  1.0  -0.117
  C  C73  1  0.572700  0.305500  0.404300  1.0  0.1628
  C  C74  1  0.660190  0.221000  0.459590  1.0  -0.1994
  C  C75  1  0.826000  0.208230  0.450960  1.0  0.0769
  C  C76  1  0.893020  0.289000  0.387060  1.0  -0.1984
  C  C77  1  0.796700  0.372200  0.334730  1.0  0.1618
  C  C78  1  0.919290  0.102960  0.505900  1.0  -0.1177
  C  C79  1  0.305500  0.427300  0.595700  1.0  0.1647
  C  C80  1  0.221000  0.339810  0.540410  1.0  -0.2018
  C  C81  1  0.208230  0.174000  0.549040  1.0  0.0772
  C  C82  1  0.289000  0.106980  0.612940  1.0  -0.1969
  C  C83  1  0.372200  0.203300  0.665270  1.0  0.1627
  C  C84  1  0.102960  0.080710  0.494100  1.0  -0.1143
  C  C85  1  0.694500  0.572700  0.595700  1.0  0.166
  C  C86  1  0.779000  0.660190  0.540410  1.0  -0.202
  C  C87  1  0.791770  0.826000  0.549040  1.0  0.0771
  C  C88  1  0.711000  0.893020  0.612940  1.0  -0.1981
  C  C89  1  0.627800  0.796700  0.665270  1.0  0.1618
  C  C90  1  0.897040  0.919290  0.494100  1.0  -0.1148
  N  N91  1  0.362410  0.379520  0.841770  1.0  -0.3284
  N  N92  1  0.637590  0.620480  0.841770  1.0  -0.3296
  N  N93  1  0.379520  0.637590  0.158230  1.0  -0.3274
  N  N94  1  0.620480  0.362410  0.158230  1.0  -0.3294
  N  N95  1  0.362410  0.620480  0.341770  1.0  -0.3289
  N  N96  1  0.637590  0.379520  0.341770  1.0  -0.3289
  N  N97  1  0.379520  0.362410  0.658230  1.0  -0.3279
  N  N98  1  0.620480  0.637590  0.658230  1.0  -0.3288
  F  F99  1  0.332540  0.667460  0.750000  1.0  -0.4499
  F  F100  1  0.667460  0.332540  0.750000  1.0  -0.4531
  F  F101  1  0.667460  0.667460  0.250000  1.0  -0.4503
  F  F102  1  0.332540  0.332540  0.250000  1.0  -0.4503
