# generated using pymatgen
data_Zn2H40C48N8Cl4O17
_symmetry_space_group_name_H-M   'P 1'
_cell_length_a   10.65970000
_cell_length_b   18.84950000
_cell_length_c   39.75520000
_cell_angle_alpha   90.00000000
_cell_angle_beta   90.00000000
_cell_angle_gamma   90.00000000
_symmetry_Int_Tables_number   1
_chemical_formula_structural   Zn2H40C48N8Cl4O17
_chemical_formula_sum   'Zn8 H160 C192 N32 Cl16 O68'
_cell_volume   7988.01293829
_cell_formula_units_Z   4
loop_
 _symmetry_equiv_pos_site_id
 _symmetry_equiv_pos_as_xyz
  1  'x, y, z'
loop_
 _atom_site_type_symbol
 _atom_site_label
 _atom_site_symmetry_multiplicity
 _atom_site_fract_x
 _atom_site_fract_y
 _atom_site_fract_z
 _atom_site_occupancy
 _atom_site_charge
  Zn  Zn1  1  0.499520  0.474020  0.520620  1.0  0.7001
  Zn  Zn2  1  0.699400  0.726020  0.771470  1.0  0.7593
  Zn  Zn3  1  0.500480  0.525980  0.020620  1.0  0.6996
  Zn  Zn4  1  0.300600  0.273980  0.271470  1.0  0.7598
  Zn  Zn5  1  0.000480  0.974020  0.520620  1.0  0.7001
  Zn  Zn6  1  0.800600  0.226020  0.771470  1.0  0.7595
  Zn  Zn7  1  0.999520  0.025980  0.020620  1.0  0.6996
  Zn  Zn8  1  0.199400  0.773980  0.271470  1.0  0.7597
  H  H9  1  0.517600  0.499000  0.443300  1.0  0.1088
  H  H10  1  0.565100  0.588300  0.405000  1.0  0.1284
  H  H11  1  0.607900  0.721200  0.482600  1.0  0.1123
  H  H12  1  0.570500  0.631000  0.519100  1.0  0.1039
  H  H13  1  0.264400  0.676000  0.331400  1.0  0.0931
  H  H14  1  0.416000  0.654300  0.368900  1.0  0.1116
  H  H15  1  0.608100  0.821000  0.332800  1.0  0.1275
  H  H16  1  0.441400  0.841000  0.296500  1.0  0.0962
  H  H17  1  0.942600  0.702600  0.284300  1.0  0.1009
  H  H18  1  0.785900  0.695600  0.322200  1.0  0.1343
  H  H19  1  0.974100  0.833900  0.381200  1.0  0.1287
  H  H20  1  0.140700  0.828000  0.342600  1.0  0.1046
  H  H21  1  0.063200  0.832300  0.487500  1.0  0.0863
  H  H22  1  0.983700  0.748100  0.451900  1.0  0.137
  H  H23  1  0.670900  0.864600  0.443600  1.0  0.1392
  H  H24  1  0.759300  0.944900  0.481500  1.0  0.0982
  H  H25  1  0.575900  0.766400  0.421600  1.0  0.1195
  H  H26  1  0.675800  0.669700  0.372900  1.0  0.1153
  H  H27  1  0.718600  0.819400  0.379700  1.0  0.1086
  H  H28  1  0.823800  0.704100  0.417500  1.0  0.1219
  H  H29  1  0.289600  0.588300  0.525100  1.0  0.097
  H  H30  1  0.200800  0.666200  0.563000  1.0  0.1287
  H  H31  1  0.440200  0.594200  0.632200  1.0  0.1474
  H  H32  1  0.520300  0.520100  0.592500  1.0  0.0985
  H  H33  1  0.625500  0.772700  0.700900  1.0  0.1048
  H  H34  1  0.459200  0.763000  0.662700  1.0  0.1332
  H  H35  1  0.306600  0.615300  0.721700  1.0  0.1396
  H  H36  1  0.461500  0.634000  0.759700  1.0  0.098
  H  H37  1  0.812900  0.639000  0.711900  1.0  0.1026
  H  H38  1  0.965800  0.643600  0.672400  1.0  0.1223
  H  H39  1  0.083200  0.828700  0.712500  1.0  0.1363
  H  H40  1  0.915200  0.820600  0.750200  1.0  0.0966
  H  H41  1  0.875900  0.843500  0.554500  1.0  0.1081
  H  H42  1  0.920400  0.754800  0.593700  1.0  0.1346
  H  H43  1  0.264100  0.838600  0.603400  1.0  0.1318
  H  H44  1  0.211000  0.922900  0.565300  1.0  0.0847
  H  H45  1  0.330500  0.739900  0.623800  1.0  0.1054
  H  H46  1  0.215200  0.635400  0.666667  1.0  0.128
  H  H47  1  0.193500  0.788700  0.666100  1.0  0.1189
  H  H48  1  0.075900  0.685900  0.622300  1.0  0.1267
  H  H49  1  0.482400  0.501000  0.943300  1.0  0.1092
  H  H50  1  0.434900  0.411700  0.905000  1.0  0.1285
  H  H51  1  0.392100  0.278800  0.982600  1.0  0.1125
  H  H52  1  0.429500  0.369000  0.019100  1.0  0.1038
  H  H53  1  0.735600  0.324000  0.831400  1.0  0.0935
  H  H54  1  0.584000  0.345700  0.868900  1.0  0.1116
  H  H55  1  0.391900  0.179000  0.832800  1.0  0.1278
  H  H56  1  0.558600  0.159000  0.796500  1.0  0.0963
  H  H57  1  0.057400  0.297400  0.784300  1.0  0.1008
  H  H58  1  0.214100  0.304400  0.822200  1.0  0.1347
  H  H59  1  0.025900  0.166100  0.881200  1.0  0.1295
  H  H60  1  0.859300  0.172000  0.842600  1.0  0.105
  H  H61  1  0.936800  0.167700  0.987500  1.0  0.0855
  H  H62  1  0.016300  0.251900  0.951900  1.0  0.1373
  H  H63  1  0.329100  0.135400  0.943600  1.0  0.1395
  H  H64  1  0.240700  0.055100  0.981500  1.0  0.0983
  H  H65  1  0.424100  0.233600  0.921600  1.0  0.1201
  H  H66  1  0.324200  0.330300  0.872900  1.0  0.1144
  H  H67  1  0.281400  0.180600  0.879700  1.0  0.1069
  H  H68  1  0.176200  0.295900  0.917500  1.0  0.123
  H  H69  1  0.710400  0.411700  0.025100  1.0  0.0969
  H  H70  1  0.799200  0.333800  0.063000  1.0  0.1294
  H  H71  1  0.559800  0.405800  0.132200  1.0  0.1471
  H  H72  1  0.479700  0.479900  0.092500  1.0  0.0988
  H  H73  1  0.374500  0.227300  0.200900  1.0  0.1041
  H  H74  1  0.540800  0.237000  0.162700  1.0  0.1326
  H  H75  1  0.693400  0.384700  0.221700  1.0  0.1394
  H  H76  1  0.538500  0.366000  0.259700  1.0  0.0985
  H  H77  1  0.187100  0.361000  0.211900  1.0  0.1035
  H  H78  1  0.034200  0.356400  0.172400  1.0  0.1231
  H  H79  1  0.916800  0.171300  0.212500  1.0  0.1368
  H  H80  1  0.084800  0.179400  0.250200  1.0  0.0968
  H  H81  1  0.124100  0.156500  0.054500  1.0  0.1088
  H  H82  1  0.079600  0.245200  0.093700  1.0  0.1348
  H  H83  1  0.735900  0.161400  0.103400  1.0  0.1306
  H  H84  1  0.789000  0.077100  0.065300  1.0  0.0839
  H  H85  1  0.669500  0.260100  0.123800  1.0  0.1054
  H  H86  1  0.784800  0.364600  0.166700  1.0  0.1267
  H  H87  1  0.806500  0.211300  0.166100  1.0  0.1195
  H  H88  1  0.924100  0.314100  0.122300  1.0  0.1284
  H  H89  1  0.982400  0.999000  0.443300  1.0  0.1098
  H  H90  1  0.934900  0.088300  0.405000  1.0  0.1281
  H  H91  1  0.892100  0.221200  0.482600  1.0  0.1123
  H  H92  1  0.929500  0.131000  0.519100  1.0  0.1037
  H  H93  1  0.235600  0.176000  0.331400  1.0  0.093
  H  H94  1  0.084000  0.154300  0.368900  1.0  0.1115
  H  H95  1  0.891900  0.321000  0.332800  1.0  0.1274
  H  H96  1  0.058600  0.341000  0.296500  1.0  0.0967
  H  H97  1  0.557400  0.202600  0.284300  1.0  0.1009
  H  H98  1  0.714100  0.195600  0.322200  1.0  0.1345
  H  H99  1  0.525900  0.333900  0.381200  1.0  0.1289
  H  H100  1  0.359300  0.328000  0.342600  1.0  0.1046
  H  H101  1  0.436800  0.332300  0.487500  1.0  0.0862
  H  H102  1  0.516300  0.248100  0.451900  1.0  0.1364
  H  H103  1  0.829100  0.364600  0.443600  1.0  0.1397
  H  H104  1  0.740700  0.444900  0.481500  1.0  0.0979
  H  H105  1  0.924100  0.266400  0.421600  1.0  0.1198
  H  H106  1  0.824200  0.169700  0.372900  1.0  0.1155
  H  H107  1  0.781400  0.319400  0.379700  1.0  0.1083
  H  H108  1  0.676200  0.204100  0.417500  1.0  0.122
  H  H109  1  0.210400  0.088300  0.525100  1.0  0.0969
  H  H110  1  0.299200  0.166200  0.563000  1.0  0.1291
  H  H111  1  0.059800  0.094200  0.632200  1.0  0.1474
  H  H112  1  0.979700  0.020100  0.592500  1.0  0.099
  H  H113  1  0.874500  0.272700  0.700900  1.0  0.1053
  H  H114  1  0.040800  0.263000  0.662700  1.0  0.1331
  H  H115  1  0.193400  0.115300  0.721700  1.0  0.1399
  H  H116  1  0.038500  0.134000  0.759700  1.0  0.0981
  H  H117  1  0.687100  0.139000  0.711900  1.0  0.1034
  H  H118  1  0.534200  0.143600  0.672400  1.0  0.1222
  H  H119  1  0.416800  0.328700  0.712500  1.0  0.1364
  H  H120  1  0.584800  0.320600  0.750200  1.0  0.0965
  H  H121  1  0.624100  0.343500  0.554500  1.0  0.1085
  H  H122  1  0.579600  0.254800  0.593700  1.0  0.1351
  H  H123  1  0.235900  0.338600  0.603400  1.0  0.1306
  H  H124  1  0.289000  0.422900  0.565300  1.0  0.0857
  H  H125  1  0.169500  0.239900  0.623800  1.0  0.1056
  H  H126  1  0.284800  0.135400  0.666667  1.0  0.1276
  H  H127  1  0.306500  0.288700  0.666100  1.0  0.1193
  H  H128  1  0.424100  0.185900  0.622300  1.0  0.1277
  H  H129  1  0.017600  0.001000  0.943300  1.0  0.1101
  H  H130  1  0.065100  0.911700  0.905000  1.0  0.1285
  H  H131  1  0.107900  0.778800  0.982600  1.0  0.1124
  H  H132  1  0.070500  0.869000  0.019100  1.0  0.1039
  H  H133  1  0.764400  0.824000  0.831400  1.0  0.0939
  H  H134  1  0.916000  0.845700  0.868900  1.0  0.1117
  H  H135  1  0.108100  0.679000  0.832800  1.0  0.1283
  H  H136  1  0.941400  0.659000  0.796500  1.0  0.096
  H  H137  1  0.442600  0.797400  0.784300  1.0  0.1011
  H  H138  1  0.285900  0.804400  0.822200  1.0  0.1351
  H  H139  1  0.474100  0.666100  0.881200  1.0  0.1287
  H  H140  1  0.640700  0.672000  0.842600  1.0  0.1049
  H  H141  1  0.563200  0.667700  0.987500  1.0  0.0859
  H  H142  1  0.483700  0.751900  0.951900  1.0  0.137
  H  H143  1  0.170900  0.635400  0.943600  1.0  0.1392
  H  H144  1  0.259300  0.555100  0.981500  1.0  0.098
  H  H145  1  0.075900  0.733600  0.921600  1.0  0.1196
  H  H146  1  0.175800  0.830300  0.872900  1.0  0.1142
  H  H147  1  0.218600  0.680600  0.879700  1.0  0.1076
  H  H148  1  0.323800  0.795900  0.917500  1.0  0.1221
  H  H149  1  0.789600  0.911700  0.025100  1.0  0.0969
  H  H150  1  0.700800  0.833800  0.063000  1.0  0.1286
  H  H151  1  0.940200  0.905800  0.132200  1.0  0.1473
  H  H152  1  0.020300  0.979900  0.092500  1.0  0.0983
  H  H153  1  0.125500  0.727300  0.200900  1.0  0.1045
  H  H154  1  0.959200  0.737000  0.162700  1.0  0.1325
  H  H155  1  0.806600  0.884700  0.221700  1.0  0.1395
  H  H156  1  0.961500  0.866000  0.259700  1.0  0.0985
  H  H157  1  0.312900  0.861000  0.211900  1.0  0.1037
  H  H158  1  0.465800  0.856400  0.172400  1.0  0.1236
  H  H159  1  0.583200  0.671300  0.212500  1.0  0.1368
  H  H160  1  0.415200  0.679400  0.250200  1.0  0.0968
  H  H161  1  0.375900  0.656500  0.054500  1.0  0.1083
  H  H162  1  0.420400  0.745200  0.093700  1.0  0.1344
  H  H163  1  0.764100  0.661400  0.103400  1.0  0.1319
  H  H164  1  0.711000  0.577100  0.065300  1.0  0.086
  H  H165  1  0.830500  0.760100  0.123800  1.0  0.1053
  H  H166  1  0.715200  0.864600  0.166700  1.0  0.1274
  H  H167  1  0.693500  0.711300  0.166100  1.0  0.1196
  H  H168  1  0.575900  0.814100  0.122300  1.0  0.1278
  C  C169  1  0.537400  0.544600  0.451200  1.0  0.1635
  C  C170  1  0.565400  0.598100  0.428200  1.0  -0.1537
  C  C171  1  0.593500  0.665200  0.439600  1.0  0.1205
  C  C172  1  0.591600  0.675700  0.474100  1.0  -0.0943
  C  C173  1  0.567100  0.622100  0.495890  1.0  0.166
  C  C174  1  0.335000  0.705900  0.331600  1.0  0.1891
  C  C175  1  0.425500  0.692000  0.353600  1.0  -0.1977
  C  C176  1  0.538100  0.734200  0.354230  1.0  0.0993
  C  C177  1  0.539200  0.789900  0.332900  1.0  -0.1757
  C  C178  1  0.438300  0.801600  0.311000  1.0  0.1742
  C  C179  1  0.949800  0.728900  0.304300  1.0  0.1841
  C  C180  1  0.855000  0.725200  0.326500  1.0  -0.2094
  C  C181  1  0.859200  0.765700  0.356020  1.0  0.117
  C  C182  1  0.967000  0.805800  0.361700  1.0  -0.1044
  C  C183  1  0.065700  0.803600  0.337900  1.0  0.1643
  C  C184  1  0.982200  0.838800  0.478700  1.0  0.1721
  C  C185  1  0.936100  0.788700  0.456900  1.0  -0.2355
  C  C186  1  0.820400  0.798000  0.442380  1.0  0.138
  C  C187  1  0.751900  0.856800  0.452100  1.0  -0.2107
  C  C188  1  0.805800  0.904700  0.475100  1.0  0.1647
  C  C189  1  0.628800  0.724600  0.416470  1.0  -0.0938
  C  C190  1  0.642300  0.717400  0.378200  1.0  -0.1014
  C  C191  1  0.752600  0.770600  0.380120  1.0  -0.0933
  C  C192  1  0.771200  0.747400  0.417150  1.0  -0.096
  C  C193  1  0.321000  0.590000  0.547200  1.0  0.1637
  C  C194  1  0.268600  0.637500  0.569700  1.0  -0.1676
  C  C195  1  0.315500  0.642800  0.601530  1.0  0.1409
  C  C196  1  0.408600  0.595400  0.610100  1.0  -0.219
  C  C197  1  0.454400  0.550600  0.586300  1.0  0.1896
  C  C198  1  0.559000  0.741500  0.705600  1.0  0.1427
  C  C199  1  0.459200  0.734900  0.682280  1.0  -0.1637
  C  C200  1  0.364300  0.689000  0.687590  1.0  0.1541
  C  C201  1  0.369000  0.649200  0.717190  1.0  -0.2041
  C  C202  1  0.463400  0.659500  0.739400  1.0  0.1725
  C  C203  1  0.866500  0.678600  0.711540  1.0  0.1735
  C  C204  1  0.959100  0.680300  0.688300  1.0  -0.1879
  C  C205  1  0.046900  0.737700  0.687900  1.0  0.1124
  C  C206  1  0.028500  0.789700  0.711500  1.0  -0.1415
  C  C207  1  0.926700  0.784300  0.734300  1.0  0.15
  C  C208  1  0.955400  0.841900  0.564700  1.0  0.1582
  C  C209  1  0.982100  0.788200  0.587900  1.0  -0.1198
  C  C210  1  0.101000  0.784800  0.602200  1.0  0.159
  C  C211  1  0.183900  0.837600  0.593500  1.0  -0.2353
  C  C212  1  0.151100  0.888200  0.570900  1.0  0.1818
  C  C213  1  0.273800  0.698500  0.625910  1.0  -0.0807
  C  C214  1  0.255200  0.682400  0.663940  1.0  -0.0866
  C  C215  1  0.152000  0.742000  0.663600  1.0  -0.0789
  C  C216  1  0.134500  0.726100  0.625360  1.0  -0.087
  C  C217  1  0.462600  0.455400  0.951200  1.0  0.1644
  C  C218  1  0.434600  0.401900  0.928200  1.0  -0.1538
  C  C219  1  0.406500  0.334800  0.939600  1.0  0.121
  C  C220  1  0.408400  0.324300  0.974100  1.0  -0.096
  C  C221  1  0.432900  0.377900  0.995890  1.0  0.1661
  C  C222  1  0.665000  0.294100  0.831600  1.0  0.189
  C  C223  1  0.574500  0.308000  0.853600  1.0  -0.1983
  C  C224  1  0.461900  0.265800  0.854230  1.0  0.0998
  C  C225  1  0.460800  0.210100  0.832900  1.0  -0.177
  C  C226  1  0.561700  0.198400  0.811000  1.0  0.1723
  C  C227  1  0.050200  0.271100  0.804300  1.0  0.1848
  C  C228  1  0.145000  0.274800  0.826500  1.0  -0.2105
  C  C229  1  0.140800  0.234300  0.856020  1.0  0.1171
  C  C230  1  0.033000  0.194200  0.861700  1.0  -0.104
  C  C231  1  0.934300  0.196400  0.837900  1.0  0.1653
  C  C232  1  0.017800  0.161200  0.978700  1.0  0.1727
  C  C233  1  0.063900  0.211300  0.956900  1.0  -0.2343
  C  C234  1  0.179600  0.202000  0.942380  1.0  0.137
  C  C235  1  0.248100  0.143200  0.952100  1.0  -0.2138
  C  C236  1  0.194200  0.095300  0.975100  1.0  0.165
  C  C237  1  0.371200  0.275400  0.916470  1.0  -0.0941
  C  C238  1  0.357700  0.282600  0.878200  1.0  -0.0989
  C  C239  1  0.247400  0.229400  0.880120  1.0  -0.0958
  C  C240  1  0.228800  0.252600  0.917150  1.0  -0.0977
  C  C241  1  0.679000  0.410000  0.047200  1.0  0.1624
  C  C242  1  0.731400  0.362500  0.069700  1.0  -0.1683
  C  C243  1  0.684500  0.357200  0.101530  1.0  0.1412
  C  C244  1  0.591400  0.404600  0.110100  1.0  -0.2186
  C  C245  1  0.545600  0.449400  0.086300  1.0  0.1899
  C  C246  1  0.441000  0.258500  0.205600  1.0  0.1439
  C  C247  1  0.540800  0.265100  0.182280  1.0  -0.1633
  C  C248  1  0.635700  0.311000  0.187590  1.0  0.1535
  C  C249  1  0.631000  0.350800  0.217190  1.0  -0.2031
  C  C250  1  0.536600  0.340500  0.239400  1.0  0.1709
  C  C251  1  0.133500  0.321400  0.211540  1.0  0.174
  C  C252  1  0.040900  0.319700  0.188300  1.0  -0.1893
  C  C253  1  0.953100  0.262300  0.187900  1.0  0.1122
  C  C254  1  0.971500  0.210300  0.211500  1.0  -0.1398
  C  C255  1  0.073300  0.215700  0.234300  1.0  0.152
  C  C256  1  0.044600  0.158100  0.064700  1.0  0.1587
  C  C257  1  0.017900  0.211800  0.087900  1.0  -0.117
  C  C258  1  0.899000  0.215200  0.102200  1.0  0.1578
  C  C259  1  0.816100  0.162400  0.093500  1.0  -0.2335
  C  C260  1  0.848900  0.111800  0.070900  1.0  0.1816
  C  C261  1  0.726200  0.301500  0.125910  1.0  -0.0796
  C  C262  1  0.744800  0.317600  0.163940  1.0  -0.0862
  C  C263  1  0.848000  0.258000  0.163600  1.0  -0.0796
  C  C264  1  0.865500  0.273900  0.125360  1.0  -0.0869
  C  C265  1  0.962600  0.044600  0.451200  1.0  0.1643
  C  C266  1  0.934600  0.098100  0.428200  1.0  -0.1535
  C  C267  1  0.906500  0.165200  0.439600  1.0  0.1212
  C  C268  1  0.908400  0.175700  0.474100  1.0  -0.0957
  C  C269  1  0.932900  0.122100  0.495890  1.0  0.166
  C  C270  1  0.165000  0.205900  0.331600  1.0  0.1884
  C  C271  1  0.074500  0.192000  0.353600  1.0  -0.1971
  C  C272  1  0.961900  0.234200  0.354230  1.0  0.0996
  C  C273  1  0.960800  0.289900  0.332900  1.0  -0.1751
  C  C274  1  0.061700  0.301600  0.311000  1.0  0.1741
  C  C275  1  0.550200  0.228900  0.304300  1.0  0.185
  C  C276  1  0.645000  0.225200  0.326500  1.0  -0.2103
  C  C277  1  0.640800  0.265700  0.356020  1.0  0.1172
  C  C278  1  0.533000  0.305800  0.361700  1.0  -0.104
  C  C279  1  0.434300  0.303600  0.337900  1.0  0.1652
  C  C280  1  0.517800  0.338800  0.478700  1.0  0.1728
  C  C281  1  0.563900  0.288700  0.456900  1.0  -0.2333
  C  C282  1  0.679600  0.298000  0.442380  1.0  0.1371
  C  C283  1  0.748100  0.356800  0.452100  1.0  -0.2121
  C  C284  1  0.694200  0.404700  0.475100  1.0  0.1649
  C  C285  1  0.871200  0.224600  0.416470  1.0  -0.0936
  C  C286  1  0.857700  0.217400  0.378200  1.0  -0.101
  C  C287  1  0.747400  0.270600  0.380120  1.0  -0.095
  C  C288  1  0.728800  0.247400  0.417150  1.0  -0.0974
  C  C289  1  0.179000  0.090000  0.547200  1.0  0.1628
  C  C290  1  0.231400  0.137500  0.569700  1.0  -0.1677
  C  C291  1  0.184500  0.142800  0.601530  1.0  0.1403
  C  C292  1  0.091400  0.095400  0.610100  1.0  -0.2197
  C  C293  1  0.045600  0.050600  0.586300  1.0  0.1901
  C  C294  1  0.941000  0.241500  0.705600  1.0  0.1433
  C  C295  1  0.040800  0.234900  0.682280  1.0  -0.164
  C  C296  1  0.135700  0.189000  0.687590  1.0  0.1537
  C  C297  1  0.131000  0.149200  0.717190  1.0  -0.2039
  C  C298  1  0.036600  0.159500  0.739400  1.0  0.1727
  C  C299  1  0.633500  0.178600  0.711540  1.0  0.1733
  C  C300  1  0.540900  0.180300  0.688300  1.0  -0.188
  C  C301  1  0.453100  0.237700  0.687900  1.0  0.1123
  C  C302  1  0.471500  0.289700  0.711500  1.0  -0.1399
  C  C303  1  0.573300  0.284300  0.734300  1.0  0.1509
  C  C304  1  0.544600  0.341900  0.564700  1.0  0.1588
  C  C305  1  0.517900  0.288200  0.587900  1.0  -0.118
  C  C306  1  0.399000  0.284800  0.602200  1.0  0.1577
  C  C307  1  0.316100  0.337600  0.593500  1.0  -0.2345
  C  C308  1  0.348900  0.388200  0.570900  1.0  0.1823
  C  C309  1  0.226200  0.198500  0.625910  1.0  -0.0792
  C  C310  1  0.244800  0.182400  0.663940  1.0  -0.0855
  C  C311  1  0.348000  0.242000  0.663600  1.0  -0.0781
  C  C312  1  0.365500  0.226100  0.625360  1.0  -0.0859
  C  C313  1  0.037400  0.955400  0.951200  1.0  0.1639
  C  C314  1  0.065400  0.901900  0.928200  1.0  -0.1541
  C  C315  1  0.093500  0.834800  0.939600  1.0  0.1205
  C  C316  1  0.091600  0.824300  0.974100  1.0  -0.0945
  C  C317  1  0.067100  0.877900  0.995890  1.0  0.1661
  C  C318  1  0.835000  0.794100  0.831600  1.0  0.1888
  C  C319  1  0.925500  0.808000  0.853600  1.0  -0.1985
  C  C320  1  0.038100  0.765800  0.854230  1.0  0.0996
  C  C321  1  0.039200  0.710100  0.832900  1.0  -0.1777
  C  C322  1  0.938300  0.698400  0.811000  1.0  0.1723
  C  C323  1  0.449800  0.771100  0.804300  1.0  0.1842
  C  C324  1  0.355000  0.774800  0.826500  1.0  -0.2095
  C  C325  1  0.359200  0.734300  0.856020  1.0  0.1169
  C  C326  1  0.467000  0.694200  0.861700  1.0  -0.104
  C  C327  1  0.565700  0.696400  0.837900  1.0  0.1641
  C  C328  1  0.482200  0.661200  0.978700  1.0  0.1715
  C  C329  1  0.436100  0.711300  0.956900  1.0  -0.2349
  C  C330  1  0.320400  0.702000  0.942380  1.0  0.138
  C  C331  1  0.251900  0.643200  0.952100  1.0  -0.2114
  C  C332  1  0.305800  0.595300  0.975100  1.0  0.1644
  C  C333  1  0.128800  0.775400  0.916470  1.0  -0.0948
  C  C334  1  0.142300  0.782600  0.878200  1.0  -0.0997
  C  C335  1  0.252600  0.729400  0.880120  1.0  -0.0944
  C  C336  1  0.271200  0.752600  0.917150  1.0  -0.0965
  C  C337  1  0.821000  0.910000  0.047200  1.0  0.1631
  C  C338  1  0.768600  0.862500  0.069700  1.0  -0.1675
  C  C339  1  0.815500  0.857200  0.101530  1.0  0.1416
  C  C340  1  0.908600  0.904600  0.110100  1.0  -0.2191
  C  C341  1  0.954400  0.949400  0.086300  1.0  0.1897
  C  C342  1  0.059000  0.758500  0.205600  1.0  0.143
  C  C343  1  0.959200  0.765100  0.182280  1.0  -0.1632
  C  C344  1  0.864300  0.811000  0.187590  1.0  0.154
  C  C345  1  0.869000  0.850800  0.217190  1.0  -0.2037
  C  C346  1  0.963400  0.840500  0.239400  1.0  0.1711
  C  C347  1  0.366500  0.821400  0.211540  1.0  0.1738
  C  C348  1  0.459100  0.819700  0.188300  1.0  -0.1885
  C  C349  1  0.546900  0.762300  0.187900  1.0  0.1124
  C  C350  1  0.528500  0.710300  0.211500  1.0  -0.1415
  C  C351  1  0.426700  0.715700  0.234300  1.0  0.1517
  C  C352  1  0.455400  0.658100  0.064700  1.0  0.1584
  C  C353  1  0.482100  0.711800  0.087900  1.0  -0.1204
  C  C354  1  0.601000  0.715200  0.102200  1.0  0.159
  C  C355  1  0.683900  0.662400  0.093500  1.0  -0.235
  C  C356  1  0.651100  0.611800  0.070900  1.0  0.181
  C  C357  1  0.773800  0.801500  0.125910  1.0  -0.0804
  C  C358  1  0.755200  0.817600  0.163940  1.0  -0.0866
  C  C359  1  0.652000  0.758000  0.163600  1.0  -0.0807
  C  C360  1  0.634500  0.773900  0.125360  1.0  -0.0874
  N  N361  1  0.538300  0.557200  0.485220  1.0  -0.3077
  N  N362  1  0.918200  0.896000  0.488070  1.0  -0.3093
  N  N363  1  0.055400  0.767900  0.308880  1.0  -0.3088
  N  N364  1  0.337800  0.759300  0.309870  1.0  -0.3026
  N  N365  1  0.413300  0.546900  0.555500  1.0  -0.2995
  N  N366  1  0.560300  0.704500  0.734020  1.0  -0.3059
  N  N367  1  0.846900  0.730300  0.734120  1.0  -0.3043
  N  N368  1  0.042000  0.891500  0.556690  1.0  -0.3171
  N  N369  1  0.461700  0.442800  0.985220  1.0  -0.3088
  N  N370  1  0.081800  0.104000  0.988070  1.0  -0.3088
  N  N371  1  0.944600  0.232100  0.808880  1.0  -0.3094
  N  N372  1  0.662200  0.240700  0.809870  1.0  -0.303
  N  N373  1  0.586700  0.453100  0.055500  1.0  -0.2993
  N  N374  1  0.439700  0.295500  0.234020  1.0  -0.3073
  N  N375  1  0.153100  0.269700  0.234120  1.0  -0.3039
  N  N376  1  0.958000  0.108500  0.056690  1.0  -0.3163
  N  N377  1  0.961700  0.057200  0.485220  1.0  -0.3077
  N  N378  1  0.581800  0.396000  0.488070  1.0  -0.3097
  N  N379  1  0.444600  0.267900  0.308880  1.0  -0.3093
  N  N380  1  0.162200  0.259300  0.309870  1.0  -0.3026
  N  N381  1  0.086700  0.046900  0.555500  1.0  -0.3006
  N  N382  1  0.939700  0.204500  0.734020  1.0  -0.3073
  N  N383  1  0.653100  0.230300  0.734120  1.0  -0.3039
  N  N384  1  0.458000  0.391500  0.556690  1.0  -0.3174
  N  N385  1  0.038300  0.942800  0.985220  1.0  -0.3089
  N  N386  1  0.418200  0.604000  0.988070  1.0  -0.3085
  N  N387  1  0.555400  0.732100  0.808880  1.0  -0.309
  N  N388  1  0.837800  0.740700  0.809870  1.0  -0.3032
  N  N389  1  0.913300  0.953100  0.055500  1.0  -0.2982
  N  N390  1  0.060300  0.795500  0.234020  1.0  -0.3058
  N  N391  1  0.346900  0.769700  0.234120  1.0  -0.3042
  N  N392  1  0.542000  0.608500  0.056690  1.0  -0.3161
  Cl  Cl393  1  0.564200  0.791500  0.560010  1.0  1.2838
  Cl  Cl394  1  0.189200  0.375200  0.417690  1.0  1.3103
  Cl  Cl395  1  0.354300  0.510400  0.838900  1.0  1.514
  Cl  Cl396  1  0.337200  0.957100  0.679200  1.0  1.3015
  Cl  Cl397  1  0.435800  0.208500  0.060010  1.0  1.284
  Cl  Cl398  1  0.810800  0.624800  0.917690  1.0  1.3151
  Cl  Cl399  1  0.645700  0.489600  0.338900  1.0  1.5134
  Cl  Cl400  1  0.662800  0.042900  0.179200  1.0  1.2993
  Cl  Cl401  1  0.935800  0.291500  0.560010  1.0  1.2831
  Cl  Cl402  1  0.310800  0.875200  0.417690  1.0  1.31
  Cl  Cl403  1  0.145700  0.010400  0.838900  1.0  1.5134
  Cl  Cl404  1  0.162800  0.457100  0.679200  1.0  1.3001
  Cl  Cl405  1  0.064200  0.708500  0.060010  1.0  1.2843
  Cl  Cl406  1  0.689200  0.124800  0.917690  1.0  1.3177
  Cl  Cl407  1  0.854300  0.989600  0.338900  1.0  1.5141
  Cl  Cl408  1  0.837200  0.542900  0.179200  1.0  1.3008
  O  O409  1  0.721300  0.613100  0.776500  1.0  -0.3117
  O  O410  1  0.278700  0.386900  0.276500  1.0  -0.3108
  O  O411  1  0.778700  0.113100  0.776500  1.0  -0.3113
  O  O412  1  0.221300  0.886900  0.276500  1.0  -0.3116
  O  O413  1  0.636000  0.729300  0.560700  1.0  -0.552
  O  O414  1  0.538800  0.804800  0.594500  1.0  -0.5782
  O  O415  1  0.622000  0.853000  0.548400  1.0  -0.5412
  O  O416  1  0.440400  0.770900  0.546000  1.0  -0.5823
  O  O417  1  0.273000  0.314000  0.410700  1.0  -0.6033
  O  O418  1  0.103100  0.368400  0.442800  1.0  -0.501
  O  O419  1  0.295000  0.414800  0.428600  1.0  -0.5786
  O  O420  1  0.143000  0.404500  0.388300  1.0  -0.5497
  O  O421  1  0.319000  0.440600  0.831300  1.0  -0.567
  O  O422  1  0.364000  0.549900  0.809900  1.0  -0.5494
  O  O423  1  0.462000  0.510700  0.859500  1.0  -0.5087
  O  O424  1  0.252000  0.536700  0.860300  1.0  -0.6392
  O  O425  1  0.425000  0.001600  0.694000  1.0  -0.5505
  O  O426  1  0.316000  0.994500  0.645400  1.0  -0.5906
  O  O427  1  0.383000  0.894400  0.667600  1.0  -0.5438
  O  O428  1  0.224200  0.959000  0.694500  1.0  -0.5093
  O  O429  1  0.364000  0.270700  0.060700  1.0  -0.5502
  O  O430  1  0.461200  0.195200  0.094500  1.0  -0.5751
  O  O431  1  0.378000  0.147000  0.048400  1.0  -0.5406
  O  O432  1  0.559600  0.229100  0.046000  1.0  -0.5842
  O  O433  1  0.727000  0.686000  0.910700  1.0  -0.6035
  O  O434  1  0.896900  0.631600  0.942800  1.0  -0.5012
  O  O435  1  0.705000  0.585200  0.928600  1.0  -0.5791
  O  O436  1  0.857000  0.595500  0.888300  1.0  -0.5476
  O  O437  1  0.681000  0.559400  0.331300  1.0  -0.5664
  O  O438  1  0.636000  0.450100  0.309900  1.0  -0.5513
  O  O439  1  0.538000  0.489300  0.359500  1.0  -0.5066
  O  O440  1  0.748000  0.463300  0.360300  1.0  -0.6423
  O  O441  1  0.575000  0.998400  0.194000  1.0  -0.5473
  O  O442  1  0.684000  0.005500  0.145400  1.0  -0.5905
  O  O443  1  0.617000  0.105600  0.167600  1.0  -0.5418
  O  O444  1  0.775800  0.041000  0.194500  1.0  -0.5079
  O  O445  1  0.864000  0.229300  0.560700  1.0  -0.5503
  O  O446  1  0.961200  0.304800  0.594500  1.0  -0.5761
  O  O447  1  0.878000  0.353000  0.548400  1.0  -0.5399
  O  O448  1  0.059600  0.270900  0.546000  1.0  -0.5841
  O  O449  1  0.227000  0.814000  0.410700  1.0  -0.604
  O  O450  1  0.396900  0.868400  0.442800  1.0  -0.5022
  O  O451  1  0.205000  0.914800  0.428600  1.0  -0.5778
  O  O452  1  0.357000  0.904500  0.388300  1.0  -0.5493
  O  O453  1  0.181000  0.940600  0.831300  1.0  -0.5676
  O  O454  1  0.136000  0.049900  0.809900  1.0  -0.55
  O  O455  1  0.038000  0.010700  0.859500  1.0  -0.5066
  O  O456  1  0.248000  0.036700  0.860300  1.0  -0.6431
  O  O457  1  0.075000  0.501600  0.694000  1.0  -0.5477
  O  O458  1  0.184000  0.494500  0.645400  1.0  -0.5915
  O  O459  1  0.117000  0.394400  0.667600  1.0  -0.5425
  O  O460  1  0.275800  0.459000  0.694500  1.0  -0.5081
  O  O461  1  0.136000  0.770700  0.060700  1.0  -0.5497
  O  O462  1  0.038800  0.695200  0.094500  1.0  -0.5775
  O  O463  1  0.122000  0.647000  0.048400  1.0  -0.5409
  O  O464  1  0.940400  0.729100  0.046000  1.0  -0.5822
  O  O465  1  0.773000  0.186000  0.910700  1.0  -0.6032
  O  O466  1  0.603100  0.131600  0.942800  1.0  -0.4999
  O  O467  1  0.795000  0.085200  0.928600  1.0  -0.5784
  O  O468  1  0.643000  0.095500  0.888300  1.0  -0.5488
  O  O469  1  0.819000  0.059400  0.331300  1.0  -0.5663
  O  O470  1  0.864000  0.950100  0.309900  1.0  -0.5506
  O  O471  1  0.962000  0.989300  0.359500  1.0  -0.5087
  O  O472  1  0.752000  0.963300  0.360300  1.0  -0.6387
  O  O473  1  0.925000  0.498400  0.194000  1.0  -0.55
  O  O474  1  0.816000  0.505500  0.145400  1.0  -0.5901
  O  O475  1  0.883000  0.605600  0.167600  1.0  -0.5437
  O  O476  1  0.724200  0.541000  0.194500  1.0  -0.5091
