# generated using pymatgen
data_MgH3C7NO4
_symmetry_space_group_name_H-M   'P 1'
_cell_length_a   11.48580000
_cell_length_b   11.48580000
_cell_length_c   14.75600000
_cell_angle_alpha   90.00000000
_cell_angle_beta   90.00000000
_cell_angle_gamma   120.00000000
_symmetry_Int_Tables_number   1
_chemical_formula_structural   MgH3C7NO4
_chemical_formula_sum   'Mg6 H18 C42 N6 O24'
_cell_volume   1685.86105323
_cell_formula_units_Z   6
loop_
 _symmetry_equiv_pos_site_id
 _symmetry_equiv_pos_as_xyz
  1  'x, y, z'
loop_
 _atom_site_type_symbol
 _atom_site_label
 _atom_site_symmetry_multiplicity
 _atom_site_fract_x
 _atom_site_fract_y
 _atom_site_fract_z
 _atom_site_occupancy
 _atom_site_charge
  Mg  Mg1  1  0.806530  0.613060  0.583330  1.0  1.5177
  Mg  Mg2  1  0.806530  0.193470  0.250000  1.0  1.518
  Mg  Mg3  1  0.386940  0.193470  0.916670  1.0  1.5183
  Mg  Mg4  1  0.193470  0.386940  0.083330  1.0  1.5165
  Mg  Mg5  1  0.193470  0.806530  0.750000  1.0  1.5182
  Mg  Mg6  1  0.613060  0.806530  0.416670  1.0  1.5184
  H  H7  1  0.432500  0.795500  0.652000  1.0  0.0637
  H  H8  1  0.363000  0.567500  0.318670  1.0  0.0637
  H  H9  1  0.204500  0.637000  0.985330  1.0  0.0639
  H  H10  1  0.567500  0.204500  0.152000  1.0  0.0637
  H  H11  1  0.637000  0.432500  0.818670  1.0  0.0642
  H  H12  1  0.795500  0.363000  0.485330  1.0  0.064
  H  H13  1  0.637000  0.204500  0.014670  1.0  0.0634
  H  H14  1  0.795500  0.432500  0.348000  1.0  0.064
  H  H15  1  0.567500  0.363000  0.681330  1.0  0.0642
  H  H16  1  0.363000  0.795500  0.514670  1.0  0.0638
  H  H17  1  0.204500  0.567500  0.848000  1.0  0.0639
  H  H18  1  0.432500  0.637000  0.181330  1.0  0.0643
  H  H19  1  0.493150  0.506850  0.750000  1.0  0.1005
  H  H20  1  0.013700  0.506850  0.416670  1.0  0.1003
  H  H21  1  0.493150  0.986300  0.083330  1.0  0.0995
  H  H22  1  0.506850  0.493150  0.250000  1.0  0.1004
  H  H23  1  0.986300  0.493150  0.916670  1.0  0.1005
  H  H24  1  0.506850  0.013700  0.583330  1.0  0.0987
  C  C25  1  0.579200  0.682000  0.612400  1.0  0.8003
  C  C26  1  0.476600  0.654100  0.686000  1.0  -0.2566
  C  C27  1  0.407800  0.723600  0.691300  1.0  0.2542
  C  C28  1  0.102800  0.420800  0.279070  1.0  0.8006
  C  C29  1  0.177500  0.523400  0.352670  1.0  -0.2559
  C  C30  1  0.315800  0.592200  0.357970  1.0  0.2527
  C  C31  1  0.318000  0.897200  0.945730  1.0  0.8008
  C  C32  1  0.345900  0.822500  0.019330  1.0  -0.2572
  C  C33  1  0.276400  0.684200  0.024630  1.0  0.2547
  C  C34  1  0.420800  0.318000  0.112400  1.0  0.7991
  C  C35  1  0.523400  0.345900  0.186000  1.0  -0.2571
  C  C36  1  0.592200  0.276400  0.191300  1.0  0.2543
  C  C37  1  0.897200  0.579200  0.779070  1.0  0.8001
  C  C38  1  0.822500  0.476600  0.852670  1.0  -0.2537
  C  C39  1  0.684200  0.407800  0.857970  1.0  0.2541
  C  C40  1  0.682000  0.102800  0.445730  1.0  0.8016
  C  C41  1  0.654100  0.177500  0.519330  1.0  -0.2581
  C  C42  1  0.723600  0.315800  0.524630  1.0  0.254
  C  C43  1  0.897200  0.318000  0.054270  1.0  0.8002
  C  C44  1  0.822500  0.345900  0.980670  1.0  -0.2572
  C  C45  1  0.684200  0.276400  0.975370  1.0  0.2549
  C  C46  1  0.682000  0.579200  0.387600  1.0  0.8008
  C  C47  1  0.654100  0.476600  0.314000  1.0  -0.2545
  C  C48  1  0.723600  0.407800  0.308700  1.0  0.2531
  C  C49  1  0.420800  0.102800  0.720930  1.0  0.8003
  C  C50  1  0.523400  0.177500  0.647330  1.0  -0.2584
  C  C51  1  0.592200  0.315800  0.642030  1.0  0.2552
  C  C52  1  0.102800  0.682000  0.554270  1.0  0.7994
  C  C53  1  0.177500  0.654100  0.480670  1.0  -0.2573
  C  C54  1  0.315800  0.723600  0.475370  1.0  0.2544
  C  C55  1  0.318000  0.420800  0.887600  1.0  0.799
  C  C56  1  0.345900  0.523400  0.814000  1.0  -0.2555
  C  C57  1  0.276400  0.592200  0.808700  1.0  0.255
  C  C58  1  0.579200  0.897200  0.220930  1.0  0.8016
  C  C59  1  0.476600  0.822500  0.147330  1.0  -0.2581
  C  C60  1  0.407800  0.684200  0.142030  1.0  0.2543
  C  C61  1  0.446800  0.553200  0.750000  1.0  0.1048
  C  C62  1  0.106400  0.553200  0.416670  1.0  0.1033
  C  C63  1  0.446800  0.893600  0.083330  1.0  0.105
  C  C64  1  0.553200  0.446800  0.250000  1.0  0.1034
  C  C65  1  0.893600  0.446800  0.916670  1.0  0.1047
  C  C66  1  0.553200  0.106400  0.583330  1.0  0.1056
  N  N67  1  0.306750  0.693250  0.750000  1.0  -0.4875
  N  N68  1  0.386500  0.693250  0.416670  1.0  -0.4865
  N  N69  1  0.306750  0.613500  0.083330  1.0  -0.4899
  N  N70  1  0.693250  0.306750  0.250000  1.0  -0.4875
  N  N71  1  0.613500  0.306750  0.916670  1.0  -0.4888
  N  N72  1  0.693250  0.386500  0.583330  1.0  -0.49
  O  O73  1  0.633600  0.611300  0.612900  1.0  -0.7305
  O  O74  1  0.601400  0.773600  0.556700  1.0  -0.7489
  O  O75  1  0.977700  0.366400  0.279570  1.0  -0.7323
  O  O76  1  0.172200  0.398600  0.223370  1.0  -0.7466
  O  O77  1  0.388700  0.022300  0.946230  1.0  -0.7325
  O  O78  1  0.226400  0.827800  0.890030  1.0  -0.7452
  O  O79  1  0.366400  0.388700  0.112900  1.0  -0.7301
  O  O80  1  0.398600  0.226400  0.056700  1.0  -0.7508
  O  O81  1  0.022300  0.633600  0.779570  1.0  -0.7326
  O  O82  1  0.827800  0.601400  0.723370  1.0  -0.747
  O  O83  1  0.611300  0.977700  0.446230  1.0  -0.7316
  O  O84  1  0.773600  0.172200  0.390030  1.0  -0.7432
  O  O85  1  0.022300  0.388700  0.053770  1.0  -0.7302
  O  O86  1  0.827800  0.226400  0.109970  1.0  -0.7495
  O  O87  1  0.611300  0.633600  0.387100  1.0  -0.7327
  O  O88  1  0.773600  0.601400  0.443300  1.0  -0.7464
  O  O89  1  0.366400  0.977700  0.720430  1.0  -0.7314
  O  O90  1  0.398600  0.172200  0.776630  1.0  -0.7451
  O  O91  1  0.977700  0.611300  0.553770  1.0  -0.7306
  O  O92  1  0.172200  0.773600  0.609970  1.0  -0.751
  O  O93  1  0.388700  0.366400  0.887100  1.0  -0.7326
  O  O94  1  0.226400  0.398600  0.943300  1.0  -0.7479
  O  O95  1  0.633600  0.022300  0.220430  1.0  -0.7326
  O  O96  1  0.601400  0.827800  0.276630  1.0  -0.744
