# generated using pymatgen
data_MgH3C7NO4
_symmetry_space_group_name_H-M   'P 1'
_cell_length_a   11.47990000
_cell_length_b   11.47990000
_cell_length_c   14.73500000
_cell_angle_alpha   90.00000000
_cell_angle_beta   90.00000000
_cell_angle_gamma   120.00000000
_symmetry_Int_Tables_number   1
_chemical_formula_structural   MgH3C7NO4
_chemical_formula_sum   'Mg6 H18 C42 N6 O24'
_cell_volume   1681.73275065
_cell_formula_units_Z   6
loop_
 _symmetry_equiv_pos_site_id
 _symmetry_equiv_pos_as_xyz
  1  'x, y, z'
loop_
 _atom_site_type_symbol
 _atom_site_label
 _atom_site_symmetry_multiplicity
 _atom_site_fract_x
 _atom_site_fract_y
 _atom_site_fract_z
 _atom_site_occupancy
 _atom_site_charge
  Mg  Mg1  1  0.806200  0.193810  0.750000  1.0  1.5194
  Mg  Mg2  1  0.387610  0.193810  0.416670  1.0  1.5197
  Mg  Mg3  1  0.806200  0.612400  0.083330  1.0  1.5194
  Mg  Mg4  1  0.193810  0.806200  0.250000  1.0  1.52
  Mg  Mg5  1  0.612390  0.806190  0.916670  1.0  1.5202
  Mg  Mg6  1  0.193810  0.387610  0.583330  1.0  1.5178
  H  H7  1  0.795000  0.362500  0.985500  1.0  0.0649
  H  H8  1  0.567500  0.205000  0.652170  1.0  0.0645
  H  H9  1  0.637500  0.432500  0.318830  1.0  0.0651
  H  H10  1  0.205000  0.637500  0.485500  1.0  0.065
  H  H11  1  0.432500  0.795000  0.152170  1.0  0.0647
  H  H12  1  0.362500  0.567500  0.818830  1.0  0.0647
  H  H13  1  0.432500  0.637500  0.681170  1.0  0.0652
  H  H14  1  0.362500  0.795000  0.014500  1.0  0.0648
  H  H15  1  0.205000  0.567500  0.347830  1.0  0.065
  H  H16  1  0.567500  0.362500  0.181170  1.0  0.0652
  H  H17  1  0.637500  0.205000  0.514500  1.0  0.0645
  H  H18  1  0.795000  0.432500  0.847830  1.0  0.065
  H  H19  1  0.506500  0.013000  0.083330  1.0  0.0955
  H  H20  1  0.506500  0.493500  0.750000  1.0  0.0972
  H  H21  1  0.987000  0.493500  0.416670  1.0  0.0976
  H  H22  1  0.493500  0.987000  0.583330  1.0  0.0965
  H  H23  1  0.493500  0.506500  0.250000  1.0  0.0977
  H  H24  1  0.013000  0.506500  0.916670  1.0  0.0971
  C  C25  1  0.681890  0.102400  0.945840  1.0  0.8058
  C  C26  1  0.652810  0.176320  0.019200  1.0  -0.2692
  C  C27  1  0.722830  0.315190  0.024740  1.0  0.2599
  C  C28  1  0.420510  0.318110  0.612510  1.0  0.8032
  C  C29  1  0.523510  0.347190  0.685870  1.0  -0.2695
  C  C30  1  0.592360  0.277170  0.691410  1.0  0.2594
  C  C31  1  0.897600  0.579490  0.279170  1.0  0.8042
  C  C32  1  0.823680  0.476490  0.352530  1.0  -0.2545
  C  C33  1  0.684810  0.407640  0.358070  1.0  0.2587
  C  C34  1  0.318110  0.897600  0.445840  1.0  0.8048
  C  C35  1  0.347190  0.823680  0.519200  1.0  -0.27
  C  C36  1  0.277170  0.684810  0.524740  1.0  0.2592
  C  C37  1  0.579490  0.681890  0.112510  1.0  0.804
  C  C38  1  0.476490  0.652810  0.185870  1.0  -0.2684
  C  C39  1  0.407640  0.722830  0.191410  1.0  0.2581
  C  C40  1  0.102400  0.420510  0.779170  1.0  0.8041
  C  C41  1  0.176320  0.523510  0.852530  1.0  -0.2561
  C  C42  1  0.315190  0.592360  0.858070  1.0  0.258
  C  C43  1  0.579490  0.897600  0.720830  1.0  0.8061
  C  C44  1  0.476490  0.823680  0.647470  1.0  -0.2593
  C  C45  1  0.407640  0.684810  0.641930  1.0  0.2521
  C  C46  1  0.102400  0.681890  0.054160  1.0  0.8035
  C  C47  1  0.176320  0.652810  0.980800  1.0  -0.2699
  C  C48  1  0.315190  0.722830  0.975260  1.0  0.2509
  C  C49  1  0.318110  0.420510  0.387490  1.0  0.8028
  C  C50  1  0.347190  0.523510  0.314130  1.0  -0.2663
  C  C51  1  0.277170  0.592360  0.308590  1.0  0.2511
  C  C52  1  0.420510  0.102400  0.220830  1.0  0.8045
  C  C53  1  0.523510  0.176320  0.147470  1.0  -0.2595
  C  C54  1  0.592360  0.315190  0.141930  1.0  0.2517
  C  C55  1  0.897600  0.318110  0.554160  1.0  0.8046
  C  C56  1  0.823680  0.347190  0.480800  1.0  -0.269
  C  C57  1  0.684810  0.277170  0.475260  1.0  0.2503
  C  C58  1  0.681890  0.579490  0.887490  1.0  0.8052
  C  C59  1  0.652810  0.476490  0.814130  1.0  -0.2664
  C  C60  1  0.722830  0.407640  0.808590  1.0  0.25
  C  C61  1  0.553320  0.106640  0.083330  1.0  0.0996
  C  C62  1  0.553320  0.446680  0.750000  1.0  0.0987
  C  C63  1  0.893360  0.446680  0.416670  1.0  0.0997
  C  C64  1  0.446680  0.893360  0.583330  1.0  0.0988
  C  C65  1  0.446680  0.553320  0.250000  1.0  0.0994
  C  C66  1  0.106640  0.553320  0.916670  1.0  0.0988
  N  N67  1  0.692870  0.385740  0.083330  1.0  -0.4876
  N  N68  1  0.692870  0.307130  0.750000  1.0  -0.4838
  N  N69  1  0.614260  0.307130  0.416670  1.0  -0.4859
  N  N70  1  0.307130  0.614260  0.583330  1.0  -0.4878
  N  N71  1  0.307130  0.692870  0.250000  1.0  -0.484
  N  N72  1  0.385740  0.692870  0.916670  1.0  -0.4836
  O  O73  1  0.772690  0.172050  0.890060  1.0  -0.7395
  O  O74  1  0.611100  0.977600  0.946880  1.0  -0.7307
  O  O75  1  0.399360  0.227310  0.556730  1.0  -0.7477
  O  O76  1  0.366500  0.388900  0.613550  1.0  -0.7288
  O  O77  1  0.827950  0.600640  0.223390  1.0  -0.7438
  O  O78  1  0.022400  0.633500  0.280210  1.0  -0.7315
  O  O79  1  0.227310  0.827950  0.390060  1.0  -0.743
  O  O80  1  0.388900  0.022400  0.446880  1.0  -0.7318
  O  O81  1  0.600640  0.772690  0.056730  1.0  -0.7459
  O  O82  1  0.633500  0.611100  0.113550  1.0  -0.7294
  O  O83  1  0.172050  0.399360  0.723390  1.0  -0.743
  O  O84  1  0.977600  0.366500  0.780210  1.0  -0.7312
  O  O85  1  0.600640  0.827950  0.776610  1.0  -0.7405
  O  O86  1  0.633500  0.022400  0.719790  1.0  -0.7312
  O  O87  1  0.172050  0.772690  0.109940  1.0  -0.7483
  O  O88  1  0.977600  0.611100  0.053120  1.0  -0.7292
  O  O89  1  0.227310  0.399360  0.443270  1.0  -0.7442
  O  O90  1  0.388900  0.366500  0.386450  1.0  -0.7311
  O  O91  1  0.399360  0.172050  0.276610  1.0  -0.7427
  O  O92  1  0.366500  0.977600  0.219790  1.0  -0.7307
  O  O93  1  0.827950  0.227310  0.609940  1.0  -0.746
  O  O94  1  0.022400  0.388900  0.553120  1.0  -0.7286
  O  O95  1  0.772690  0.600640  0.943270  1.0  -0.7433
  O  O96  1  0.611100  0.633500  0.886450  1.0  -0.7311
