# generated using pymatgen
data_Cd2H31C35(N2O3)2
_symmetry_space_group_name_H-M   'P 1'
_cell_length_a   9.89760000
_cell_length_b   14.58220000
_cell_length_c   26.57320000
_cell_angle_alpha   90.00000000
_cell_angle_beta   91.93000000
_cell_angle_gamma   90.00000000
_symmetry_Int_Tables_number   1
_chemical_formula_structural   Cd2H31C35(N2O3)2
_chemical_formula_sum   'Cd8 H124 C140 N16 O24'
_cell_volume   3833.10192859
_cell_formula_units_Z   4
loop_
 _symmetry_equiv_pos_site_id
 _symmetry_equiv_pos_as_xyz
  1  'x, y, z'
loop_
 _atom_site_type_symbol
 _atom_site_label
 _atom_site_symmetry_multiplicity
 _atom_site_fract_x
 _atom_site_fract_y
 _atom_site_fract_z
 _atom_site_occupancy
 _atom_site_charge
  Cd  Cd1  1  0.778010  0.874670  0.554390  1.0  0.879
  Cd  Cd2  1  0.794840  0.631060  0.584440  1.0  0.8522
  Cd  Cd3  1  0.721990  0.374670  0.945610  1.0  0.8789
  Cd  Cd4  1  0.705160  0.131060  0.915560  1.0  0.8509
  Cd  Cd5  1  0.221990  0.125330  0.445610  1.0  0.8786
  Cd  Cd6  1  0.205160  0.368940  0.415560  1.0  0.8519
  Cd  Cd7  1  0.278010  0.625330  0.054390  1.0  0.8789
  Cd  Cd8  1  0.294840  0.868940  0.084440  1.0  0.8528
  H  H9  1  0.068600  0.617200  0.514000  1.0  0.1058
  H  H10  1  0.475900  0.620500  0.505700  1.0  0.1081
  H  H11  1  0.281900  0.837900  0.564100  1.0  0.0931
  H  H12  1  0.780900  0.742100  0.459300  1.0  0.0932
  H  H13  1  0.732300  0.736400  0.373400  1.0  0.1129
  H  H14  1  0.685000  0.009000  0.372200  1.0  0.133
  H  H15  1  0.728800  0.008900  0.458400  1.0  0.0741
  H  H16  1  0.631800  0.924100  0.296800  1.0  0.0917
  H  H17  1  0.593100  0.818800  0.303500  1.0  0.0952
  H  H18  1  0.741400  0.830300  0.240500  1.0  0.0658
  H  H19  1  0.813800  0.776800  0.286400  1.0  0.0637
  H  H20  1  0.854500  0.965800  0.271600  1.0  0.0935
  H  H21  1  0.941300  0.899900  0.308100  1.0  0.088
  H  H22  1  0.001400  0.884200  0.112000  1.0  0.0719
  H  H23  1  0.851000  0.901600  0.174400  1.0  0.1289
  H  H24  1  0.165700  0.872900  0.275800  1.0  0.1142
  H  H25  1  0.305900  0.851900  0.209100  1.0  0.056
  H  H26  1  0.576600  0.885600  0.647400  1.0  0.0698
  H  H27  1  0.569900  0.904400  0.733400  1.0  0.121
  H  H28  1  0.976300  0.876300  0.741300  1.0  0.1218
  H  H29  1  0.973400  0.863200  0.654500  1.0  0.0812
  H  H30  1  0.857800  0.927300  0.817200  1.0  0.0927
  H  H31  1  0.697200  0.942200  0.814100  1.0  0.089
  H  H32  1  0.665900  0.779000  0.813400  1.0  0.0762
  H  H33  1  0.826300  0.765300  0.817900  1.0  0.0738
  H  H34  1  0.664800  0.845300  0.894500  1.0  0.0981
  H  H35  1  0.826600  0.842200  0.898700  1.0  0.0968
  H  H36  1  0.922100  0.541500  0.943200  1.0  0.0687
  H  H37  1  0.941900  0.694000  0.916000  1.0  0.1264
  H  H38  1  0.533400  0.704300  0.906300  1.0  0.1281
  H  H39  1  0.528800  0.553700  0.931600  1.0  0.0621
  H  H40  1  0.431400  0.117200  0.986000  1.0  0.106
  H  H41  1  0.024100  0.120500  0.994300  1.0  0.1083
  H  H42  1  0.218100  0.337900  0.935900  1.0  0.0932
  H  H43  1  0.719100  0.242100  0.040700  1.0  0.0927
  H  H44  1  0.767700  0.236400  0.126600  1.0  0.1132
  H  H45  1  0.815000  0.509000  0.127800  1.0  0.1325
  H  H46  1  0.771200  0.508900  0.041600  1.0  0.0742
  H  H47  1  0.868200  0.424100  0.203200  1.0  0.0911
  H  H48  1  0.906900  0.318800  0.196500  1.0  0.0957
  H  H49  1  0.758600  0.330300  0.259500  1.0  0.0664
  H  H50  1  0.686200  0.276800  0.213600  1.0  0.0629
  H  H51  1  0.645500  0.465800  0.228400  1.0  0.0926
  H  H52  1  0.558700  0.399900  0.191900  1.0  0.0887
  H  H53  1  0.498600  0.384200  0.388000  1.0  0.0713
  H  H54  1  0.649000  0.401600  0.325600  1.0  0.1285
  H  H55  1  0.334300  0.372900  0.224200  1.0  0.1142
  H  H56  1  0.194100  0.351900  0.290900  1.0  0.0533
  H  H57  1  0.923400  0.385600  0.852600  1.0  0.0698
  H  H58  1  0.930100  0.404400  0.766600  1.0  0.1215
  H  H59  1  0.523700  0.376300  0.758700  1.0  0.1214
  H  H60  1  0.526600  0.363200  0.845500  1.0  0.08
  H  H61  1  0.642200  0.427300  0.682800  1.0  0.094
  H  H62  1  0.802800  0.442200  0.685900  1.0  0.0884
  H  H63  1  0.834100  0.279000  0.686600  1.0  0.0756
  H  H64  1  0.673700  0.265300  0.682100  1.0  0.0738
  H  H65  1  0.835200  0.345300  0.605500  1.0  0.098
  H  H66  1  0.673400  0.342200  0.601300  1.0  0.0971
  H  H67  1  0.577900  0.041500  0.556800  1.0  0.0686
  H  H68  1  0.558100  0.194000  0.584000  1.0  0.1263
  H  H69  1  0.966600  0.204300  0.593700  1.0  0.1277
  H  H70  1  0.971200  0.053700  0.568400  1.0  0.0621
  H  H71  1  0.931400  0.382800  0.486000  1.0  0.1062
  H  H72  1  0.524100  0.379500  0.494300  1.0  0.1082
  H  H73  1  0.718100  0.162100  0.435900  1.0  0.093
  H  H74  1  0.219100  0.257900  0.540700  1.0  0.0934
  H  H75  1  0.267700  0.263600  0.626600  1.0  0.1132
  H  H76  1  0.315000  0.991000  0.627800  1.0  0.1325
  H  H77  1  0.271200  0.991100  0.541600  1.0  0.0741
  H  H78  1  0.368200  0.075900  0.703200  1.0  0.094
  H  H79  1  0.406900  0.181200  0.696500  1.0  0.0961
  H  H80  1  0.258600  0.169700  0.759500  1.0  0.0667
  H  H81  1  0.186200  0.223200  0.713600  1.0  0.0662
  H  H82  1  0.145500  0.034200  0.728400  1.0  0.0913
  H  H83  1  0.058700  0.100100  0.691900  1.0  0.0885
  H  H84  1  0.998600  0.115800  0.888000  1.0  0.0714
  H  H85  1  0.149000  0.098400  0.825600  1.0  0.1286
  H  H86  1  0.834300  0.127100  0.724200  1.0  0.1143
  H  H87  1  0.694100  0.148100  0.790900  1.0  0.0534
  H  H88  1  0.423400  0.114400  0.352600  1.0  0.0702
  H  H89  1  0.430100  0.095600  0.266600  1.0  0.1215
  H  H90  1  0.023700  0.123700  0.258700  1.0  0.1215
  H  H91  1  0.026600  0.136800  0.345500  1.0  0.0799
  H  H92  1  0.142200  0.072700  0.182800  1.0  0.0939
  H  H93  1  0.302800  0.057800  0.185900  1.0  0.088
  H  H94  1  0.334100  0.221000  0.186600  1.0  0.0754
  H  H95  1  0.173700  0.234700  0.182100  1.0  0.0744
  H  H96  1  0.335200  0.154700  0.105500  1.0  0.0981
  H  H97  1  0.173400  0.157800  0.101300  1.0  0.0968
  H  H98  1  0.077900  0.458500  0.056800  1.0  0.0687
  H  H99  1  0.058100  0.306000  0.084000  1.0  0.1269
  H  H100  1  0.466600  0.295700  0.093700  1.0  0.1277
  H  H101  1  0.471200  0.446300  0.068400  1.0  0.0622
  H  H102  1  0.568600  0.882800  0.014000  1.0  0.1058
  H  H103  1  0.975900  0.879500  0.005700  1.0  0.1084
  H  H104  1  0.781900  0.662100  0.064100  1.0  0.093
  H  H105  1  0.280900  0.757900  0.959300  1.0  0.0933
  H  H106  1  0.232300  0.763600  0.873400  1.0  0.1135
  H  H107  1  0.185000  0.491000  0.872200  1.0  0.1326
  H  H108  1  0.228800  0.491100  0.958400  1.0  0.0743
  H  H109  1  0.131800  0.575900  0.796800  1.0  0.0914
  H  H110  1  0.093100  0.681200  0.803500  1.0  0.0948
  H  H111  1  0.241400  0.669700  0.740500  1.0  0.0667
  H  H112  1  0.313800  0.723200  0.786400  1.0  0.0657
  H  H113  1  0.354500  0.534200  0.771600  1.0  0.0918
  H  H114  1  0.441300  0.600100  0.808100  1.0  0.0882
  H  H115  1  0.501400  0.615800  0.612000  1.0  0.0715
  H  H116  1  0.351000  0.598400  0.674400  1.0  0.129
  H  H117  1  0.665700  0.627100  0.775800  1.0  0.1145
  H  H118  1  0.805900  0.648100  0.709100  1.0  0.0559
  H  H119  1  0.076600  0.614400  0.147400  1.0  0.0692
  H  H120  1  0.069900  0.595600  0.233400  1.0  0.1211
  H  H121  1  0.476300  0.623700  0.241300  1.0  0.1215
  H  H122  1  0.473400  0.636800  0.154500  1.0  0.0812
  H  H123  1  0.357800  0.572700  0.317200  1.0  0.0933
  H  H124  1  0.197200  0.557800  0.314100  1.0  0.0892
  H  H125  1  0.165900  0.721000  0.313400  1.0  0.0758
  H  H126  1  0.326300  0.734700  0.317900  1.0  0.0743
  H  H127  1  0.164800  0.654700  0.394500  1.0  0.0988
  H  H128  1  0.326600  0.657800  0.398700  1.0  0.0974
  H  H129  1  0.422100  0.958500  0.443200  1.0  0.0686
  H  H130  1  0.441900  0.806000  0.416000  1.0  0.1272
  H  H131  1  0.033400  0.795700  0.406300  1.0  0.1281
  H  H132  1  0.028800  0.946300  0.431600  1.0  0.0622
  C  C133  1  0.155100  0.735700  0.541200  1.0  -0.1809
  C  C134  1  0.152200  0.648200  0.519200  1.0  -0.0216
  C  C135  1  0.272500  0.606600  0.505000  1.0  -0.1248
  C  C136  1  0.394000  0.649300  0.514700  1.0  -0.0225
  C  C137  1  0.396700  0.735500  0.537800  1.0  -0.1717
  C  C138  1  0.278800  0.778300  0.549700  1.0  -0.0201
  C  C139  1  0.027900  0.785400  0.551100  1.0  0.6589
  C  C140  1  0.265500  0.517900  0.475100  1.0  0.6503
  C  C141  1  0.530600  0.781500  0.547200  1.0  0.6444
  C  C142  1  0.760400  0.797300  0.441600  1.0  0.1427
  C  C143  1  0.731300  0.793900  0.390200  1.0  -0.2288
  C  C144  1  0.701500  0.870600  0.363700  1.0  0.1403
  C  C145  1  0.702900  0.953000  0.389400  1.0  -0.2403
  C  C146  1  0.730900  0.952100  0.440900  1.0  0.1927
  C  C147  1  0.667100  0.863900  0.308300  1.0  -0.1892
  C  C148  1  0.778500  0.837300  0.275400  1.0  -0.0823
  C  C149  1  0.892400  0.903200  0.275000  1.0  -0.1945
  C  C150  1  0.034100  0.881000  0.145900  1.0  0.1717
  C  C151  1  0.944300  0.892200  0.182300  1.0  -0.2531
  C  C152  1  0.994600  0.889600  0.234000  1.0  0.1192
  C  C153  1  0.129000  0.874900  0.242300  1.0  -0.2377
  C  C154  1  0.212400  0.862600  0.202200  1.0  0.1518
  C  C155  1  0.659100  0.884700  0.666667  1.0  0.1754
  C  C156  1  0.654500  0.895500  0.718200  1.0  -0.2349
  C  C157  1  0.772700  0.893600  0.748300  1.0  0.1473
  C  C158  1  0.892600  0.879700  0.722800  1.0  -0.236
  C  C159  1  0.890400  0.870900  0.670900  1.0  0.1611
  C  C160  1  0.771300  0.900900  0.804300  1.0  -0.198
  C  C161  1  0.751100  0.805900  0.827300  1.0  -0.0815
  C  C162  1  0.745500  0.810100  0.884800  1.0  -0.2127
  C  C163  1  0.842000  0.574900  0.935000  1.0  0.1705
  C  C164  1  0.855500  0.666500  0.918700  1.0  -0.2358
  C  C165  1  0.739300  0.714400  0.906700  1.0  0.161
  C  C166  1  0.615500  0.672000  0.912800  1.0  -0.2411
  C  C167  1  0.614300  0.582400  0.928500  1.0  0.1739
  C  C168  1  0.344900  0.235700  0.958800  1.0  -0.1773
  C  C169  1  0.347800  0.148200  0.980800  1.0  -0.0213
  C  C170  1  0.227500  0.106600  0.995000  1.0  -0.1259
  C  C171  1  0.106000  0.149300  0.985300  1.0  -0.0235
  C  C172  1  0.103300  0.235500  0.962200  1.0  -0.1718
  C  C173  1  0.221200  0.278300  0.950300  1.0  -0.0222
  C  C174  1  0.472100  0.285400  0.948900  1.0  0.6619
  C  C175  1  0.234500  0.017900  0.024900  1.0  0.6532
  C  C176  1  0.969400  0.281500  0.952800  1.0  0.6424
  C  C177  1  0.739600  0.297300  0.058400  1.0  0.1404
  C  C178  1  0.768700  0.293900  0.109800  1.0  -0.2285
  C  C179  1  0.798500  0.370600  0.136300  1.0  0.1393
  C  C180  1  0.797100  0.453000  0.110600  1.0  -0.24
  C  C181  1  0.769100  0.452100  0.059100  1.0  0.1922
  C  C182  1  0.832900  0.363900  0.191700  1.0  -0.1881
  C  C183  1  0.721500  0.337300  0.224600  1.0  -0.0821
  C  C184  1  0.607600  0.403200  0.225000  1.0  -0.1932
  C  C185  1  0.465900  0.381000  0.354100  1.0  0.1715
  C  C186  1  0.555700  0.392200  0.317700  1.0  -0.255
  C  C187  1  0.505400  0.389600  0.266000  1.0  0.1192
  C  C188  1  0.371000  0.374900  0.257700  1.0  -0.2364
  C  C189  1  0.287600  0.362600  0.297800  1.0  0.1527
  C  C190  1  0.840900  0.384700  0.833300  1.0  0.1749
  C  C191  1  0.845500  0.395500  0.781800  1.0  -0.2365
  C  C192  1  0.727300  0.393600  0.751700  1.0  0.1477
  C  C193  1  0.607400  0.379700  0.777200  1.0  -0.2364
  C  C194  1  0.609600  0.370900  0.829100  1.0  0.1618
  C  C195  1  0.728700  0.400900  0.695700  1.0  -0.1979
  C  C196  1  0.748900  0.305900  0.672700  1.0  -0.0818
  C  C197  1  0.754500  0.310100  0.615200  1.0  -0.2113
  C  C198  1  0.658000  0.074900  0.565000  1.0  0.1703
  C  C199  1  0.644500  0.166500  0.581300  1.0  -0.237
  C  C200  1  0.760700  0.214400  0.593300  1.0  0.1615
  C  C201  1  0.884500  0.172000  0.587200  1.0  -0.242
  C  C202  1  0.885700  0.082400  0.571500  1.0  0.1736
  C  C203  1  0.844900  0.264300  0.458800  1.0  -0.1775
  C  C204  1  0.847800  0.351800  0.480800  1.0  -0.0206
  C  C205  1  0.727500  0.393400  0.495000  1.0  -0.124
  C  C206  1  0.606000  0.350700  0.485300  1.0  -0.0237
  C  C207  1  0.603300  0.264500  0.462200  1.0  -0.1716
  C  C208  1  0.721200  0.221700  0.450300  1.0  -0.0241
  C  C209  1  0.972100  0.214600  0.448900  1.0  0.6628
  C  C210  1  0.734500  0.482100  0.524900  1.0  0.6511
  C  C211  1  0.469400  0.218500  0.452800  1.0  0.6427
  C  C212  1  0.239600  0.202700  0.558400  1.0  0.1424
  C  C213  1  0.268700  0.206100  0.609800  1.0  -0.228
  C  C214  1  0.298500  0.129400  0.636300  1.0  0.139
  C  C215  1  0.297100  0.047000  0.610600  1.0  -0.2406
  C  C216  1  0.269100  0.047900  0.559100  1.0  0.1921
  C  C217  1  0.332900  0.136100  0.691700  1.0  -0.1887
  C  C218  1  0.221500  0.162700  0.724600  1.0  -0.0818
  C  C219  1  0.107600  0.096800  0.725000  1.0  -0.1939
  C  C220  1  0.965900  0.119000  0.854100  1.0  0.1716
  C  C221  1  0.055700  0.107800  0.817700  1.0  -0.2547
  C  C222  1  0.005400  0.110400  0.766000  1.0  0.1191
  C  C223  1  0.871000  0.125100  0.757700  1.0  -0.2366
  C  C224  1  0.787600  0.137400  0.797800  1.0  0.1523
  C  C225  1  0.340900  0.115300  0.333333  1.0  0.1756
  C  C226  1  0.345500  0.104500  0.281800  1.0  -0.2374
  C  C227  1  0.227300  0.106400  0.251700  1.0  0.1473
  C  C228  1  0.107400  0.120300  0.277200  1.0  -0.2357
  C  C229  1  0.109600  0.129100  0.329100  1.0  0.1619
  C  C230  1  0.228700  0.099100  0.195700  1.0  -0.1978
  C  C231  1  0.248900  0.194100  0.172700  1.0  -0.0811
  C  C232  1  0.254500  0.189900  0.115200  1.0  -0.2121
  C  C233  1  0.158000  0.425100  0.065000  1.0  0.1704
  C  C234  1  0.144500  0.333500  0.081300  1.0  -0.2374
  C  C235  1  0.260700  0.285600  0.093300  1.0  0.1617
  C  C236  1  0.384500  0.328000  0.087200  1.0  -0.2421
  C  C237  1  0.385700  0.417600  0.071500  1.0  0.1731
  C  C238  1  0.655100  0.764300  0.041200  1.0  -0.1806
  C  C239  1  0.652200  0.851800  0.019200  1.0  -0.0218
  C  C240  1  0.772500  0.893400  0.005000  1.0  -0.123
  C  C241  1  0.894000  0.850700  0.014700  1.0  -0.0225
  C  C242  1  0.896700  0.764500  0.037800  1.0  -0.1721
  C  C243  1  0.778800  0.721700  0.049700  1.0  -0.021
  C  C244  1  0.527900  0.714600  0.051100  1.0  0.6598
  C  C245  1  0.765500  0.982100  0.975100  1.0  0.6496
  C  C246  1  0.030600  0.718500  0.047200  1.0  0.6441
  C  C247  1  0.260400  0.702700  0.941600  1.0  0.1437
  C  C248  1  0.231300  0.706100  0.890200  1.0  -0.2279
  C  C249  1  0.201500  0.629400  0.863700  1.0  0.14
  C  C250  1  0.202900  0.547000  0.889400  1.0  -0.2407
  C  C251  1  0.230900  0.547900  0.940900  1.0  0.1925
  C  C252  1  0.167100  0.636100  0.808300  1.0  -0.1895
  C  C253  1  0.278500  0.662700  0.775400  1.0  -0.0817
  C  C254  1  0.392400  0.596800  0.775000  1.0  -0.1955
  C  C255  1  0.534100  0.619000  0.645900  1.0  0.1715
  C  C256  1  0.444300  0.607800  0.682300  1.0  -0.2531
  C  C257  1  0.494600  0.610400  0.734000  1.0  0.1192
  C  C258  1  0.629000  0.625100  0.742300  1.0  -0.2374
  C  C259  1  0.712400  0.637400  0.702200  1.0  0.1519
  C  C260  1  0.159100  0.615300  0.166700  1.0  0.1743
  C  C261  1  0.154500  0.604500  0.218200  1.0  -0.2353
  C  C262  1  0.272700  0.606400  0.248300  1.0  0.1469
  C  C263  1  0.392600  0.620300  0.222800  1.0  -0.2367
  C  C264  1  0.390400  0.629100  0.170900  1.0  0.1618
  C  C265  1  0.271300  0.599100  0.304300  1.0  -0.1977
  C  C266  1  0.251100  0.694100  0.327300  1.0  -0.0807
  C  C267  1  0.245500  0.689900  0.384800  1.0  -0.2124
  C  C268  1  0.342000  0.925100  0.435000  1.0  0.1695
  C  C269  1  0.355500  0.833500  0.418700  1.0  -0.2357
  C  C270  1  0.239300  0.785600  0.406700  1.0  0.1613
  C  C271  1  0.115500  0.828000  0.412800  1.0  -0.2416
  C  C272  1  0.114300  0.917600  0.428500  1.0  0.173
  N  N273  1  0.760100  0.877600  0.467000  1.0  -0.3562
  N  N274  1  0.168700  0.865100  0.154300  1.0  -0.3834
  N  N275  1  0.774300  0.873000  0.642900  1.0  -0.3689
  N  N276  1  0.724200  0.532700  0.939600  1.0  -0.3496
  N  N277  1  0.739900  0.377600  0.033000  1.0  -0.3569
  N  N278  1  0.331300  0.365100  0.345700  1.0  -0.3826
  N  N279  1  0.725700  0.373000  0.857100  1.0  -0.368
  N  N280  1  0.775800  0.032700  0.560400  1.0  -0.3494
  N  N281  1  0.239900  0.122400  0.533000  1.0  -0.3569
  N  N282  1  0.831300  0.134900  0.845700  1.0  -0.3836
  N  N283  1  0.225700  0.127000  0.357100  1.0  -0.3667
  N  N284  1  0.275800  0.467300  0.060400  1.0  -0.3496
  N  N285  1  0.260100  0.622400  0.967000  1.0  -0.357
  N  N286  1  0.668700  0.634900  0.654300  1.0  -0.3823
  N  N287  1  0.274300  0.627000  0.142900  1.0  -0.3702
  N  N288  1  0.224200  0.967300  0.439600  1.0  -0.3501
  O  O289  1  0.030500  0.869700  0.559200  1.0  -0.5809
  O  O290  1  0.915500  0.741700  0.549100  1.0  -0.625
  O  O291  1  0.161000  0.468400  0.478700  1.0  -0.5855
  O  O292  1  0.359400  0.498000  0.446400  1.0  -0.6001
  O  O293  1  0.533400  0.868100  0.553800  1.0  -0.6121
  O  O294  1  0.639100  0.735500  0.547900  1.0  -0.6165
  O  O295  1  0.469500  0.369700  0.940800  1.0  -0.5811
  O  O296  1  0.584500  0.241700  0.950900  1.0  -0.6259
  O  O297  1  0.339000  0.968400  0.021300  1.0  -0.5854
  O  O298  1  0.140600  0.998000  0.053600  1.0  -0.5984
  O  O299  1  0.966600  0.368100  0.946200  1.0  -0.6122
  O  O300  1  0.860900  0.235500  0.952100  1.0  -0.6165
  O  O301  1  0.969500  0.130300  0.440800  1.0  -0.583
  O  O302  1  0.084500  0.258300  0.450900  1.0  -0.6243
  O  O303  1  0.839000  0.531600  0.521300  1.0  -0.586
  O  O304  1  0.640600  0.502000  0.553600  1.0  -0.5983
  O  O305  1  0.466600  0.131900  0.446200  1.0  -0.6137
  O  O306  1  0.360900  0.264500  0.452100  1.0  -0.6156
  O  O307  1  0.530500  0.630300  0.059200  1.0  -0.5835
  O  O308  1  0.415500  0.758300  0.049100  1.0  -0.6237
  O  O309  1  0.661000  0.031600  0.978700  1.0  -0.585
  O  O310  1  0.859400  0.002000  0.946400  1.0  -0.6
  O  O311  1  0.033400  0.631900  0.053800  1.0  -0.615
  O  O312  1  0.139100  0.764500  0.047900  1.0  -0.6159
