# generated using pymatgen
data_Fe2P2O8F
_symmetry_space_group_name_H-M   'P 1'
_cell_length_a   9.96910000
_cell_length_b   12.40130000
_cell_length_c   17.34100000
_cell_angle_alpha   90.00000000
_cell_angle_beta   103.76200000
_cell_angle_gamma   90.00000000
_symmetry_Int_Tables_number   1
_chemical_formula_structural   Fe2P2O8F
_chemical_formula_sum   'Fe16 P16 O64 F8'
_cell_volume   2082.31887474
_cell_formula_units_Z   8
loop_
 _symmetry_equiv_pos_site_id
 _symmetry_equiv_pos_as_xyz
  1  'x, y, z'
loop_
 _atom_site_type_symbol
 _atom_site_label
 _atom_site_symmetry_multiplicity
 _atom_site_fract_x
 _atom_site_fract_y
 _atom_site_fract_z
 _atom_site_occupancy
 _atom_site_charge
  Fe  Fe1  1  0.866400  0.353400  0.923900  1.0  1.3389
  Fe  Fe2  1  0.245300  0.422100  0.779700  1.0  1.4948
  Fe  Fe3  1  0.059700  0.973900  0.869200  1.0  1.4408
  Fe  Fe4  1  0.529300  0.109800  0.792000  1.0  1.4811
  Fe  Fe5  1  0.633600  0.853400  0.576100  1.0  1.3362
  Fe  Fe6  1  0.254700  0.922100  0.720300  1.0  1.4933
  Fe  Fe7  1  0.440300  0.473900  0.630800  1.0  1.4358
  Fe  Fe8  1  0.970700  0.609800  0.708000  1.0  1.4886
  Fe  Fe9  1  0.133600  0.646600  0.076100  1.0  1.3387
  Fe  Fe10  1  0.754700  0.577900  0.220300  1.0  1.4931
  Fe  Fe11  1  0.940300  0.026100  0.130800  1.0  1.4373
  Fe  Fe12  1  0.470700  0.890200  0.208000  1.0  1.4873
  Fe  Fe13  1  0.366400  0.146600  0.423900  1.0  1.3414
  Fe  Fe14  1  0.745300  0.077900  0.279700  1.0  1.4949
  Fe  Fe15  1  0.559700  0.526100  0.369200  1.0  1.4418
  Fe  Fe16  1  0.029300  0.390200  0.292000  1.0  1.48
  P  P17  1  0.915700  0.459300  0.106700  1.0  1.8214
  P  P18  1  0.561900  0.372600  0.808000  1.0  1.8403
  P  P19  1  0.219700  0.154500  0.795700  1.0  1.8106
  P  P20  1  0.803600  0.087900  0.941800  1.0  1.8654
  P  P21  1  0.584300  0.959300  0.393300  1.0  1.8209
  P  P22  1  0.938100  0.872600  0.692000  1.0  1.837
  P  P23  1  0.280300  0.654500  0.704300  1.0  1.8084
  P  P24  1  0.696400  0.587900  0.558200  1.0  1.8659
  P  P25  1  0.084300  0.540700  0.893300  1.0  1.8209
  P  P26  1  0.438100  0.627400  0.192000  1.0  1.8373
  P  P27  1  0.780300  0.845500  0.204300  1.0  1.8101
  P  P28  1  0.196400  0.912100  0.058200  1.0  1.8651
  P  P29  1  0.415700  0.040700  0.606700  1.0  1.8215
  P  P30  1  0.061900  0.127400  0.308000  1.0  1.8406
  P  P31  1  0.719700  0.345500  0.295700  1.0  1.8068
  P  P32  1  0.303600  0.412100  0.441800  1.0  1.8646
  O  O33  1  0.839900  0.208300  0.956600  1.0  -0.8227
  O  O34  1  0.858100  0.400800  0.028700  1.0  -0.7693
  O  O35  1  0.682600  0.405300  0.877800  1.0  -0.7338
  O  O36  1  0.052500  0.515000  0.103600  1.0  -0.8142
  O  O37  1  0.429300  0.382500  0.837900  1.0  -0.7195
  O  O38  1  0.810700  0.545300  0.119600  1.0  -0.709
  O  O39  1  0.175900  0.269700  0.770100  1.0  -0.7535
  O  O40  1  0.189600  0.078500  0.723900  1.0  -0.7168
  O  O41  1  0.894600  0.036300  0.894000  1.0  -0.8275
  O  O42  1  0.820300  0.031100  0.021700  1.0  -0.783
  O  O43  1  0.130800  0.119500  0.854200  1.0  -0.6992
  O  O44  1  0.558200  0.450900  0.739500  1.0  -0.7512
  O  O45  1  0.587400  0.258300  0.782900  1.0  -0.8058
  O  O46  1  0.374700  0.148900  0.837800  1.0  -0.7117
  O  O47  1  0.651200  0.078300  0.897700  1.0  -0.761
  O  O48  1  0.944400  0.376600  0.173900  1.0  -0.7414
  O  O49  1  0.660100  0.708300  0.543400  1.0  -0.824
  O  O50  1  0.641900  0.900800  0.471300  1.0  -0.7683
  O  O51  1  0.817400  0.905300  0.622200  1.0  -0.7349
  O  O52  1  0.447500  0.015000  0.396400  1.0  -0.814
  O  O53  1  0.070700  0.882500  0.662100  1.0  -0.7224
  O  O54  1  0.689300  0.045300  0.380400  1.0  -0.7089
  O  O55  1  0.324100  0.769700  0.729900  1.0  -0.7542
  O  O56  1  0.310400  0.578500  0.776100  1.0  -0.716
  O  O57  1  0.605400  0.536300  0.606000  1.0  -0.8264
  O  O58  1  0.679700  0.531100  0.478300  1.0  -0.7822
  O  O59  1  0.369200  0.619500  0.645800  1.0  -0.6999
  O  O60  1  0.941800  0.950900  0.760500  1.0  -0.7495
  O  O61  1  0.912600  0.758300  0.717100  1.0  -0.8086
  O  O62  1  0.125300  0.648900  0.662200  1.0  -0.7128
  O  O63  1  0.848800  0.578300  0.602300  1.0  -0.7631
  O  O64  1  0.555600  0.876600  0.326100  1.0  -0.7405
  O  O65  1  0.160100  0.791700  0.043400  1.0  -0.824
  O  O66  1  0.141900  0.599200  0.971300  1.0  -0.7676
  O  O67  1  0.317400  0.594700  0.122200  1.0  -0.7336
  O  O68  1  0.947500  0.485000  0.896400  1.0  -0.814
  O  O69  1  0.570700  0.617500  0.162100  1.0  -0.7216
  O  O70  1  0.189300  0.454700  0.880400  1.0  -0.7097
  O  O71  1  0.824100  0.730300  0.229900  1.0  -0.7541
  O  O72  1  0.810400  0.921500  0.276100  1.0  -0.7153
  O  O73  1  0.105400  0.963700  0.106000  1.0  -0.8274
  O  O74  1  0.179700  0.968900  0.978300  1.0  -0.7826
  O  O75  1  0.869200  0.880500  0.145800  1.0  -0.7007
  O  O76  1  0.441800  0.549100  0.260500  1.0  -0.7495
  O  O77  1  0.412600  0.741700  0.217100  1.0  -0.8076
  O  O78  1  0.625300  0.851100  0.162200  1.0  -0.7127
  O  O79  1  0.348800  0.921700  0.102300  1.0  -0.7625
  O  O80  1  0.055600  0.623400  0.826100  1.0  -0.7404
  O  O81  1  0.339900  0.291700  0.456600  1.0  -0.8225
  O  O82  1  0.358100  0.099200  0.528700  1.0  -0.7689
  O  O83  1  0.182600  0.094700  0.377800  1.0  -0.7328
  O  O84  1  0.552500  0.985000  0.603600  1.0  -0.8143
  O  O85  1  0.929300  0.117500  0.337900  1.0  -0.719
  O  O86  1  0.310700  0.954700  0.619600  1.0  -0.7099
  O  O87  1  0.675900  0.230300  0.270100  1.0  -0.7538
  O  O88  1  0.689600  0.421500  0.223900  1.0  -0.7162
  O  O89  1  0.394600  0.463700  0.394000  1.0  -0.8279
  O  O90  1  0.320300  0.468900  0.521700  1.0  -0.7835
  O  O91  1  0.630800  0.380500  0.354200  1.0  -0.7004
  O  O92  1  0.058200  0.049100  0.239500  1.0  -0.7516
  O  O93  1  0.087400  0.241700  0.282900  1.0  -0.8051
  O  O94  1  0.874700  0.351100  0.337800  1.0  -0.7117
  O  O95  1  0.151200  0.421700  0.397700  1.0  -0.7616
  O  O96  1  0.444400  0.123400  0.673900  1.0  -0.7412
  F  F97  1  0.285900  0.408200  0.672600  1.0  -0.4893
  F  F98  1  0.051900  0.460900  0.720700  1.0  -0.4814
  F  F99  1  0.214100  0.908200  0.827400  1.0  -0.4887
  F  F100  1  0.448100  0.960900  0.779300  1.0  -0.478
  F  F101  1  0.714100  0.591800  0.327400  1.0  -0.4879
  F  F102  1  0.948100  0.539100  0.279300  1.0  -0.4777
  F  F103  1  0.785900  0.091800  0.172600  1.0  -0.4883
  F  F104  1  0.551900  0.039100  0.220700  1.0  -0.4808
