# generated using pymatgen
data_CuH5C9N4O
_symmetry_space_group_name_H-M   'P 1'
_cell_length_a   7.31400000
_cell_length_b   12.75800000
_cell_length_c   15.33200000
_cell_angle_alpha   90.00000000
_cell_angle_beta   90.00000000
_cell_angle_gamma   94.50000000
_symmetry_Int_Tables_number   1
_chemical_formula_structural   CuH5C9N4O
_chemical_formula_sum   'Cu4 H20 C36 N16 O4'
_cell_volume   1426.24952138
_cell_formula_units_Z   4
loop_
 _symmetry_equiv_pos_site_id
 _symmetry_equiv_pos_as_xyz
  1  'x, y, z'
loop_
 _atom_site_type_symbol
 _atom_site_label
 _atom_site_symmetry_multiplicity
 _atom_site_fract_x
 _atom_site_fract_y
 _atom_site_fract_z
 _atom_site_occupancy
 _atom_site_charge
  Cu  Cu1  1  0.732070  0.357710  0.879750  1.0  0.6036
  Cu  Cu2  1  0.267930  0.142290  0.379750  1.0  0.6035
  Cu  Cu3  1  0.267930  0.642290  0.120250  1.0  0.6035
  Cu  Cu4  1  0.732070  0.857710  0.620250  1.0  0.6036
  H  H5  1  0.914200  0.405000  0.583300  1.0  0.1459
  H  H6  1  0.839000  0.423100  0.489400  1.0  0.1416
  H  H7  1  0.745500  0.590200  0.582500  1.0  0.1413
  H  H8  1  0.754900  0.538600  0.675100  1.0  0.1541
  H  H9  1  0.567100  0.571300  0.638900  1.0  0.1606
  H  H10  1  0.085800  0.095000  0.083300  1.0  0.1494
  H  H11  1  0.161000  0.076900  0.989400  1.0  0.1416
  H  H12  1  0.254500  0.909800  0.082500  1.0  0.142
  H  H13  1  0.245100  0.961400  0.175100  1.0  0.154
  H  H14  1  0.432900  0.928700  0.138900  1.0  0.1572
  H  H15  1  0.085800  0.595000  0.416700  1.0  0.1499
  H  H16  1  0.161000  0.576900  0.510600  1.0  0.1437
  H  H17  1  0.254500  0.409800  0.417500  1.0  0.1429
  H  H18  1  0.245100  0.461400  0.324900  1.0  0.153
  H  H19  1  0.432900  0.428700  0.361100  1.0  0.1561
  H  H20  1  0.914200  0.905000  0.916700  1.0  0.1461
  H  H21  1  0.839000  0.923100  0.010600  1.0  0.1433
  H  H22  1  0.745500  0.090200  0.917500  1.0  0.142
  H  H23  1  0.754900  0.038600  0.824900  1.0  0.1529
  H  H24  1  0.567100  0.071300  0.861100  1.0  0.1606
  C  C25  1  0.768500  0.209700  0.616300  1.0  -0.4631
  C  C26  1  0.782900  0.269700  0.531100  1.0  0.167
  C  C27  1  0.759500  0.260200  0.695900  1.0  0.433
  C  C28  1  0.756300  0.101300  0.615500  1.0  0.4057
  C  C29  1  0.619200  0.238900  0.476800  1.0  0.3048
  C  C30  1  0.942400  0.235200  0.482200  1.0  0.3076
  C  C31  1  0.810000  0.389700  0.545000  1.0  -0.3885
  C  C32  1  0.645100  0.437300  0.583600  1.0  0.5495
  C  C33  1  0.681400  0.543900  0.623600  1.0  -0.497
  C  C34  1  0.231500  0.290300  0.116300  1.0  -0.4648
  C  C35  1  0.217100  0.230300  0.031100  1.0  0.1674
  C  C36  1  0.240500  0.239800  0.195900  1.0  0.4333
  C  C37  1  0.243700  0.398700  0.115500  1.0  0.4028
  C  C38  1  0.380800  0.261100  0.976800  1.0  0.3043
  C  C39  1  0.057600  0.264800  0.982200  1.0  0.307
  C  C40  1  0.190000  0.110300  0.045000  1.0  -0.3894
  C  C41  1  0.354900  0.062700  0.083600  1.0  0.5668
  C  C42  1  0.318600  0.956100  0.123600  1.0  -0.5031
  C  C43  1  0.231500  0.790300  0.383700  1.0  -0.4589
  C  C44  1  0.217100  0.730300  0.468900  1.0  0.1677
  C  C45  1  0.240500  0.739800  0.304100  1.0  0.4337
  C  C46  1  0.243700  0.898700  0.384500  1.0  0.4027
  C  C47  1  0.380800  0.761100  0.523200  1.0  0.3041
  C  C48  1  0.057600  0.764800  0.517800  1.0  0.3064
  C  C49  1  0.190000  0.610300  0.455000  1.0  -0.3894
  C  C50  1  0.354900  0.562700  0.416400  1.0  0.5618
  C  C51  1  0.318600  0.456100  0.376400  1.0  -0.5031
  C  C52  1  0.768500  0.709700  0.883700  1.0  -0.4589
  C  C53  1  0.782900  0.769700  0.968900  1.0  0.1673
  C  C54  1  0.759500  0.760200  0.804100  1.0  0.4338
  C  C55  1  0.756300  0.601300  0.884500  1.0  0.4057
  C  C56  1  0.619200  0.738900  0.023200  1.0  0.3052
  C  C57  1  0.942400  0.735200  0.017800  1.0  0.3073
  C  C58  1  0.810000  0.889700  0.955000  1.0  -0.3885
  C  C59  1  0.645100  0.937300  0.916400  1.0  0.5408
  C  C60  1  0.681400  0.043900  0.876400  1.0  -0.4945
  N  N61  1  0.750900  0.301500  0.762000  1.0  -0.5018
  N  N62  1  0.749300  0.009900  0.614200  1.0  -0.4551
  N  N63  1  0.498600  0.205000  0.436300  1.0  -0.3903
  N  N64  1  0.065100  0.204100  0.449100  1.0  -0.3752
  N  N65  1  0.249100  0.198500  0.262000  1.0  -0.4994
  N  N66  1  0.250700  0.490100  0.114200  1.0  -0.4661
  N  N67  1  0.501400  0.295000  0.936300  1.0  -0.3895
  N  N68  1  0.934900  0.295900  0.949100  1.0  -0.373
  N  N69  1  0.249100  0.698500  0.238000  1.0  -0.4949
  N  N70  1  0.250700  0.990100  0.385800  1.0  -0.4654
  N  N71  1  0.501400  0.795000  0.563700  1.0  -0.3897
  N  N72  1  0.934900  0.795900  0.550900  1.0  -0.3735
  N  N73  1  0.750900  0.801500  0.738000  1.0  -0.4991
  N  N74  1  0.749300  0.509900  0.885800  1.0  -0.4543
  N  N75  1  0.498600  0.705000  0.063700  1.0  -0.3899
  N  N76  1  0.065100  0.704100  0.050900  1.0  -0.3754
  O  O77  1  0.495800  0.391600  0.580700  1.0  -0.4472
  O  O78  1  0.504200  0.108400  0.080700  1.0  -0.4465
  O  O79  1  0.504200  0.608400  0.419300  1.0  -0.446
  O  O80  1  0.495800  0.891600  0.919300  1.0  -0.4469
