# generated using pymatgen
data_VCoPH14C15N3O7
_symmetry_space_group_name_H-M   'P 1'
_cell_length_a   8.77340000
_cell_length_b   15.50700000
_cell_length_c   17.26400000
_cell_angle_alpha   90.00000000
_cell_angle_beta   90.00000000
_cell_angle_gamma   93.94000000
_symmetry_Int_Tables_number   1
_chemical_formula_structural   VCoPH14C15N3O7
_chemical_formula_sum   'V4 Co4 P4 H56 C60 N12 O28'
_cell_volume   2343.20074785
_cell_formula_units_Z   4
loop_
 _symmetry_equiv_pos_site_id
 _symmetry_equiv_pos_as_xyz
  1  'x, y, z'
loop_
 _atom_site_type_symbol
 _atom_site_label
 _atom_site_symmetry_multiplicity
 _atom_site_fract_x
 _atom_site_fract_y
 _atom_site_fract_z
 _atom_site_occupancy
 _atom_site_charge
  V  V1  1  0.941230  0.334160  0.982000  1.0  1.2023
  V  V2  1  0.058770  0.165840  0.482000  1.0  1.2081
  V  V3  1  0.058770  0.665840  0.018000  1.0  1.2083
  V  V4  1  0.941230  0.834160  0.518000  1.0  1.2021
  Co  Co5  1  0.808220  0.634450  0.760420  1.0  0.8561
  Co  Co6  1  0.191780  0.865550  0.260420  1.0  0.8539
  Co  Co7  1  0.191780  0.365550  0.239580  1.0  0.8526
  Co  Co8  1  0.808220  0.134450  0.739580  1.0  0.8551
  P  P9  1  0.943760  0.510200  0.893180  1.0  1.4865
  P  P10  1  0.056240  0.989800  0.393180  1.0  1.485
  P  P11  1  0.056240  0.489800  0.106820  1.0  1.4866
  P  P12  1  0.943760  0.010200  0.606820  1.0  1.4877
  H  H13  1  0.765400  0.521000  0.994800  1.0  0.156
  H  H14  1  0.679500  0.522800  0.912800  1.0  0.1284
  H  H15  1  0.687000  0.405100  0.833000  1.0  0.0889
  H  H16  1  0.551000  0.351200  0.876700  1.0  0.1229
  H  H17  1  0.502900  0.374700  0.992000  1.0  0.1244
  H  H18  1  0.614700  0.427500  0.051100  1.0  0.1002
  H  H19  1  0.463300  0.613100  0.807800  1.0  0.0801
  H  H20  1  0.259100  0.510100  0.804700  1.0  0.1175
  H  H21  1  0.513600  0.362400  0.668400  1.0  0.1135
  H  H22  1  0.709300  0.470100  0.675900  1.0  0.0809
  H  H23  1  0.871200  0.326100  0.709600  1.0  0.0775
  H  H24  1  0.063500  0.435300  0.718500  1.0  0.1262
  H  H25  1  0.364000  0.251500  0.750400  1.0  0.1159
  H  H26  1  0.160900  0.147900  0.746400  1.0  0.0783
  H  H27  1  0.234600  0.979000  0.494800  1.0  0.1546
  H  H28  1  0.320500  0.977200  0.412800  1.0  0.128
  H  H29  1  0.313000  0.094900  0.333000  1.0  0.0893
  H  H30  1  0.449000  0.148800  0.376700  1.0  0.1239
  H  H31  1  0.497100  0.125300  0.492000  1.0  0.1257
  H  H32  1  0.385300  0.072500  0.551100  1.0  0.1005
  H  H33  1  0.536700  0.886900  0.307800  1.0  0.08
  H  H34  1  0.740900  0.989900  0.304700  1.0  0.1173
  H  H35  1  0.486400  0.137600  0.168400  1.0  0.1133
  H  H36  1  0.290700  0.029900  0.175900  1.0  0.0809
  H  H37  1  0.128800  0.173900  0.209600  1.0  0.0778
  H  H38  1  0.936500  0.064700  0.218500  1.0  0.1264
  H  H39  1  0.636000  0.248500  0.250400  1.0  0.1153
  H  H40  1  0.839100  0.352100  0.246400  1.0  0.0785
  H  H41  1  0.234600  0.479000  0.005200  1.0  0.1549
  H  H42  1  0.320500  0.477200  0.087200  1.0  0.1289
  H  H43  1  0.313000  0.594900  0.167000  1.0  0.0888
  H  H44  1  0.449000  0.648800  0.123300  1.0  0.1238
  H  H45  1  0.497100  0.625300  0.008000  1.0  0.1262
  H  H46  1  0.385300  0.572500  0.948900  1.0  0.1007
  H  H47  1  0.536700  0.386900  0.192200  1.0  0.0793
  H  H48  1  0.740900  0.489900  0.195300  1.0  0.1175
  H  H49  1  0.486400  0.637600  0.331600  1.0  0.1138
  H  H50  1  0.290700  0.529900  0.324100  1.0  0.0807
  H  H51  1  0.128800  0.673900  0.290400  1.0  0.0782
  H  H52  1  0.936500  0.564700  0.281500  1.0  0.1259
  H  H53  1  0.636000  0.748500  0.249600  1.0  0.1153
  H  H54  1  0.839100  0.852100  0.253600  1.0  0.0765
  H  H55  1  0.765400  0.021000  0.505200  1.0  0.1575
  H  H56  1  0.679500  0.022800  0.587200  1.0  0.1283
  H  H57  1  0.687000  0.905100  0.667000  1.0  0.0883
  H  H58  1  0.551000  0.851200  0.623300  1.0  0.1226
  H  H59  1  0.502900  0.874700  0.508000  1.0  0.1244
  H  H60  1  0.614700  0.927500  0.448900  1.0  0.1007
  H  H61  1  0.463300  0.113100  0.692200  1.0  0.0788
  H  H62  1  0.259100  0.010100  0.695300  1.0  0.1179
  H  H63  1  0.513600  0.862400  0.831600  1.0  0.1142
  H  H64  1  0.709300  0.970100  0.824100  1.0  0.0802
  H  H65  1  0.871200  0.826100  0.790400  1.0  0.0778
  H  H66  1  0.063500  0.935300  0.781500  1.0  0.1259
  H  H67  1  0.364000  0.751500  0.749600  1.0  0.1155
  H  H68  1  0.160900  0.647900  0.753600  1.0  0.076
  C  C69  1  0.758600  0.494500  0.942600  1.0  -0.3774
  C  C70  1  0.663400  0.362400  0.874700  1.0  -0.2217
  C  C71  1  0.734800  0.278900  0.854400  1.0  0.7588
  C  C72  1  0.608200  0.379900  0.012800  1.0  -0.1667
  C  C73  1  0.641900  0.295700  0.053100  1.0  0.7477
  C  C74  1  0.473800  0.561000  0.779900  1.0  0.158
  C  C75  1  0.351000  0.500000  0.778100  1.0  -0.2192
  C  C76  1  0.363900  0.423700  0.737000  1.0  0.0814
  C  C77  1  0.500700  0.413100  0.698000  1.0  -0.2004
  C  C78  1  0.617100  0.477700  0.703100  1.0  0.1754
  C  C79  1  0.972600  0.311100  0.719100  1.0  0.1596
  C  C80  1  0.086700  0.376500  0.723200  1.0  -0.2174
  C  C81  1  0.236300  0.355000  0.734200  1.0  0.0784
  C  C82  1  0.263000  0.268400  0.742700  1.0  -0.2254
  C  C83  1  0.141500  0.207000  0.739800  1.0  0.1698
  C  C84  1  0.241400  0.005500  0.442600  1.0  -0.3771
  C  C85  1  0.336600  0.137600  0.374700  1.0  -0.2204
  C  C86  1  0.265200  0.221100  0.354400  1.0  0.76
  C  C87  1  0.391800  0.120100  0.512800  1.0  -0.1673
  C  C88  1  0.358100  0.204300  0.553100  1.0  0.7483
  C  C89  1  0.526200  0.939000  0.279900  1.0  0.158
  C  C90  1  0.649000  0.000000  0.278100  1.0  -0.2209
  C  C91  1  0.636100  0.076300  0.237000  1.0  0.0823
  C  C92  1  0.499300  0.086900  0.198000  1.0  -0.2024
  C  C93  1  0.382900  0.022300  0.203100  1.0  0.1754
  C  C94  1  0.027400  0.188900  0.219100  1.0  0.1593
  C  C95  1  0.913300  0.123500  0.223200  1.0  -0.2179
  C  C96  1  0.763700  0.145000  0.234200  1.0  0.0799
  C  C97  1  0.737000  0.231600  0.242700  1.0  -0.2241
  C  C98  1  0.858500  0.293000  0.239800  1.0  0.1677
  C  C99  1  0.241400  0.505500  0.057400  1.0  -0.3778
  C  C100  1  0.336600  0.637600  0.125300  1.0  -0.2211
  C  C101  1  0.265200  0.721100  0.145600  1.0  0.7597
  C  C102  1  0.391800  0.620100  0.987200  1.0  -0.167
  C  C103  1  0.358100  0.704300  0.946900  1.0  0.7486
  C  C104  1  0.526200  0.439000  0.220100  1.0  0.1579
  C  C105  1  0.649000  0.500000  0.221900  1.0  -0.2231
  C  C106  1  0.636100  0.576300  0.263000  1.0  0.0824
  C  C107  1  0.499300  0.586900  0.302000  1.0  -0.1988
  C  C108  1  0.382900  0.522300  0.296900  1.0  0.1732
  C  C109  1  0.027400  0.688900  0.280900  1.0  0.1597
  C  C110  1  0.913300  0.623500  0.276800  1.0  -0.2182
  C  C111  1  0.763700  0.645000  0.265800  1.0  0.0801
  C  C112  1  0.737000  0.731600  0.257300  1.0  -0.2235
  C  C113  1  0.858500  0.793000  0.260200  1.0  0.1679
  C  C114  1  0.758600  0.994500  0.557400  1.0  -0.3774
  C  C115  1  0.663400  0.862400  0.625300  1.0  -0.2214
  C  C116  1  0.734800  0.778900  0.645600  1.0  0.7586
  C  C117  1  0.608200  0.879900  0.487200  1.0  -0.1682
  C  C118  1  0.641900  0.795700  0.446900  1.0  0.7479
  C  C119  1  0.473800  0.061000  0.720100  1.0  0.1571
  C  C120  1  0.351000  0.000000  0.721900  1.0  -0.2208
  C  C121  1  0.363900  0.923700  0.763000  1.0  0.0822
  C  C122  1  0.500700  0.913100  0.802000  1.0  -0.1983
  C  C123  1  0.617100  0.977700  0.796900  1.0  0.1744
  C  C124  1  0.972600  0.811100  0.780900  1.0  0.1603
  C  C125  1  0.086700  0.876500  0.776800  1.0  -0.2195
  C  C126  1  0.236300  0.855000  0.765800  1.0  0.0781
  C  C127  1  0.263000  0.768400  0.757300  1.0  -0.2249
  C  C128  1  0.141500  0.707000  0.760200  1.0  0.1692
  N  N129  1  0.716300  0.400460  0.949390  1.0  -0.1101
  N  N130  1  0.607100  0.550250  0.744230  1.0  -0.332
  N  N131  1  0.997200  0.227270  0.728020  1.0  -0.3388
  N  N132  1  0.283700  0.099540  0.449390  1.0  -0.1115
  N  N133  1  0.392900  0.949750  0.244230  1.0  -0.3316
  N  N134  1  0.002800  0.272730  0.228020  1.0  -0.336
  N  N135  1  0.283700  0.599540  0.050610  1.0  -0.1115
  N  N136  1  0.392900  0.449750  0.255770  1.0  -0.3325
  N  N137  1  0.002800  0.772730  0.271980  1.0  -0.3359
  N  N138  1  0.716300  0.900460  0.550610  1.0  -0.1097
  N  N139  1  0.607100  0.050250  0.755770  1.0  -0.3333
  N  N140  1  0.997200  0.727270  0.771980  1.0  -0.3386
  O  O141  1  0.918200  0.533100  0.809320  1.0  -0.7946
  O  O142  1  0.042100  0.580960  0.934480  1.0  -0.9109
  O  O143  1  0.012900  0.422740  0.903110  1.0  -0.8277
  O  O144  1  0.851000  0.260530  0.893960  1.0  -0.6218
  O  O145  1  0.682500  0.234430  0.799310  1.0  -0.594
  O  O146  1  0.775800  0.269370  0.045140  1.0  -0.6092
  O  O147  1  0.539700  0.258400  0.092810  1.0  -0.6175
  O  O148  1  0.081800  0.966900  0.309320  1.0  -0.7949
  O  O149  1  0.957900  0.919040  0.434480  1.0  -0.9112
  O  O150  1  0.987100  0.077260  0.403110  1.0  -0.8288
  O  O151  1  0.149000  0.239470  0.393960  1.0  -0.6214
  O  O152  1  0.317500  0.265570  0.299310  1.0  -0.594
  O  O153  1  0.224200  0.230630  0.545140  1.0  -0.6088
  O  O154  1  0.460300  0.241600  0.592810  1.0  -0.6194
  O  O155  1  0.081800  0.466900  0.190680  1.0  -0.795
  O  O156  1  0.957900  0.419040  0.065520  1.0  -0.911
  O  O157  1  0.987100  0.577260  0.096890  1.0  -0.829
  O  O158  1  0.149000  0.739470  0.106040  1.0  -0.6206
  O  O159  1  0.317500  0.765570  0.200690  1.0  -0.593
  O  O160  1  0.224200  0.730630  0.954860  1.0  -0.607
  O  O161  1  0.460300  0.741600  0.907190  1.0  -0.6208
  O  O162  1  0.918200  0.033100  0.690680  1.0  -0.7944
  O  O163  1  0.042100  0.080960  0.565520  1.0  -0.9103
  O  O164  1  0.012900  0.922740  0.596890  1.0  -0.828
  O  O165  1  0.851000  0.760530  0.606040  1.0  -0.6213
  O  O166  1  0.682500  0.734430  0.700690  1.0  -0.5925
  O  O167  1  0.775800  0.769370  0.454860  1.0  -0.6074
  O  O168  1  0.539700  0.758400  0.407190  1.0  -0.6186
