# generated using pymatgen
data_VCdPH14C15N3O7
_symmetry_space_group_name_H-M   'P 1'
_cell_length_a   9.12670000
_cell_length_b   15.36100000
_cell_length_c   17.61000000
_cell_angle_alpha   90.00000000
_cell_angle_beta   90.00000000
_cell_angle_gamma   93.06000000
_symmetry_Int_Tables_number   1
_chemical_formula_structural   VCdPH14C15N3O7
_chemical_formula_sum   'V4 Cd4 P4 H56 C60 N12 O28'
_cell_volume   2465.31803745
_cell_formula_units_Z   4
loop_
 _symmetry_equiv_pos_site_id
 _symmetry_equiv_pos_as_xyz
  1  'x, y, z'
loop_
 _atom_site_type_symbol
 _atom_site_label
 _atom_site_symmetry_multiplicity
 _atom_site_fract_x
 _atom_site_fract_y
 _atom_site_fract_z
 _atom_site_occupancy
 _atom_site_charge
  V  V1  1  0.070030  0.667580  0.988240  1.0  1.2851
  V  V2  1  0.929970  0.832420  0.488240  1.0  1.2808
  V  V3  1  0.929970  0.332420  0.011760  1.0  1.2816
  V  V4  1  0.070030  0.167580  0.511760  1.0  1.2863
  Cd  Cd5  1  0.179450  0.365910  0.756850  1.0  0.7686
  Cd  Cd6  1  0.820550  0.134090  0.256850  1.0  0.7675
  Cd  Cd7  1  0.820550  0.634090  0.243150  1.0  0.7652
  Cd  Cd8  1  0.179450  0.865910  0.743150  1.0  0.7665
  P  P9  1  0.048230  0.492770  0.895300  1.0  1.463
  P  P10  1  0.951770  0.007230  0.395300  1.0  1.4631
  P  P11  1  0.951770  0.507230  0.104700  1.0  1.4634
  P  P12  1  0.048230  0.992770  0.604700  1.0  1.4637
  H  H13  1  0.217400  0.471100  0.994500  1.0  0.1487
  H  H14  1  0.299600  0.468200  0.914000  1.0  0.1388
  H  H15  1  0.309300  0.588300  0.838800  1.0  0.1148
  H  H16  1  0.438400  0.640800  0.883500  1.0  0.1234
  H  H17  1  0.483100  0.605900  0.995000  1.0  0.1202
  H  H18  1  0.368000  0.560400  0.053300  1.0  0.1073
  H  H19  1  0.521900  0.390600  0.807700  1.0  0.0809
  H  H20  1  0.721500  0.490300  0.803500  1.0  0.1172
  H  H21  1  0.484500  0.642300  0.666800  1.0  0.1236
  H  H22  1  0.293900  0.536000  0.672900  1.0  0.0844
  H  H23  1  0.103100  0.664900  0.720700  1.0  0.0788
  H  H24  1  0.912000  0.559400  0.724200  1.0  0.1261
  H  H25  1  0.629200  0.752800  0.743500  1.0  0.1297
  H  H26  1  0.829100  0.852500  0.742200  1.0  0.0762
  H  H27  1  0.782600  0.028900  0.494500  1.0  0.1487
  H  H28  1  0.700400  0.031800  0.414000  1.0  0.139
  H  H29  1  0.690700  0.911700  0.338800  1.0  0.1146
  H  H30  1  0.561600  0.859200  0.383500  1.0  0.1234
  H  H31  1  0.516900  0.894100  0.495000  1.0  0.1179
  H  H32  1  0.632000  0.939600  0.553300  1.0  0.1065
  H  H33  1  0.478100  0.109400  0.307700  1.0  0.0807
  H  H34  1  0.278500  0.009700  0.303500  1.0  0.1172
  H  H35  1  0.515500  0.857700  0.166800  1.0  0.1239
  H  H36  1  0.706100  0.964000  0.172900  1.0  0.0848
  H  H37  1  0.896900  0.835100  0.220700  1.0  0.0785
  H  H38  1  0.088000  0.940600  0.224200  1.0  0.1262
  H  H39  1  0.370800  0.747200  0.243500  1.0  0.1304
  H  H40  1  0.170900  0.647500  0.242200  1.0  0.0761
  H  H41  1  0.782600  0.528900  0.005500  1.0  0.1489
  H  H42  1  0.700400  0.531800  0.086000  1.0  0.1388
  H  H43  1  0.690700  0.411700  0.161200  1.0  0.1144
  H  H44  1  0.561600  0.359200  0.116500  1.0  0.1231
  H  H45  1  0.516900  0.394100  0.005000  1.0  0.1179
  H  H46  1  0.632000  0.439600  0.946700  1.0  0.1073
  H  H47  1  0.478100  0.609400  0.192300  1.0  0.0805
  H  H48  1  0.278500  0.509700  0.196500  1.0  0.1172
  H  H49  1  0.515500  0.357700  0.333200  1.0  0.1235
  H  H50  1  0.706100  0.464000  0.327100  1.0  0.0837
  H  H51  1  0.896900  0.335100  0.279300  1.0  0.0784
  H  H52  1  0.088000  0.440600  0.275800  1.0  0.1258
  H  H53  1  0.370800  0.247200  0.256500  1.0  0.1304
  H  H54  1  0.170900  0.147500  0.257800  1.0  0.0762
  H  H55  1  0.217400  0.971100  0.505500  1.0  0.1481
  H  H56  1  0.299600  0.968200  0.586000  1.0  0.1398
  H  H57  1  0.309300  0.088300  0.661200  1.0  0.1143
  H  H58  1  0.438400  0.140800  0.616500  1.0  0.1235
  H  H59  1  0.483100  0.105900  0.505000  1.0  0.1207
  H  H60  1  0.368000  0.060400  0.446700  1.0  0.1075
  H  H61  1  0.521900  0.890600  0.692300  1.0  0.0803
  H  H62  1  0.721500  0.990300  0.696500  1.0  0.117
  H  H63  1  0.484500  0.142300  0.833200  1.0  0.1234
  H  H64  1  0.293900  0.036000  0.827100  1.0  0.0839
  H  H65  1  0.103100  0.164900  0.779300  1.0  0.079
  H  H66  1  0.912000  0.059400  0.775800  1.0  0.1257
  H  H67  1  0.629200  0.252800  0.756500  1.0  0.1299
  H  H68  1  0.829100  0.352500  0.757800  1.0  0.0758
  C  C69  1  0.226700  0.499100  0.944000  1.0  -0.3691
  C  C70  1  0.330600  0.630700  0.880200  1.0  -0.1977
  C  C71  1  0.263200  0.715900  0.860300  1.0  0.7689
  C  C72  1  0.382000  0.607500  0.015100  1.0  -0.1896
  C  C73  1  0.362000  0.695300  0.053000  1.0  0.75
  C  C74  1  0.514700  0.442400  0.778800  1.0  0.1678
  C  C75  1  0.634100  0.501600  0.776800  1.0  -0.2141
  C  C76  1  0.624700  0.578100  0.735100  1.0  0.0755
  C  C77  1  0.495000  0.591000  0.696000  1.0  -0.2148
  C  C78  1  0.381400  0.527500  0.700500  1.0  0.1558
  C  C79  1  0.005500  0.682700  0.726000  1.0  0.1704
  C  C80  1  0.892100  0.619300  0.727300  1.0  -0.2318
  C  C81  1  0.749100  0.644400  0.733300  1.0  0.0844
  C  C82  1  0.725800  0.733200  0.739100  1.0  -0.2218
  C  C83  1  0.845500  0.792100  0.738200  1.0  0.1678
  C  C84  1  0.773300  0.000900  0.444000  1.0  -0.3696
  C  C85  1  0.669400  0.869300  0.380200  1.0  -0.1979
  C  C86  1  0.736800  0.784100  0.360300  1.0  0.7675
  C  C87  1  0.618000  0.892500  0.515100  1.0  -0.1886
  C  C88  1  0.638000  0.804700  0.553000  1.0  0.7497
  C  C89  1  0.485300  0.057600  0.278800  1.0  0.1695
  C  C90  1  0.365900  0.998400  0.276800  1.0  -0.2139
  C  C91  1  0.375300  0.921900  0.235100  1.0  0.0746
  C  C92  1  0.505000  0.909000  0.196000  1.0  -0.2148
  C  C93  1  0.618600  0.972500  0.200500  1.0  0.1565
  C  C94  1  0.994500  0.817300  0.226000  1.0  0.1697
  C  C95  1  0.107900  0.880700  0.227300  1.0  -0.2315
  C  C96  1  0.250900  0.855600  0.233300  1.0  0.0838
  C  C97  1  0.274200  0.766800  0.239100  1.0  -0.2232
  C  C98  1  0.154500  0.707900  0.238200  1.0  0.1671
  C  C99  1  0.773300  0.500900  0.056000  1.0  -0.3694
  C  C100  1  0.669400  0.369300  0.119800  1.0  -0.1969
  C  C101  1  0.736800  0.284100  0.139700  1.0  0.7681
  C  C102  1  0.618000  0.392500  0.984900  1.0  -0.1889
  C  C103  1  0.638000  0.304700  0.947000  1.0  0.75
  C  C104  1  0.485300  0.557600  0.221200  1.0  0.1689
  C  C105  1  0.365900  0.498400  0.223200  1.0  -0.2172
  C  C106  1  0.375300  0.421900  0.264900  1.0  0.0763
  C  C107  1  0.505000  0.409000  0.304000  1.0  -0.212
  C  C108  1  0.618600  0.472500  0.299500  1.0  0.1555
  C  C109  1  0.994500  0.317300  0.274000  1.0  0.17
  C  C110  1  0.107900  0.380700  0.272700  1.0  -0.2333
  C  C111  1  0.250900  0.355600  0.266700  1.0  0.0832
  C  C112  1  0.274200  0.266800  0.260900  1.0  -0.222
  C  C113  1  0.154500  0.207900  0.261800  1.0  0.1663
  C  C114  1  0.226700  0.999100  0.556000  1.0  -0.3701
  C  C115  1  0.330600  0.130700  0.619800  1.0  -0.1977
  C  C116  1  0.263200  0.215900  0.639700  1.0  0.7689
  C  C117  1  0.382000  0.107500  0.484900  1.0  -0.1878
  C  C118  1  0.362000  0.195300  0.447000  1.0  0.75
  C  C119  1  0.514700  0.942400  0.721200  1.0  0.168
  C  C120  1  0.634100  0.001600  0.723200  1.0  -0.2172
  C  C121  1  0.624700  0.078100  0.764900  1.0  0.0764
  C  C122  1  0.495000  0.091000  0.804000  1.0  -0.2123
  C  C123  1  0.381400  0.027500  0.799500  1.0  0.155
  C  C124  1  0.005500  0.182700  0.774000  1.0  0.1704
  C  C125  1  0.892100  0.119300  0.772700  1.0  -0.2317
  C  C126  1  0.749100  0.144400  0.766700  1.0  0.0844
  C  C127  1  0.725800  0.233200  0.760900  1.0  -0.2208
  C  C128  1  0.845500  0.292100  0.761800  1.0  0.1679
  N  N129  1  0.275800  0.592550  0.952680  1.0  -0.102
  N  N130  1  0.389200  0.454800  0.741790  1.0  -0.3279
  N  N131  1  0.984000  0.767800  0.731900  1.0  -0.3216
  N  N132  1  0.724200  0.907450  0.452680  1.0  -0.1011
  N  N133  1  0.610800  0.045200  0.241790  1.0  -0.3273
  N  N134  1  0.016000  0.732200  0.231900  1.0  -0.3226
  N  N135  1  0.724200  0.407450  0.047320  1.0  -0.1009
  N  N136  1  0.610800  0.545200  0.258210  1.0  -0.328
  N  N137  1  0.016000  0.232200  0.268100  1.0  -0.3226
  N  N138  1  0.275800  0.092550  0.547320  1.0  -0.1021
  N  N139  1  0.389200  0.954800  0.758210  1.0  -0.3294
  N  N140  1  0.984000  0.267800  0.768100  1.0  -0.3215
  O  O141  1  0.071000  0.478500  0.811330  1.0  -0.8499
  O  O142  1  0.950900  0.419200  0.930220  1.0  -0.8808
  O  O143  1  0.985400  0.582080  0.912320  1.0  -0.8289
  O  O144  1  0.154900  0.739090  0.900030  1.0  -0.6166
  O  O145  1  0.313300  0.757650  0.804400  1.0  -0.6296
  O  O146  1  0.235800  0.726090  0.047500  1.0  -0.606
  O  O147  1  0.466300  0.730800  0.088340  1.0  -0.6189
  O  O148  1  0.929000  0.021500  0.311330  1.0  -0.8513
  O  O149  1  0.049100  0.080800  0.430220  1.0  -0.8778
  O  O150  1  0.014600  0.917920  0.412320  1.0  -0.8296
  O  O151  1  0.845100  0.760910  0.400030  1.0  -0.6186
  O  O152  1  0.686700  0.742350  0.304400  1.0  -0.6315
  O  O153  1  0.764200  0.773910  0.547500  1.0  -0.6063
  O  O154  1  0.533700  0.769200  0.588340  1.0  -0.6172
  O  O155  1  0.929000  0.521500  0.188670  1.0  -0.8508
  O  O156  1  0.049100  0.580800  0.069780  1.0  -0.8778
  O  O157  1  0.014600  0.417920  0.087680  1.0  -0.8303
  O  O158  1  0.845100  0.260910  0.099970  1.0  -0.6183
  O  O159  1  0.686700  0.242350  0.195600  1.0  -0.6323
  O  O160  1  0.764200  0.273910  0.952500  1.0  -0.6038
  O  O161  1  0.533700  0.269200  0.911660  1.0  -0.6173
  O  O162  1  0.071000  0.978500  0.688670  1.0  -0.85
  O  O163  1  0.950900  0.919200  0.569780  1.0  -0.8801
  O  O164  1  0.985400  0.082080  0.587680  1.0  -0.8296
  O  O165  1  0.154900  0.239090  0.599970  1.0  -0.6157
  O  O166  1  0.313300  0.257650  0.695600  1.0  -0.631
  O  O167  1  0.235800  0.226090  0.452500  1.0  -0.6038
  O  O168  1  0.466300  0.230800  0.411660  1.0  -0.6192
