# generated using pymatgen
data_Zn4H48C84N6O13
_symmetry_space_group_name_H-M   'P 1'
_cell_length_a   17.16940000
_cell_length_b   32.19030000
_cell_length_c   32.92500000
_cell_angle_alpha   90.00000000
_cell_angle_beta   90.00000000
_cell_angle_gamma   90.00000000
_symmetry_Int_Tables_number   1
_chemical_formula_structural   Zn4H48C84N6O13
_chemical_formula_sum   'Zn16 H192 C336 N24 O52'
_cell_volume   18197.25690480
_cell_formula_units_Z   4
loop_
 _symmetry_equiv_pos_site_id
 _symmetry_equiv_pos_as_xyz
  1  'x, y, z'
loop_
 _atom_site_type_symbol
 _atom_site_label
 _atom_site_symmetry_multiplicity
 _atom_site_fract_x
 _atom_site_fract_y
 _atom_site_fract_z
 _atom_site_occupancy
 _atom_site_charge
  Zn  Zn1  1  0.776740  0.052770  0.246520  1.0  1.1247
  Zn  Zn2  1  0.786300  0.958680  0.281320  1.0  1.1117
  Zn  Zn3  1  0.911590  0.026360  0.305910  1.0  1.0683
  Zn  Zn4  1  0.911440  0.987530  0.218260  1.0  1.0927
  Zn  Zn5  1  0.723260  0.947230  0.746520  1.0  1.1251
  Zn  Zn6  1  0.713700  0.041320  0.781320  1.0  1.1116
  Zn  Zn7  1  0.588410  0.973640  0.805910  1.0  1.0685
  Zn  Zn8  1  0.588560  0.012470  0.718260  1.0  1.0932
  Zn  Zn9  1  0.223260  0.552770  0.253480  1.0  1.124
  Zn  Zn10  1  0.213700  0.458680  0.218680  1.0  1.1114
  Zn  Zn11  1  0.088410  0.526360  0.194090  1.0  1.0675
  Zn  Zn12  1  0.088560  0.487530  0.281740  1.0  1.0936
  Zn  Zn13  1  0.276740  0.447230  0.753480  1.0  1.1252
  Zn  Zn14  1  0.286300  0.541320  0.718680  1.0  1.1116
  Zn  Zn15  1  0.411590  0.473640  0.694090  1.0  1.0675
  Zn  Zn16  1  0.411440  0.512470  0.781740  1.0  1.093
  H  H17  1  0.541500  0.926800  0.274000  1.0  0.1284
  H  H18  1  0.404600  0.050400  0.254500  1.0  0.122
  H  H19  1  0.540400  0.050300  0.251900  1.0  0.1139
  H  H20  1  0.150900  0.961200  0.212400  1.0  0.1094
  H  H21  1  0.164100  0.032300  0.312900  1.0  0.1098
  H  H22  1  0.295000  0.023400  0.313700  1.0  0.1265
  H  H23  1  0.365200  0.843800  0.311500  1.0  0.1144
  H  H24  1  0.294000  0.785600  0.330000  1.0  0.1017
  H  H25  1  0.187800  0.765000  0.291400  1.0  0.103
  H  H26  1  0.152800  0.802700  0.234200  1.0  0.0947
  H  H27  1  0.224000  0.860900  0.215600  1.0  0.1056
  H  H28  1  0.443400  0.854900  0.207800  1.0  0.1032
  H  H29  1  0.500900  0.819900  0.154000  1.0  0.1073
  H  H30  1  0.462800  0.834300  0.087800  1.0  0.1092
  H  H31  1  0.367200  0.883600  0.075500  1.0  0.1102
  H  H32  1  0.309700  0.918600  0.129300  1.0  0.1148
  H  H33  1  0.897000  0.168800  0.224200  1.0  0.1167
  H  H34  1  0.945600  0.234200  0.223700  1.0  0.1008
  H  H35  1  0.982100  0.152400  0.337100  1.0  0.1
  H  H36  1  0.100800  0.265400  0.231200  1.0  0.1106
  H  H37  1  0.148700  0.330200  0.223400  1.0  0.1218
  H  H38  1  0.020600  0.368900  0.316100  1.0  0.1231
  H  H39  1  0.024900  0.326500  0.408500  1.0  0.1045
  H  H40  1  0.109100  0.352000  0.457600  1.0  0.1082
  H  H41  1  0.213100  0.311900  0.479700  1.0  0.1085
  H  H42  1  0.232800  0.246200  0.452500  1.0  0.1049
  H  H43  1  0.148600  0.220700  0.403400  1.0  0.1118
  H  H44  1  0.819100  0.315700  0.373200  1.0  0.1053
  H  H45  1  0.719200  0.302500  0.418800  1.0  0.0982
  H  H46  1  0.727500  0.246100  0.462500  1.0  0.1071
  H  H47  1  0.835700  0.202900  0.460500  1.0  0.1114
  H  H48  1  0.935600  0.216200  0.414800  1.0  0.1031
  H  H49  1  0.901400  0.002100  0.433400  1.0  0.1231
  H  H50  1  0.865500  0.993900  0.500300  1.0  0.1206
  H  H51  1  0.724800  0.927400  0.400600  1.0  0.1251
  H  H52  1  0.828800  0.929200  0.556800  1.0  0.0891
  H  H53  1  0.791800  0.929900  0.622900  1.0  0.1244
  H  H54  1  0.601700  0.993500  0.590200  1.0  0.1255
  H  H55  1  0.503500  0.032000  0.480000  1.0  0.1206
  H  H56  1  0.564600  0.934000  0.411500  1.0  0.1156
  H  H57  1  0.499400  0.962700  0.356500  1.0  0.0959
  H  H58  1  0.436200  0.026000  0.363300  1.0  0.105
  H  H59  1  0.438300  0.060700  0.425100  1.0  0.1064
  H  H60  1  0.588600  0.837100  0.463300  1.0  0.1228
  H  H61  1  0.506200  0.789800  0.494000  1.0  0.1048
  H  H62  1  0.414300  0.810600  0.541700  1.0  0.1181
  H  H63  1  0.397300  0.881800  0.554900  1.0  0.1366
  H  H64  1  0.487300  0.927800  0.526100  1.0  0.0855
  H  H65  1  0.958500  0.073200  0.774000  1.0  0.1293
  H  H66  1  0.095400  0.949600  0.754500  1.0  0.1213
  H  H67  1  0.959600  0.949700  0.751900  1.0  0.1133
  H  H68  1  0.349100  0.038800  0.712400  1.0  0.1099
  H  H69  1  0.335900  0.967700  0.812900  1.0  0.11
  H  H70  1  0.205000  0.976600  0.813700  1.0  0.1264
  H  H71  1  0.134800  0.156200  0.811500  1.0  0.1147
  H  H72  1  0.206000  0.214400  0.830000  1.0  0.1019
  H  H73  1  0.312200  0.235000  0.791400  1.0  0.103
  H  H74  1  0.347200  0.197300  0.734200  1.0  0.095
  H  H75  1  0.276000  0.139100  0.715600  1.0  0.106
  H  H76  1  0.056600  0.145100  0.707800  1.0  0.1033
  H  H77  1  0.999100  0.180100  0.654000  1.0  0.1067
  H  H78  1  0.037200  0.165700  0.587800  1.0  0.109
  H  H79  1  0.132800  0.116400  0.575500  1.0  0.1102
  H  H80  1  0.190300  0.081400  0.629300  1.0  0.1143
  H  H81  1  0.603000  0.831200  0.724200  1.0  0.1167
  H  H82  1  0.554400  0.765800  0.723700  1.0  0.1002
  H  H83  1  0.517900  0.847600  0.837100  1.0  0.0995
  H  H84  1  0.399200  0.734600  0.731200  1.0  0.1115
  H  H85  1  0.351300  0.669800  0.723400  1.0  0.1216
  H  H86  1  0.479400  0.631100  0.816100  1.0  0.123
  H  H87  1  0.475100  0.673500  0.908500  1.0  0.1041
  H  H88  1  0.390900  0.648000  0.957600  1.0  0.1088
  H  H89  1  0.286900  0.688100  0.979700  1.0  0.1083
  H  H90  1  0.267200  0.753800  0.952500  1.0  0.1046
  H  H91  1  0.351400  0.779300  0.903400  1.0  0.1124
  H  H92  1  0.680900  0.684300  0.873200  1.0  0.105
  H  H93  1  0.780800  0.697500  0.918800  1.0  0.0982
  H  H94  1  0.772500  0.753900  0.962500  1.0  0.1073
  H  H95  1  0.664300  0.797100  0.960500  1.0  0.111
  H  H96  1  0.564400  0.783800  0.914800  1.0  0.1034
  H  H97  1  0.598600  0.997900  0.933400  1.0  0.1202
  H  H98  1  0.634500  0.006100  0.000300  1.0  0.1211
  H  H99  1  0.775200  0.072600  0.900600  1.0  0.1257
  H  H100  1  0.671200  0.070800  0.056800  1.0  0.0904
  H  H101  1  0.708200  0.070100  0.122900  1.0  0.1245
  H  H102  1  0.898300  0.006500  0.090200  1.0  0.1249
  H  H103  1  0.996500  0.968000  0.980000  1.0  0.1203
  H  H104  1  0.935400  0.066000  0.911500  1.0  0.1159
  H  H105  1  0.000600  0.037300  0.856500  1.0  0.0961
  H  H106  1  0.063800  0.974000  0.863300  1.0  0.1054
  H  H107  1  0.061700  0.939300  0.925100  1.0  0.1076
  H  H108  1  0.911400  0.162900  0.963300  1.0  0.1224
  H  H109  1  0.993800  0.210200  0.994000  1.0  0.1029
  H  H110  1  0.085700  0.189400  0.041700  1.0  0.1183
  H  H111  1  0.102700  0.118200  0.054900  1.0  0.137
  H  H112  1  0.012700  0.072200  0.026100  1.0  0.0851
  H  H113  1  0.458500  0.426800  0.226000  1.0  0.1292
  H  H114  1  0.595400  0.550400  0.245500  1.0  0.1213
  H  H115  1  0.459600  0.550300  0.248100  1.0  0.1138
  H  H116  1  0.849100  0.461200  0.287600  1.0  0.1095
  H  H117  1  0.835900  0.532300  0.187100  1.0  0.1108
  H  H118  1  0.705000  0.523400  0.186300  1.0  0.1263
  H  H119  1  0.634800  0.343800  0.188500  1.0  0.1148
  H  H120  1  0.706000  0.285600  0.170000  1.0  0.1012
  H  H121  1  0.812200  0.265000  0.208600  1.0  0.1034
  H  H122  1  0.847200  0.302700  0.265800  1.0  0.0948
  H  H123  1  0.776000  0.360900  0.284400  1.0  0.1057
  H  H124  1  0.556600  0.354900  0.292200  1.0  0.1034
  H  H125  1  0.499100  0.319900  0.346000  1.0  0.1064
  H  H126  1  0.537200  0.334300  0.412200  1.0  0.1104
  H  H127  1  0.632800  0.383600  0.424500  1.0  0.111
  H  H128  1  0.690300  0.418600  0.370700  1.0  0.1139
  H  H129  1  0.103000  0.668800  0.275800  1.0  0.117
  H  H130  1  0.054400  0.734200  0.276300  1.0  0.0992
  H  H131  1  0.017900  0.652400  0.162900  1.0  0.0997
  H  H132  1  0.899200  0.765400  0.268800  1.0  0.1112
  H  H133  1  0.851300  0.830200  0.276600  1.0  0.1216
  H  H134  1  0.979400  0.868900  0.183900  1.0  0.1222
  H  H135  1  0.975100  0.826500  0.091500  1.0  0.1041
  H  H136  1  0.890900  0.852000  0.042400  1.0  0.1089
  H  H137  1  0.786900  0.811900  0.020300  1.0  0.1083
  H  H138  1  0.767200  0.746200  0.047500  1.0  0.1048
  H  H139  1  0.851400  0.720700  0.096600  1.0  0.1122
  H  H140  1  0.180900  0.815700  0.126800  1.0  0.1047
  H  H141  1  0.280800  0.802500  0.081200  1.0  0.0981
  H  H142  1  0.272500  0.746100  0.037500  1.0  0.1079
  H  H143  1  0.164300  0.702900  0.039500  1.0  0.1111
  H  H144  1  0.064400  0.716200  0.085200  1.0  0.1032
  H  H145  1  0.098600  0.502100  0.066600  1.0  0.1204
  H  H146  1  0.134500  0.493900  0.999700  1.0  0.1205
  H  H147  1  0.275200  0.427400  0.099400  1.0  0.1259
  H  H148  1  0.171200  0.429200  0.943200  1.0  0.0899
  H  H149  1  0.208200  0.429900  0.877100  1.0  0.124
  H  H150  1  0.398300  0.493500  0.909800  1.0  0.1251
  H  H151  1  0.496500  0.532000  0.020000  1.0  0.1208
  H  H152  1  0.435400  0.434000  0.088500  1.0  0.1157
  H  H153  1  0.500600  0.462700  0.143500  1.0  0.0965
  H  H154  1  0.563800  0.526000  0.136700  1.0  0.1061
  H  H155  1  0.561700  0.560700  0.074900  1.0  0.1067
  H  H156  1  0.411400  0.337100  0.036700  1.0  0.1231
  H  H157  1  0.493800  0.289800  0.006000  1.0  0.1051
  H  H158  1  0.585700  0.310600  0.958300  1.0  0.1178
  H  H159  1  0.602700  0.381800  0.945100  1.0  0.136
  H  H160  1  0.512700  0.427800  0.973900  1.0  0.0861
  H  H161  1  0.041500  0.573200  0.726000  1.0  0.1292
  H  H162  1  0.904600  0.449600  0.745500  1.0  0.1212
  H  H163  1  0.040400  0.449700  0.748100  1.0  0.1141
  H  H164  1  0.650900  0.538800  0.787600  1.0  0.1091
  H  H165  1  0.664100  0.467700  0.687100  1.0  0.1096
  H  H166  1  0.795000  0.476600  0.686300  1.0  0.1262
  H  H167  1  0.865200  0.656200  0.688500  1.0  0.1143
  H  H168  1  0.794000  0.714400  0.670000  1.0  0.1015
  H  H169  1  0.687800  0.735000  0.708600  1.0  0.1032
  H  H170  1  0.652800  0.697300  0.765800  1.0  0.0945
  H  H171  1  0.724000  0.639100  0.784400  1.0  0.1059
  H  H172  1  0.943400  0.645100  0.792200  1.0  0.1037
  H  H173  1  0.000900  0.680100  0.846000  1.0  0.1064
  H  H174  1  0.962800  0.665700  0.912200  1.0  0.1093
  H  H175  1  0.867200  0.616400  0.924500  1.0  0.1104
  H  H176  1  0.809700  0.581400  0.870700  1.0  0.1137
  H  H177  1  0.397000  0.331200  0.775800  1.0  0.1173
  H  H178  1  0.445600  0.265800  0.776300  1.0  0.0996
  H  H179  1  0.482100  0.347600  0.662900  1.0  0.0997
  H  H180  1  0.600800  0.234600  0.768800  1.0  0.1111
  H  H181  1  0.648700  0.169800  0.776600  1.0  0.1214
  H  H182  1  0.520600  0.131100  0.683900  1.0  0.123
  H  H183  1  0.524900  0.173500  0.591500  1.0  0.1044
  H  H184  1  0.609100  0.148000  0.542400  1.0  0.1078
  H  H185  1  0.713100  0.188100  0.520300  1.0  0.1083
  H  H186  1  0.732800  0.253800  0.547500  1.0  0.1057
  H  H187  1  0.648600  0.279300  0.596600  1.0  0.112
  H  H188  1  0.319100  0.184300  0.626800  1.0  0.105
  H  H189  1  0.219200  0.197500  0.581200  1.0  0.0981
  H  H190  1  0.227500  0.253900  0.537500  1.0  0.1078
  H  H191  1  0.335700  0.297100  0.539500  1.0  0.1113
  H  H192  1  0.435600  0.283800  0.585200  1.0  0.1031
  H  H193  1  0.401400  0.497900  0.566600  1.0  0.1205
  H  H194  1  0.365500  0.506100  0.499700  1.0  0.1203
  H  H195  1  0.224800  0.572600  0.599400  1.0  0.1255
  H  H196  1  0.328800  0.570800  0.443200  1.0  0.0891
  H  H197  1  0.291800  0.570100  0.377100  1.0  0.1245
  H  H198  1  0.101700  0.506500  0.409800  1.0  0.1248
  H  H199  1  0.003500  0.468000  0.520000  1.0  0.1205
  H  H200  1  0.064600  0.566000  0.588500  1.0  0.1157
  H  H201  1  0.999400  0.537300  0.643500  1.0  0.0965
  H  H202  1  0.936200  0.474000  0.636700  1.0  0.1069
  H  H203  1  0.938300  0.439300  0.574900  1.0  0.1071
  H  H204  1  0.088600  0.662900  0.536700  1.0  0.1223
  H  H205  1  0.006200  0.710200  0.506000  1.0  0.1033
  H  H206  1  0.914300  0.689400  0.458300  1.0  0.1175
  H  H207  1  0.897300  0.618200  0.445100  1.0  0.1355
  H  H208  1  0.987300  0.572200  0.473900  1.0  0.0844
  C  C209  1  0.644000  0.987100  0.260300  1.0  0.6474
  C  C210  1  0.553100  0.988200  0.260100  1.0  -0.1435
  C  C211  1  0.514300  0.951000  0.268200  1.0  -0.1046
  C  C212  1  0.391600  0.987600  0.261400  1.0  -0.0572
  C  C213  1  0.432000  0.025600  0.256800  1.0  -0.0988
  C  C214  1  0.513200  0.025600  0.255600  1.0  -0.037
  C  C215  1  0.299900  0.988900  0.262400  1.0  -0.0024
  C  C216  1  0.255800  0.967600  0.234300  1.0  0.2707
  C  C217  1  0.179800  0.972600  0.233500  1.0  -0.0124
  C  C218  1  0.141200  0.995300  0.264700  1.0  -0.1294
  C  C219  1  0.187600  0.015600  0.293400  1.0  -0.0188
  C  C220  1  0.265000  0.011400  0.293400  1.0  -0.1762
  C  C221  1  0.054400  0.000600  0.263200  1.0  0.7156
  C  C222  1  0.433100  0.951700  0.267400  1.0  0.1803
  C  C223  1  0.345500  0.896400  0.251000  1.0  -0.0033
  C  C224  1  0.301600  0.858100  0.261700  1.0  -0.0932
  C  C225  1  0.322600  0.835600  0.296000  1.0  -0.06
  C  C226  1  0.280000  0.800700  0.307100  1.0  -0.1016
  C  C227  1  0.216400  0.788300  0.283900  1.0  -0.0864
  C  C228  1  0.195400  0.810900  0.249700  1.0  -0.108
  C  C229  1  0.238000  0.845800  0.238500  1.0  -0.0683
  C  C230  1  0.332500  0.915500  0.208300  1.0  0.132
  C  C231  1  0.370900  0.890200  0.173900  1.0  -0.1236
  C  C232  1  0.428100  0.860600  0.181300  1.0  -0.0932
  C  C233  1  0.462600  0.839700  0.149000  1.0  -0.1083
  C  C234  1  0.439800  0.848300  0.109400  1.0  -0.0915
  C  C235  1  0.382500  0.877900  0.102000  1.0  -0.0956
  C  C236  1  0.348000  0.898800  0.134300  1.0  -0.0494
  C  C237  1  0.907000  0.106700  0.279900  1.0  0.6771
  C  C238  1  0.935100  0.152700  0.281900  1.0  -0.1338
  C  C239  1  0.924100  0.178800  0.246600  1.0  -0.0843
  C  C240  1  0.953300  0.217700  0.246500  1.0  -0.1375
  C  C241  1  0.995600  0.234200  0.280200  1.0  0.0324
  C  C242  1  0.004300  0.206900  0.314400  1.0  0.1749
  C  C243  1  0.975100  0.168900  0.314200  1.0  -0.0432
  C  C244  1  0.028900  0.275700  0.278500  1.0  0.0414
  C  C245  1  0.083700  0.286200  0.248800  1.0  -0.1398
  C  C246  1  0.113100  0.324800  0.244100  1.0  -0.0829
  C  C247  1  0.090500  0.356100  0.269800  1.0  -0.1558
  C  C248  1  0.036700  0.347800  0.298600  1.0  -0.0953
  C  C249  1  0.005300  0.308700  0.302500  1.0  0.2005
  C  C250  1  0.027200  0.253100  0.368600  1.0  0.265
  C  C251  1  0.078400  0.271100  0.401100  1.0  -0.1124
  C  C252  1  0.066600  0.310400  0.417300  1.0  -0.0696
  C  C253  1  0.117000  0.325700  0.446800  1.0  -0.1194
  C  C254  1  0.179300  0.301600  0.460000  1.0  -0.0945
  C  C255  1  0.191100  0.262300  0.443700  1.0  -0.0969
  C  C256  1  0.140700  0.247000  0.414300  1.0  -0.0421
  C  C257  1  0.955000  0.274200  0.360400  1.0  0.0819
  C  C258  1  0.887200  0.267300  0.389500  1.0  -0.103
  C  C259  1  0.822400  0.293100  0.390700  1.0  -0.0492
  C  C260  1  0.762600  0.285200  0.418000  1.0  -0.1065
  C  C261  1  0.767600  0.251400  0.444200  1.0  -0.0791
  C  C262  1  0.832400  0.225500  0.443000  1.0  -0.0915
  C  C263  1  0.892200  0.233500  0.415600  1.0  -0.0757
  C  C264  1  0.123500  0.401500  0.265000  1.0  0.6857
  C  C265  1  0.836900  0.974100  0.365000  1.0  0.6836
  C  C266  1  0.815000  0.967600  0.411300  1.0  -0.1492
  C  C267  1  0.857600  0.986500  0.440200  1.0  -0.0168
  C  C268  1  0.834900  0.982300  0.479900  1.0  -0.1224
  C  C269  1  0.764800  0.960200  0.491000  1.0  0.0433
  C  C270  1  0.750200  0.942200  0.420900  1.0  -0.1029
  C  C271  1  0.742300  0.959900  0.532500  1.0  0.1574
  C  C272  1  0.782500  0.942600  0.563400  1.0  -0.1166
  C  C273  1  0.673500  0.976700  0.544000  1.0  0.1238
  C  C274  1  0.761200  0.942900  0.603300  1.0  -0.1197
  C  C275  1  0.648100  0.980000  0.584100  1.0  -0.0692
  C  C276  1  0.692400  0.963300  0.614200  1.0  -0.1382
  C  C277  1  0.672700  0.967300  0.659700  1.0  0.6618
  C  C278  1  0.595000  0.957000  0.483700  1.0  0.2468
  C  C279  1  0.503000  0.018100  0.455300  1.0  -0.0987
  C  C280  1  0.541000  0.980200  0.451200  1.0  -0.0749
  C  C281  1  0.539000  0.959400  0.414200  1.0  -0.0924
  C  C282  1  0.500000  0.976600  0.381300  1.0  -0.1028
  C  C283  1  0.462000  0.014500  0.385300  1.0  -0.0771
  C  C284  1  0.464000  0.035300  0.422300  1.0  -0.1135
  C  C285  1  0.726000  0.939700  0.459400  1.0  0.237
  C  C286  1  0.596000  0.920600  0.475000  1.0  0.2818
  C  C287  1  0.543000  0.888100  0.491200  1.0  -0.0795
  C  C288  1  0.551000  0.846000  0.481700  1.0  -0.1251
  C  C289  1  0.502000  0.817800  0.500400  1.0  -0.1339
  C  C290  1  0.445000  0.830300  0.529000  1.0  -0.0832
  C  C291  1  0.436000  0.872300  0.538000  1.0  -0.1278
  C  C292  1  0.489000  0.899900  0.518900  1.0  -0.0562
  C  C293  1  0.856000  0.012900  0.760300  1.0  0.6485
  C  C294  1  0.946900  0.011800  0.760100  1.0  -0.1439
  C  C295  1  0.985700  0.049000  0.768200  1.0  -0.1048
  C  C296  1  0.108400  0.012400  0.761400  1.0  -0.0586
  C  C297  1  0.068000  0.974400  0.756800  1.0  -0.098
  C  C298  1  0.986800  0.974400  0.755600  1.0  -0.0365
  C  C299  1  0.200100  0.011100  0.762400  1.0  -0.002
  C  C300  1  0.244200  0.032400  0.734300  1.0  0.2707
  C  C301  1  0.320200  0.027400  0.733500  1.0  -0.0128
  C  C302  1  0.358800  0.004700  0.764700  1.0  -0.1299
  C  C303  1  0.312400  0.984400  0.793400  1.0  -0.0178
  C  C304  1  0.235000  0.988600  0.793400  1.0  -0.1758
  C  C305  1  0.445600  0.999400  0.763200  1.0  0.7147
  C  C306  1  0.066900  0.048300  0.767400  1.0  0.1792
  C  C307  1  0.154500  0.103600  0.751000  1.0  -0.0033
  C  C308  1  0.198400  0.141900  0.761700  1.0  -0.0937
  C  C309  1  0.177400  0.164400  0.796000  1.0  -0.0612
  C  C310  1  0.220000  0.199300  0.807100  1.0  -0.1031
  C  C311  1  0.283600  0.211700  0.783900  1.0  -0.0882
  C  C312  1  0.304600  0.189100  0.749700  1.0  -0.108
  C  C313  1  0.262000  0.154200  0.738500  1.0  -0.0685
  C  C314  1  0.167500  0.084500  0.708300  1.0  0.1316
  C  C315  1  0.129100  0.109800  0.673900  1.0  -0.1243
  C  C316  1  0.071900  0.139400  0.681300  1.0  -0.0945
  C  C317  1  0.037400  0.160300  0.649000  1.0  -0.1112
  C  C318  1  0.060200  0.151700  0.609400  1.0  -0.0909
  C  C319  1  0.117500  0.122100  0.602000  1.0  -0.0934
  C  C320  1  0.152000  0.101200  0.634300  1.0  -0.0493
  C  C321  1  0.593000  0.893300  0.779900  1.0  0.6781
  C  C322  1  0.564900  0.847300  0.781900  1.0  -0.1322
  C  C323  1  0.575900  0.821200  0.746600  1.0  -0.0868
  C  C324  1  0.546700  0.782300  0.746500  1.0  -0.1379
  C  C325  1  0.504400  0.765800  0.780200  1.0  0.0316
  C  C326  1  0.495700  0.793100  0.814400  1.0  0.1759
  C  C327  1  0.524900  0.831100  0.814200  1.0  -0.0446
  C  C328  1  0.471100  0.724300  0.778500  1.0  0.0401
  C  C329  1  0.416300  0.713800  0.748800  1.0  -0.1405
  C  C330  1  0.386900  0.675200  0.744100  1.0  -0.0851
  C  C331  1  0.409500  0.643900  0.769800  1.0  -0.1558
  C  C332  1  0.463300  0.652200  0.798600  1.0  -0.0955
  C  C333  1  0.494700  0.691300  0.802500  1.0  0.2004
  C  C334  1  0.472800  0.746900  0.868600  1.0  0.2652
  C  C335  1  0.421600  0.728900  0.901100  1.0  -0.1129
  C  C336  1  0.433400  0.689600  0.917300  1.0  -0.0703
  C  C337  1  0.383000  0.674300  0.946800  1.0  -0.1233
  C  C338  1  0.320700  0.698400  0.960000  1.0  -0.0941
  C  C339  1  0.308900  0.737700  0.943700  1.0  -0.099
  C  C340  1  0.359300  0.753000  0.914300  1.0  -0.0425
  C  C341  1  0.545000  0.725800  0.860400  1.0  0.0824
  C  C342  1  0.612800  0.732700  0.889500  1.0  -0.1033
  C  C343  1  0.677600  0.706900  0.890700  1.0  -0.0494
  C  C344  1  0.737400  0.714800  0.918000  1.0  -0.1051
  C  C345  1  0.732400  0.748600  0.944200  1.0  -0.0789
  C  C346  1  0.667600  0.774500  0.943000  1.0  -0.0917
  C  C347  1  0.607800  0.766500  0.915600  1.0  -0.0758
  C  C348  1  0.376500  0.598500  0.765000  1.0  0.6851
  C  C349  1  0.663100  0.025900  0.865000  1.0  0.6842
  C  C350  1  0.685000  0.032400  0.911300  1.0  -0.1493
  C  C351  1  0.642400  0.013500  0.940200  1.0  -0.0157
  C  C352  1  0.665100  0.017700  0.979900  1.0  -0.1222
  C  C353  1  0.735200  0.039800  0.991000  1.0  0.0406
  C  C354  1  0.749800  0.057800  0.920900  1.0  -0.1029
  C  C355  1  0.757700  0.040100  0.032500  1.0  0.1571
  C  C356  1  0.717500  0.057400  0.063400  1.0  -0.1203
  C  C357  1  0.826500  0.023300  0.044000  1.0  0.1237
  C  C358  1  0.738800  0.057100  0.103300  1.0  -0.1203
  C  C359  1  0.851900  0.020000  0.084100  1.0  -0.0695
  C  C360  1  0.807600  0.036700  0.114200  1.0  -0.1385
  C  C361  1  0.827300  0.032700  0.159700  1.0  0.662
  C  C362  1  0.905000  0.043000  0.983700  1.0  0.2449
  C  C363  1  0.997000  0.981900  0.955300  1.0  -0.0993
  C  C364  1  0.959000  0.019800  0.951200  1.0  -0.0767
  C  C365  1  0.961000  0.040600  0.914200  1.0  -0.0911
  C  C366  1  0.000000  0.023400  0.881300  1.0  -0.1026
  C  C367  1  0.038000  0.985500  0.885300  1.0  -0.0762
  C  C368  1  0.036000  0.964700  0.922300  1.0  -0.1141
  C  C369  1  0.774000  0.060300  0.959400  1.0  0.2361
  C  C370  1  0.904000  0.079400  0.975000  1.0  0.2823
  C  C371  1  0.957000  0.111900  0.991200  1.0  -0.0786
  C  C372  1  0.949000  0.154000  0.981700  1.0  -0.1258
  C  C373  1  0.998000  0.182200  0.000400  1.0  -0.1266
  C  C374  1  0.055000  0.169700  0.029000  1.0  -0.0824
  C  C375  1  0.064000  0.127700  0.038000  1.0  -0.1262
  C  C376  1  0.011000  0.100100  0.018900  1.0  -0.0571
  C  C377  1  0.356000  0.487100  0.239700  1.0  0.6486
  C  C378  1  0.446900  0.488200  0.239900  1.0  -0.1427
  C  C379  1  0.485700  0.451000  0.231800  1.0  -0.106
  C  C380  1  0.608400  0.487600  0.238600  1.0  -0.0576
  C  C381  1  0.568000  0.525600  0.243200  1.0  -0.0986
  C  C382  1  0.486800  0.525600  0.244400  1.0  -0.0382
  C  C383  1  0.700100  0.488900  0.237600  1.0  -0.0011
  C  C384  1  0.744200  0.467600  0.265700  1.0  0.2711
  C  C385  1  0.820200  0.472600  0.266500  1.0  -0.0121
  C  C386  1  0.858800  0.495300  0.235300  1.0  -0.1301
  C  C387  1  0.812400  0.515600  0.206600  1.0  -0.0187
  C  C388  1  0.735000  0.511400  0.206600  1.0  -0.1765
  C  C389  1  0.945600  0.500600  0.236800  1.0  0.7147
  C  C390  1  0.566900  0.451700  0.232600  1.0  0.1794
  C  C391  1  0.654500  0.396400  0.249000  1.0  -0.0033
  C  C392  1  0.698400  0.358100  0.238300  1.0  -0.0921
  C  C393  1  0.677400  0.335600  0.204000  1.0  -0.0589
  C  C394  1  0.720000  0.300700  0.192900  1.0  -0.0998
  C  C395  1  0.783600  0.288300  0.216100  1.0  -0.0868
  C  C396  1  0.804600  0.310900  0.250300  1.0  -0.1074
  C  C397  1  0.762000  0.345800  0.261500  1.0  -0.0683
  C  C398  1  0.667500  0.415500  0.291700  1.0  0.1306
  C  C399  1  0.629100  0.390200  0.326100  1.0  -0.1243
  C  C400  1  0.571900  0.360600  0.318700  1.0  -0.0958
  C  C401  1  0.537400  0.339700  0.351000  1.0  -0.1101
  C  C402  1  0.560200  0.348300  0.390600  1.0  -0.0931
  C  C403  1  0.617500  0.377900  0.398000  1.0  -0.0943
  C  C404  1  0.652000  0.398800  0.365700  1.0  -0.0482
  C  C405  1  0.093000  0.606700  0.220100  1.0  0.6778
  C  C406  1  0.064900  0.652700  0.218100  1.0  -0.1332
  C  C407  1  0.075900  0.678800  0.253400  1.0  -0.0864
  C  C408  1  0.046700  0.717700  0.253500  1.0  -0.1382
  C  C409  1  0.004400  0.734200  0.219800  1.0  0.0319
  C  C410  1  0.995700  0.706900  0.185600  1.0  0.1754
  C  C411  1  0.024900  0.668900  0.185800  1.0  -0.0427
  C  C412  1  0.971100  0.775700  0.221500  1.0  0.0397
  C  C413  1  0.916300  0.786200  0.251200  1.0  -0.137
  C  C414  1  0.886900  0.824800  0.255900  1.0  -0.083
  C  C415  1  0.909500  0.856100  0.230200  1.0  -0.1558
  C  C416  1  0.963300  0.847800  0.201400  1.0  -0.094
  C  C417  1  0.994700  0.808700  0.197500  1.0  0.2003
  C  C418  1  0.972800  0.753100  0.131400  1.0  0.265
  C  C419  1  0.921600  0.771100  0.098900  1.0  -0.1123
  C  C420  1  0.933400  0.810400  0.082700  1.0  -0.0692
  C  C421  1  0.883000  0.825700  0.053200  1.0  -0.1205
  C  C422  1  0.820700  0.801600  0.040000  1.0  -0.096
  C  C423  1  0.808900  0.762300  0.056300  1.0  -0.0985
  C  C424  1  0.859300  0.747000  0.085700  1.0  -0.0392
  C  C425  1  0.045000  0.774200  0.139600  1.0  0.0822
  C  C426  1  0.112800  0.767300  0.110500  1.0  -0.1039
  C  C427  1  0.177600  0.793100  0.109300  1.0  -0.0486
  C  C428  1  0.237400  0.785200  0.082000  1.0  -0.1047
  C  C429  1  0.232400  0.751400  0.055800  1.0  -0.078
  C  C430  1  0.167600  0.725500  0.057000  1.0  -0.0919
  C  C431  1  0.107800  0.733500  0.084400  1.0  -0.0755
  C  C432  1  0.876500  0.901500  0.235000  1.0  0.685
  C  C433  1  0.163100  0.474100  0.135000  1.0  0.684
  C  C434  1  0.185000  0.467600  0.088700  1.0  -0.1505
  C  C435  1  0.142400  0.486500  0.059800  1.0  -0.0168
  C  C436  1  0.165100  0.482300  0.020100  1.0  -0.123
  C  C437  1  0.235200  0.460200  0.009000  1.0  0.0412
  C  C438  1  0.249800  0.442200  0.079100  1.0  -0.1051
  C  C439  1  0.257700  0.459900  0.967500  1.0  0.1579
  C  C440  1  0.217500  0.442600  0.936600  1.0  -0.1189
  C  C441  1  0.326500  0.476700  0.956000  1.0  0.124
  C  C442  1  0.238800  0.442900  0.896700  1.0  -0.1196
  C  C443  1  0.351900  0.480000  0.915900  1.0  -0.0695
  C  C444  1  0.307600  0.463300  0.885800  1.0  -0.1385
  C  C445  1  0.327300  0.467300  0.840300  1.0  0.6614
  C  C446  1  0.405000  0.457000  0.016300  1.0  0.2477
  C  C447  1  0.497000  0.518100  0.044700  1.0  -0.1009
  C  C448  1  0.459000  0.480200  0.048800  1.0  -0.0766
  C  C449  1  0.461000  0.459400  0.085800  1.0  -0.0903
  C  C450  1  0.500000  0.476600  0.118700  1.0  -0.1035
  C  C451  1  0.538000  0.514500  0.114700  1.0  -0.0759
  C  C452  1  0.536000  0.535300  0.077700  1.0  -0.1126
  C  C453  1  0.274000  0.439700  0.040600  1.0  0.2346
  C  C454  1  0.404000  0.420600  0.025000  1.0  0.2818
  C  C455  1  0.457000  0.388100  0.008800  1.0  -0.0794
  C  C456  1  0.449000  0.346000  0.018300  1.0  -0.1239
  C  C457  1  0.498000  0.317800  0.999600  1.0  -0.1352
  C  C458  1  0.555000  0.330300  0.971000  1.0  -0.0859
  C  C459  1  0.564000  0.372300  0.962000  1.0  -0.1267
  C  C460  1  0.511000  0.399900  0.981100  1.0  -0.0589
  C  C461  1  0.144000  0.512900  0.739700  1.0  0.6478
  C  C462  1  0.053100  0.511800  0.739900  1.0  -0.1434
  C  C463  1  0.014300  0.549000  0.731800  1.0  -0.1043
  C  C464  1  0.891600  0.512400  0.738600  1.0  -0.0579
  C  C465  1  0.932000  0.474400  0.743200  1.0  -0.0984
  C  C466  1  0.013200  0.474400  0.744400  1.0  -0.0369
  C  C467  1  0.799900  0.511100  0.737600  1.0  -0.003
  C  C468  1  0.755800  0.532400  0.765700  1.0  0.2715
  C  C469  1  0.679800  0.527400  0.766500  1.0  -0.0135
  C  C470  1  0.641200  0.504700  0.735300  1.0  -0.1297
  C  C471  1  0.687600  0.484400  0.706600  1.0  -0.0181
  C  C472  1  0.765000  0.488600  0.706600  1.0  -0.1753
  C  C473  1  0.554400  0.499400  0.736800  1.0  0.7155
  C  C474  1  0.933100  0.548300  0.732600  1.0  0.1794
  C  C475  1  0.845500  0.603600  0.749000  1.0  -0.0036
  C  C476  1  0.801600  0.641900  0.738300  1.0  -0.0936
  C  C477  1  0.822600  0.664400  0.704000  1.0  -0.0593
  C  C478  1  0.780000  0.699300  0.692900  1.0  -0.1007
  C  C479  1  0.716400  0.711700  0.716100  1.0  -0.0871
  C  C480  1  0.695400  0.689100  0.750300  1.0  -0.1089
  C  C481  1  0.738000  0.654200  0.761500  1.0  -0.0688
  C  C482  1  0.832500  0.584500  0.791700  1.0  0.1323
  C  C483  1  0.870900  0.609800  0.826100  1.0  -0.1244
  C  C484  1  0.928100  0.639400  0.818700  1.0  -0.0956
  C  C485  1  0.962600  0.660300  0.851000  1.0  -0.1093
  C  C486  1  0.939800  0.651700  0.890600  1.0  -0.0932
  C  C487  1  0.882500  0.622100  0.898000  1.0  -0.0946
  C  C488  1  0.848000  0.601200  0.865700  1.0  -0.0491
  C  C489  1  0.407000  0.393300  0.720100  1.0  0.6778
  C  C490  1  0.435100  0.347300  0.718100  1.0  -0.1326
  C  C491  1  0.424100  0.321200  0.753400  1.0  -0.0867
  C  C492  1  0.453300  0.282300  0.753500  1.0  -0.138
  C  C493  1  0.495600  0.265800  0.719800  1.0  0.0324
  C  C494  1  0.504300  0.293100  0.685600  1.0  0.1749
  C  C495  1  0.475100  0.331100  0.685800  1.0  -0.0426
  C  C496  1  0.528900  0.224300  0.721500  1.0  0.0411
  C  C497  1  0.583700  0.213800  0.751200  1.0  -0.1371
  C  C498  1  0.613100  0.175200  0.755900  1.0  -0.0826
  C  C499  1  0.590500  0.143900  0.730200  1.0  -0.1538
  C  C500  1  0.536700  0.152200  0.701400  1.0  -0.0953
  C  C501  1  0.505300  0.191300  0.697500  1.0  0.2018
  C  C502  1  0.527200  0.246900  0.631400  1.0  0.2644
  C  C503  1  0.578400  0.228900  0.598900  1.0  -0.1128
  C  C504  1  0.566600  0.189600  0.582700  1.0  -0.0689
  C  C505  1  0.617000  0.174300  0.553200  1.0  -0.1241
  C  C506  1  0.679300  0.198400  0.540000  1.0  -0.0953
  C  C507  1  0.691100  0.237700  0.556300  1.0  -0.0976
  C  C508  1  0.640700  0.253000  0.585700  1.0  -0.0431
  C  C509  1  0.455000  0.225800  0.639600  1.0  0.081
  C  C510  1  0.387200  0.232700  0.610500  1.0  -0.1029
  C  C511  1  0.322400  0.206900  0.609300  1.0  -0.048
  C  C512  1  0.262600  0.214800  0.582000  1.0  -0.106
  C  C513  1  0.267600  0.248600  0.555800  1.0  -0.0793
  C  C514  1  0.332400  0.274500  0.557000  1.0  -0.0927
  C  C515  1  0.392200  0.266500  0.584400  1.0  -0.0755
  C  C516  1  0.623500  0.098500  0.735000  1.0  0.6861
  C  C517  1  0.336900  0.525900  0.635000  1.0  0.685
  C  C518  1  0.315000  0.532400  0.588700  1.0  -0.1509
  C  C519  1  0.357600  0.513500  0.559800  1.0  -0.0179
  C  C520  1  0.334900  0.517700  0.520100  1.0  -0.122
  C  C521  1  0.264800  0.539800  0.509000  1.0  0.0439
  C  C522  1  0.250200  0.557800  0.579100  1.0  -0.1041
  C  C523  1  0.242300  0.540100  0.467500  1.0  0.1569
  C  C524  1  0.282500  0.557400  0.436600  1.0  -0.1161
  C  C525  1  0.173500  0.523300  0.456000  1.0  0.1246
  C  C526  1  0.261200  0.557100  0.396700  1.0  -0.1215
  C  C527  1  0.148100  0.520000  0.415900  1.0  -0.0685
  C  C528  1  0.192400  0.536700  0.385800  1.0  -0.1388
  C  C529  1  0.172700  0.532700  0.340300  1.0  0.6612
  C  C530  1  0.095000  0.543000  0.516300  1.0  0.2449
  C  C531  1  0.003000  0.481900  0.544700  1.0  -0.0987
  C  C532  1  0.041000  0.519800  0.548800  1.0  -0.0755
  C  C533  1  0.039000  0.540600  0.585800  1.0  -0.0916
  C  C534  1  0.000000  0.523400  0.618700  1.0  -0.1039
  C  C535  1  0.962000  0.485500  0.614700  1.0  -0.0767
  C  C536  1  0.964000  0.464700  0.577700  1.0  -0.1138
  C  C537  1  0.226000  0.560300  0.540600  1.0  0.2364
  C  C538  1  0.096000  0.579400  0.525000  1.0  0.2832
  C  C539  1  0.043000  0.611900  0.508800  1.0  -0.079
  C  C540  1  0.051000  0.654000  0.518300  1.0  -0.1266
  C  C541  1  0.002000  0.682200  0.499600  1.0  -0.1266
  C  C542  1  0.945000  0.669700  0.471000  1.0  -0.083
  C  C543  1  0.936000  0.627700  0.462000  1.0  -0.1264
  C  C544  1  0.989000  0.600100  0.481100  1.0  -0.0568
  N  N545  1  0.395800  0.913300  0.276600  1.0  -0.4128
  N  N546  1  0.670000  0.909200  0.469400  1.0  -0.3005
  N  N547  1  0.291000  0.946500  0.200200  1.0  -0.273
  N  N548  1  0.048300  0.221400  0.349200  1.0  -0.2947
  N  N549  1  0.945700  0.302500  0.330700  1.0  -0.4362
  N  N550  1  0.616000  0.986900  0.513400  1.0  -0.32
  N  N551  1  0.104200  0.086700  0.776600  1.0  -0.4152
  N  N552  1  0.830000  0.090800  0.969400  1.0  -0.3022
  N  N553  1  0.209000  0.053500  0.700200  1.0  -0.2759
  N  N554  1  0.451700  0.778600  0.849200  1.0  -0.2954
  N  N555  1  0.554300  0.697500  0.830700  1.0  -0.438
  N  N556  1  0.884000  0.013100  0.013400  1.0  -0.3193
  N  N557  1  0.604200  0.413300  0.223400  1.0  -0.4163
  N  N558  1  0.330000  0.409200  0.030600  1.0  -0.3016
  N  N559  1  0.709000  0.446500  0.299800  1.0  -0.2728
  N  N560  1  0.951700  0.721400  0.150800  1.0  -0.2955
  N  N561  1  0.054300  0.802500  0.169300  1.0  -0.4372
  N  N562  1  0.384000  0.486900  0.986600  1.0  -0.3202
  N  N563  1  0.895800  0.586700  0.723400  1.0  -0.4153
  N  N564  1  0.170000  0.590800  0.530600  1.0  -0.3014
  N  N565  1  0.791000  0.553500  0.799800  1.0  -0.273
  N  N566  1  0.548300  0.278600  0.650800  1.0  -0.2963
  N  N567  1  0.445700  0.197500  0.669300  1.0  -0.4385
  N  N568  1  0.116000  0.513100  0.486600  1.0  -0.3198
  O  O569  1  0.847200  0.006000  0.262300  1.0  -1.2107
  O  O570  1  0.672300  0.021300  0.248100  1.0  -0.6718
  O  O571  1  0.020600  0.993800  0.228800  1.0  -0.6056
  O  O572  1  0.678300  0.956300  0.272900  1.0  -0.569
  O  O573  1  0.020800  0.008800  0.295600  1.0  -0.6045
  O  O574  1  0.866100  0.096500  0.251600  1.0  -0.6093
  O  O575  1  0.928800  0.085200  0.310300  1.0  -0.5839
  O  O576  1  0.172000  0.406200  0.235800  1.0  -0.5973
  O  O577  1  0.094800  0.428200  0.287700  1.0  -0.5984
  O  O578  1  0.888600  0.001100  0.357000  1.0  -0.6152
  O  O579  1  0.794300  0.954400  0.339800  1.0  -0.6073
  O  O580  1  0.611200  0.990600  0.665900  1.0  -0.5787
  O  O581  1  0.713300  0.951100  0.684800  1.0  -0.5885
  O  O582  1  0.652800  0.994000  0.762300  1.0  -1.2124
  O  O583  1  0.827700  0.978700  0.748100  1.0  -0.6708
  O  O584  1  0.479400  0.006200  0.728800  1.0  -0.6059
  O  O585  1  0.821700  0.043700  0.772900  1.0  -0.5689
  O  O586  1  0.479200  0.991200  0.795600  1.0  -0.605
  O  O587  1  0.633900  0.903500  0.751600  1.0  -0.6092
  O  O588  1  0.571200  0.914800  0.810300  1.0  -0.5839
  O  O589  1  0.328000  0.593800  0.735800  1.0  -0.5983
  O  O590  1  0.405200  0.571800  0.787700  1.0  -0.599
  O  O591  1  0.611400  0.998900  0.857000  1.0  -0.6157
  O  O592  1  0.705700  0.045600  0.839800  1.0  -0.6071
  O  O593  1  0.888800  0.009400  0.165900  1.0  -0.5766
  O  O594  1  0.786700  0.048900  0.184800  1.0  -0.5877
  O  O595  1  0.152800  0.506000  0.237700  1.0  -1.2126
  O  O596  1  0.327700  0.521300  0.251900  1.0  -0.6722
  O  O597  1  0.979400  0.493800  0.271200  1.0  -0.607
  O  O598  1  0.321700  0.456300  0.227100  1.0  -0.568
  O  O599  1  0.979200  0.508800  0.204400  1.0  -0.603
  O  O600  1  0.133900  0.596500  0.248400  1.0  -0.6074
  O  O601  1  0.071200  0.585200  0.189700  1.0  -0.5816
  O  O602  1  0.828000  0.906200  0.264200  1.0  -0.5964
  O  O603  1  0.905200  0.928200  0.212300  1.0  -0.5998
  O  O604  1  0.111400  0.501100  0.143000  1.0  -0.6158
  O  O605  1  0.205700  0.454400  0.160200  1.0  -0.6067
  O  O606  1  0.388800  0.490600  0.834100  1.0  -0.5762
  O  O607  1  0.286700  0.451100  0.815200  1.0  -0.5879
  O  O608  1  0.347200  0.494000  0.737700  1.0  -1.2113
  O  O609  1  0.172300  0.478700  0.751900  1.0  -0.6711
  O  O610  1  0.520600  0.506200  0.771200  1.0  -0.6058
  O  O611  1  0.178300  0.543700  0.727100  1.0  -0.5689
  O  O612  1  0.520800  0.491200  0.704400  1.0  -0.6029
  O  O613  1  0.366100  0.403500  0.748400  1.0  -0.6078
  O  O614  1  0.428800  0.414800  0.689700  1.0  -0.5815
  O  O615  1  0.672000  0.093800  0.764200  1.0  -0.5962
  O  O616  1  0.594800  0.071800  0.712300  1.0  -0.5991
  O  O617  1  0.388600  0.498900  0.643000  1.0  -0.6146
  O  O618  1  0.294300  0.545600  0.660200  1.0  -0.6064
  O  O619  1  0.111200  0.509400  0.334100  1.0  -0.579
  O  O620  1  0.213300  0.548900  0.315200  1.0  -0.5886
