# generated using pymatgen
data_YP3C12(NO3)3
_symmetry_space_group_name_H-M   'P 1'
_cell_length_a   16.18950000
_cell_length_b   16.18950000
_cell_length_c   10.00360000
_cell_angle_alpha   90.00000000
_cell_angle_beta   90.00000000
_cell_angle_gamma   120.00000000
_symmetry_Int_Tables_number   1
_chemical_formula_structural   YP3C12(NO3)3
_chemical_formula_sum   'Y4 P12 C48 N12 O36'
_cell_volume   2270.66895271
_cell_formula_units_Z   4
loop_
 _symmetry_equiv_pos_site_id
 _symmetry_equiv_pos_as_xyz
  1  'x, y, z'
loop_
 _atom_site_type_symbol
 _atom_site_label
 _atom_site_symmetry_multiplicity
 _atom_site_fract_x
 _atom_site_fract_y
 _atom_site_fract_z
 _atom_site_occupancy
 _atom_site_charge
  Y  Y1  1  0.666667  0.333333  0.308100  1.0  2.1231
  Y  Y2  1  0.666667  0.333333  0.794700  1.0  2.1069
  Y  Y3  1  0.333333  0.666667  0.691900  1.0  2.1225
  Y  Y4  1  0.333333  0.666667  0.205300  1.0  2.1069
  P  P5  1  0.604200  0.451100  0.063200  1.0  1.5571
  P  P6  1  0.203600  0.471500  0.450500  1.0  1.5272
  P  P7  1  0.548900  0.153100  0.063200  1.0  1.5429
  P  P8  1  0.528500  0.732100  0.450500  1.0  1.5398
  P  P9  1  0.846900  0.395800  0.063200  1.0  1.5611
  P  P10  1  0.267900  0.796400  0.450500  1.0  1.5353
  P  P11  1  0.395800  0.548900  0.936800  1.0  1.5478
  P  P12  1  0.796400  0.528500  0.549500  1.0  1.5389
  P  P13  1  0.451100  0.846900  0.936800  1.0  1.5548
  P  P14  1  0.471500  0.267900  0.549500  1.0  1.5317
  P  P15  1  0.153100  0.604200  0.936800  1.0  1.5491
  P  P16  1  0.732100  0.203600  0.549500  1.0  1.525
  C  C17  1  0.475000  0.360000  0.089000  1.0  -0.0659
  C  C18  1  0.330600  0.294600  0.225800  1.0  0.0799
  C  C19  1  0.269300  0.316900  0.307400  1.0  0.0672
  C  C20  1  0.259300  0.399900  0.510100  1.0  -0.0691
  C  C21  1  0.411800  0.468100  0.379600  1.0  -0.0126
  C  C22  1  0.469000  0.455300  0.278700  1.0  0.011
  C  C23  1  0.189100  0.230100  0.366500  1.0  -0.0016
  C  C24  1  0.278100  0.240900  0.103600  1.0  -0.0032
  C  C25  1  0.640000  0.115000  0.089000  1.0  -0.0658
  C  C26  1  0.705400  0.036000  0.225800  1.0  0.0765
  C  C27  1  0.683100  0.952400  0.307400  1.0  0.0687
  C  C28  1  0.600100  0.859400  0.510100  1.0  -0.0668
  C  C29  1  0.531900  0.943700  0.379600  1.0  -0.0107
  C  C30  1  0.544700  0.013700  0.278700  1.0  0.0114
  C  C31  1  0.769900  0.959000  0.366500  1.0  0.0003
  C  C32  1  0.759100  0.037200  0.103600  1.0  -0.002
  C  C33  1  0.885000  0.525000  0.089000  1.0  -0.0656
  C  C34  1  0.964000  0.669400  0.225800  1.0  0.0799
  C  C35  1  0.047600  0.730700  0.307400  1.0  0.0684
  C  C36  1  0.140600  0.740700  0.510100  1.0  -0.0684
  C  C37  1  0.056300  0.588200  0.379600  1.0  -0.0101
  C  C38  1  0.986300  0.531000  0.278700  1.0  0.0108
  C  C39  1  0.041000  0.810900  0.366500  1.0  -0.0007
  C  C40  1  0.962800  0.721900  0.103600  1.0  -0.0028
  C  C41  1  0.525000  0.640000  0.911000  1.0  -0.0697
  C  C42  1  0.669400  0.705400  0.774200  1.0  0.075
  C  C43  1  0.730700  0.683100  0.692600  1.0  0.068
  C  C44  1  0.740700  0.600100  0.489900  1.0  -0.0656
  C  C45  1  0.588200  0.531900  0.620400  1.0  -0.0117
  C  C46  1  0.531000  0.544700  0.721300  1.0  0.0099
  C  C47  1  0.810900  0.769900  0.633500  1.0  -0.0003
  C  C48  1  0.721900  0.759100  0.896400  1.0  -0.0053
  C  C49  1  0.360000  0.885000  0.911000  1.0  -0.0682
  C  C50  1  0.294600  0.964000  0.774200  1.0  0.078
  C  C51  1  0.316900  0.047600  0.692600  1.0  0.068
  C  C52  1  0.399900  0.140600  0.489900  1.0  -0.0657
  C  C53  1  0.468100  0.056300  0.620400  1.0  -0.0096
  C  C54  1  0.455300  0.986300  0.721300  1.0  0.0105
  C  C55  1  0.230100  0.041000  0.633500  1.0  0.0079
  C  C56  1  0.240900  0.962800  0.896400  1.0  -0.0063
  C  C57  1  0.115000  0.475000  0.911000  1.0  -0.0692
  C  C58  1  0.036000  0.330600  0.774200  1.0  0.0764
  C  C59  1  0.952400  0.269300  0.692600  1.0  0.0699
  C  C60  1  0.859400  0.259300  0.489900  1.0  -0.0658
  C  C61  1  0.943700  0.411800  0.620400  1.0  -0.0085
  C  C62  1  0.013700  0.469000  0.721300  1.0  0.0106
  C  C63  1  0.959000  0.189100  0.633500  1.0  -0.0004
  C  C64  1  0.037200  0.278100  0.896400  1.0  -0.0055
  N  N65  1  0.415900  0.383900  0.177100  1.0  -0.0577
  N  N66  1  0.322100  0.383500  0.417400  1.0  -0.0187
  N  N67  1  0.616100  0.032000  0.177100  1.0  -0.059
  N  N68  1  0.616500  0.938600  0.417400  1.0  -0.0179
  N  N69  1  0.968000  0.584100  0.177100  1.0  -0.0574
  N  N70  1  0.061400  0.677900  0.417400  1.0  -0.0187
  N  N71  1  0.584100  0.616100  0.822900  1.0  -0.0576
  N  N72  1  0.677900  0.616500  0.582600  1.0  -0.0196
  N  N73  1  0.383900  0.968000  0.822900  1.0  -0.058
  N  N74  1  0.383500  0.061400  0.582600  1.0  -0.0196
  N  N75  1  0.032000  0.415900  0.822900  1.0  -0.0573
  N  N76  1  0.938600  0.322100  0.582600  1.0  -0.0195
  O  O77  1  0.658400  0.441400  0.174000  1.0  -0.7873
  O  O78  1  0.635900  0.427400  0.937300  1.0  -0.8641
  O  O79  1  0.621900  0.551800  0.059100  1.0  -0.5588
  O  O80  1  0.215800  0.540500  0.560000  1.0  -0.8518
  O  O81  1  0.250700  0.524500  0.329000  1.0  -0.7392
  O  O82  1  0.101300  0.401800  0.427800  1.0  -0.628
  O  O83  1  0.558600  0.217000  0.174000  1.0  -0.7865
  O  O84  1  0.572600  0.208500  0.937300  1.0  -0.8636
  O  O85  1  0.448200  0.070100  0.059100  1.0  -0.5564
  O  O86  1  0.459500  0.675300  0.560000  1.0  -0.8529
  O  O87  1  0.475500  0.726200  0.329000  1.0  -0.7407
  O  O88  1  0.598200  0.699500  0.427800  1.0  -0.6266
  O  O89  1  0.783000  0.341600  0.174000  1.0  -0.7878
  O  O90  1  0.791500  0.364100  0.937300  1.0  -0.8639
  O  O91  1  0.929900  0.378100  0.059100  1.0  -0.5577
  O  O92  1  0.324700  0.784200  0.560000  1.0  -0.8517
  O  O93  1  0.273800  0.749300  0.329000  1.0  -0.7395
  O  O94  1  0.300500  0.898700  0.427800  1.0  -0.6272
  O  O95  1  0.341600  0.558600  0.826000  1.0  -0.7859
  O  O96  1  0.364100  0.572600  0.062700  1.0  -0.8654
  O  O97  1  0.378100  0.448200  0.940900  1.0  -0.5597
  O  O98  1  0.784200  0.459500  0.440000  1.0  -0.8499
  O  O99  1  0.749300  0.475500  0.671000  1.0  -0.7383
  O  O100  1  0.898700  0.598200  0.572200  1.0  -0.6291
  O  O101  1  0.441400  0.783000  0.826000  1.0  -0.7848
  O  O102  1  0.427400  0.791500  0.062700  1.0  -0.8635
  O  O103  1  0.551800  0.929900  0.940900  1.0  -0.558
  O  O104  1  0.540500  0.324700  0.440000  1.0  -0.8503
  O  O105  1  0.524500  0.273800  0.671000  1.0  -0.7405
  O  O106  1  0.401800  0.300500  0.572200  1.0  -0.6241
  O  O107  1  0.217000  0.658400  0.826000  1.0  -0.7876
  O  O108  1  0.208500  0.635900  0.062700  1.0  -0.8668
  O  O109  1  0.070100  0.621900  0.940900  1.0  -0.5554
  O  O110  1  0.675300  0.215800  0.440000  1.0  -0.8498
  O  O111  1  0.726200  0.250700  0.671000  1.0  -0.7394
  O  O112  1  0.699500  0.101300  0.572200  1.0  -0.6283
