# generated using pymatgen
data_AgPH27(C11N2)3
_symmetry_space_group_name_H-M   'P 1'
_cell_length_a   15.65970000
_cell_length_b   15.65970000
_cell_length_c   15.65970000
_cell_angle_alpha   90.00000000
_cell_angle_beta   90.00000000
_cell_angle_gamma   90.00000000
_symmetry_Int_Tables_number   1
_chemical_formula_structural   AgPH27(C11N2)3
_chemical_formula_sum   'Ag4 P4 H108 C132 N24'
_cell_volume   3840.16878819
_cell_formula_units_Z   4
loop_
 _symmetry_equiv_pos_site_id
 _symmetry_equiv_pos_as_xyz
  1  'x, y, z'
loop_
 _atom_site_type_symbol
 _atom_site_label
 _atom_site_symmetry_multiplicity
 _atom_site_fract_x
 _atom_site_fract_y
 _atom_site_fract_z
 _atom_site_occupancy
 _atom_site_charge
  Ag  Ag1  1  0.702140  0.297860  0.797860  1.0  0.2432
  Ag  Ag2  1  0.797860  0.702140  0.297860  1.0  0.2438
  Ag  Ag3  1  0.297860  0.797860  0.702140  1.0  0.2439
  Ag  Ag4  1  0.202140  0.202140  0.202140  1.0  0.2434
  P  P5  1  0.612280  0.387720  0.887720  1.0  0.9144
  P  P6  1  0.887720  0.612280  0.387720  1.0  0.9161
  P  P7  1  0.387720  0.887720  0.612280  1.0  0.9135
  P  P8  1  0.112280  0.112280  0.112280  1.0  0.916
  H  H9  1  0.477600  0.186400  0.431800  1.0  0.0988
  H  H10  1  0.608500  0.571200  0.930500  1.0  0.0704
  H  H11  1  0.753600  0.373200  0.996000  1.0  0.0887
  H  H12  1  0.691000  0.658700  0.013900  1.0  0.0885
  H  H13  1  0.803200  0.603900  0.089700  1.0  0.0818
  H  H14  1  0.832300  0.463100  0.082800  1.0  0.0739
  H  H15  1  0.704200  0.183000  0.606400  1.0  0.0743
  H  H16  1  0.514000  0.318600  0.691100  1.0  0.0769
  H  H17  1  0.464400  0.247200  0.563400  1.0  0.1068
  H  H18  1  0.022400  0.813600  0.931800  1.0  0.0983
  H  H19  1  0.891500  0.428800  0.430500  1.0  0.0697
  H  H20  1  0.746400  0.626800  0.496000  1.0  0.0884
  H  H21  1  0.809000  0.341300  0.513900  1.0  0.0891
  H  H22  1  0.696800  0.396100  0.589700  1.0  0.0817
  H  H23  1  0.667700  0.536900  0.582800  1.0  0.0739
  H  H24  1  0.795800  0.817000  0.106400  1.0  0.0748
  H  H25  1  0.986000  0.681400  0.191100  1.0  0.0767
  H  H26  1  0.035600  0.752800  0.063400  1.0  0.106
  H  H27  1  0.522400  0.686400  0.068200  1.0  0.0982
  H  H28  1  0.391500  0.071200  0.569500  1.0  0.0698
  H  H29  1  0.246400  0.873200  0.504000  1.0  0.0885
  H  H30  1  0.309000  0.158700  0.486100  1.0  0.088
  H  H31  1  0.196800  0.103900  0.410300  1.0  0.0819
  H  H32  1  0.167700  0.963100  0.417200  1.0  0.0738
  H  H33  1  0.295800  0.683000  0.893600  1.0  0.0752
  H  H34  1  0.486000  0.818600  0.808900  1.0  0.0764
  H  H35  1  0.535600  0.747200  0.936600  1.0  0.1065
  H  H36  1  0.977600  0.313600  0.568200  1.0  0.0983
  H  H37  1  0.108500  0.928800  0.069500  1.0  0.0701
  H  H38  1  0.253600  0.126800  0.004000  1.0  0.0888
  H  H39  1  0.191000  0.841300  0.986100  1.0  0.0888
  H  H40  1  0.303200  0.896100  0.910300  1.0  0.0818
  H  H41  1  0.332300  0.036900  0.917200  1.0  0.0735
  H  H42  1  0.204200  0.317000  0.393600  1.0  0.0747
  H  H43  1  0.014000  0.181400  0.308900  1.0  0.0762
  H  H44  1  0.964400  0.252800  0.436600  1.0  0.1067
  H  H45  1  0.431800  0.477600  0.186400  1.0  0.1009
  H  H46  1  0.930500  0.608500  0.571200  1.0  0.0702
  H  H47  1  0.996000  0.753600  0.373200  1.0  0.0872
  H  H48  1  0.013900  0.691000  0.658700  1.0  0.0888
  H  H49  1  0.089700  0.803200  0.603900  1.0  0.081
  H  H50  1  0.082800  0.832300  0.463100  1.0  0.0737
  H  H51  1  0.606400  0.704200  0.183000  1.0  0.0753
  H  H52  1  0.691100  0.514000  0.318600  1.0  0.0769
  H  H53  1  0.563400  0.464400  0.247200  1.0  0.1067
  H  H54  1  0.931800  0.022400  0.813600  1.0  0.0999
  H  H55  1  0.430500  0.891500  0.428800  1.0  0.0706
  H  H56  1  0.496000  0.746400  0.626800  1.0  0.0876
  H  H57  1  0.513900  0.809000  0.341300  1.0  0.0891
  H  H58  1  0.589700  0.696800  0.396100  1.0  0.0811
  H  H59  1  0.582800  0.667700  0.536900  1.0  0.0734
  H  H60  1  0.106400  0.795800  0.817000  1.0  0.0754
  H  H61  1  0.191100  0.986000  0.681400  1.0  0.0773
  H  H62  1  0.063400  0.035600  0.752800  1.0  0.1063
  H  H63  1  0.068200  0.522400  0.686400  1.0  0.1004
  H  H64  1  0.569500  0.391500  0.071200  1.0  0.0706
  H  H65  1  0.504000  0.246400  0.873200  1.0  0.0874
  H  H66  1  0.486100  0.309000  0.158700  1.0  0.0887
  H  H67  1  0.410300  0.196800  0.103900  1.0  0.0815
  H  H68  1  0.417200  0.167700  0.963100  1.0  0.0734
  H  H69  1  0.893600  0.295800  0.683000  1.0  0.0749
  H  H70  1  0.808900  0.486000  0.818600  1.0  0.0762
  H  H71  1  0.936600  0.535600  0.747200  1.0  0.1065
  H  H72  1  0.568200  0.977600  0.313600  1.0  0.1002
  H  H73  1  0.069500  0.108500  0.928800  1.0  0.0716
  H  H74  1  0.004000  0.253600  0.126800  1.0  0.0872
  H  H75  1  0.986100  0.191000  0.841300  1.0  0.0893
  H  H76  1  0.910300  0.303200  0.896100  1.0  0.082
  H  H77  1  0.917200  0.332300  0.036900  1.0  0.0738
  H  H78  1  0.393600  0.204200  0.317000  1.0  0.0753
  H  H79  1  0.308900  0.014000  0.181400  1.0  0.0767
  H  H80  1  0.436600  0.964400  0.252800  1.0  0.1066
  H  H81  1  0.186400  0.431800  0.477600  1.0  0.0988
  H  H82  1  0.571200  0.930500  0.608500  1.0  0.0715
  H  H83  1  0.373200  0.996000  0.753600  1.0  0.0909
  H  H84  1  0.658700  0.013900  0.691000  1.0  0.0889
  H  H85  1  0.603900  0.089700  0.803200  1.0  0.0823
  H  H86  1  0.463100  0.082800  0.832300  1.0  0.0743
  H  H87  1  0.183000  0.606400  0.704200  1.0  0.0749
  H  H88  1  0.318600  0.691100  0.514000  1.0  0.0783
  H  H89  1  0.247200  0.563400  0.464400  1.0  0.1052
  H  H90  1  0.813600  0.931800  0.022400  1.0  0.0987
  H  H91  1  0.428800  0.430500  0.891500  1.0  0.0706
  H  H92  1  0.626800  0.496000  0.746400  1.0  0.0901
  H  H93  1  0.341300  0.513900  0.809000  1.0  0.0885
  H  H94  1  0.396100  0.589700  0.696800  1.0  0.0826
  H  H95  1  0.536900  0.582800  0.667700  1.0  0.0742
  H  H96  1  0.817000  0.106400  0.795800  1.0  0.0738
  H  H97  1  0.681400  0.191100  0.986000  1.0  0.0783
  H  H98  1  0.752800  0.063400  0.035600  1.0  0.1052
  H  H99  1  0.686400  0.068200  0.522400  1.0  0.0988
  H  H100  1  0.071200  0.569500  0.391500  1.0  0.0713
  H  H101  1  0.873200  0.504000  0.246400  1.0  0.0908
  H  H102  1  0.158700  0.486100  0.309000  1.0  0.0887
  H  H103  1  0.103900  0.410300  0.196800  1.0  0.0826
  H  H104  1  0.963100  0.417200  0.167700  1.0  0.0743
  H  H105  1  0.683000  0.893600  0.295800  1.0  0.0738
  H  H106  1  0.818600  0.808900  0.486000  1.0  0.0783
  H  H107  1  0.747200  0.936600  0.535600  1.0  0.1048
  H  H108  1  0.313600  0.568200  0.977600  1.0  0.0992
  H  H109  1  0.928800  0.069500  0.108500  1.0  0.0716
  H  H110  1  0.126800  0.004000  0.253600  1.0  0.091
  H  H111  1  0.841300  0.986100  0.191000  1.0  0.0882
  H  H112  1  0.896100  0.910300  0.303200  1.0  0.0828
  H  H113  1  0.036900  0.917200  0.332300  1.0  0.0742
  H  H114  1  0.317000  0.393600  0.204200  1.0  0.0747
  H  H115  1  0.181400  0.308900  0.014000  1.0  0.0781
  H  H116  1  0.252800  0.436600  0.964400  1.0  0.1052
  C  C117  1  0.582700  0.136640  0.487150  1.0  0.132
  C  C118  1  0.517600  0.142700  0.428200  1.0  -0.2505
  C  C119  1  0.671500  0.463000  0.954000  1.0  -0.1602
  C  C120  1  0.654300  0.548300  0.960600  1.0  -0.0862
  C  C121  1  0.739700  0.430800  0.999600  1.0  -0.1071
  C  C122  1  0.703400  0.600700  0.010800  1.0  -0.1053
  C  C123  1  0.769900  0.568300  0.055700  1.0  -0.0584
  C  C124  1  0.787300  0.485200  0.051000  1.0  -0.0723
  C  C125  1  0.650640  0.208000  0.612070  1.0  0.1243
  C  C126  1  0.546500  0.281800  0.657600  1.0  0.0006
  C  C127  1  0.518500  0.242700  0.587400  1.0  -0.1768
  C  C128  1  0.917300  0.863360  0.987150  1.0  0.1301
  C  C129  1  0.982400  0.857300  0.928200  1.0  -0.2533
  C  C130  1  0.828500  0.537000  0.454000  1.0  -0.1596
  C  C131  1  0.845700  0.451700  0.460600  1.0  -0.0871
  C  C132  1  0.760300  0.569200  0.499600  1.0  -0.1065
  C  C133  1  0.796600  0.399300  0.510800  1.0  -0.1065
  C  C134  1  0.730100  0.431700  0.555700  1.0  -0.0584
  C  C135  1  0.712700  0.514800  0.551000  1.0  -0.0723
  C  C136  1  0.849360  0.792000  0.112070  1.0  0.1243
  C  C137  1  0.953500  0.718200  0.157600  1.0  0.004
  C  C138  1  0.981500  0.757300  0.087400  1.0  -0.1763
  C  C139  1  0.417300  0.636640  0.012850  1.0  0.1315
  C  C140  1  0.482400  0.642700  0.071800  1.0  -0.2509
  C  C141  1  0.328500  0.963000  0.546000  1.0  -0.1595
  C  C142  1  0.345700  0.048300  0.539400  1.0  -0.0853
  C  C143  1  0.260300  0.930800  0.500400  1.0  -0.1068
  C  C144  1  0.296600  0.100700  0.489200  1.0  -0.1072
  C  C145  1  0.230100  0.068300  0.444300  1.0  -0.0587
  C  C146  1  0.212700  0.985200  0.449000  1.0  -0.0736
  C  C147  1  0.349360  0.708000  0.887930  1.0  0.1243
  C  C148  1  0.453500  0.781800  0.842400  1.0  0.0013
  C  C149  1  0.481500  0.742700  0.912600  1.0  -0.1761
  C  C150  1  0.082700  0.363360  0.512850  1.0  0.132
  C  C151  1  0.017600  0.357300  0.571800  1.0  -0.2532
  C  C152  1  0.171500  0.037000  0.046000  1.0  -0.1606
  C  C153  1  0.154300  0.951700  0.039400  1.0  -0.0856
  C  C154  1  0.239700  0.069200  0.000400  1.0  -0.108
  C  C155  1  0.203400  0.899300  0.989200  1.0  -0.1059
  C  C156  1  0.269900  0.931700  0.944300  1.0  -0.0567
  C  C157  1  0.287300  0.014800  0.949000  1.0  -0.0721
  C  C158  1  0.150640  0.292000  0.387930  1.0  0.1238
  C  C159  1  0.046500  0.218200  0.342400  1.0  0.0022
  C  C160  1  0.018500  0.257300  0.412600  1.0  -0.1767
  C  C161  1  0.487150  0.582700  0.136640  1.0  0.1289
  C  C162  1  0.428200  0.517600  0.142700  1.0  -0.25
  C  C163  1  0.954000  0.671500  0.463000  1.0  -0.1592
  C  C164  1  0.960600  0.654300  0.548300  1.0  -0.0873
  C  C165  1  0.999600  0.739700  0.430800  1.0  -0.1068
  C  C166  1  0.010800  0.703400  0.600700  1.0  -0.1045
  C  C167  1  0.055700  0.769900  0.568300  1.0  -0.0567
  C  C168  1  0.051000  0.787300  0.485200  1.0  -0.0728
  C  C169  1  0.612070  0.650640  0.208000  1.0  0.1252
  C  C170  1  0.657600  0.546500  0.281800  1.0  -0.0007
  C  C171  1  0.587400  0.518500  0.242700  1.0  -0.1794
  C  C172  1  0.987150  0.917300  0.863360  1.0  0.1285
  C  C173  1  0.928200  0.982400  0.857300  1.0  -0.2501
  C  C174  1  0.454000  0.828500  0.537000  1.0  -0.1594
  C  C175  1  0.460600  0.845700  0.451700  1.0  -0.0876
  C  C176  1  0.499600  0.760300  0.569200  1.0  -0.108
  C  C177  1  0.510800  0.796600  0.399300  1.0  -0.103
  C  C178  1  0.555700  0.730100  0.431700  1.0  -0.0571
  C  C179  1  0.551000  0.712700  0.514800  1.0  -0.0725
  C  C180  1  0.112070  0.849360  0.792000  1.0  0.1249
  C  C181  1  0.157600  0.953500  0.718200  1.0  0.0005
  C  C182  1  0.087400  0.981500  0.757300  1.0  -0.1788
  C  C183  1  0.012850  0.417300  0.636640  1.0  0.13
  C  C184  1  0.071800  0.482400  0.642700  1.0  -0.2485
  C  C185  1  0.546000  0.328500  0.963000  1.0  -0.1573
  C  C186  1  0.539400  0.345700  0.048300  1.0  -0.088
  C  C187  1  0.500400  0.260300  0.930800  1.0  -0.1061
  C  C188  1  0.489200  0.296600  0.100700  1.0  -0.103
  C  C189  1  0.444300  0.230100  0.068300  1.0  -0.0553
  C  C190  1  0.449000  0.212700  0.985200  1.0  -0.0721
  C  C191  1  0.887930  0.349360  0.708000  1.0  0.1246
  C  C192  1  0.842400  0.453500  0.781800  1.0  -0.0018
  C  C193  1  0.912600  0.481500  0.742700  1.0  -0.1778
  C  C194  1  0.512850  0.082700  0.363360  1.0  0.13
  C  C195  1  0.571800  0.017600  0.357300  1.0  -0.2514
  C  C196  1  0.046000  0.171500  0.037000  1.0  -0.158
  C  C197  1  0.039400  0.154300  0.951700  1.0  -0.0881
  C  C198  1  0.000400  0.239700  0.069200  1.0  -0.1086
  C  C199  1  0.989200  0.203400  0.899300  1.0  -0.1034
  C  C200  1  0.944300  0.269900  0.931700  1.0  -0.0564
  C  C201  1  0.949000  0.287300  0.014800  1.0  -0.0711
  C  C202  1  0.387930  0.150640  0.292000  1.0  0.1247
  C  C203  1  0.342400  0.046500  0.218200  1.0  -0.0005
  C  C204  1  0.412600  0.018500  0.257300  1.0  -0.177
  C  C205  1  0.136640  0.487150  0.582700  1.0  0.1331
  C  C206  1  0.142700  0.428200  0.517600  1.0  -0.2509
  C  C207  1  0.463000  0.954000  0.671500  1.0  -0.1586
  C  C208  1  0.548300  0.960600  0.654300  1.0  -0.088
  C  C209  1  0.430800  0.999600  0.739700  1.0  -0.1047
  C  C210  1  0.600700  0.010800  0.703400  1.0  -0.106
  C  C211  1  0.568300  0.055700  0.769900  1.0  -0.0612
  C  C212  1  0.485200  0.051000  0.787300  1.0  -0.076
  C  C213  1  0.208000  0.612070  0.650640  1.0  0.1273
  C  C214  1  0.281800  0.657600  0.546500  1.0  -0.0003
  C  C215  1  0.242700  0.587400  0.518500  1.0  -0.1734
  C  C216  1  0.863360  0.987150  0.917300  1.0  0.1331
  C  C217  1  0.857300  0.928200  0.982400  1.0  -0.2534
  C  C218  1  0.537000  0.454000  0.828500  1.0  -0.1584
  C  C219  1  0.451700  0.460600  0.845700  1.0  -0.0874
  C  C220  1  0.569200  0.499600  0.760300  1.0  -0.1089
  C  C221  1  0.399300  0.510800  0.796600  1.0  -0.1063
  C  C222  1  0.431700  0.555700  0.730100  1.0  -0.0605
  C  C223  1  0.514800  0.551000  0.712700  1.0  -0.0775
  C  C224  1  0.792000  0.112070  0.849360  1.0  0.1266
  C  C225  1  0.718200  0.157600  0.953500  1.0  0.0007
  C  C226  1  0.757300  0.087400  0.981500  1.0  -0.1731
  C  C227  1  0.636640  0.012850  0.417300  1.0  0.1343
  C  C228  1  0.642700  0.071800  0.482400  1.0  -0.2505
  C  C229  1  0.963000  0.546000  0.328500  1.0  -0.1589
  C  C230  1  0.048300  0.539400  0.345700  1.0  -0.0885
  C  C231  1  0.930800  0.500400  0.260300  1.0  -0.1061
  C  C232  1  0.100700  0.489200  0.296600  1.0  -0.1068
  C  C233  1  0.068300  0.444300  0.230100  1.0  -0.0608
  C  C234  1  0.985200  0.449000  0.212700  1.0  -0.0766
  C  C235  1  0.708000  0.887930  0.349360  1.0  0.127
  C  C236  1  0.781800  0.842400  0.453500  1.0  1e-04
  C  C237  1  0.742700  0.912600  0.481500  1.0  -0.1729
  C  C238  1  0.363360  0.512850  0.082700  1.0  0.1338
  C  C239  1  0.357300  0.571800  0.017600  1.0  -0.254
  C  C240  1  0.037000  0.046000  0.171500  1.0  -0.1589
  C  C241  1  0.951700  0.039400  0.154300  1.0  -0.0878
  C  C242  1  0.069200  0.000400  0.239700  1.0  -0.1081
  C  C243  1  0.899300  0.989200  0.203400  1.0  -0.1056
  C  C244  1  0.931700  0.944300  0.269900  1.0  -0.062
  C  C245  1  0.014800  0.949000  0.287300  1.0  -0.0773
  C  C246  1  0.292000  0.387930  0.150640  1.0  0.1267
  C  C247  1  0.218200  0.342400  0.046500  1.0  -0.0002
  C  C248  1  0.257300  0.412600  0.018500  1.0  -0.1731
  N  N249  1  0.585260  0.194510  0.557290  1.0  0.0148
  N  N250  1  0.630110  0.260150  0.673780  1.0  -0.399
  N  N251  1  0.914740  0.805490  0.057290  1.0  0.0143
  N  N252  1  0.869890  0.739850  0.173780  1.0  -0.3999
  N  N253  1  0.414740  0.694510  0.942710  1.0  0.0135
  N  N254  1  0.369890  0.760150  0.826220  1.0  -0.399
  N  N255  1  0.085260  0.305490  0.442710  1.0  0.0147
  N  N256  1  0.130110  0.239850  0.326220  1.0  -0.3993
  N  N257  1  0.557290  0.585260  0.194510  1.0  0.0149
  N  N258  1  0.673780  0.630110  0.260150  1.0  -0.4025
  N  N259  1  0.057290  0.914740  0.805490  1.0  0.0147
  N  N260  1  0.173780  0.869890  0.739850  1.0  -0.4015
  N  N261  1  0.942710  0.414740  0.694510  1.0  0.0148
  N  N262  1  0.826220  0.369890  0.760150  1.0  -0.401
  N  N263  1  0.442710  0.085260  0.305490  1.0  0.0146
  N  N264  1  0.326220  0.130110  0.239850  1.0  -0.3999
  N  N265  1  0.194510  0.557290  0.585260  1.0  0.0142
  N  N266  1  0.260150  0.673780  0.630110  1.0  -0.4024
  N  N267  1  0.805490  0.057290  0.914740  1.0  0.0145
  N  N268  1  0.739850  0.173780  0.869890  1.0  -0.4019
  N  N269  1  0.694510  0.942710  0.414740  1.0  0.0155
  N  N270  1  0.760150  0.826220  0.369890  1.0  -0.4013
  N  N271  1  0.305490  0.442710  0.085260  1.0  0.015
  N  N272  1  0.239850  0.326220  0.130110  1.0  -0.4026
