# generated using pymatgen
data_YH3(C3O2)3
_symmetry_space_group_name_H-M   'P 1'
_cell_length_a   8.83260000
_cell_length_b   10.15900000
_cell_length_c   13.97900000
_cell_angle_alpha   90.00000000
_cell_angle_beta   90.00000000
_cell_angle_gamma   90.00000000
_symmetry_Int_Tables_number   1
_chemical_formula_structural   YH3(C3O2)3
_chemical_formula_sum   'Y4 H12 C36 O24'
_cell_volume   1254.34102955
_cell_formula_units_Z   4
loop_
 _symmetry_equiv_pos_site_id
 _symmetry_equiv_pos_as_xyz
  1  'x, y, z'
loop_
 _atom_site_type_symbol
 _atom_site_label
 _atom_site_symmetry_multiplicity
 _atom_site_fract_x
 _atom_site_fract_y
 _atom_site_fract_z
 _atom_site_occupancy
 _atom_site_charge
  Y  Y1  1  0.749890  0.499930  0.886790  1.0  2.0856
  Y  Y2  1  0.750110  0.999930  0.613210  1.0  2.0862
  Y  Y3  1  0.250110  0.500070  0.113210  1.0  2.0863
  Y  Y4  1  0.249890  0.000070  0.386790  1.0  2.0857
  H  H5  1  0.402100  0.656800  0.877200  1.0  0.1015
  H  H6  1  0.008100  0.750300  0.751200  1.0  0.1001
  H  H7  1  0.402300  0.842800  0.622100  1.0  0.1053
  H  H8  1  0.097900  0.156800  0.622800  1.0  0.1009
  H  H9  1  0.491900  0.250300  0.748800  1.0  0.1015
  H  H10  1  0.097700  0.342800  0.877900  1.0  0.1032
  H  H11  1  0.597900  0.343200  0.122800  1.0  0.1012
  H  H12  1  0.991900  0.249700  0.248800  1.0  0.1014
  H  H13  1  0.597700  0.157200  0.377900  1.0  0.1057
  H  H14  1  0.902100  0.843200  0.377200  1.0  0.1011
  H  H15  1  0.508100  0.749700  0.251200  1.0  0.1
  H  H16  1  0.902300  0.657200  0.122100  1.0  0.1032
  C  C17  1  0.106100  0.636300  0.907900  1.0  0.8072
  C  C18  1  0.191200  0.695900  0.826700  1.0  -0.1833
  C  C19  1  0.349100  0.695200  0.827000  1.0  0.0242
  C  C20  1  0.426500  0.753300  0.750400  1.0  -0.1888
  C  C21  1  0.106100  0.865800  0.591400  1.0  0.8064
  C  C22  1  0.192400  0.803200  0.673800  1.0  -0.1832
  C  C23  1  0.113400  0.749600  0.751000  1.0  0.0346
  C  C24  1  0.349800  0.806200  0.673200  1.0  0.038
  C  C25  1  0.598000  0.759000  0.755800  1.0  0.777
  C  C26  1  0.393900  0.136300  0.592100  1.0  0.8058
  C  C27  1  0.308800  0.195900  0.673300  1.0  -0.1856
  C  C28  1  0.150900  0.195200  0.673000  1.0  0.0243
  C  C29  1  0.073500  0.253300  0.749600  1.0  -0.1892
  C  C30  1  0.393900  0.365800  0.908600  1.0  0.8066
  C  C31  1  0.307600  0.303200  0.826200  1.0  -0.1821
  C  C32  1  0.386600  0.249600  0.749000  1.0  0.0358
  C  C33  1  0.150200  0.306200  0.826800  1.0  0.0381
  C  C34  1  0.902000  0.259000  0.744200  1.0  0.7794
  C  C35  1  0.893900  0.363700  0.092100  1.0  0.806
  C  C36  1  0.808800  0.304100  0.173300  1.0  -0.1864
  C  C37  1  0.650900  0.304800  0.173000  1.0  0.0253
  C  C38  1  0.573500  0.246700  0.249600  1.0  -0.1892
  C  C39  1  0.893900  0.134200  0.408600  1.0  0.8061
  C  C40  1  0.807600  0.196800  0.326200  1.0  -0.1819
  C  C41  1  0.886600  0.250400  0.249000  1.0  0.0359
  C  C42  1  0.650200  0.193800  0.326800  1.0  0.0373
  C  C43  1  0.402000  0.241000  0.244200  1.0  0.7796
  C  C44  1  0.606100  0.863700  0.407900  1.0  0.8082
  C  C45  1  0.691200  0.804100  0.326700  1.0  -0.1842
  C  C46  1  0.849100  0.804800  0.327000  1.0  0.0248
  C  C47  1  0.926500  0.746700  0.250400  1.0  -0.1887
  C  C48  1  0.606100  0.634200  0.091400  1.0  0.8062
  C  C49  1  0.692400  0.696800  0.173800  1.0  -0.1827
  C  C50  1  0.613400  0.750400  0.251000  1.0  0.0346
  C  C51  1  0.849800  0.693800  0.173200  1.0  0.0374
  C  C52  1  0.098000  0.741000  0.255800  1.0  0.7773
  O  O53  1  0.972700  0.602500  0.893700  1.0  -0.7453
  O  O54  1  0.665700  0.674500  0.808200  1.0  -0.7258
  O  O55  1  0.972700  0.898800  0.606500  1.0  -0.7433
  O  O56  1  0.174000  0.622000  0.986100  1.0  -0.6998
  O  O57  1  0.174000  0.877900  0.514300  1.0  -0.6977
  O  O58  1  0.664500  0.825200  0.692200  1.0  -0.7154
  O  O59  1  0.527300  0.102500  0.606300  1.0  -0.7442
  O  O60  1  0.834300  0.174500  0.691800  1.0  -0.7262
  O  O61  1  0.527300  0.398800  0.893500  1.0  -0.7418
  O  O62  1  0.326000  0.122000  0.513900  1.0  -0.6984
  O  O63  1  0.326000  0.377900  0.985700  1.0  -0.6976
  O  O64  1  0.835500  0.325200  0.807800  1.0  -0.7153
  O  O65  1  0.027300  0.397500  0.106300  1.0  -0.7434
  O  O66  1  0.334300  0.325500  0.191800  1.0  -0.7255
  O  O67  1  0.027300  0.101200  0.393500  1.0  -0.7421
  O  O68  1  0.826000  0.378000  0.013900  1.0  -0.6987
  O  O69  1  0.826000  0.122100  0.485700  1.0  -0.6978
  O  O70  1  0.335500  0.174800  0.307800  1.0  -0.7153
  O  O71  1  0.472700  0.897500  0.393700  1.0  -0.7449
  O  O72  1  0.165700  0.825500  0.308200  1.0  -0.7251
  O  O73  1  0.472700  0.601200  0.106500  1.0  -0.7438
  O  O74  1  0.674000  0.878000  0.486100  1.0  -0.6995
  O  O75  1  0.674000  0.622100  0.014300  1.0  -0.6973
  O  O76  1  0.164500  0.674800  0.192200  1.0  -0.7159
