# generated using pymatgen
data_YH3(C3O2)3
_symmetry_space_group_name_H-M   'P 1'
_cell_length_a   13.02450000
_cell_length_b   13.02450000
_cell_length_c   16.79010000
_cell_angle_alpha   111.50200000
_cell_angle_beta   111.50200000
_cell_angle_gamma   93.15140000
_symmetry_Int_Tables_number   1
_chemical_formula_structural   YH3(C3O2)3
_chemical_formula_sum   'Y8 H24 C72 O48'
_cell_volume   2405.89245803
_cell_formula_units_Z   8
loop_
 _symmetry_equiv_pos_site_id
 _symmetry_equiv_pos_as_xyz
  1  'x, y, z'
loop_
 _atom_site_type_symbol
 _atom_site_label
 _atom_site_symmetry_multiplicity
 _atom_site_fract_x
 _atom_site_fract_y
 _atom_site_fract_z
 _atom_site_occupancy
 _atom_site_charge
  Y  Y1  1  0.625530  0.633410  0.771700  1.0  2.0942
  Y  Y2  1  0.146170  0.138290  0.771700  1.0  2.0937
  Y  Y3  1  0.883410  0.375530  0.271700  1.0  2.093
  Y  Y4  1  0.388290  0.896170  0.271700  1.0  2.094
  Y  Y5  1  0.991960  0.991960  0.983920  1.0  2.0744
  Y  Y6  1  0.241960  0.741960  0.483920  1.0  2.0744
  Y  Y7  1  0.753830  0.253830  0.507660  1.0  2.0871
  Y  Y8  1  0.503830  0.503830  0.007660  1.0  2.0871
  H  H9  1  0.896700  0.732300  0.763400  1.0  0.0944
  H  H10  1  0.069800  0.813000  0.631600  1.0  0.097
  H  H11  1  0.842000  0.520000  0.499000  1.0  0.0981
  H  H12  1  0.468100  0.163700  0.282000  1.0  0.0965
  H  H13  1  0.561100  0.320700  0.144600  1.0  0.0924
  H  H14  1  0.256100  0.111700  0.021000  1.0  0.1008
  H  H15  1  0.866700  0.031100  0.763400  1.0  0.0948
  H  H16  1  0.561800  0.818600  0.631600  1.0  0.0969
  H  H17  1  0.657000  0.979000  0.499000  1.0  0.0999
  H  H18  1  0.813900  0.118300  0.282000  1.0  0.0946
  H  H19  1  0.583500  0.823900  0.144600  1.0  0.0925
  H  H20  1  0.764900  0.909300  0.021000  1.0  0.1019
  H  H21  1  0.982300  0.646700  0.263400  1.0  0.0948
  H  H22  1  0.063000  0.819800  0.131600  1.0  0.097
  H  H23  1  0.770000  0.592000  0.999000  1.0  0.0979
  H  H24  1  0.413700  0.218100  0.782000  1.0  0.0966
  H  H25  1  0.570700  0.311100  0.644600  1.0  0.0924
  H  H26  1  0.361700  0.006100  0.521000  1.0  0.1011
  H  H27  1  0.281100  0.616700  0.263400  1.0  0.0945
  H  H28  1  0.068600  0.311800  0.131600  1.0  0.0968
  H  H29  1  0.229000  0.407000  0.999000  1.0  0.0993
  H  H30  1  0.368300  0.563900  0.782000  1.0  0.0952
  H  H31  1  0.073900  0.333500  0.644600  1.0  0.0926
  H  H32  1  0.159300  0.514900  0.521000  1.0  0.102
  C  C33  1  0.853300  0.612100  0.631200  1.0  -0.2075
  C  C34  1  0.911300  0.714900  0.710200  1.0  0.041
  C  C35  1  0.991400  0.791600  0.709600  1.0  -0.2075
  C  C36  1  0.015300  0.763500  0.631400  1.0  0.0523
  C  C37  1  0.959700  0.663500  0.553600  1.0  -0.1883
  C  C38  1  0.879100  0.587500  0.552200  1.0  0.0374
  C  C39  1  0.771200  0.534000  0.632800  1.0  0.7746
  C  C40  1  0.048500  0.902300  0.793000  1.0  0.8193
  C  C41  1  0.985300  0.633900  0.467200  1.0  0.7892
  C  C42  1  0.349500  0.129300  0.153400  1.0  -0.1981
  C  C43  1  0.453000  0.177800  0.228800  1.0  0.0451
  C  C44  1  0.536300  0.248500  0.226400  1.0  -0.2032
  C  C45  1  0.508600  0.270800  0.146000  1.0  0.0347
  C  C46  1  0.407300  0.221500  0.070200  1.0  -0.1821
  C  C47  1  0.325200  0.147400  0.072800  1.0  0.0234
  C  C48  1  0.260600  0.051800  0.156800  1.0  0.7734
  C  C49  1  0.651700  0.295300  0.305400  1.0  0.8178
  C  C50  1  0.381000  0.246800  0.986200  1.0  0.7919
  C  C51  1  0.777900  0.019100  0.631200  1.0  -0.2091
  C  C52  1  0.798900  0.995300  0.710200  1.0  0.0374
  C  C53  1  0.718200  0.918000  0.709600  1.0  -0.2095
  C  C54  1  0.616100  0.867900  0.631400  1.0  0.0498
  C  C55  1  0.593900  0.890100  0.553600  1.0  -0.1857
  C  C56  1  0.673100  0.964700  0.552200  1.0  0.0399
  C  C57  1  0.861600  0.098800  0.632800  1.0  0.7809
  C  C58  1  0.744500  0.890700  0.793000  1.0  0.8223
  C  C59  1  0.481900  0.833300  0.467200  1.0  0.7682
  C  C60  1  0.803900  0.024100  0.153400  1.0  -0.2023
  C  C61  1  0.775800  0.051000  0.228800  1.0  0.0433
  C  C62  1  0.690100  0.977900  0.226400  1.0  -0.2105
  C  C63  1  0.637400  0.875200  0.146000  1.0  0.0355
  C  C64  1  0.662900  0.848700  0.070200  1.0  -0.1751
  C  C65  1  0.747600  0.925400  0.072800  1.0  0.0294
  C  C66  1  0.896200  0.105000  0.156800  1.0  0.7787
  C  C67  1  0.653700  0.010100  0.305400  1.0  0.8239
  C  C68  1  0.605200  0.739400  0.986200  1.0  0.7803
  C  C69  1  0.862100  0.603300  0.131200  1.0  -0.2077
  C  C70  1  0.964900  0.661300  0.210200  1.0  0.04
  C  C71  1  0.041600  0.741400  0.209600  1.0  -0.2049
  C  C72  1  0.013500  0.765300  0.131400  1.0  0.0515
  C  C73  1  0.913500  0.709700  0.053600  1.0  -0.1883
  C  C74  1  0.837500  0.629100  0.052200  1.0  0.0359
  C  C75  1  0.784000  0.521200  0.132800  1.0  0.7761
  C  C76  1  0.152300  0.798500  0.293000  1.0  0.8151
  C  C77  1  0.883900  0.735300  0.967200  1.0  0.7897
  C  C78  1  0.379300  0.099500  0.653400  1.0  -0.2017
  C  C79  1  0.427800  0.203000  0.728800  1.0  0.0445
  C  C80  1  0.498500  0.286300  0.726400  1.0  -0.2026
  C  C81  1  0.520800  0.258600  0.646000  1.0  0.0356
  C  C82  1  0.471500  0.157300  0.570200  1.0  -0.1799
  C  C83  1  0.397400  0.075200  0.572800  1.0  0.0274
  C  C84  1  0.301800  0.010600  0.656800  1.0  0.7758
  C  C85  1  0.545300  0.401700  0.805400  1.0  0.8197
  C  C86  1  0.496800  0.131000  0.486200  1.0  0.7904
  C  C87  1  0.269100  0.527900  0.131200  1.0  -0.2084
  C  C88  1  0.245300  0.548900  0.210200  1.0  0.0372
  C  C89  1  0.168000  0.468200  0.209600  1.0  -0.2099
  C  C90  1  0.117900  0.366100  0.131400  1.0  0.0501
  C  C91  1  0.140100  0.343900  0.053600  1.0  -0.1873
  C  C92  1  0.214700  0.423100  0.052200  1.0  0.0391
  C  C93  1  0.348800  0.611600  0.132800  1.0  0.78
  C  C94  1  0.140700  0.494500  0.293000  1.0  0.8241
  C  C95  1  0.083300  0.231900  0.967200  1.0  0.7765
  C  C96  1  0.274100  0.553900  0.653400  1.0  -0.2032
  C  C97  1  0.301000  0.525800  0.728800  1.0  0.0446
  C  C98  1  0.227900  0.440100  0.726400  1.0  -0.2102
  C  C99  1  0.125200  0.387400  0.646000  1.0  0.0352
  C  C100  1  0.098700  0.412900  0.570200  1.0  -0.1778
  C  C101  1  0.175400  0.497600  0.572800  1.0  0.0292
  C  C102  1  0.355000  0.646200  0.656800  1.0  0.7802
  C  C103  1  0.260100  0.403700  0.805400  1.0  0.8261
  C  C104  1  0.989400  0.355200  0.486200  1.0  0.7757
  O  O105  1  0.728500  0.434900  0.565400  1.0  -0.7178
  O  O106  1  0.738600  0.569000  0.699000  1.0  -0.7372
  O  O107  1  0.047900  0.914300  0.868800  1.0  -0.7008
  O  O108  1  0.097300  0.976900  0.780600  1.0  -0.727
  O  O109  1  0.070800  0.693400  0.475200  1.0  -0.7227
  O  O110  1  0.920200  0.551400  0.392000  1.0  -0.6902
  O  O111  1  0.162700  0.022700  0.094400  1.0  -0.726
  O  O112  1  0.293100  0.025500  0.225400  1.0  -0.6957
  O  O113  1  0.726500  0.336900  0.291600  1.0  -0.7394
  O  O114  1  0.663500  0.290100  0.379800  1.0  -0.676
  O  O115  1  0.304700  0.178500  0.908400  1.0  -0.6805
  O  O116  1  0.442200  0.336000  0.997800  1.0  -0.7482
  O  O117  1  0.836900  0.130500  0.565400  1.0  -0.7219
  O  O118  1  0.960400  0.130000  0.699000  1.0  -0.7372
  O  O119  1  0.820900  0.954500  0.868800  1.0  -0.7012
  O  O120  1  0.683300  0.803700  0.780600  1.0  -0.7273
  O  O121  1  0.404400  0.781800  0.475200  1.0  -0.7226
  O  O122  1  0.471800  0.840600  0.392000  1.0  -0.6897
  O  O123  1  0.931700  0.071700  0.094400  1.0  -0.7261
  O  O124  1  0.932300  0.199900  0.225400  1.0  -0.6947
  O  O125  1  0.565100  0.954700  0.291600  1.0  -0.7387
  O  O126  1  0.716300  0.089700  0.379800  1.0  -0.6749
  O  O127  1  0.603700  0.729900  0.908400  1.0  -0.6782
  O  O128  1  0.555600  0.661800  0.997800  1.0  -0.7468
  O  O129  1  0.684900  0.478500  0.065400  1.0  -0.7164
  O  O130  1  0.819000  0.488600  0.199000  1.0  -0.7413
  O  O131  1  0.164300  0.797900  0.368800  1.0  -0.6999
  O  O132  1  0.226900  0.847300  0.280600  1.0  -0.7276
  O  O133  1  0.943400  0.820800  0.975200  1.0  -0.7243
  O  O134  1  0.801400  0.670200  0.892000  1.0  -0.6918
  O  O135  1  0.272700  0.912700  0.594400  1.0  -0.7307
  O  O136  1  0.275500  0.043100  0.725400  1.0  -0.6936
  O  O137  1  0.586900  0.476500  0.791600  1.0  -0.7411
  O  O138  1  0.540100  0.413500  0.879800  1.0  -0.674
  O  O139  1  0.428500  0.054700  0.408400  1.0  -0.6782
  O  O140  1  0.586000  0.192200  0.497800  1.0  -0.7482
  O  O141  1  0.380500  0.586900  0.065400  1.0  -0.7187
  O  O142  1  0.380000  0.710400  0.199000  1.0  -0.7382
  O  O143  1  0.204500  0.570900  0.368800  1.0  -0.7011
  O  O144  1  0.053700  0.433300  0.280600  1.0  -0.7273
  O  O145  1  0.031800  0.154400  0.975200  1.0  -0.7223
  O  O146  1  0.090600  0.221800  0.892000  1.0  -0.6889
  O  O147  1  0.321700  0.681700  0.594400  1.0  -0.7303
  O  O148  1  0.449900  0.682300  0.725400  1.0  -0.6908
  O  O149  1  0.204700  0.315100  0.791600  1.0  -0.7406
  O  O150  1  0.339700  0.466300  0.879800  1.0  -0.6763
  O  O151  1  0.979900  0.353700  0.408400  1.0  -0.6779
  O  O152  1  0.911800  0.305600  0.497800  1.0  -0.7464
