# generated using pymatgen
data_Ga3(PO4)4
_symmetry_space_group_name_H-M   'P 1'
_cell_length_a   16.85520000
_cell_length_b   16.85520000
_cell_length_c   16.85520000
_cell_angle_alpha   90.00000000
_cell_angle_beta   90.00000000
_cell_angle_gamma   90.00000000
_symmetry_Int_Tables_number   1
_chemical_formula_structural   Ga3(PO4)4
_chemical_formula_sum   'Ga18 P24 O96'
_cell_volume   4788.52468301
_cell_formula_units_Z   6
loop_
 _symmetry_equiv_pos_site_id
 _symmetry_equiv_pos_as_xyz
  1  'x, y, z'
loop_
 _atom_site_type_symbol
 _atom_site_label
 _atom_site_symmetry_multiplicity
 _atom_site_fract_x
 _atom_site_fract_y
 _atom_site_fract_z
 _atom_site_occupancy
 _atom_site_charge
  Ga  Ga1  1  0.000000  0.500000  0.000000  1.0  1.6287
  Ga  Ga2  1  0.500000  0.000000  0.500000  1.0  1.6287
  Ga  Ga3  1  0.000000  0.000000  0.500000  1.0  1.6287
  Ga  Ga4  1  0.500000  0.500000  0.000000  1.0  1.6287
  Ga  Ga5  1  0.500000  0.000000  0.000000  1.0  1.6287
  Ga  Ga6  1  0.000000  0.500000  0.500000  1.0  1.6287
  Ga  Ga7  1  0.250000  0.500000  0.000000  1.0  1.5589
  Ga  Ga8  1  0.750000  0.500000  0.000000  1.0  1.5589
  Ga  Ga9  1  0.250000  0.000000  0.500000  1.0  1.5589
  Ga  Ga10  1  0.000000  0.250000  0.500000  1.0  1.5589
  Ga  Ga11  1  0.000000  0.750000  0.500000  1.0  1.5589
  Ga  Ga12  1  0.500000  0.250000  0.000000  1.0  1.5589
  Ga  Ga13  1  0.500000  0.000000  0.250000  1.0  1.5589
  Ga  Ga14  1  0.500000  0.000000  0.750000  1.0  1.5589
  Ga  Ga15  1  0.000000  0.500000  0.250000  1.0  1.5589
  Ga  Ga16  1  0.500000  0.750000  0.000000  1.0  1.5589
  Ga  Ga17  1  0.750000  0.000000  0.500000  1.0  1.5589
  Ga  Ga18  1  0.000000  0.500000  0.750000  1.0  1.5589
  P  P19  1  0.123610  0.566400  0.123610  1.0  1.664
  P  P20  1  0.623610  0.066400  0.623610  1.0  1.664
  P  P21  1  0.876390  0.433600  0.123610  1.0  1.6627
  P  P22  1  0.376390  0.933600  0.623610  1.0  1.6627
  P  P23  1  0.876390  0.566400  0.876390  1.0  1.6623
  P  P24  1  0.376390  0.066400  0.376390  1.0  1.6623
  P  P25  1  0.123610  0.433600  0.876390  1.0  1.6646
  P  P26  1  0.623610  0.933600  0.376390  1.0  1.6646
  P  P27  1  0.123610  0.123610  0.566400  1.0  1.6631
  P  P28  1  0.623610  0.623610  0.066400  1.0  1.6631
  P  P29  1  0.123610  0.876390  0.433600  1.0  1.6635
  P  P30  1  0.623610  0.376390  0.933600  1.0  1.6635
  P  P31  1  0.876390  0.876390  0.566400  1.0  1.6623
  P  P32  1  0.376390  0.376390  0.066400  1.0  1.6623
  P  P33  1  0.876390  0.123610  0.433600  1.0  1.6611
  P  P34  1  0.376390  0.623610  0.933600  1.0  1.6611
  P  P35  1  0.566400  0.123610  0.123610  1.0  1.6629
  P  P36  1  0.066400  0.623610  0.623610  1.0  1.6629
  P  P37  1  0.433600  0.123610  0.876390  1.0  1.6617
  P  P38  1  0.933600  0.623610  0.376390  1.0  1.6617
  P  P39  1  0.566400  0.876390  0.876390  1.0  1.6639
  P  P40  1  0.066400  0.376390  0.376390  1.0  1.6639
  P  P41  1  0.433600  0.876390  0.123610  1.0  1.6623
  P  P42  1  0.933600  0.376390  0.623610  1.0  1.6623
  O  O43  1  0.194400  0.517300  0.094600  1.0  -0.7421
  O  O44  1  0.694400  0.017300  0.594600  1.0  -0.7421
  O  O45  1  0.805600  0.482700  0.094600  1.0  -0.7425
  O  O46  1  0.305600  0.982700  0.594600  1.0  -0.7425
  O  O47  1  0.805600  0.517300  0.905400  1.0  -0.7413
  O  O48  1  0.305600  0.017300  0.405400  1.0  -0.7413
  O  O49  1  0.194400  0.482700  0.905400  1.0  -0.7402
  O  O50  1  0.694400  0.982700  0.405400  1.0  -0.7402
  O  O51  1  0.094600  0.194400  0.517300  1.0  -0.7441
  O  O52  1  0.594600  0.694400  0.017300  1.0  -0.7441
  O  O53  1  0.094600  0.805600  0.482700  1.0  -0.7431
  O  O54  1  0.594600  0.305600  0.982700  1.0  -0.7431
  O  O55  1  0.905400  0.805600  0.517300  1.0  -0.7431
  O  O56  1  0.405400  0.305600  0.017300  1.0  -0.7431
  O  O57  1  0.905400  0.194400  0.482700  1.0  -0.7453
  O  O58  1  0.405400  0.694400  0.982700  1.0  -0.7453
  O  O59  1  0.517300  0.094600  0.194400  1.0  -0.7466
  O  O60  1  0.017300  0.594600  0.694400  1.0  -0.7466
  O  O61  1  0.482700  0.094600  0.805600  1.0  -0.7418
  O  O62  1  0.982700  0.594600  0.305600  1.0  -0.7418
  O  O63  1  0.517300  0.905400  0.805600  1.0  -0.7433
  O  O64  1  0.017300  0.405400  0.305600  1.0  -0.7433
  O  O65  1  0.482700  0.905400  0.194400  1.0  -0.7443
  O  O66  1  0.982700  0.405400  0.694400  1.0  -0.7443
  O  O67  1  0.517300  0.194400  0.094600  1.0  -0.7435
  O  O68  1  0.017300  0.694400  0.594600  1.0  -0.7435
  O  O69  1  0.482700  0.805600  0.094600  1.0  -0.7398
  O  O70  1  0.982700  0.305600  0.594600  1.0  -0.7398
  O  O71  1  0.517300  0.805600  0.905400  1.0  -0.7409
  O  O72  1  0.017300  0.305600  0.405400  1.0  -0.7409
  O  O73  1  0.482700  0.194400  0.905400  1.0  -0.7394
  O  O74  1  0.982700  0.694400  0.405400  1.0  -0.7394
  O  O75  1  0.194400  0.094600  0.517300  1.0  -0.743
  O  O76  1  0.694400  0.594600  0.017300  1.0  -0.743
  O  O77  1  0.805600  0.094600  0.482700  1.0  -0.7436
  O  O78  1  0.305600  0.594600  0.982700  1.0  -0.7436
  O  O79  1  0.805600  0.905400  0.517300  1.0  -0.7431
  O  O80  1  0.305600  0.405400  0.017300  1.0  -0.7431
  O  O81  1  0.194400  0.905400  0.482700  1.0  -0.7425
  O  O82  1  0.694400  0.405400  0.982700  1.0  -0.7425
  O  O83  1  0.094600  0.517300  0.194400  1.0  -0.7447
  O  O84  1  0.594600  0.017300  0.694400  1.0  -0.7447
  O  O85  1  0.094600  0.482700  0.805600  1.0  -0.7418
  O  O86  1  0.594600  0.982700  0.305600  1.0  -0.7418
  O  O87  1  0.905400  0.517300  0.805600  1.0  -0.7428
  O  O88  1  0.405400  0.017300  0.305600  1.0  -0.7428
  O  O89  1  0.905400  0.482700  0.194400  1.0  -0.7454
  O  O90  1  0.405400  0.982700  0.694400  1.0  -0.7454
  O  O91  1  0.058900  0.571600  0.058900  1.0  -0.7871
  O  O92  1  0.145800  0.648600  0.145800  1.0  -0.5812
  O  O93  1  0.558900  0.071600  0.558900  1.0  -0.7871
  O  O94  1  0.645800  0.148600  0.645800  1.0  -0.5812
  O  O95  1  0.941100  0.428400  0.058900  1.0  -0.7833
  O  O96  1  0.854200  0.351400  0.145800  1.0  -0.5804
  O  O97  1  0.441100  0.928400  0.558900  1.0  -0.7833
  O  O98  1  0.354200  0.851400  0.645800  1.0  -0.5804
  O  O99  1  0.941100  0.571600  0.941100  1.0  -0.7856
  O  O100  1  0.854200  0.648600  0.854200  1.0  -0.5814
  O  O101  1  0.441100  0.071600  0.441100  1.0  -0.7856
  O  O102  1  0.354200  0.148600  0.354200  1.0  -0.5814
  O  O103  1  0.058900  0.428400  0.941100  1.0  -0.7855
  O  O104  1  0.145800  0.351400  0.854200  1.0  -0.5791
  O  O105  1  0.558900  0.928400  0.441100  1.0  -0.7855
  O  O106  1  0.645800  0.851400  0.354200  1.0  -0.5791
  O  O107  1  0.058900  0.058900  0.571600  1.0  -0.7832
  O  O108  1  0.145800  0.145800  0.648600  1.0  -0.5856
  O  O109  1  0.558900  0.558900  0.071600  1.0  -0.7832
  O  O110  1  0.645800  0.645800  0.148600  1.0  -0.5856
  O  O111  1  0.058900  0.941100  0.428400  1.0  -0.7786
  O  O112  1  0.145800  0.854200  0.351400  1.0  -0.5851
  O  O113  1  0.558900  0.441100  0.928400  1.0  -0.7786
  O  O114  1  0.645800  0.354200  0.851400  1.0  -0.5851
  O  O115  1  0.941100  0.941100  0.571600  1.0  -0.782
  O  O116  1  0.854200  0.854200  0.648600  1.0  -0.5864
  O  O117  1  0.441100  0.441100  0.071600  1.0  -0.782
  O  O118  1  0.354200  0.354200  0.148600  1.0  -0.5864
  O  O119  1  0.941100  0.058900  0.428400  1.0  -0.7782
  O  O120  1  0.854200  0.145800  0.351400  1.0  -0.5846
  O  O121  1  0.441100  0.558900  0.928400  1.0  -0.7782
  O  O122  1  0.354200  0.645800  0.851400  1.0  -0.5846
  O  O123  1  0.571600  0.058900  0.058900  1.0  -0.7838
  O  O124  1  0.648600  0.145800  0.145800  1.0  -0.5784
  O  O125  1  0.071600  0.558900  0.558900  1.0  -0.7838
  O  O126  1  0.148600  0.645800  0.645800  1.0  -0.5784
  O  O127  1  0.428400  0.058900  0.941100  1.0  -0.7857
  O  O128  1  0.351400  0.145800  0.854200  1.0  -0.5719
  O  O129  1  0.928400  0.558900  0.441100  1.0  -0.7857
  O  O130  1  0.851400  0.645800  0.354200  1.0  -0.5719
  O  O131  1  0.571600  0.941100  0.941100  1.0  -0.7838
  O  O132  1  0.648600  0.854200  0.854200  1.0  -0.5775
  O  O133  1  0.071600  0.441100  0.441100  1.0  -0.7838
  O  O134  1  0.148600  0.354200  0.354200  1.0  -0.5775
  O  O135  1  0.428400  0.941100  0.058900  1.0  -0.7845
  O  O136  1  0.351400  0.854200  0.145800  1.0  -0.5733
  O  O137  1  0.928400  0.441100  0.558900  1.0  -0.7845
  O  O138  1  0.851400  0.354200  0.645800  1.0  -0.5733
