# generated using pymatgen
data_CuH11(C5O)4
_symmetry_space_group_name_H-M   'P 1'
_cell_length_a   13.11300000
_cell_length_b   29.05800000
_cell_length_c   30.16700000
_cell_angle_alpha   90.00000000
_cell_angle_beta   90.00000000
_cell_angle_gamma   90.00000000
_symmetry_Int_Tables_number   1
_chemical_formula_structural   CuH11(C5O)4
_chemical_formula_sum   'Cu8 H88 C160 O32'
_cell_volume   11494.75989152
_cell_formula_units_Z   8
loop_
 _symmetry_equiv_pos_site_id
 _symmetry_equiv_pos_as_xyz
  1  'x, y, z'
loop_
 _atom_site_type_symbol
 _atom_site_label
 _atom_site_symmetry_multiplicity
 _atom_site_fract_x
 _atom_site_fract_y
 _atom_site_fract_z
 _atom_site_occupancy
 _atom_site_charge
  Cu  Cu1  1  0.333333  0.224690  0.000000  1.0  0.8951
  Cu  Cu2  1  0.833320  0.724690  0.000000  1.0  0.9015
  Cu  Cu3  1  0.666667  0.775310  0.000000  1.0  0.8964
  Cu  Cu4  1  0.166680  0.275310  0.000000  1.0  0.9026
  Cu  Cu5  1  0.666667  0.224690  0.500000  1.0  0.8908
  Cu  Cu6  1  0.166680  0.724690  0.500000  1.0  0.8912
  Cu  Cu7  1  0.333333  0.775310  0.500000  1.0  0.8913
  Cu  Cu8  1  0.833320  0.275310  0.500000  1.0  0.8919
  H  H9  1  0.314400  0.418400  0.157200  1.0  0.1072
  H  H10  1  0.447200  0.466200  0.187400  1.0  0.1041
  H  H11  1  0.536100  0.325700  0.175000  1.0  0.1087
  H  H12  1  0.255100  0.377000  0.096400  1.0  0.1065
  H  H13  1  0.481000  0.286500  0.112800  1.0  0.0967
  H  H14  1  0.814400  0.918400  0.157200  1.0  0.1072
  H  H15  1  0.947200  0.966200  0.187400  1.0  0.1041
  H  H16  1  0.036100  0.825700  0.175000  1.0  0.1087
  H  H17  1  0.755100  0.877000  0.096400  1.0  0.1065
  H  H18  1  0.981000  0.786500  0.112800  1.0  0.0972
  H  H19  1  0.685600  0.581600  0.157200  1.0  0.1067
  H  H20  1  0.552800  0.533800  0.187400  1.0  0.1047
  H  H21  1  0.463900  0.674300  0.175000  1.0  0.1088
  H  H22  1  0.744900  0.623000  0.096400  1.0  0.1063
  H  H23  1  0.519000  0.713500  0.112800  1.0  0.0968
  H  H24  1  0.185600  0.081600  0.157200  1.0  0.1067
  H  H25  1  0.052800  0.033800  0.187400  1.0  0.1047
  H  H26  1  0.963900  0.174300  0.175000  1.0  0.1088
  H  H27  1  0.244900  0.123000  0.096400  1.0  0.1067
  H  H28  1  0.019000  0.213500  0.112800  1.0  0.0976
  H  H29  1  0.685600  0.418400  0.342800  1.0  0.107
  H  H30  1  0.552800  0.466200  0.312600  1.0  0.1051
  H  H31  1  0.463900  0.325700  0.325000  1.0  0.1084
  H  H32  1  0.744900  0.377000  0.403600  1.0  0.1066
  H  H33  1  0.519000  0.286500  0.387200  1.0  0.096
  H  H34  1  0.185600  0.918400  0.342800  1.0  0.107
  H  H35  1  0.052800  0.966200  0.312600  1.0  0.1051
  H  H36  1  0.963900  0.825700  0.325000  1.0  0.1084
  H  H37  1  0.244900  0.877000  0.403600  1.0  0.107
  H  H38  1  0.019000  0.786500  0.387200  1.0  0.0968
  H  H39  1  0.314400  0.581600  0.342800  1.0  0.1066
  H  H40  1  0.447200  0.533800  0.312600  1.0  0.1051
  H  H41  1  0.536100  0.674300  0.325000  1.0  0.1089
  H  H42  1  0.255100  0.623000  0.403600  1.0  0.1065
  H  H43  1  0.481000  0.713500  0.387200  1.0  0.0966
  H  H44  1  0.814400  0.081600  0.342800  1.0  0.1066
  H  H45  1  0.947200  0.033800  0.312600  1.0  0.1051
  H  H46  1  0.036100  0.174300  0.325000  1.0  0.1089
  H  H47  1  0.755100  0.123000  0.403600  1.0  0.1065
  H  H48  1  0.981000  0.213500  0.387200  1.0  0.0974
  H  H49  1  0.685600  0.581600  0.842800  1.0  0.107
  H  H50  1  0.552800  0.533800  0.812600  1.0  0.1053
  H  H51  1  0.463900  0.674300  0.825000  1.0  0.1087
  H  H52  1  0.744900  0.623000  0.903600  1.0  0.1066
  H  H53  1  0.519000  0.713500  0.887200  1.0  0.0965
  H  H54  1  0.185600  0.081600  0.842800  1.0  0.107
  H  H55  1  0.052800  0.033800  0.812600  1.0  0.1053
  H  H56  1  0.963900  0.174300  0.825000  1.0  0.1087
  H  H57  1  0.244900  0.123000  0.903600  1.0  0.1069
  H  H58  1  0.019000  0.213500  0.887200  1.0  0.0973
  H  H59  1  0.314400  0.418400  0.842800  1.0  0.1074
  H  H60  1  0.447200  0.466200  0.812600  1.0  0.1049
  H  H61  1  0.536100  0.325700  0.825000  1.0  0.1083
  H  H62  1  0.255100  0.377000  0.903600  1.0  0.1064
  H  H63  1  0.481000  0.286500  0.887200  1.0  0.0963
  H  H64  1  0.814400  0.918400  0.842800  1.0  0.1074
  H  H65  1  0.947200  0.966200  0.812600  1.0  0.1049
  H  H66  1  0.036100  0.825700  0.825000  1.0  0.1083
  H  H67  1  0.755100  0.877000  0.903600  1.0  0.1064
  H  H68  1  0.981000  0.786500  0.887200  1.0  0.0969
  H  H69  1  0.314400  0.581600  0.657200  1.0  0.1063
  H  H70  1  0.447200  0.533800  0.687400  1.0  0.1043
  H  H71  1  0.536100  0.674300  0.675000  1.0  0.1091
  H  H72  1  0.255100  0.623000  0.596400  1.0  0.1061
  H  H73  1  0.481000  0.713500  0.612800  1.0  0.097
  H  H74  1  0.814400  0.081600  0.657200  1.0  0.1063
  H  H75  1  0.947200  0.033800  0.687400  1.0  0.1043
  H  H76  1  0.036100  0.174300  0.675000  1.0  0.1091
  H  H77  1  0.755100  0.123000  0.596400  1.0  0.1061
  H  H78  1  0.981000  0.213500  0.612800  1.0  0.0978
  H  H79  1  0.685600  0.418400  0.657200  1.0  0.1069
  H  H80  1  0.552800  0.466200  0.687400  1.0  0.1044
  H  H81  1  0.463900  0.325700  0.675000  1.0  0.1088
  H  H82  1  0.744900  0.377000  0.596400  1.0  0.1068
  H  H83  1  0.519000  0.286500  0.612800  1.0  0.0962
  H  H84  1  0.185600  0.918400  0.657200  1.0  0.1069
  H  H85  1  0.052800  0.966200  0.687400  1.0  0.1044
  H  H86  1  0.963900  0.825700  0.675000  1.0  0.1088
  H  H87  1  0.244900  0.877000  0.596400  1.0  0.1073
  H  H88  1  0.019000  0.786500  0.612800  1.0  0.097
  H  H89  1  0.500000  0.346900  0.250000  1.0  0.1029
  H  H90  1  0.000000  0.846900  0.250000  1.0  0.1029
  H  H91  1  0.500000  0.653100  0.250000  1.0  0.1021
  H  H92  1  0.000000  0.153100  0.250000  1.0  0.1021
  H  H93  1  0.500000  0.653100  0.750000  1.0  0.1021
  H  H94  1  0.000000  0.153100  0.750000  1.0  0.1021
  H  H95  1  0.500000  0.346900  0.750000  1.0  0.1029
  H  H96  1  0.000000  0.846900  0.750000  1.0  0.1029
  C  C97  1  0.322800  0.299840  0.060560  1.0  0.6652
  C  C98  1  0.432400  0.376680  0.172470  1.0  0.0443
  C  C99  1  0.363800  0.327110  0.098790  1.0  -0.1435
  C  C100  1  0.347800  0.391620  0.148590  1.0  -0.1158
  C  C101  1  0.468100  0.450260  0.212480  1.0  -0.093
  C  C102  1  0.480500  0.336740  0.159070  1.0  -0.1437
  C  C103  1  0.312300  0.367000  0.111890  1.0  -0.048
  C  C104  1  0.467500  0.402000  0.212480  1.0  0.0212
  C  C105  1  0.446400  0.312760  0.121870  1.0  -0.0332
  C  C106  1  0.822800  0.799840  0.060560  1.0  0.6652
  C  C107  1  0.932400  0.876680  0.172470  1.0  0.0443
  C  C108  1  0.863800  0.827110  0.098790  1.0  -0.1434
  C  C109  1  0.847800  0.891620  0.148590  1.0  -0.1158
  C  C110  1  0.968100  0.950260  0.212480  1.0  -0.093
  C  C111  1  0.980500  0.836740  0.159070  1.0  -0.1437
  C  C112  1  0.812300  0.867000  0.111890  1.0  -0.048
  C  C113  1  0.967500  0.902000  0.212480  1.0  0.0212
  C  C114  1  0.946400  0.812760  0.121870  1.0  -0.0332
  C  C115  1  0.677200  0.700160  0.060560  1.0  0.6658
  C  C116  1  0.567600  0.623320  0.172470  1.0  0.0445
  C  C117  1  0.636200  0.672890  0.098790  1.0  -0.1427
  C  C118  1  0.652200  0.608380  0.148590  1.0  -0.1149
  C  C119  1  0.531900  0.549740  0.212480  1.0  -0.0938
  C  C120  1  0.519500  0.663260  0.159070  1.0  -0.1457
  C  C121  1  0.687700  0.633000  0.111890  1.0  -0.046
  C  C122  1  0.532500  0.598000  0.212480  1.0  0.0217
  C  C123  1  0.553600  0.687240  0.121870  1.0  -0.0328
  C  C124  1  0.177200  0.200160  0.060560  1.0  0.6658
  C  C125  1  0.067600  0.123320  0.172470  1.0  0.0445
  C  C126  1  0.136200  0.172890  0.098790  1.0  -0.1427
  C  C127  1  0.152200  0.108380  0.148590  1.0  -0.1149
  C  C128  1  0.031900  0.049740  0.212480  1.0  -0.0938
  C  C129  1  0.019500  0.163260  0.159070  1.0  -0.1457
  C  C130  1  0.187700  0.133000  0.111890  1.0  -0.046
  C  C131  1  0.032500  0.098000  0.212480  1.0  0.0217
  C  C132  1  0.053600  0.187240  0.121870  1.0  -0.0328
  C  C133  1  0.677200  0.299840  0.439440  1.0  0.6658
  C  C134  1  0.567600  0.376680  0.327530  1.0  0.0447
  C  C135  1  0.636200  0.327110  0.401210  1.0  -0.1428
  C  C136  1  0.652200  0.391620  0.351410  1.0  -0.1143
  C  C137  1  0.531900  0.450260  0.287520  1.0  -0.0932
  C  C138  1  0.519500  0.336740  0.340930  1.0  -0.1456
  C  C139  1  0.687700  0.367000  0.388110  1.0  -0.046
  C  C140  1  0.532500  0.402000  0.287520  1.0  0.0212
  C  C141  1  0.553600  0.312760  0.378130  1.0  -0.0329
  C  C142  1  0.177200  0.799840  0.439440  1.0  0.6658
  C  C143  1  0.067600  0.876680  0.327530  1.0  0.0447
  C  C144  1  0.136200  0.827110  0.401210  1.0  -0.1428
  C  C145  1  0.152200  0.891620  0.351410  1.0  -0.1143
  C  C146  1  0.031900  0.950260  0.287520  1.0  -0.0932
  C  C147  1  0.019500  0.836740  0.340930  1.0  -0.1456
  C  C148  1  0.187700  0.867000  0.388110  1.0  -0.046
  C  C149  1  0.032500  0.902000  0.287520  1.0  0.0212
  C  C150  1  0.053600  0.812760  0.378130  1.0  -0.0329
  C  C151  1  0.322800  0.700160  0.439440  1.0  0.6662
  C  C152  1  0.432400  0.623320  0.327530  1.0  0.0438
  C  C153  1  0.363800  0.672890  0.401210  1.0  -0.1432
  C  C154  1  0.347800  0.608380  0.351410  1.0  -0.1149
  C  C155  1  0.468100  0.549740  0.287520  1.0  -0.0936
  C  C156  1  0.480500  0.663260  0.340930  1.0  -0.144
  C  C157  1  0.312300  0.633000  0.388110  1.0  -0.0485
  C  C158  1  0.467500  0.598000  0.287520  1.0  0.0208
  C  C159  1  0.446400  0.687240  0.378130  1.0  -0.0333
  C  C160  1  0.822800  0.200160  0.439440  1.0  0.6662
  C  C161  1  0.932400  0.123320  0.327530  1.0  0.0438
  C  C162  1  0.863800  0.172890  0.401210  1.0  -0.1432
  C  C163  1  0.847800  0.108380  0.351410  1.0  -0.1149
  C  C164  1  0.968100  0.049740  0.287520  1.0  -0.0936
  C  C165  1  0.980500  0.163260  0.340930  1.0  -0.144
  C  C166  1  0.812300  0.133000  0.388110  1.0  -0.0485
  C  C167  1  0.967500  0.098000  0.287520  1.0  0.0208
  C  C168  1  0.946400  0.187240  0.378130  1.0  -0.0333
  C  C169  1  0.677200  0.700160  0.939440  1.0  0.6663
  C  C170  1  0.567600  0.623320  0.827530  1.0  0.0444
  C  C171  1  0.636200  0.672890  0.901210  1.0  -0.1425
  C  C172  1  0.652200  0.608380  0.851410  1.0  -0.1143
  C  C173  1  0.531900  0.549740  0.787520  1.0  -0.0934
  C  C174  1  0.519500  0.663260  0.840930  1.0  -0.1458
  C  C175  1  0.687700  0.633000  0.888110  1.0  -0.0464
  C  C176  1  0.532500  0.598000  0.787520  1.0  0.0212
  C  C177  1  0.553600  0.687240  0.878130  1.0  -0.0326
  C  C178  1  0.177200  0.200160  0.939440  1.0  0.6663
  C  C179  1  0.067600  0.123320  0.827530  1.0  0.0444
  C  C180  1  0.136200  0.172890  0.901210  1.0  -0.1425
  C  C181  1  0.152200  0.108380  0.851410  1.0  -0.1143
  C  C182  1  0.031900  0.049740  0.787520  1.0  -0.0934
  C  C183  1  0.019500  0.163260  0.840930  1.0  -0.1458
  C  C184  1  0.187700  0.133000  0.888110  1.0  -0.0464
  C  C185  1  0.032500  0.098000  0.787520  1.0  0.0212
  C  C186  1  0.053600  0.187240  0.878130  1.0  -0.0326
  C  C187  1  0.322800  0.299840  0.939440  1.0  0.6658
  C  C188  1  0.432400  0.376680  0.827530  1.0  0.0441
  C  C189  1  0.363800  0.327110  0.901210  1.0  -0.1435
  C  C190  1  0.347800  0.391620  0.851410  1.0  -0.1154
  C  C191  1  0.468100  0.450260  0.787520  1.0  -0.0932
  C  C192  1  0.480500  0.336740  0.840930  1.0  -0.1443
  C  C193  1  0.312300  0.367000  0.888110  1.0  -0.0483
  C  C194  1  0.467500  0.402000  0.787520  1.0  0.0208
  C  C195  1  0.446400  0.312760  0.878130  1.0  -0.0333
  C  C196  1  0.822800  0.799840  0.939440  1.0  0.6658
  C  C197  1  0.932400  0.876680  0.827530  1.0  0.0441
  C  C198  1  0.863800  0.827110  0.901210  1.0  -0.1434
  C  C199  1  0.847800  0.891620  0.851410  1.0  -0.1154
  C  C200  1  0.968100  0.950260  0.787520  1.0  -0.0932
  C  C201  1  0.980500  0.836740  0.840930  1.0  -0.1443
  C  C202  1  0.812300  0.867000  0.888110  1.0  -0.0483
  C  C203  1  0.967500  0.902000  0.787520  1.0  0.0208
  C  C204  1  0.946400  0.812760  0.878130  1.0  -0.0333
  C  C205  1  0.322800  0.700160  0.560560  1.0  0.6657
  C  C206  1  0.432400  0.623320  0.672470  1.0  0.044
  C  C207  1  0.363800  0.672890  0.598790  1.0  -0.1433
  C  C208  1  0.347800  0.608380  0.648590  1.0  -0.1155
  C  C209  1  0.468100  0.549740  0.712480  1.0  -0.0935
  C  C210  1  0.480500  0.663260  0.659070  1.0  -0.1435
  C  C211  1  0.312300  0.633000  0.611890  1.0  -0.0483
  C  C212  1  0.467500  0.598000  0.712480  1.0  0.0212
  C  C213  1  0.446400  0.687240  0.621870  1.0  -0.0333
  C  C214  1  0.822800  0.200160  0.560560  1.0  0.6657
  C  C215  1  0.932400  0.123320  0.672470  1.0  0.044
  C  C216  1  0.863800  0.172890  0.598790  1.0  -0.1433
  C  C217  1  0.847800  0.108380  0.648590  1.0  -0.1155
  C  C218  1  0.968100  0.049740  0.712480  1.0  -0.0935
  C  C219  1  0.980500  0.163260  0.659070  1.0  -0.1435
  C  C220  1  0.812300  0.133000  0.611890  1.0  -0.0483
  C  C221  1  0.967500  0.098000  0.712480  1.0  0.0212
  C  C222  1  0.946400  0.187240  0.621870  1.0  -0.0333
  C  C223  1  0.677200  0.299840  0.560560  1.0  0.6652
  C  C224  1  0.567600  0.376680  0.672470  1.0  0.0449
  C  C225  1  0.636200  0.327110  0.598790  1.0  -0.1429
  C  C226  1  0.652200  0.391620  0.648590  1.0  -0.1144
  C  C227  1  0.531900  0.450260  0.712480  1.0  -0.0936
  C  C228  1  0.519500  0.336740  0.659070  1.0  -0.1455
  C  C229  1  0.687700  0.367000  0.611890  1.0  -0.046
  C  C230  1  0.532500  0.402000  0.712480  1.0  0.0216
  C  C231  1  0.553600  0.312760  0.621870  1.0  -0.0329
  C  C232  1  0.177200  0.799840  0.560560  1.0  0.6652
  C  C233  1  0.067600  0.876680  0.672470  1.0  0.0449
  C  C234  1  0.136200  0.827110  0.598790  1.0  -0.1429
  C  C235  1  0.152200  0.891620  0.648590  1.0  -0.1144
  C  C236  1  0.031900  0.950260  0.712480  1.0  -0.0936
  C  C237  1  0.019500  0.836740  0.659070  1.0  -0.1455
  C  C238  1  0.187700  0.867000  0.611890  1.0  -0.046
  C  C239  1  0.032500  0.902000  0.712480  1.0  0.0216
  C  C240  1  0.053600  0.812760  0.621870  1.0  -0.0329
  C  C241  1  0.500000  0.474400  0.250000  1.0  0.0545
  C  C242  1  0.500000  0.378860  0.250000  1.0  -0.0992
  C  C243  1  0.000000  0.974400  0.250000  1.0  0.0545
  C  C244  1  0.000000  0.878860  0.250000  1.0  -0.0992
  C  C245  1  0.500000  0.525600  0.250000  1.0  0.0539
  C  C246  1  0.500000  0.621140  0.250000  1.0  -0.0967
  C  C247  1  0.000000  0.025600  0.250000  1.0  0.0539
  C  C248  1  0.000000  0.121140  0.250000  1.0  -0.0967
  C  C249  1  0.500000  0.525600  0.750000  1.0  0.0539
  C  C250  1  0.500000  0.621140  0.750000  1.0  -0.0967
  C  C251  1  0.000000  0.025600  0.750000  1.0  0.0539
  C  C252  1  0.000000  0.121140  0.750000  1.0  -0.0967
  C  C253  1  0.500000  0.474400  0.750000  1.0  0.0545
  C  C254  1  0.500000  0.378860  0.750000  1.0  -0.0992
  C  C255  1  0.000000  0.974400  0.750000  1.0  0.0545
  C  C256  1  0.000000  0.878860  0.750000  1.0  -0.0992
  O  O257  1  0.378200  0.267440  0.046360  1.0  -0.577
  O  O258  1  0.236900  0.310860  0.045730  1.0  -0.5787
  O  O259  1  0.878200  0.767440  0.046360  1.0  -0.577
  O  O260  1  0.736900  0.810860  0.045730  1.0  -0.579
  O  O261  1  0.621800  0.732560  0.046360  1.0  -0.5776
  O  O262  1  0.763100  0.689140  0.045730  1.0  -0.5784
  O  O263  1  0.121800  0.232560  0.046360  1.0  -0.5776
  O  O264  1  0.263100  0.189140  0.045730  1.0  -0.5786
  O  O265  1  0.621800  0.267440  0.453640  1.0  -0.5776
  O  O266  1  0.763100  0.310860  0.454270  1.0  -0.5786
  O  O267  1  0.121800  0.767440  0.453640  1.0  -0.5776
  O  O268  1  0.263100  0.810860  0.454270  1.0  -0.5791
  O  O269  1  0.378200  0.732560  0.453640  1.0  -0.5762
  O  O270  1  0.236900  0.689140  0.454270  1.0  -0.5782
  O  O271  1  0.878200  0.232560  0.453640  1.0  -0.5763
  O  O272  1  0.736900  0.189140  0.454270  1.0  -0.5784
  O  O273  1  0.621800  0.732560  0.953640  1.0  -0.5774
  O  O274  1  0.763100  0.689140  0.954270  1.0  -0.5782
  O  O275  1  0.121800  0.232560  0.953640  1.0  -0.5774
  O  O276  1  0.263100  0.189140  0.954270  1.0  -0.5785
  O  O277  1  0.378200  0.267440  0.953640  1.0  -0.5772
  O  O278  1  0.236900  0.310860  0.954270  1.0  -0.5785
  O  O279  1  0.878200  0.767440  0.953640  1.0  -0.5772
  O  O280  1  0.736900  0.810860  0.954270  1.0  -0.5788
  O  O281  1  0.378200  0.732560  0.546360  1.0  -0.576
  O  O282  1  0.236900  0.689140  0.545730  1.0  -0.5785
  O  O283  1  0.878200  0.232560  0.546360  1.0  -0.576
  O  O284  1  0.736900  0.189140  0.545730  1.0  -0.5788
  O  O285  1  0.621800  0.267440  0.546360  1.0  -0.5776
  O  O286  1  0.763100  0.310860  0.545730  1.0  -0.5785
  O  O287  1  0.121800  0.767440  0.546360  1.0  -0.5776
  O  O288  1  0.263100  0.810860  0.545730  1.0  -0.579
