# generated using pymatgen
data_Co2H8C14N6O7
_symmetry_space_group_name_H-M   'P 1'
_cell_length_a   6.92470000
_cell_length_b   20.62710000
_cell_length_c   26.09740000
_cell_angle_alpha   90.00000000
_cell_angle_beta   90.00000000
_cell_angle_gamma   90.00000000
_symmetry_Int_Tables_number   1
_chemical_formula_structural   Co2H8C14N6O7
_chemical_formula_sum   'Co16 H64 C112 N48 O56'
_cell_volume   3727.66073671
_cell_formula_units_Z   8
loop_
 _symmetry_equiv_pos_site_id
 _symmetry_equiv_pos_as_xyz
  1  'x, y, z'
loop_
 _atom_site_type_symbol
 _atom_site_label
 _atom_site_symmetry_multiplicity
 _atom_site_fract_x
 _atom_site_fract_y
 _atom_site_fract_z
 _atom_site_occupancy
 _atom_site_charge
  Co  Co1  1  0.762860  0.978110  0.635010  1.0  0.8417
  Co  Co2  1  0.997050  0.492630  0.750200  1.0  1.0086
  Co  Co3  1  0.237140  0.521890  0.135010  1.0  0.8434
  Co  Co4  1  0.002950  0.007370  0.250200  1.0  1.0087
  Co  Co5  1  0.262860  0.021890  0.864990  1.0  0.8436
  Co  Co6  1  0.497050  0.507370  0.749800  1.0  1.0089
  Co  Co7  1  0.737140  0.478110  0.364990  1.0  0.8422
  Co  Co8  1  0.502950  0.992630  0.249800  1.0  1.0089
  Co  Co9  1  0.237140  0.021890  0.364990  1.0  0.8432
  Co  Co10  1  0.002950  0.507370  0.249800  1.0  1.0091
  Co  Co11  1  0.762860  0.478110  0.864990  1.0  0.8414
  Co  Co12  1  0.997050  0.992630  0.749800  1.0  1.009
  Co  Co13  1  0.737140  0.978110  0.135010  1.0  0.8415
  Co  Co14  1  0.502950  0.492630  0.250200  1.0  1.0094
  Co  Co15  1  0.262860  0.521890  0.635010  1.0  0.8427
  Co  Co16  1  0.497050  0.007370  0.750200  1.0  1.0094
  H  H17  1  0.730800  0.928700  0.714200  1.0  0.4184
  H  H18  1  0.364300  0.901500  0.528400  1.0  0.1455
  H  H19  1  0.355200  0.923000  0.442200  1.0  0.0745
  H  H20  1  0.137700  0.094600  0.465700  1.0  0.0953
  H  H21  1  0.136300  0.077600  0.552900  1.0  0.13
  H  H22  1  0.934400  0.213300  0.737900  1.0  0.1182
  H  H23  1  0.898700  0.165700  0.588900  1.0  0.1027
  H  H24  1  0.941000  0.353200  0.630600  1.0  0.1115
  H  H25  1  0.269200  0.571300  0.214200  1.0  0.4178
  H  H26  1  0.635700  0.598500  0.028400  1.0  0.1448
  H  H27  1  0.644800  0.577000  0.942200  1.0  0.0746
  H  H28  1  0.862300  0.405400  0.965700  1.0  0.0958
  H  H29  1  0.863700  0.422400  0.052900  1.0  0.1301
  H  H30  1  0.065600  0.286700  0.237900  1.0  0.1178
  H  H31  1  0.101300  0.334300  0.088900  1.0  0.1026
  H  H32  1  0.059000  0.146800  0.130600  1.0  0.1116
  H  H33  1  0.230800  0.071300  0.785800  1.0  0.4179
  H  H34  1  0.864300  0.098500  0.971600  1.0  0.1444
  H  H35  1  0.855200  0.077000  0.057800  1.0  0.0746
  H  H36  1  0.637700  0.905400  0.034300  1.0  0.0968
  H  H37  1  0.636300  0.922400  0.947100  1.0  0.1301
  H  H38  1  0.434400  0.786700  0.762100  1.0  0.1189
  H  H39  1  0.398700  0.834300  0.911100  1.0  0.1018
  H  H40  1  0.441000  0.646800  0.869400  1.0  0.1113
  H  H41  1  0.769200  0.428700  0.285800  1.0  0.4183
  H  H42  1  0.135700  0.401500  0.471600  1.0  0.1455
  H  H43  1  0.144800  0.423000  0.557800  1.0  0.0751
  H  H44  1  0.362300  0.594600  0.534300  1.0  0.095
  H  H45  1  0.363700  0.577600  0.447100  1.0  0.1299
  H  H46  1  0.565600  0.713300  0.262100  1.0  0.1191
  H  H47  1  0.601300  0.665700  0.411100  1.0  0.1017
  H  H48  1  0.559000  0.853200  0.369400  1.0  0.1115
  H  H49  1  0.269200  0.071300  0.285800  1.0  0.4169
  H  H50  1  0.635700  0.098500  0.471600  1.0  0.1447
  H  H51  1  0.644800  0.077000  0.557800  1.0  0.0747
  H  H52  1  0.862300  0.905400  0.534300  1.0  0.0966
  H  H53  1  0.863700  0.922400  0.447100  1.0  0.1299
  H  H54  1  0.065600  0.786700  0.262100  1.0  0.1192
  H  H55  1  0.101300  0.834300  0.411100  1.0  0.1017
  H  H56  1  0.059000  0.646800  0.369400  1.0  0.1117
  H  H57  1  0.730800  0.428700  0.785800  1.0  0.4186
  H  H58  1  0.364300  0.401500  0.971600  1.0  0.1455
  H  H59  1  0.355200  0.423000  0.057800  1.0  0.075
  H  H60  1  0.137700  0.594600  0.034300  1.0  0.0953
  H  H61  1  0.136300  0.577600  0.947100  1.0  0.1302
  H  H62  1  0.934400  0.713300  0.762100  1.0  0.1189
  H  H63  1  0.898700  0.665700  0.911100  1.0  0.1017
  H  H64  1  0.941000  0.853200  0.869400  1.0  0.1113
  H  H65  1  0.769200  0.928700  0.214200  1.0  0.418
  H  H66  1  0.135700  0.901500  0.028400  1.0  0.1456
  H  H67  1  0.144800  0.923000  0.942200  1.0  0.0745
  H  H68  1  0.362300  0.094600  0.965700  1.0  0.0952
  H  H69  1  0.363700  0.077600  0.052900  1.0  0.1297
  H  H70  1  0.565600  0.213300  0.237900  1.0  0.1181
  H  H71  1  0.601300  0.165700  0.088900  1.0  0.1026
  H  H72  1  0.559000  0.353200  0.130600  1.0  0.1116
  H  H73  1  0.230800  0.571300  0.714200  1.0  0.4185
  H  H74  1  0.864300  0.598500  0.528400  1.0  0.1445
  H  H75  1  0.855200  0.577000  0.442200  1.0  0.0745
  H  H76  1  0.637700  0.405400  0.465700  1.0  0.0958
  H  H77  1  0.636300  0.422400  0.552900  1.0  0.1302
  H  H78  1  0.434400  0.286700  0.737900  1.0  0.118
  H  H79  1  0.398700  0.334300  0.588900  1.0  0.1028
  H  H80  1  0.441000  0.146800  0.630600  1.0  0.1114
  C  C81  1  0.254400  0.978130  0.606980  1.0  0.3617
  C  C82  1  0.250900  0.987590  0.550710  1.0  0.0347
  C  C83  1  0.317000  0.940970  0.516630  1.0  -0.176
  C  C84  1  0.311200  0.954440  0.464860  1.0  0.1791
  C  C85  1  0.182800  0.055320  0.478540  1.0  0.1585
  C  C86  1  0.182300  0.045560  0.531040  1.0  -0.153
  C  C87  1  0.934000  0.291130  0.691000  1.0  -0.117
  C  C88  1  0.927900  0.225670  0.703650  1.0  0.0345
  C  C89  1  0.912200  0.178210  0.665700  1.0  -0.1378
  C  C90  1  0.909300  0.196590  0.614680  1.0  -0.0501
  C  C91  1  0.922500  0.261760  0.602830  1.0  -0.0731
  C  C92  1  0.933800  0.309720  0.639760  1.0  -0.0233
  C  C93  1  0.942500  0.343690  0.732300  1.0  0.6684
  C  C94  1  0.896000  0.106970  0.677560  1.0  0.6856
  C  C95  1  0.745600  0.521870  0.106980  1.0  0.362
  C  C96  1  0.749100  0.512410  0.050710  1.0  0.034
  C  C97  1  0.683000  0.559030  0.016630  1.0  -0.1795
  C  C98  1  0.688800  0.545560  0.964860  1.0  0.177
  C  C99  1  0.817200  0.444680  0.978540  1.0  0.1591
  C  C100  1  0.817700  0.454440  0.031040  1.0  -0.1524
  C  C101  1  0.066000  0.208870  0.191000  1.0  -0.1167
  C  C102  1  0.072100  0.274330  0.203650  1.0  0.0341
  C  C103  1  0.087800  0.321790  0.165700  1.0  -0.1383
  C  C104  1  0.090700  0.303410  0.114680  1.0  -0.0504
  C  C105  1  0.077500  0.238240  0.102830  1.0  -0.0735
  C  C106  1  0.066200  0.190280  0.139760  1.0  -0.0228
  C  C107  1  0.057500  0.156310  0.232300  1.0  0.6676
  C  C108  1  0.104000  0.393030  0.177560  1.0  0.686
  C  C109  1  0.754400  0.021870  0.893020  1.0  0.3622
  C  C110  1  0.750900  0.012410  0.949290  1.0  0.035
  C  C111  1  0.817000  0.059030  0.983370  1.0  -0.1786
  C  C112  1  0.811200  0.045560  0.035140  1.0  0.1777
  C  C113  1  0.682800  0.944680  0.021460  1.0  0.1594
  C  C114  1  0.682300  0.954440  0.968960  1.0  -0.1524
  C  C115  1  0.434000  0.708870  0.809000  1.0  -0.1196
  C  C116  1  0.427900  0.774330  0.796350  1.0  0.0346
  C  C117  1  0.412200  0.821790  0.834300  1.0  -0.1383
  C  C118  1  0.409300  0.803410  0.885320  1.0  -0.0494
  C  C119  1  0.422500  0.738240  0.897170  1.0  -0.0733
  C  C120  1  0.433800  0.690280  0.860240  1.0  -0.0238
  C  C121  1  0.442500  0.656310  0.767700  1.0  0.6683
  C  C122  1  0.396000  0.893030  0.822440  1.0  0.6861
  C  C123  1  0.245600  0.478130  0.393020  1.0  0.3612
  C  C124  1  0.249100  0.487590  0.449290  1.0  0.0347
  C  C125  1  0.183000  0.440970  0.483370  1.0  -0.1765
  C  C126  1  0.188800  0.454440  0.535140  1.0  0.1782
  C  C127  1  0.317200  0.555320  0.521460  1.0  0.159
  C  C128  1  0.317700  0.545560  0.468960  1.0  -0.1523
  C  C129  1  0.566000  0.791130  0.309000  1.0  -0.1181
  C  C130  1  0.572100  0.725670  0.296350  1.0  0.0349
  C  C131  1  0.587800  0.678210  0.334300  1.0  -0.1391
  C  C132  1  0.590700  0.696590  0.385320  1.0  -0.0496
  C  C133  1  0.577500  0.761760  0.397170  1.0  -0.0731
  C  C134  1  0.566200  0.809720  0.360240  1.0  -0.0238
  C  C135  1  0.557500  0.843690  0.267700  1.0  0.6683
  C  C136  1  0.604000  0.606970  0.322440  1.0  0.6855
  C  C137  1  0.745600  0.021870  0.393020  1.0  0.3623
  C  C138  1  0.749100  0.012410  0.449290  1.0  0.0349
  C  C139  1  0.683000  0.059030  0.483370  1.0  -0.1794
  C  C140  1  0.688800  0.045560  0.535140  1.0  0.1767
  C  C141  1  0.817200  0.944680  0.521460  1.0  0.1597
  C  C142  1  0.817700  0.954440  0.468960  1.0  -0.1521
  C  C143  1  0.066000  0.708870  0.309000  1.0  -0.1194
  C  C144  1  0.072100  0.774330  0.296350  1.0  0.0346
  C  C145  1  0.087800  0.821790  0.334300  1.0  -0.1385
  C  C146  1  0.090700  0.803410  0.385320  1.0  -0.0494
  C  C147  1  0.077500  0.738240  0.397170  1.0  -0.0733
  C  C148  1  0.066200  0.690280  0.360240  1.0  -0.0233
  C  C149  1  0.057500  0.656310  0.267700  1.0  0.6677
  C  C150  1  0.104000  0.893030  0.322440  1.0  0.686
  C  C151  1  0.254400  0.478130  0.893020  1.0  0.3612
  C  C152  1  0.250900  0.487590  0.949290  1.0  0.0348
  C  C153  1  0.317000  0.440970  0.983370  1.0  -0.1763
  C  C154  1  0.311200  0.454440  0.035140  1.0  0.1792
  C  C155  1  0.182800  0.555320  0.021460  1.0  0.1583
  C  C156  1  0.182300  0.545560  0.968960  1.0  -0.1525
  C  C157  1  0.934000  0.791130  0.809000  1.0  -0.1182
  C  C158  1  0.927900  0.725670  0.796350  1.0  0.0349
  C  C159  1  0.912200  0.678210  0.834300  1.0  -0.1387
  C  C160  1  0.909300  0.696590  0.885320  1.0  -0.0495
  C  C161  1  0.922500  0.761760  0.897170  1.0  -0.0731
  C  C162  1  0.933800  0.809720  0.860240  1.0  -0.0239
  C  C163  1  0.942500  0.843690  0.767700  1.0  0.6676
  C  C164  1  0.896000  0.606970  0.822440  1.0  0.6856
  C  C165  1  0.245600  0.978130  0.106980  1.0  0.3616
  C  C166  1  0.249100  0.987590  0.050710  1.0  0.0346
  C  C167  1  0.183000  0.940970  0.016630  1.0  -0.1764
  C  C168  1  0.188800  0.954440  0.964860  1.0  0.1783
  C  C169  1  0.317200  0.055320  0.978540  1.0  0.1588
  C  C170  1  0.317700  0.045560  0.031040  1.0  -0.1528
  C  C171  1  0.566000  0.291130  0.191000  1.0  -0.1168
  C  C172  1  0.572100  0.225670  0.203650  1.0  0.0342
  C  C173  1  0.587800  0.178210  0.165700  1.0  -0.1381
  C  C174  1  0.590700  0.196590  0.114680  1.0  -0.0502
  C  C175  1  0.577500  0.261760  0.102830  1.0  -0.0731
  C  C176  1  0.566200  0.309720  0.139760  1.0  -0.0231
  C  C177  1  0.557500  0.343690  0.232300  1.0  0.6675
  C  C178  1  0.604000  0.106970  0.177560  1.0  0.6854
  C  C179  1  0.754400  0.521870  0.606980  1.0  0.362
  C  C180  1  0.750900  0.512410  0.550710  1.0  0.034
  C  C181  1  0.817000  0.559030  0.516630  1.0  -0.1783
  C  C182  1  0.811200  0.545560  0.464860  1.0  0.1778
  C  C183  1  0.682800  0.444680  0.478540  1.0  0.1589
  C  C184  1  0.682300  0.454440  0.531040  1.0  -0.1525
  C  C185  1  0.434000  0.208870  0.691000  1.0  -0.1169
  C  C186  1  0.427900  0.274330  0.703650  1.0  0.0344
  C  C187  1  0.412200  0.321790  0.665700  1.0  -0.1381
  C  C188  1  0.409300  0.303410  0.614680  1.0  -0.0504
  C  C189  1  0.422500  0.238240  0.602830  1.0  -0.0735
  C  C190  1  0.433800  0.190280  0.639760  1.0  -0.0234
  C  C191  1  0.442500  0.156310  0.732300  1.0  0.6669
  C  C192  1  0.396000  0.393030  0.677560  1.0  0.686
  N  N193  1  0.095800  0.971450  0.635640  1.0  -0.3103
  N  N194  1  0.162200  0.970690  0.683850  1.0  -0.0451
  N  N195  1  0.350300  0.976630  0.683860  1.0  -0.0089
  N  N196  1  0.414500  0.980870  0.635540  1.0  -0.3166
  N  N197  1  0.245700  0.010380  0.445520  1.0  -0.3865
  N  N198  1  0.924200  0.279140  0.548190  1.0  0.6263
  N  N199  1  0.904200  0.528550  0.135640  1.0  -0.3116
  N  N200  1  0.837800  0.529310  0.183850  1.0  -0.0455
  N  N201  1  0.649700  0.523370  0.183860  1.0  -0.0078
  N  N202  1  0.585500  0.519130  0.135540  1.0  -0.3179
  N  N203  1  0.754300  0.489620  0.945520  1.0  -0.3873
  N  N204  1  0.075800  0.220860  0.048190  1.0  0.6261
  N  N205  1  0.595800  0.028550  0.864360  1.0  -0.3113
  N  N206  1  0.662200  0.029310  0.816150  1.0  -0.0455
  N  N207  1  0.850300  0.023370  0.816140  1.0  -0.0086
  N  N208  1  0.914500  0.019130  0.864460  1.0  -0.318
  N  N209  1  0.745700  0.989620  0.054480  1.0  -0.3853
  N  N210  1  0.424200  0.720860  0.951810  1.0  0.6259
  N  N211  1  0.404200  0.471450  0.364360  1.0  -0.3109
  N  N212  1  0.337800  0.470690  0.316150  1.0  -0.0469
  N  N213  1  0.149700  0.476630  0.316140  1.0  -0.0083
  N  N214  1  0.085500  0.480870  0.364460  1.0  -0.3175
  N  N215  1  0.254300  0.510380  0.554480  1.0  -0.3865
  N  N216  1  0.575800  0.779140  0.451810  1.0  0.626
  N  N217  1  0.904200  0.028550  0.364360  1.0  -0.312
  N  N218  1  0.837800  0.029310  0.316150  1.0  -0.0463
  N  N219  1  0.649700  0.023370  0.316140  1.0  -0.0037
  N  N220  1  0.585500  0.019130  0.364460  1.0  -0.3186
  N  N221  1  0.754300  0.989620  0.554480  1.0  -0.3852
  N  N222  1  0.075800  0.720860  0.451810  1.0  0.6274
  N  N223  1  0.095800  0.471450  0.864360  1.0  -0.3106
  N  N224  1  0.162200  0.470690  0.816150  1.0  -0.046
  N  N225  1  0.350300  0.476630  0.816140  1.0  -0.0046
  N  N226  1  0.414500  0.480870  0.864460  1.0  -0.3172
  N  N227  1  0.245700  0.510380  0.054480  1.0  -0.3865
  N  N228  1  0.924200  0.779140  0.951810  1.0  0.6271
  N  N229  1  0.404200  0.971450  0.135640  1.0  -0.3106
  N  N230  1  0.337800  0.970690  0.183850  1.0  -0.0454
  N  N231  1  0.149700  0.976630  0.183860  1.0  -0.0041
  N  N232  1  0.085500  0.980870  0.135540  1.0  -0.3174
  N  N233  1  0.254300  0.010380  0.945520  1.0  -0.3863
  N  N234  1  0.575800  0.279140  0.048190  1.0  0.6243
  N  N235  1  0.595800  0.528550  0.635640  1.0  -0.3109
  N  N236  1  0.662200  0.529310  0.683850  1.0  -0.0452
  N  N237  1  0.850300  0.523370  0.683860  1.0  -0.0047
  N  N238  1  0.914500  0.519130  0.635540  1.0  -0.318
  N  N239  1  0.745700  0.489620  0.445520  1.0  -0.3874
  N  N240  1  0.424200  0.220860  0.548190  1.0  0.6248
  O  O241  1  0.898200  0.327700  0.776820  1.0  -0.5832
  O  O242  1  0.989100  0.398880  0.717180  1.0  -0.6014
  O  O243  1  0.962600  0.087450  0.719150  1.0  -0.5642
  O  O244  1  0.815300  0.074030  0.642770  1.0  -0.5667
  O  O245  1  0.934600  0.236310  0.516820  1.0  -0.38
  O  O246  1  0.923000  0.335380  0.536390  1.0  -0.3943
  O  O247  1  0.741000  0.969710  0.713200  1.0  -0.9046
  O  O248  1  0.101800  0.172300  0.276820  1.0  -0.5829
  O  O249  1  0.010900  0.101120  0.217180  1.0  -0.6012
  O  O250  1  0.037400  0.412550  0.219150  1.0  -0.5639
  O  O251  1  0.184700  0.425970  0.142770  1.0  -0.567
  O  O252  1  0.065400  0.263690  0.016820  1.0  -0.3786
  O  O253  1  0.077000  0.164620  0.036390  1.0  -0.3935
  O  O254  1  0.259000  0.530290  0.213200  1.0  -0.9048
  O  O255  1  0.398200  0.672300  0.723180  1.0  -0.5827
  O  O256  1  0.489100  0.601120  0.782820  1.0  -0.6017
  O  O257  1  0.462600  0.912550  0.780850  1.0  -0.5657
  O  O258  1  0.315300  0.925970  0.857230  1.0  -0.5672
  O  O259  1  0.434600  0.763690  0.983180  1.0  -0.3802
  O  O260  1  0.423000  0.664620  0.963610  1.0  -0.3948
  O  O261  1  0.241000  0.030290  0.786800  1.0  -0.9043
  O  O262  1  0.601800  0.827700  0.223180  1.0  -0.5824
  O  O263  1  0.510900  0.898880  0.282820  1.0  -0.6012
  O  O264  1  0.537400  0.587450  0.280850  1.0  -0.5655
  O  O265  1  0.684700  0.574030  0.357230  1.0  -0.5666
  O  O266  1  0.565400  0.736310  0.483180  1.0  -0.3803
  O  O267  1  0.577000  0.835380  0.463610  1.0  -0.3946
  O  O268  1  0.759000  0.469710  0.286800  1.0  -0.9044
  O  O269  1  0.101800  0.672300  0.223180  1.0  -0.5822
  O  O270  1  0.010900  0.601120  0.282820  1.0  -0.6015
  O  O271  1  0.037400  0.912550  0.280850  1.0  -0.5656
  O  O272  1  0.184700  0.925970  0.357230  1.0  -0.5671
  O  O273  1  0.065400  0.763690  0.483180  1.0  -0.38
  O  O274  1  0.077000  0.664620  0.463610  1.0  -0.3945
  O  O275  1  0.259000  0.030290  0.286800  1.0  -0.9046
  O  O276  1  0.898200  0.827700  0.723180  1.0  -0.5831
  O  O277  1  0.989100  0.898880  0.782820  1.0  -0.6017
  O  O278  1  0.962600  0.587450  0.780850  1.0  -0.5657
  O  O279  1  0.815300  0.574030  0.857230  1.0  -0.5669
  O  O280  1  0.934600  0.736310  0.983180  1.0  -0.3805
  O  O281  1  0.923000  0.835380  0.963610  1.0  -0.3951
  O  O282  1  0.741000  0.469710  0.786800  1.0  -0.9042
  O  O283  1  0.601800  0.327700  0.276820  1.0  -0.5826
  O  O284  1  0.510900  0.398880  0.217180  1.0  -0.6009
  O  O285  1  0.537400  0.087450  0.219150  1.0  -0.564
  O  O286  1  0.684700  0.074030  0.142770  1.0  -0.5664
  O  O287  1  0.565400  0.236310  0.016820  1.0  -0.3796
  O  O288  1  0.577000  0.335380  0.036390  1.0  -0.3944
  O  O289  1  0.759000  0.969710  0.213200  1.0  -0.9049
  O  O290  1  0.398200  0.172300  0.776820  1.0  -0.5841
  O  O291  1  0.489100  0.101120  0.717180  1.0  -0.6016
  O  O292  1  0.462600  0.412550  0.719150  1.0  -0.564
  O  O293  1  0.315300  0.425970  0.642770  1.0  -0.567
  O  O294  1  0.434600  0.263690  0.516820  1.0  -0.3789
  O  O295  1  0.423000  0.164620  0.536390  1.0  -0.3933
  O  O296  1  0.241000  0.530290  0.713200  1.0  -0.9044
