# generated using pymatgen
data_CoH16(C12N5)2
_symmetry_space_group_name_H-M   'P 1'
_cell_length_a   27.72000000
_cell_length_b   27.72000000
_cell_length_c   9.71350000
_cell_angle_alpha   90.00000000
_cell_angle_beta   90.00000000
_cell_angle_gamma   120.00000000
_symmetry_Int_Tables_number   1
_chemical_formula_structural   CoH16(C12N5)2
_chemical_formula_sum   'Co9 H144 C216 N90'
_cell_volume   6463.87319510
_cell_formula_units_Z   9
loop_
 _symmetry_equiv_pos_site_id
 _symmetry_equiv_pos_as_xyz
  1  'x, y, z'
loop_
 _atom_site_type_symbol
 _atom_site_label
 _atom_site_symmetry_multiplicity
 _atom_site_fract_x
 _atom_site_fract_y
 _atom_site_fract_z
 _atom_site_occupancy
 _atom_site_charge
  Co  Co1  1  0.500000  0.000000  0.000000  1.0  0.5603
  Co  Co2  1  0.166670  0.333333  0.333333  1.0  0.5609
  Co  Co3  1  0.833330  0.666667  0.666667  1.0  0.5607
  Co  Co4  1  0.000000  0.500000  0.000000  1.0  0.5603
  Co  Co5  1  0.666667  0.833330  0.333333  1.0  0.5597
  Co  Co6  1  0.333333  0.166670  0.666667  1.0  0.5596
  Co  Co7  1  0.500000  0.500000  0.000000  1.0  0.5603
  Co  Co8  1  0.166670  0.833330  0.333333  1.0  0.5602
  Co  Co9  1  0.833330  0.166670  0.666667  1.0  0.5611
  H  H10  1  0.376900  0.888900  0.015900  1.0  0.075
  H  H11  1  0.322600  0.824000  0.175700  1.0  0.112
  H  H12  1  0.359700  0.823700  0.389700  1.0  0.1106
  H  H13  1  0.449600  0.891200  0.440200  1.0  0.1151
  H  H14  1  0.687100  0.134100  0.307800  1.0  0.1162
  H  H15  1  0.766100  0.181500  0.434100  1.0  0.0706
  H  H16  1  0.714300  0.060400  0.695500  1.0  0.068
  H  H17  1  0.632200  0.011100  0.580100  1.0  0.1044
  H  H18  1  0.043570  0.222230  0.349230  1.0  0.075
  H  H19  1  0.989270  0.157330  0.509030  1.0  0.1138
  H  H20  1  0.026370  0.157030  0.723030  1.0  0.1118
  H  H21  1  0.116270  0.224530  0.773530  1.0  0.1151
  H  H22  1  0.353770  0.467430  0.641130  1.0  0.1162
  H  H23  1  0.432770  0.514830  0.767430  1.0  0.0706
  H  H24  1  0.380970  0.393730  0.028830  1.0  0.068
  H  H25  1  0.298870  0.344430  0.913430  1.0  0.1043
  H  H26  1  0.710230  0.555570  0.682570  1.0  0.075
  H  H27  1  0.655930  0.490670  0.842370  1.0  0.112
  H  H28  1  0.693030  0.490370  0.056370  1.0  0.1106
  H  H29  1  0.782930  0.557870  0.106870  1.0  0.1151
  H  H30  1  0.020430  0.800770  0.974470  1.0  0.1162
  H  H31  1  0.099430  0.848170  0.100770  1.0  0.0704
  H  H32  1  0.047630  0.727070  0.362170  1.0  0.068
  H  H33  1  0.965530  0.677770  0.246770  1.0  0.1044
  H  H34  1  0.111100  0.488000  0.015900  1.0  0.0746
  H  H35  1  0.176000  0.498600  0.175700  1.0  0.1131
  H  H36  1  0.176300  0.536000  0.389700  1.0  0.1106
  H  H37  1  0.108800  0.558400  0.440200  1.0  0.1147
  H  H38  1  0.865900  0.553000  0.307800  1.0  0.1167
  H  H39  1  0.818500  0.584600  0.434100  1.0  0.071
  H  H40  1  0.939600  0.653900  0.695500  1.0  0.0675
  H  H41  1  0.988900  0.621100  0.580100  1.0  0.105
  H  H42  1  0.777770  0.821330  0.349230  1.0  0.0746
  H  H43  1  0.842670  0.831930  0.509030  1.0  0.1131
  H  H44  1  0.842970  0.869330  0.723030  1.0  0.1106
  H  H45  1  0.775470  0.891730  0.773530  1.0  0.1146
  H  H46  1  0.532570  0.886330  0.641130  1.0  0.1167
  H  H47  1  0.485170  0.917930  0.767430  1.0  0.071
  H  H48  1  0.606270  0.987230  0.028830  1.0  0.0675
  H  H49  1  0.655570  0.954430  0.913430  1.0  0.1049
  H  H50  1  0.444430  0.154670  0.682570  1.0  0.0746
  H  H51  1  0.509330  0.165270  0.842370  1.0  0.1131
  H  H52  1  0.509630  0.202670  0.056370  1.0  0.1106
  H  H53  1  0.442130  0.225070  0.106870  1.0  0.1147
  H  H54  1  0.199230  0.219670  0.974470  1.0  0.1167
  H  H55  1  0.151830  0.251270  0.100770  1.0  0.0712
  H  H56  1  0.272930  0.320570  0.362170  1.0  0.0675
  H  H57  1  0.322230  0.287770  0.246770  1.0  0.105
  H  H58  1  0.512000  0.623100  0.015900  1.0  0.0738
  H  H59  1  0.501400  0.677400  0.175700  1.0  0.1147
  H  H60  1  0.464000  0.640300  0.389700  1.0  0.1113
  H  H61  1  0.441600  0.550400  0.440200  1.0  0.1159
  H  H62  1  0.447000  0.312900  0.307800  1.0  0.1169
  H  H63  1  0.415400  0.233900  0.434100  1.0  0.0721
  H  H64  1  0.346100  0.285700  0.695500  1.0  0.0675
  H  H65  1  0.378900  0.367800  0.580100  1.0  0.1043
  H  H66  1  0.178670  0.956430  0.349230  1.0  0.0738
  H  H67  1  0.168070  0.010730  0.509030  1.0  0.1127
  H  H68  1  0.130670  0.973630  0.723030  1.0  0.1105
  H  H69  1  0.108270  0.883730  0.773530  1.0  0.1159
  H  H70  1  0.113670  0.646230  0.641130  1.0  0.1169
  H  H71  1  0.082070  0.567230  0.767430  1.0  0.0721
  H  H72  1  0.012770  0.619030  0.028830  1.0  0.0675
  H  H73  1  0.045570  0.701130  0.913430  1.0  0.1043
  H  H74  1  0.845330  0.289770  0.682570  1.0  0.0738
  H  H75  1  0.834730  0.344070  0.842370  1.0  0.1147
  H  H76  1  0.797330  0.306970  0.056370  1.0  0.1113
  H  H77  1  0.774930  0.217070  0.106870  1.0  0.1159
  H  H78  1  0.780330  0.979570  0.974470  1.0  0.1169
  H  H79  1  0.748730  0.900570  0.100770  1.0  0.0722
  H  H80  1  0.679430  0.952370  0.362170  1.0  0.0674
  H  H81  1  0.712230  0.034470  0.246770  1.0  0.1043
  H  H82  1  0.623100  0.111100  0.984100  1.0  0.0742
  H  H83  1  0.677400  0.176000  0.824300  1.0  0.1113
  H  H84  1  0.640300  0.176300  0.610300  1.0  0.1113
  H  H85  1  0.550400  0.108800  0.559800  1.0  0.1141
  H  H86  1  0.312900  0.865900  0.692200  1.0  0.1168
  H  H87  1  0.233900  0.818500  0.565900  1.0  0.071
  H  H88  1  0.285700  0.939600  0.304500  1.0  0.0671
  H  H89  1  0.367800  0.988900  0.419900  1.0  0.1053
  H  H90  1  0.289770  0.444430  0.317430  1.0  0.0743
  H  H91  1  0.344070  0.509330  0.157630  1.0  0.1113
  H  H92  1  0.306970  0.509630  0.943630  1.0  0.1113
  H  H93  1  0.217070  0.442130  0.893130  1.0  0.1141
  H  H94  1  0.979570  0.199230  0.025530  1.0  0.1168
  H  H95  1  0.900570  0.151830  0.899230  1.0  0.0708
  H  H96  1  0.952370  0.272930  0.637830  1.0  0.0672
  H  H97  1  0.034470  0.322230  0.753230  1.0  0.1053
  H  H98  1  0.956430  0.777770  0.650770  1.0  0.0742
  H  H99  1  0.010730  0.842670  0.490970  1.0  0.1132
  H  H100  1  0.973630  0.842970  0.276970  1.0  0.1126
  H  H101  1  0.883730  0.775470  0.226470  1.0  0.1141
  H  H102  1  0.646230  0.532570  0.358870  1.0  0.1168
  H  H103  1  0.567230  0.485170  0.232570  1.0  0.071
  H  H104  1  0.619030  0.606270  0.971170  1.0  0.0671
  H  H105  1  0.701130  0.655570  0.086570  1.0  0.1052
  H  H106  1  0.888900  0.512000  0.984100  1.0  0.0745
  H  H107  1  0.824000  0.501400  0.824300  1.0  0.1134
  H  H108  1  0.823700  0.464000  0.610300  1.0  0.1105
  H  H109  1  0.891200  0.441600  0.559800  1.0  0.1153
  H  H110  1  0.134100  0.447000  0.692200  1.0  0.1168
  H  H111  1  0.181500  0.415400  0.565900  1.0  0.0707
  H  H112  1  0.060400  0.346100  0.304500  1.0  0.0667
  H  H113  1  0.011100  0.378900  0.419900  1.0  0.1047
  H  H114  1  0.555570  0.845330  0.317430  1.0  0.0745
  H  H115  1  0.490670  0.834730  0.157630  1.0  0.1134
  H  H116  1  0.490370  0.797330  0.943630  1.0  0.1105
  H  H117  1  0.557870  0.774930  0.893130  1.0  0.1153
  H  H118  1  0.800770  0.780330  0.025530  1.0  0.1168
  H  H119  1  0.848170  0.748730  0.899230  1.0  0.0708
  H  H120  1  0.727070  0.679430  0.637830  1.0  0.0667
  H  H121  1  0.677770  0.712230  0.753230  1.0  0.1047
  H  H122  1  0.222230  0.178670  0.650770  1.0  0.0745
  H  H123  1  0.157330  0.168070  0.490970  1.0  0.1135
  H  H124  1  0.157030  0.130670  0.276970  1.0  0.1106
  H  H125  1  0.224530  0.108270  0.226470  1.0  0.1153
  H  H126  1  0.467430  0.113670  0.358870  1.0  0.1168
  H  H127  1  0.514830  0.082070  0.232570  1.0  0.0707
  H  H128  1  0.393730  0.012770  0.971170  1.0  0.0666
  H  H129  1  0.344430  0.045570  0.086570  1.0  0.1047
  H  H130  1  0.488000  0.376900  0.984100  1.0  0.0729
  H  H131  1  0.498600  0.322600  0.824300  1.0  0.114
  H  H132  1  0.536000  0.359700  0.610300  1.0  0.1111
  H  H133  1  0.558400  0.449600  0.559800  1.0  0.1157
  H  H134  1  0.553000  0.687100  0.692200  1.0  0.1176
  H  H135  1  0.584600  0.766100  0.565900  1.0  0.0707
  H  H136  1  0.653900  0.714300  0.304500  1.0  0.0667
  H  H137  1  0.621100  0.632200  0.419900  1.0  0.1043
  H  H138  1  0.154670  0.710230  0.317430  1.0  0.0729
  H  H139  1  0.165270  0.655930  0.157630  1.0  0.114
  H  H140  1  0.202670  0.693030  0.943630  1.0  0.1111
  H  H141  1  0.225070  0.782930  0.893130  1.0  0.1157
  H  H142  1  0.219670  0.020430  0.025530  1.0  0.1176
  H  H143  1  0.251270  0.099430  0.899230  1.0  0.0708
  H  H144  1  0.320570  0.047630  0.637830  1.0  0.0667
  H  H145  1  0.287770  0.965530  0.753230  1.0  0.1044
  H  H146  1  0.821330  0.043570  0.650770  1.0  0.0729
  H  H147  1  0.831930  0.989270  0.490970  1.0  0.1125
  H  H148  1  0.869330  0.026370  0.276970  1.0  0.1105
  H  H149  1  0.891730  0.116270  0.226470  1.0  0.1157
  H  H150  1  0.886330  0.353770  0.358870  1.0  0.1176
  H  H151  1  0.917930  0.432770  0.232570  1.0  0.0707
  H  H152  1  0.987230  0.380970  0.971170  1.0  0.0668
  H  H153  1  0.954430  0.298870  0.086570  1.0  0.1044
  C  C154  1  0.391800  0.889800  0.102300  1.0  0.1728
  C  C155  1  0.359100  0.850500  0.197000  1.0  -0.1514
  C  C156  1  0.381100  0.850600  0.324600  1.0  -0.0693
  C  C157  1  0.434300  0.890300  0.354400  1.0  -0.1081
  C  C158  1  0.465600  0.929600  0.254500  1.0  0.1701
  C  C159  1  0.521900  0.975500  0.274500  1.0  0.262
  C  C160  1  0.599300  0.034700  0.346400  1.0  0.3206
  C  C161  1  0.650190  0.066700  0.429400  1.0  -0.0368
  C  C162  1  0.691500  0.118300  0.387800  1.0  -0.1803
  C  C163  1  0.739100  0.146300  0.463500  1.0  0.1751
  C  C164  1  0.708600  0.075800  0.616400  1.0  0.1829
  C  C165  1  0.659300  0.045700  0.547100  1.0  -0.1553
  C  C166  1  0.058470  0.223130  0.435630  1.0  0.1728
  C  C167  1  0.025770  0.183830  0.530330  1.0  -0.1514
  C  C168  1  0.047770  0.183930  0.657930  1.0  -0.0693
  C  C169  1  0.100970  0.223630  0.687730  1.0  -0.1083
  C  C170  1  0.132270  0.262930  0.587830  1.0  0.1701
  C  C171  1  0.188570  0.308830  0.607830  1.0  0.2619
  C  C172  1  0.265970  0.368030  0.679730  1.0  0.3206
  C  C173  1  0.316860  0.400030  0.762730  1.0  -0.0368
  C  C174  1  0.358170  0.451630  0.721130  1.0  -0.1803
  C  C175  1  0.405770  0.479630  0.796830  1.0  0.1751
  C  C176  1  0.375270  0.409130  0.949730  1.0  0.1829
  C  C177  1  0.325970  0.379030  0.880430  1.0  -0.1553
  C  C178  1  0.725130  0.556470  0.768970  1.0  0.1727
  C  C179  1  0.692430  0.517170  0.863670  1.0  -0.1514
  C  C180  1  0.714430  0.517270  0.991270  1.0  -0.0693
  C  C181  1  0.767630  0.556970  0.021070  1.0  -0.1081
  C  C182  1  0.798930  0.596270  0.921170  1.0  0.1701
  C  C183  1  0.855230  0.642170  0.941170  1.0  0.2619
  C  C184  1  0.932630  0.701370  0.013070  1.0  0.3207
  C  C185  1  0.983520  0.733370  0.096070  1.0  -0.0372
  C  C186  1  0.024830  0.784970  0.054470  1.0  -0.1803
  C  C187  1  0.072430  0.812970  0.130170  1.0  0.1749
  C  C188  1  0.041930  0.742470  0.283070  1.0  0.183
  C  C189  1  0.992630  0.712370  0.213770  1.0  -0.1553
  C  C190  1  0.110200  0.502000  0.102300  1.0  0.1728
  C  C191  1  0.149500  0.508600  0.197000  1.0  -0.1516
  C  C192  1  0.149400  0.530500  0.324600  1.0  -0.0686
  C  C193  1  0.109700  0.544000  0.354400  1.0  -0.1076
  C  C194  1  0.070400  0.536000  0.254500  1.0  0.1707
  C  C195  1  0.024500  0.546400  0.274500  1.0  0.2629
  C  C196  1  0.965300  0.564600  0.346400  1.0  0.32
  C  C197  1  0.933300  0.583490  0.429400  1.0  -0.0339
  C  C198  1  0.881700  0.573200  0.387800  1.0  -0.1791
  C  C199  1  0.853700  0.592800  0.463500  1.0  0.1746
  C  C200  1  0.924200  0.632800  0.616400  1.0  0.1844
  C  C201  1  0.954300  0.613600  0.547100  1.0  -0.1546
  C  C202  1  0.776870  0.835330  0.435630  1.0  0.1727
  C  C203  1  0.816170  0.841930  0.530330  1.0  -0.1516
  C  C204  1  0.816070  0.863830  0.657930  1.0  -0.0685
  C  C205  1  0.776370  0.877330  0.687730  1.0  -0.1074
  C  C206  1  0.737070  0.869330  0.587830  1.0  0.1707
  C  C207  1  0.691170  0.879730  0.607830  1.0  0.2629
  C  C208  1  0.631970  0.897930  0.679730  1.0  0.32
  C  C209  1  0.599970  0.916820  0.762730  1.0  -0.0339
  C  C210  1  0.548370  0.906530  0.721130  1.0  -0.1791
  C  C211  1  0.520370  0.926130  0.796830  1.0  0.1746
  C  C212  1  0.590870  0.966130  0.949730  1.0  0.1844
  C  C213  1  0.620970  0.946930  0.880430  1.0  -0.1546
  C  C214  1  0.443530  0.168670  0.768970  1.0  0.1726
  C  C215  1  0.482830  0.175270  0.863670  1.0  -0.1516
  C  C216  1  0.482730  0.197170  0.991270  1.0  -0.0686
  C  C217  1  0.443030  0.210670  0.021070  1.0  -0.1076
  C  C218  1  0.403730  0.202670  0.921170  1.0  0.1707
  C  C219  1  0.357830  0.213070  0.941170  1.0  0.2629
  C  C220  1  0.298630  0.231270  0.013070  1.0  0.32
  C  C221  1  0.266630  0.250160  0.096070  1.0  -0.0339
  C  C222  1  0.215030  0.239870  0.054470  1.0  -0.1791
  C  C223  1  0.187030  0.259470  0.130170  1.0  0.1746
  C  C224  1  0.257530  0.299470  0.283070  1.0  0.1843
  C  C225  1  0.287630  0.280270  0.213770  1.0  -0.1546
  C  C226  1  0.498000  0.608200  0.102300  1.0  0.1739
  C  C227  1  0.491400  0.640900  0.197000  1.0  -0.1511
  C  C228  1  0.469500  0.618900  0.324600  1.0  -0.0742
  C  C229  1  0.456000  0.565700  0.354400  1.0  -0.1043
  C  C230  1  0.464000  0.534400  0.254500  1.0  0.1705
  C  C231  1  0.453600  0.478100  0.274500  1.0  0.2596
  C  C232  1  0.435400  0.400700  0.346400  1.0  0.3192
  C  C233  1  0.416510  0.349810  0.429400  1.0  -0.036
  C  C234  1  0.426800  0.308500  0.387800  1.0  -0.1775
  C  C235  1  0.407200  0.260900  0.463500  1.0  0.1775
  C  C236  1  0.367200  0.291400  0.616400  1.0  0.184
  C  C237  1  0.386400  0.340700  0.547100  1.0  -0.1528
  C  C238  1  0.164670  0.941530  0.435630  1.0  0.1739
  C  C239  1  0.158070  0.974230  0.530330  1.0  -0.1511
  C  C240  1  0.136170  0.952230  0.657930  1.0  -0.0742
  C  C241  1  0.122670  0.899030  0.687730  1.0  -0.1042
  C  C242  1  0.130670  0.867730  0.587830  1.0  0.1705
  C  C243  1  0.120270  0.811430  0.607830  1.0  0.2596
  C  C244  1  0.102070  0.734030  0.679730  1.0  0.3192
  C  C245  1  0.083180  0.683140  0.762730  1.0  -0.036
  C  C246  1  0.093470  0.641830  0.721130  1.0  -0.1775
  C  C247  1  0.073870  0.594230  0.796830  1.0  0.1775
  C  C248  1  0.033870  0.624730  0.949730  1.0  0.184
  C  C249  1  0.053070  0.674030  0.880430  1.0  -0.1528
  C  C250  1  0.831330  0.274870  0.768970  1.0  0.174
  C  C251  1  0.824730  0.307570  0.863670  1.0  -0.1511
  C  C252  1  0.802830  0.285570  0.991270  1.0  -0.0742
  C  C253  1  0.789330  0.232370  0.021070  1.0  -0.1043
  C  C254  1  0.797330  0.201070  0.921170  1.0  0.1705
  C  C255  1  0.786930  0.144770  0.941170  1.0  0.2596
  C  C256  1  0.768730  0.067370  0.013070  1.0  0.3192
  C  C257  1  0.749840  0.016480  0.096070  1.0  -0.036
  C  C258  1  0.760130  0.975170  0.054470  1.0  -0.1775
  C  C259  1  0.740530  0.927570  0.130170  1.0  0.1775
  C  C260  1  0.700530  0.958070  0.283070  1.0  0.1839
  C  C261  1  0.719730  0.007370  0.213770  1.0  -0.1527
  C  C262  1  0.608200  0.110200  0.897700  1.0  0.1722
  C  C263  1  0.640900  0.149500  0.803000  1.0  -0.1507
  C  C264  1  0.618900  0.149400  0.675400  1.0  -0.0651
  C  C265  1  0.565700  0.109700  0.645600  1.0  -0.1089
  C  C266  1  0.534400  0.070400  0.745500  1.0  0.1703
  C  C267  1  0.478100  0.024500  0.725500  1.0  0.2618
  C  C268  1  0.400700  0.965300  0.653600  1.0  0.32
  C  C269  1  0.349810  0.933300  0.570600  1.0  -0.0357
  C  C270  1  0.308500  0.881700  0.612200  1.0  -0.1791
  C  C271  1  0.260900  0.853700  0.536500  1.0  0.1733
  C  C272  1  0.291400  0.924200  0.383600  1.0  0.1819
  C  C273  1  0.340700  0.954300  0.452900  1.0  -0.1553
  C  C274  1  0.274870  0.443530  0.231030  1.0  0.1721
  C  C275  1  0.307570  0.482830  0.136330  1.0  -0.1507
  C  C276  1  0.285570  0.482730  0.008730  1.0  -0.0651
  C  C277  1  0.232370  0.443030  0.978930  1.0  -0.1089
  C  C278  1  0.201070  0.403730  0.078830  1.0  0.1703
  C  C279  1  0.144770  0.357830  0.058830  1.0  0.2618
  C  C280  1  0.067370  0.298630  0.986930  1.0  0.3201
  C  C281  1  0.016480  0.266630  0.903930  1.0  -0.036
  C  C282  1  0.975170  0.215030  0.945530  1.0  -0.179
  C  C283  1  0.927570  0.187030  0.869830  1.0  0.1733
  C  C284  1  0.958070  0.257530  0.716930  1.0  0.182
  C  C285  1  0.007370  0.287630  0.786230  1.0  -0.1553
  C  C286  1  0.941530  0.776870  0.564370  1.0  0.1722
  C  C287  1  0.974230  0.816170  0.469670  1.0  -0.1507
  C  C288  1  0.952230  0.816070  0.342070  1.0  -0.0651
  C  C289  1  0.899030  0.776370  0.312270  1.0  -0.109
  C  C290  1  0.867730  0.737070  0.412170  1.0  0.1703
  C  C291  1  0.811430  0.691170  0.392170  1.0  0.2618
  C  C292  1  0.734030  0.631970  0.320270  1.0  0.3199
  C  C293  1  0.683140  0.599970  0.237270  1.0  -0.0357
  C  C294  1  0.641830  0.548370  0.278870  1.0  -0.1791
  C  C295  1  0.594230  0.520370  0.203170  1.0  0.1733
  C  C296  1  0.624730  0.590870  0.050270  1.0  0.1819
  C  C297  1  0.674030  0.620970  0.119570  1.0  -0.1553
  C  C298  1  0.889800  0.498000  0.897700  1.0  0.174
  C  C299  1  0.850500  0.491400  0.803000  1.0  -0.1545
  C  C300  1  0.850600  0.469500  0.675400  1.0  -0.0698
  C  C301  1  0.890300  0.456000  0.645600  1.0  -0.108
  C  C302  1  0.929600  0.464000  0.745500  1.0  0.1709
  C  C303  1  0.975500  0.453600  0.725500  1.0  0.2607
  C  C304  1  0.034700  0.435400  0.653600  1.0  0.3213
  C  C305  1  0.066700  0.416510  0.570600  1.0  -0.0343
  C  C306  1  0.118300  0.426800  0.612200  1.0  -0.1793
  C  C307  1  0.146300  0.407200  0.536500  1.0  0.1745
  C  C308  1  0.075800  0.367200  0.383600  1.0  0.1832
  C  C309  1  0.045700  0.386400  0.452900  1.0  -0.1541
  C  C310  1  0.556470  0.831330  0.231030  1.0  0.1738
  C  C311  1  0.517170  0.824730  0.136330  1.0  -0.1545
  C  C312  1  0.517270  0.802830  0.008730  1.0  -0.0698
  C  C313  1  0.556970  0.789330  0.978930  1.0  -0.108
  C  C314  1  0.596270  0.797330  0.078830  1.0  0.1709
  C  C315  1  0.642170  0.786930  0.058830  1.0  0.2607
  C  C316  1  0.701370  0.768730  0.986930  1.0  0.3213
  C  C317  1  0.733370  0.749840  0.903930  1.0  -0.0343
  C  C318  1  0.784970  0.760130  0.945530  1.0  -0.1793
  C  C319  1  0.812970  0.740530  0.869830  1.0  0.1745
  C  C320  1  0.742470  0.700530  0.716930  1.0  0.1831
  C  C321  1  0.712370  0.719730  0.786230  1.0  -0.1541
  C  C322  1  0.223130  0.164670  0.564370  1.0  0.1739
  C  C323  1  0.183830  0.158070  0.469670  1.0  -0.1545
  C  C324  1  0.183930  0.136170  0.342070  1.0  -0.0698
  C  C325  1  0.223630  0.122670  0.312270  1.0  -0.1079
  C  C326  1  0.262930  0.130670  0.412170  1.0  0.1708
  C  C327  1  0.308830  0.120270  0.392170  1.0  0.2607
  C  C328  1  0.368030  0.102070  0.320270  1.0  0.3213
  C  C329  1  0.400030  0.083180  0.237270  1.0  -0.0343
  C  C330  1  0.451630  0.093470  0.278870  1.0  -0.1793
  C  C331  1  0.479630  0.073870  0.203170  1.0  0.1745
  C  C332  1  0.409130  0.033870  0.050270  1.0  0.1832
  C  C333  1  0.379030  0.053070  0.119570  1.0  -0.1541
  C  C334  1  0.502000  0.391800  0.897700  1.0  0.1754
  C  C335  1  0.508600  0.359100  0.803000  1.0  -0.1505
  C  C336  1  0.530500  0.381100  0.675400  1.0  -0.0719
  C  C337  1  0.544000  0.434300  0.645600  1.0  -0.1049
  C  C338  1  0.536000  0.465600  0.745500  1.0  0.172
  C  C339  1  0.546400  0.521900  0.725500  1.0  0.2602
  C  C340  1  0.564600  0.599300  0.653600  1.0  0.3199
  C  C341  1  0.583490  0.650190  0.570600  1.0  -0.0377
  C  C342  1  0.573200  0.691500  0.612200  1.0  -0.1753
  C  C343  1  0.592800  0.739100  0.536500  1.0  0.1763
  C  C344  1  0.632800  0.708600  0.383600  1.0  0.1837
  C  C345  1  0.613600  0.659300  0.452900  1.0  -0.1543
  C  C346  1  0.168670  0.725130  0.231030  1.0  0.1755
  C  C347  1  0.175270  0.692430  0.136330  1.0  -0.1505
  C  C348  1  0.197170  0.714430  0.008730  1.0  -0.0719
  C  C349  1  0.210670  0.767630  0.978930  1.0  -0.1049
  C  C350  1  0.202670  0.798930  0.078830  1.0  0.172
  C  C351  1  0.213070  0.855230  0.058830  1.0  0.2602
  C  C352  1  0.231270  0.932630  0.986930  1.0  0.3199
  C  C353  1  0.250160  0.983520  0.903930  1.0  -0.0377
  C  C354  1  0.239870  0.024830  0.945530  1.0  -0.1753
  C  C355  1  0.259470  0.072430  0.869830  1.0  0.1762
  C  C356  1  0.299470  0.041930  0.716930  1.0  0.1836
  C  C357  1  0.280270  0.992630  0.786230  1.0  -0.1542
  C  C358  1  0.835330  0.058470  0.564370  1.0  0.1754
  C  C359  1  0.841930  0.025770  0.469670  1.0  -0.1505
  C  C360  1  0.863830  0.047770  0.342070  1.0  -0.0719
  C  C361  1  0.877330  0.100970  0.312270  1.0  -0.1048
  C  C362  1  0.869330  0.132270  0.412170  1.0  0.172
  C  C363  1  0.879730  0.188570  0.392170  1.0  0.2602
  C  C364  1  0.897930  0.265970  0.320270  1.0  0.3199
  C  C365  1  0.916820  0.316860  0.237270  1.0  -0.0377
  C  C366  1  0.906530  0.358170  0.278870  1.0  -0.1753
  C  C367  1  0.926130  0.405770  0.203170  1.0  0.1763
  C  C368  1  0.966130  0.375270  0.050270  1.0  0.1837
  C  C369  1  0.946930  0.325970  0.119570  1.0  -0.1543
  N  N370  1  0.545320  0.013780  0.175000  1.0  -0.1051
  N  N371  1  0.596190  0.053400  0.220500  1.0  -0.4134
  N  N372  1  0.554610  0.986870  0.385500  1.0  -0.4929
  N  N373  1  0.444020  0.929580  0.128200  1.0  -0.3146
  N  N374  1  0.748930  0.126110  0.576500  1.0  -0.3145
  N  N375  1  0.211990  0.347110  0.508330  1.0  -0.1051
  N  N376  1  0.262860  0.386730  0.553830  1.0  -0.4134
  N  N377  1  0.221280  0.320200  0.718830  1.0  -0.4929
  N  N378  1  0.110690  0.262910  0.461530  1.0  -0.3146
  N  N379  1  0.415600  0.459440  0.909830  1.0  -0.3145
  N  N380  1  0.878650  0.680450  0.841670  1.0  -0.1051
  N  N381  1  0.929520  0.720070  0.887170  1.0  -0.4103
  N  N382  1  0.887940  0.653540  0.052170  1.0  -0.4929
  N  N383  1  0.777350  0.596250  0.794870  1.0  -0.3146
  N  N384  1  0.082260  0.792780  0.243170  1.0  -0.3144
  N  N385  1  0.986220  0.531540  0.175000  1.0  -0.1058
  N  N386  1  0.946600  0.542790  0.220500  1.0  -0.4131
  N  N387  1  0.013130  0.567740  0.385500  1.0  -0.4913
  N  N388  1  0.070420  0.514440  0.128200  1.0  -0.3143
  N  N389  1  0.873890  0.622820  0.576500  1.0  -0.3161
  N  N390  1  0.652890  0.864870  0.508330  1.0  -0.1058
  N  N391  1  0.613270  0.876120  0.553830  1.0  -0.4131
  N  N392  1  0.679800  0.901070  0.718830  1.0  -0.4913
  N  N393  1  0.737090  0.847770  0.461530  1.0  -0.3143
  N  N394  1  0.540560  0.956150  0.909830  1.0  -0.316
  N  N395  1  0.319550  0.198210  0.841670  1.0  -0.1058
  N  N396  1  0.279930  0.209460  0.887170  1.0  -0.4131
  N  N397  1  0.346460  0.234410  0.052170  1.0  -0.4913
  N  N398  1  0.403750  0.181110  0.794870  1.0  -0.3144
  N  N399  1  0.207220  0.289490  0.243170  1.0  -0.3162
  N  N400  1  0.468460  0.454680  0.175000  1.0  -0.106
  N  N401  1  0.457210  0.403810  0.220500  1.0  -0.4125
  N  N402  1  0.432260  0.445390  0.385500  1.0  -0.4927
  N  N403  1  0.485560  0.555980  0.128200  1.0  -0.3139
  N  N404  1  0.377180  0.251070  0.576500  1.0  -0.3157
  N  N405  1  0.135130  0.788010  0.508330  1.0  -0.106
  N  N406  1  0.123880  0.737140  0.553830  1.0  -0.4125
  N  N407  1  0.098930  0.778720  0.718830  1.0  -0.4927
  N  N408  1  0.152230  0.889310  0.461530  1.0  -0.3139
  N  N409  1  0.043850  0.584400  0.909830  1.0  -0.3157
  N  N410  1  0.801790  0.121350  0.841670  1.0  -0.106
  N  N411  1  0.790540  0.070480  0.887170  1.0  -0.4125
  N  N412  1  0.765590  0.112060  0.052170  1.0  -0.4927
  N  N413  1  0.818890  0.222650  0.794870  1.0  -0.3139
  N  N414  1  0.710510  0.917740  0.243170  1.0  -0.3158
  N  N415  1  0.454680  0.986220  0.825000  1.0  -0.1086
  N  N416  1  0.403810  0.946600  0.779500  1.0  -0.4118
  N  N417  1  0.445390  0.013130  0.614500  1.0  -0.4914
  N  N418  1  0.555980  0.070420  0.871800  1.0  -0.3148
  N  N419  1  0.251070  0.873890  0.423500  1.0  -0.3168
  N  N420  1  0.121350  0.319550  0.158330  1.0  -0.1086
  N  N421  1  0.070480  0.279930  0.112830  1.0  -0.4087
  N  N422  1  0.112060  0.346460  0.947830  1.0  -0.4914
  N  N423  1  0.222650  0.403750  0.205130  1.0  -0.3148
  N  N424  1  0.917740  0.207220  0.756830  1.0  -0.3167
  N  N425  1  0.788010  0.652890  0.491670  1.0  -0.1086
  N  N426  1  0.737140  0.613270  0.446170  1.0  -0.4118
  N  N427  1  0.778720  0.679800  0.281170  1.0  -0.4914
  N  N428  1  0.889310  0.737090  0.538470  1.0  -0.3147
  N  N429  1  0.584400  0.540560  0.090170  1.0  -0.3168
  N  N430  1  0.013780  0.468460  0.825000  1.0  -0.1086
  N  N431  1  0.053400  0.457210  0.779500  1.0  -0.411
  N  N432  1  0.986870  0.432260  0.614500  1.0  -0.4905
  N  N433  1  0.929580  0.485560  0.871800  1.0  -0.3126
  N  N434  1  0.126110  0.377180  0.423500  1.0  -0.3157
  N  N435  1  0.680450  0.801790  0.158330  1.0  -0.1086
  N  N436  1  0.720070  0.790540  0.112830  1.0  -0.411
  N  N437  1  0.653540  0.765590  0.947830  1.0  -0.4905
  N  N438  1  0.596250  0.818890  0.205130  1.0  -0.3127
  N  N439  1  0.792780  0.710510  0.756830  1.0  -0.3157
  N  N440  1  0.347110  0.135130  0.491670  1.0  -0.1086
  N  N441  1  0.386730  0.123880  0.446170  1.0  -0.411
  N  N442  1  0.320200  0.098930  0.281170  1.0  -0.4905
  N  N443  1  0.262910  0.152230  0.538470  1.0  -0.3127
  N  N444  1  0.459440  0.043850  0.090170  1.0  -0.3156
  N  N445  1  0.531540  0.545320  0.825000  1.0  -0.1089
  N  N446  1  0.542790  0.596190  0.779500  1.0  -0.4127
  N  N447  1  0.567740  0.554610  0.614500  1.0  -0.4909
  N  N448  1  0.514440  0.444020  0.871800  1.0  -0.3129
  N  N449  1  0.622820  0.748930  0.423500  1.0  -0.3157
  N  N450  1  0.198210  0.878650  0.158330  1.0  -0.1089
  N  N451  1  0.209460  0.929520  0.112830  1.0  -0.4127
  N  N452  1  0.234410  0.887940  0.947830  1.0  -0.4909
  N  N453  1  0.181110  0.777350  0.205130  1.0  -0.313
  N  N454  1  0.289490  0.082260  0.756830  1.0  -0.3158
  N  N455  1  0.864870  0.211990  0.491670  1.0  -0.1089
  N  N456  1  0.876120  0.262860  0.446170  1.0  -0.4127
  N  N457  1  0.901070  0.221280  0.281170  1.0  -0.4909
  N  N458  1  0.847770  0.110690  0.538470  1.0  -0.313
  N  N459  1  0.956150  0.415600  0.090170  1.0  -0.3157
