# generated using pymatgen
data_CoH16(C12N5)2
_symmetry_space_group_name_H-M   'P 1'
_cell_length_a   9.19850000
_cell_length_b   15.95760000
_cell_length_c   16.09660000
_cell_angle_alpha   73.17100000
_cell_angle_beta   74.44000000
_cell_angle_gamma   76.39200000
_symmetry_Int_Tables_number   1
_chemical_formula_structural   CoH16(C12N5)2
_chemical_formula_sum   'Co3 H48 C72 N30'
_cell_volume   2146.61523997
_cell_formula_units_Z   3
loop_
 _symmetry_equiv_pos_site_id
 _symmetry_equiv_pos_as_xyz
  1  'x, y, z'
loop_
 _atom_site_type_symbol
 _atom_site_label
 _atom_site_symmetry_multiplicity
 _atom_site_fract_x
 _atom_site_fract_y
 _atom_site_fract_z
 _atom_site_occupancy
 _atom_site_charge
  Co  Co1  1  0.500000  0.500000  0.000000  1.0  0.3354
  Co  Co2  1  0.000000  0.000000  0.500000  1.0  0.3246
  Co  Co3  1  0.000000  0.500000  0.500000  1.0  0.6293
  H  H4  1  0.973900  0.675900  0.029800  1.0  0.1142
  H  H5  1  0.962800  0.731100  0.151300  1.0  0.1061
  H  H6  1  0.172400  0.691500  0.215600  1.0  0.0894
  H  H7  1  0.386500  0.601800  0.160300  1.0  0.0719
  H  H8  1  0.182700  0.388800  0.642200  1.0  0.0678
  H  H9  1  0.259600  0.397800  0.762300  1.0  0.1166
  H  H10  1  0.982500  0.631200  0.755900  1.0  0.1108
  H  H11  1  0.915800  0.617700  0.633900  1.0  0.0702
  H  H12  1  0.951400  0.010800  0.812200  1.0  0.1237
  H  H13  1  0.101500  0.117100  0.789100  1.0  0.105
  H  H14  1  0.214300  0.183700  0.643500  1.0  0.1141
  H  H15  1  0.175000  0.141600  0.529000  1.0  0.0723
  H  H16  1  0.632900  0.657700  0.994000  1.0  0.0712
  H  H17  1  0.732100  0.777700  0.904200  1.0  0.1143
  H  H18  1  0.652000  0.720300  0.698600  1.0  0.1026
  H  H19  1  0.552700  0.600300  0.793800  1.0  0.0714
  H  H20  1  0.491300  0.415900  0.648600  1.0  0.102
  H  H21  1  0.560700  0.262400  0.682100  1.0  0.1095
  H  H22  1  0.817400  0.200800  0.642200  1.0  0.107
  H  H23  1  0.992000  0.292300  0.570100  1.0  0.0692
  H  H24  1  0.362000  0.958500  0.458800  1.0  0.0746
  H  H25  1  0.562600  0.845800  0.473700  1.0  0.1022
  H  H26  1  0.268700  0.679500  0.597900  1.0  0.1118
  H  H27  1  0.075100  0.797100  0.580400  1.0  0.0656
  H  H28  1  0.026100  0.324100  0.970200  1.0  0.116
  H  H29  1  0.037200  0.268900  0.848700  1.0  0.1059
  H  H30  1  0.827600  0.308500  0.784400  1.0  0.0899
  H  H31  1  0.613500  0.398200  0.839700  1.0  0.0719
  H  H32  1  0.817300  0.611200  0.357800  1.0  0.0685
  H  H33  1  0.740400  0.602200  0.237700  1.0  0.117
  H  H34  1  0.017500  0.368800  0.244100  1.0  0.1107
  H  H35  1  0.084200  0.382300  0.366100  1.0  0.0704
  H  H36  1  0.048600  0.989200  0.187800  1.0  0.1234
  H  H37  1  0.898500  0.882900  0.210900  1.0  0.1024
  H  H38  1  0.785700  0.816300  0.356500  1.0  0.1141
  H  H39  1  0.825000  0.858400  0.471000  1.0  0.0718
  H  H40  1  0.367100  0.342300  0.006000  1.0  0.0715
  H  H41  1  0.267900  0.222300  0.095800  1.0  0.1133
  H  H42  1  0.348000  0.279700  0.301400  1.0  0.1024
  H  H43  1  0.447300  0.399700  0.206200  1.0  0.0708
  H  H44  1  0.508700  0.584100  0.351400  1.0  0.1019
  H  H45  1  0.439300  0.737600  0.317900  1.0  0.1095
  H  H46  1  0.182600  0.799200  0.357800  1.0  0.108
  H  H47  1  0.008000  0.707700  0.429900  1.0  0.0691
  H  H48  1  0.638000  0.041500  0.541200  1.0  0.0746
  H  H49  1  0.437400  0.154200  0.526300  1.0  0.1033
  H  H50  1  0.731300  0.320500  0.402100  1.0  0.1116
  H  H51  1  0.924900  0.202900  0.419600  1.0  0.0648
  C  C52  1  0.187800  0.526000  0.845900  1.0  0.334
  C  C53  1  0.207700  0.567500  0.952300  1.0  0.2489
  C  C54  1  0.188700  0.607000  0.026100  1.0  0.1524
  C  C55  1  0.056900  0.661400  0.057000  1.0  -0.1334
  C  C56  1  0.050100  0.694100  0.129200  1.0  -0.0424
  C  C57  1  0.174700  0.670700  0.166900  1.0  -0.1547
  C  C58  1  0.303000  0.616800  0.133500  1.0  0.1681
  C  C59  1  0.143200  0.439100  0.664600  1.0  0.1598
  C  C60  1  0.189800  0.443900  0.736900  1.0  -0.1897
  C  C61  1  0.133000  0.516900  0.771700  1.0  0.0393
  C  C62  1  0.026900  0.581700  0.732900  1.0  -0.1593
  C  C63  1  0.986600  0.572800  0.659800  1.0  0.1517
  C  C64  1  0.776100  0.839200  0.731700  1.0  0.3307
  C  C65  1  0.893200  0.946500  0.690100  1.0  0.2578
  C  C66  1  0.980200  0.013700  0.683100  1.0  0.1638
  C  C67  1  0.998500  0.037400  0.754900  1.0  -0.1227
  C  C68  1  0.087000  0.100900  0.741200  1.0  -0.034
  C  C69  1  0.154400  0.140500  0.654700  1.0  -0.1843
  C  C70  1  0.130600  0.114500  0.586800  1.0  0.152
  C  C71  1  0.636500  0.670200  0.933400  1.0  0.1392
  C  C72  1  0.696500  0.742400  0.879800  1.0  -0.1628
  C  C73  1  0.705100  0.763700  0.790100  1.0  0.0387
  C  C74  1  0.649400  0.708700  0.759000  1.0  -0.167
  C  C75  1  0.589600  0.636500  0.816500  1.0  0.15
  C  C76  1  0.564800  0.670500  0.542900  1.0  0.3111
  C  C77  1  0.671400  0.538200  0.567900  1.0  0.2626
  C  C78  1  0.704300  0.441300  0.591800  1.0  0.1557
  C  C79  1  0.593200  0.389600  0.633600  1.0  -0.098
  C  C80  1  0.634100  0.298600  0.653300  1.0  -0.0391
  C  C81  1  0.786200  0.262100  0.629400  1.0  -0.1737
  C  C82  1  0.889800  0.317300  0.586700  1.0  0.1593
  C  C83  1  0.342200  0.901400  0.486900  1.0  0.1563
  C  C84  1  0.463500  0.833600  0.495500  1.0  -0.1819
  C  C85  1  0.441900  0.748300  0.535600  1.0  0.0151
  C  C86  1  0.291200  0.735900  0.568600  1.0  -0.1671
  C  C87  1  0.175200  0.807400  0.557600  1.0  0.1578
  C  C88  1  0.812200  0.474000  0.154100  1.0  0.3339
  C  C89  1  0.792300  0.432500  0.047700  1.0  0.2503
  C  C90  1  0.811300  0.393000  0.973900  1.0  0.1519
  C  C91  1  0.943100  0.338600  0.943000  1.0  -0.1342
  C  C92  1  0.949900  0.305900  0.870800  1.0  -0.046
  C  C93  1  0.825300  0.329300  0.833100  1.0  -0.1535
  C  C94  1  0.697000  0.383200  0.866500  1.0  0.1643
  C  C95  1  0.856800  0.560900  0.335400  1.0  0.1594
  C  C96  1  0.810200  0.556100  0.263100  1.0  -0.189
  C  C97  1  0.867000  0.483100  0.228300  1.0  0.0383
  C  C98  1  0.973100  0.418300  0.267100  1.0  -0.1605
  C  C99  1  0.013400  0.427200  0.340200  1.0  0.1509
  C  C100  1  0.223900  0.160800  0.268300  1.0  0.3301
  C  C101  1  0.106800  0.053500  0.309900  1.0  0.2578
  C  C102  1  0.019800  0.986300  0.316900  1.0  0.1622
  C  C103  1  0.001500  0.962600  0.245100  1.0  -0.1235
  C  C104  1  0.913000  0.899100  0.258800  1.0  -0.0336
  C  C105  1  0.845600  0.859500  0.345300  1.0  -0.1839
  C  C106  1  0.869400  0.885500  0.413200  1.0  0.1543
  C  C107  1  0.363500  0.329800  0.066600  1.0  0.1419
  C  C108  1  0.303500  0.257600  0.120200  1.0  -0.1638
  C  C109  1  0.294900  0.236300  0.209900  1.0  0.0366
  C  C110  1  0.350600  0.291300  0.241000  1.0  -0.1673
  C  C111  1  0.410400  0.363500  0.183500  1.0  0.1506
  C  C112  1  0.435200  0.329500  0.457100  1.0  0.3124
  C  C113  1  0.328600  0.461800  0.432100  1.0  0.265
  C  C114  1  0.295700  0.558700  0.408200  1.0  0.1561
  C  C115  1  0.406800  0.610400  0.366400  1.0  -0.0978
  C  C116  1  0.365900  0.701400  0.346700  1.0  -0.0358
  C  C117  1  0.213800  0.737900  0.370600  1.0  -0.1693
  C  C118  1  0.110200  0.682700  0.413300  1.0  0.1559
  C  C119  1  0.657800  0.098600  0.513100  1.0  0.1553
  C  C120  1  0.536500  0.166400  0.504500  1.0  -0.1833
  C  C121  1  0.558100  0.251700  0.464400  1.0  0.0115
  C  C122  1  0.708800  0.264100  0.431400  1.0  -0.1687
  C  C123  1  0.824800  0.192600  0.442400  1.0  0.1584
  N  N124  1  0.335800  0.511600  0.931500  1.0  -0.0857
  N  N125  1  0.325000  0.483200  0.862200  1.0  -0.3883
  N  N126  1  0.110700  0.580500  0.899100  1.0  -0.5054
  N  N127  1  0.312500  0.584900  0.063400  1.0  -0.2452
  N  N128  1  0.044100  0.503000  0.624600  1.0  -0.2619
  N  N129  1  0.873000  0.931800  0.616400  1.0  -0.1653
  N  N130  1  0.795900  0.861300  0.643200  1.0  -0.3714
  N  N131  1  0.834300  0.890500  0.764600  1.0  -0.5228
  N  N132  1  0.046700  0.051800  0.598200  1.0  -0.269
  N  N133  1  0.582700  0.616400  0.904000  1.0  -0.2656
  N  N134  1  0.783100  0.585400  0.525700  1.0  -0.14
  N  N135  1  0.714500  0.672400  0.509200  1.0  -0.3681
  N  N136  1  0.531700  0.587400  0.580000  1.0  -0.4966
  N  N137  1  0.852000  0.405700  0.567600  1.0  -0.2309
  N  N138  1  0.195900  0.889700  0.517000  1.0  -0.2934
  N  N139  1  0.664200  0.488400  0.068500  1.0  -0.0861
  N  N140  1  0.675000  0.516800  0.137800  1.0  -0.3886
  N  N141  1  0.889300  0.419500  0.100900  1.0  -0.5054
  N  N142  1  0.687500  0.415100  0.936600  1.0  -0.2465
  N  N143  1  0.955900  0.497000  0.375400  1.0  -0.2622
  N  N144  1  0.127000  0.068200  0.383600  1.0  -0.1487
  N  N145  1  0.204100  0.138700  0.356800  1.0  -0.3707
  N  N146  1  0.165700  0.109500  0.235400  1.0  -0.5217
  N  N147  1  0.953300  0.948200  0.401800  1.0  -0.2809
  N  N148  1  0.417300  0.383600  0.096000  1.0  -0.2639
  N  N149  1  0.216900  0.414600  0.474300  1.0  -0.1334
  N  N150  1  0.285500  0.327600  0.490800  1.0  -0.3685
  N  N151  1  0.468300  0.412600  0.420000  1.0  -0.4965
  N  N152  1  0.148000  0.594300  0.432400  1.0  -0.231
  N  N153  1  0.804100  0.110300  0.483000  1.0  -0.2826
