# generated using pymatgen
data_CoBH16C15(N4O)2
_symmetry_space_group_name_H-M   'P 1'
_cell_length_a   26.15350000
_cell_length_b   13.61680000
_cell_length_c   17.18070000
_cell_angle_alpha   90.00000000
_cell_angle_beta   126.05600000
_cell_angle_gamma   90.00000000
_symmetry_Int_Tables_number   1
_chemical_formula_structural   CoBH16C15(N4O)2
_chemical_formula_sum   'Co8 B8 H128 C120 N64 O16'
_cell_volume   4946.46180505
_cell_formula_units_Z   8
loop_
 _symmetry_equiv_pos_site_id
 _symmetry_equiv_pos_as_xyz
  1  'x, y, z'
loop_
 _atom_site_type_symbol
 _atom_site_label
 _atom_site_symmetry_multiplicity
 _atom_site_fract_x
 _atom_site_fract_y
 _atom_site_fract_z
 _atom_site_occupancy
 _atom_site_charge
  Co  Co1  1  0.122920  0.223350  0.188430  1.0  0.7844
  Co  Co2  1  0.622920  0.723350  0.188430  1.0  0.7844
  Co  Co3  1  0.877080  0.223350  0.311570  1.0  0.7854
  Co  Co4  1  0.377080  0.723350  0.311570  1.0  0.7854
  Co  Co5  1  0.877080  0.776650  0.811570  1.0  0.7866
  Co  Co6  1  0.377080  0.276650  0.811570  1.0  0.7866
  Co  Co7  1  0.122920  0.776650  0.688430  1.0  0.7853
  Co  Co8  1  0.622920  0.276650  0.688430  1.0  0.7853
  B  B9  1  0.864200  0.117300  0.983700  1.0  0.5297
  B  B10  1  0.364200  0.617300  0.983700  1.0  0.5297
  B  B11  1  0.135800  0.117300  0.516300  1.0  0.5303
  B  B12  1  0.635800  0.617300  0.516300  1.0  0.5303
  B  B13  1  0.135800  0.882700  0.016300  1.0  0.5303
  B  B14  1  0.635800  0.382700  0.016300  1.0  0.5303
  B  B15  1  0.864200  0.882700  0.483700  1.0  0.5297
  B  B16  1  0.364200  0.382700  0.483700  1.0  0.5297
  H  H17  1  0.068200  0.541600  0.156300  1.0  0.1191
  H  H18  1  0.119900  0.547900  0.134700  1.0  0.1161
  H  H19  1  0.024400  0.591600  0.996500  1.0  0.0701
  H  H20  1  0.043800  0.487700  0.977400  1.0  0.0789
  H  H21  1  0.852400  0.328700  0.978700  1.0  0.1221
  H  H22  1  0.989000  0.154800  0.145400  1.0  0.0914
  H  H23  1  0.903000  0.183500  0.864500  1.0  0.1227
  H  H24  1  0.735300  0.112200  0.815500  1.0  0.0834
  H  H25  1  0.912600  0.988000  0.912100  1.0  0.0939
  H  H26  1  0.014300  0.227400  0.948300  1.0  0.1013
  H  H27  1  0.750400  0.397200  0.850000  1.0  0.1062
  H  H28  1  0.849400  0.235100  0.108100  1.0  0.0875
  H  H29  1  0.767400  0.971000  0.929600  1.0  0.1235
  H  H30  1  0.923700  0.003200  0.275900  1.0  0.1021
  H  H31  1  0.911200  0.964500  0.125900  1.0  0.1301
  H  H32  1  0.772600  0.818400  0.856700  1.0  0.1005
  H  H33  1  0.568200  0.041600  0.156300  1.0  0.1191
  H  H34  1  0.619900  0.047900  0.134700  1.0  0.1161
  H  H35  1  0.524400  0.091600  0.996500  1.0  0.0701
  H  H36  1  0.543800  0.987700  0.977400  1.0  0.0789
  H  H37  1  0.352400  0.828700  0.978700  1.0  0.1221
  H  H38  1  0.489000  0.654800  0.145400  1.0  0.0914
  H  H39  1  0.403000  0.683500  0.864500  1.0  0.1227
  H  H40  1  0.235300  0.612200  0.815500  1.0  0.0834
  H  H41  1  0.412600  0.488000  0.912100  1.0  0.0939
  H  H42  1  0.514300  0.727400  0.948300  1.0  0.1013
  H  H43  1  0.250400  0.897200  0.850000  1.0  0.1062
  H  H44  1  0.349400  0.735100  0.108100  1.0  0.0875
  H  H45  1  0.267400  0.471000  0.929600  1.0  0.1235
  H  H46  1  0.423700  0.503200  0.275900  1.0  0.1021
  H  H47  1  0.411200  0.464500  0.125900  1.0  0.1301
  H  H48  1  0.272600  0.318400  0.856700  1.0  0.1005
  H  H49  1  0.931800  0.541600  0.343700  1.0  0.1187
  H  H50  1  0.880100  0.547900  0.365300  1.0  0.1153
  H  H51  1  0.975600  0.591600  0.503500  1.0  0.0694
  H  H52  1  0.956200  0.487700  0.522600  1.0  0.079
  H  H53  1  0.147600  0.328700  0.521300  1.0  0.1226
  H  H54  1  0.011000  0.154800  0.354600  1.0  0.0915
  H  H55  1  0.097000  0.183500  0.635500  1.0  0.1221
  H  H56  1  0.264700  0.112200  0.684500  1.0  0.0842
  H  H57  1  0.087400  0.988000  0.587900  1.0  0.0943
  H  H58  1  0.985700  0.227400  0.551700  1.0  0.1001
  H  H59  1  0.249600  0.397200  0.650000  1.0  0.1069
  H  H60  1  0.150600  0.235100  0.391900  1.0  0.0875
  H  H61  1  0.232600  0.971000  0.570400  1.0  0.1225
  H  H62  1  0.076300  0.003200  0.224100  1.0  0.1018
  H  H63  1  0.088800  0.964500  0.374100  1.0  0.1298
  H  H64  1  0.227400  0.818400  0.643300  1.0  0.1008
  H  H65  1  0.431800  0.041600  0.343700  1.0  0.1187
  H  H66  1  0.380100  0.047900  0.365300  1.0  0.1153
  H  H67  1  0.475600  0.091600  0.503500  1.0  0.0694
  H  H68  1  0.456200  0.987700  0.522600  1.0  0.079
  H  H69  1  0.647600  0.828700  0.521300  1.0  0.1226
  H  H70  1  0.511000  0.654800  0.354600  1.0  0.0915
  H  H71  1  0.597000  0.683500  0.635500  1.0  0.1221
  H  H72  1  0.764700  0.612200  0.684500  1.0  0.0842
  H  H73  1  0.587400  0.488000  0.587900  1.0  0.0943
  H  H74  1  0.485700  0.727400  0.551700  1.0  0.1001
  H  H75  1  0.749600  0.897200  0.650000  1.0  0.1069
  H  H76  1  0.650600  0.735100  0.391900  1.0  0.0875
  H  H77  1  0.732600  0.471000  0.570400  1.0  0.1225
  H  H78  1  0.576300  0.503200  0.224100  1.0  0.1018
  H  H79  1  0.588800  0.464500  0.374100  1.0  0.1298
  H  H80  1  0.727400  0.318400  0.643300  1.0  0.1008
  H  H81  1  0.931800  0.458400  0.843700  1.0  0.1181
  H  H82  1  0.880100  0.452100  0.865300  1.0  0.1155
  H  H83  1  0.975600  0.408400  0.003500  1.0  0.0671
  H  H84  1  0.956200  0.512300  0.022600  1.0  0.0788
  H  H85  1  0.147600  0.671300  0.021300  1.0  0.122
  H  H86  1  0.011000  0.845200  0.854600  1.0  0.0913
  H  H87  1  0.097000  0.816500  0.135500  1.0  0.1225
  H  H88  1  0.264700  0.887800  0.184500  1.0  0.0834
  H  H89  1  0.087400  0.012000  0.087900  1.0  0.0944
  H  H90  1  0.985700  0.772600  0.051700  1.0  0.1004
  H  H91  1  0.249600  0.602800  0.150000  1.0  0.1062
  H  H92  1  0.150600  0.764900  0.891900  1.0  0.088
  H  H93  1  0.232600  0.029000  0.070400  1.0  0.1221
  H  H94  1  0.076300  0.996800  0.724100  1.0  0.1025
  H  H95  1  0.088800  0.035500  0.874100  1.0  0.1305
  H  H96  1  0.227400  0.181600  0.143300  1.0  0.1011
  H  H97  1  0.431800  0.958400  0.843700  1.0  0.1181
  H  H98  1  0.380100  0.952100  0.865300  1.0  0.1155
  H  H99  1  0.475600  0.908400  0.003500  1.0  0.0671
  H  H100  1  0.456200  0.012300  0.022600  1.0  0.0788
  H  H101  1  0.647600  0.171300  0.021300  1.0  0.122
  H  H102  1  0.511000  0.345200  0.854600  1.0  0.0913
  H  H103  1  0.597000  0.316500  0.135500  1.0  0.1225
  H  H104  1  0.764700  0.387800  0.184500  1.0  0.0834
  H  H105  1  0.587400  0.512000  0.087900  1.0  0.0944
  H  H106  1  0.485700  0.272600  0.051700  1.0  0.1004
  H  H107  1  0.749600  0.102800  0.150000  1.0  0.1062
  H  H108  1  0.650600  0.264900  0.891900  1.0  0.088
  H  H109  1  0.732600  0.529000  0.070400  1.0  0.1221
  H  H110  1  0.576300  0.496800  0.724100  1.0  0.1025
  H  H111  1  0.588800  0.535500  0.874100  1.0  0.1305
  H  H112  1  0.727400  0.681600  0.143300  1.0  0.1011
  H  H113  1  0.068200  0.458400  0.656300  1.0  0.1184
  H  H114  1  0.119900  0.452100  0.634700  1.0  0.1163
  H  H115  1  0.024400  0.408400  0.496500  1.0  0.0672
  H  H116  1  0.043800  0.512300  0.477400  1.0  0.079
  H  H117  1  0.852400  0.671300  0.478700  1.0  0.1222
  H  H118  1  0.989000  0.845200  0.645400  1.0  0.0917
  H  H119  1  0.903000  0.816500  0.364500  1.0  0.1225
  H  H120  1  0.735300  0.887800  0.315500  1.0  0.0835
  H  H121  1  0.912600  0.012000  0.412100  1.0  0.094
  H  H122  1  0.014300  0.772600  0.448300  1.0  0.1014
  H  H123  1  0.750400  0.602800  0.350000  1.0  0.1055
  H  H124  1  0.849400  0.764900  0.608100  1.0  0.0878
  H  H125  1  0.767400  0.029000  0.429600  1.0  0.124
  H  H126  1  0.923700  0.996800  0.775900  1.0  0.1027
  H  H127  1  0.911200  0.035500  0.625900  1.0  0.1306
  H  H128  1  0.772600  0.181600  0.356700  1.0  0.1011
  H  H129  1  0.568200  0.958400  0.656300  1.0  0.1184
  H  H130  1  0.619900  0.952100  0.634700  1.0  0.1163
  H  H131  1  0.524400  0.908400  0.496500  1.0  0.0672
  H  H132  1  0.543800  0.012300  0.477400  1.0  0.079
  H  H133  1  0.352400  0.171300  0.478700  1.0  0.1222
  H  H134  1  0.489000  0.345200  0.645400  1.0  0.0917
  H  H135  1  0.403000  0.316500  0.364500  1.0  0.1225
  H  H136  1  0.235300  0.387800  0.315500  1.0  0.0835
  H  H137  1  0.412600  0.512000  0.412100  1.0  0.094
  H  H138  1  0.514300  0.272600  0.448300  1.0  0.1014
  H  H139  1  0.250400  0.102800  0.350000  1.0  0.1055
  H  H140  1  0.349400  0.264900  0.608100  1.0  0.0878
  H  H141  1  0.267400  0.529000  0.429600  1.0  0.124
  H  H142  1  0.423700  0.496800  0.775900  1.0  0.1027
  H  H143  1  0.411200  0.535500  0.625900  1.0  0.1306
  H  H144  1  0.272600  0.681600  0.356700  1.0  0.1011
  C  C145  1  0.082200  0.511400  0.119400  1.0  -0.3214
  C  C146  1  0.030600  0.521100  0.014200  1.0  -0.097
  C  C147  1  0.816300  0.292500  0.930400  1.0  -0.1064
  C  C148  1  0.981500  0.166400  0.084900  1.0  0.1559
  C  C149  1  0.934300  0.182000  0.932200  1.0  -0.08
  C  C150  1  0.751900  0.175600  0.841000  1.0  0.1508
  C  C151  1  0.876500  0.964600  0.907000  1.0  0.1562
  C  C152  1  0.995300  0.206300  0.978500  1.0  0.015
  C  C153  1  0.760500  0.329200  0.859900  1.0  0.0234
  C  C154  1  0.866700  0.171600  0.131800  1.0  0.1878
  C  C155  1  0.797400  0.956200  0.916900  1.0  -0.1276
  C  C156  1  0.906700  0.046200  0.222400  1.0  -0.0181
  C  C157  1  0.900200  0.024800  0.140400  1.0  -0.1094
  C  C158  1  0.800600  0.872600  0.877200  1.0  -0.0127
  C  C159  1  0.100700  0.404300  0.150900  1.0  0.6574
  C  C160  1  0.582200  0.011400  0.119400  1.0  -0.3214
  C  C161  1  0.530600  0.021100  0.014200  1.0  -0.097
  C  C162  1  0.316300  0.792500  0.930400  1.0  -0.1064
  C  C163  1  0.481500  0.666400  0.084900  1.0  0.1559
  C  C164  1  0.434300  0.682000  0.932200  1.0  -0.08
  C  C165  1  0.251900  0.675600  0.841000  1.0  0.1508
  C  C166  1  0.376500  0.464600  0.907000  1.0  0.1562
  C  C167  1  0.495300  0.706300  0.978500  1.0  0.015
  C  C168  1  0.260500  0.829200  0.859900  1.0  0.0234
  C  C169  1  0.366700  0.671600  0.131800  1.0  0.1878
  C  C170  1  0.297400  0.456200  0.916900  1.0  -0.1276
  C  C171  1  0.406700  0.546200  0.222400  1.0  -0.0181
  C  C172  1  0.400200  0.524800  0.140400  1.0  -0.1094
  C  C173  1  0.300600  0.372600  0.877200  1.0  -0.0127
  C  C174  1  0.600700  0.904300  0.150900  1.0  0.6574
  C  C175  1  0.917800  0.511400  0.380600  1.0  -0.3226
  C  C176  1  0.969400  0.521100  0.485800  1.0  -0.0958
  C  C177  1  0.183700  0.292500  0.569600  1.0  -0.1078
  C  C178  1  0.018500  0.166400  0.415100  1.0  0.1552
  C  C179  1  0.065700  0.182000  0.567800  1.0  -0.078
  C  C180  1  0.248100  0.175600  0.659000  1.0  0.1514
  C  C181  1  0.123500  0.964600  0.593000  1.0  0.1582
  C  C182  1  0.004700  0.206300  0.521500  1.0  0.0144
  C  C183  1  0.239500  0.329200  0.640100  1.0  0.0236
  C  C184  1  0.133300  0.171600  0.368200  1.0  0.1866
  C  C185  1  0.202600  0.956200  0.583100  1.0  -0.1261
  C  C186  1  0.093300  0.046200  0.277600  1.0  -0.02
  C  C187  1  0.099800  0.024800  0.359600  1.0  -0.1104
  C  C188  1  0.199400  0.872600  0.622800  1.0  -0.0138
  C  C189  1  0.899300  0.404300  0.349100  1.0  0.6571
  C  C190  1  0.417800  0.011400  0.380600  1.0  -0.3226
  C  C191  1  0.469400  0.021100  0.485800  1.0  -0.0958
  C  C192  1  0.683700  0.792500  0.569600  1.0  -0.1078
  C  C193  1  0.518500  0.666400  0.415100  1.0  0.1552
  C  C194  1  0.565700  0.682000  0.567800  1.0  -0.078
  C  C195  1  0.748100  0.675600  0.659000  1.0  0.1514
  C  C196  1  0.623500  0.464600  0.593000  1.0  0.1582
  C  C197  1  0.504700  0.706300  0.521500  1.0  0.0144
  C  C198  1  0.739500  0.829200  0.640100  1.0  0.0236
  C  C199  1  0.633300  0.671600  0.368200  1.0  0.1866
  C  C200  1  0.702600  0.456200  0.583100  1.0  -0.1261
  C  C201  1  0.593300  0.546200  0.277600  1.0  -0.02
  C  C202  1  0.599800  0.524800  0.359600  1.0  -0.1104
  C  C203  1  0.699400  0.372600  0.622800  1.0  -0.0138
  C  C204  1  0.399300  0.904300  0.349100  1.0  0.6571
  C  C205  1  0.917800  0.488600  0.880600  1.0  -0.323
  C  C206  1  0.969400  0.478900  0.985800  1.0  -0.0964
  C  C207  1  0.183700  0.707500  0.069600  1.0  -0.1069
  C  C208  1  0.018500  0.833600  0.915100  1.0  0.1558
  C  C209  1  0.065700  0.818000  0.067800  1.0  -0.0777
  C  C210  1  0.248100  0.824400  0.159000  1.0  0.1508
  C  C211  1  0.123500  0.035400  0.093000  1.0  0.1584
  C  C212  1  0.004700  0.793700  0.021500  1.0  0.0147
  C  C213  1  0.239500  0.670800  0.140100  1.0  0.0239
  C  C214  1  0.133300  0.828400  0.868200  1.0  0.1867
  C  C215  1  0.202600  0.043800  0.083100  1.0  -0.1263
  C  C216  1  0.093300  0.953800  0.777600  1.0  -0.02
  C  C217  1  0.099800  0.975200  0.859600  1.0  -0.1107
  C  C218  1  0.199400  0.127400  0.122800  1.0  -0.0128
  C  C219  1  0.899300  0.595700  0.849100  1.0  0.658
  C  C220  1  0.417800  0.988600  0.880600  1.0  -0.323
  C  C221  1  0.469400  0.978900  0.985800  1.0  -0.0964
  C  C222  1  0.683700  0.207500  0.069600  1.0  -0.1069
  C  C223  1  0.518500  0.333600  0.915100  1.0  0.1558
  C  C224  1  0.565700  0.318000  0.067800  1.0  -0.0777
  C  C225  1  0.748100  0.324400  0.159000  1.0  0.1508
  C  C226  1  0.623500  0.535400  0.093000  1.0  0.1584
  C  C227  1  0.504700  0.293700  0.021500  1.0  0.0147
  C  C228  1  0.739500  0.170800  0.140100  1.0  0.0239
  C  C229  1  0.633300  0.328400  0.868200  1.0  0.1867
  C  C230  1  0.702600  0.543800  0.083100  1.0  -0.1263
  C  C231  1  0.593300  0.453800  0.777600  1.0  -0.02
  C  C232  1  0.599800  0.475200  0.859600  1.0  -0.1107
  C  C233  1  0.699400  0.627400  0.122800  1.0  -0.0128
  C  C234  1  0.399300  0.095700  0.849100  1.0  0.658
  C  C235  1  0.082200  0.488600  0.619400  1.0  -0.3213
  C  C236  1  0.030600  0.478900  0.514200  1.0  -0.0973
  C  C237  1  0.816300  0.707500  0.430400  1.0  -0.1069
  C  C238  1  0.981500  0.833600  0.584900  1.0  0.1569
  C  C239  1  0.934300  0.818000  0.432200  1.0  -0.0802
  C  C240  1  0.751900  0.824400  0.341000  1.0  0.151
  C  C241  1  0.876500  0.035400  0.407000  1.0  0.1563
  C  C242  1  0.995300  0.793700  0.478500  1.0  0.0153
  C  C243  1  0.760500  0.670800  0.359900  1.0  0.0236
  C  C244  1  0.866700  0.828400  0.631800  1.0  0.1886
  C  C245  1  0.797400  0.043800  0.416900  1.0  -0.1291
  C  C246  1  0.906700  0.953800  0.722400  1.0  -0.0198
  C  C247  1  0.900200  0.975200  0.640400  1.0  -0.1098
  C  C248  1  0.800600  0.127400  0.377200  1.0  -0.0143
  C  C249  1  0.100700  0.595700  0.650900  1.0  0.6583
  C  C250  1  0.582200  0.988600  0.619400  1.0  -0.3213
  C  C251  1  0.530600  0.978900  0.514200  1.0  -0.0973
  C  C252  1  0.316300  0.207500  0.430400  1.0  -0.1069
  C  C253  1  0.481500  0.333600  0.584900  1.0  0.1569
  C  C254  1  0.434300  0.318000  0.432200  1.0  -0.0802
  C  C255  1  0.251900  0.324400  0.341000  1.0  0.151
  C  C256  1  0.376500  0.535400  0.407000  1.0  0.1563
  C  C257  1  0.495300  0.293700  0.478500  1.0  0.0153
  C  C258  1  0.260500  0.170800  0.359900  1.0  0.0236
  C  C259  1  0.366700  0.328400  0.631800  1.0  0.1886
  C  C260  1  0.297400  0.543800  0.416900  1.0  -0.1291
  C  C261  1  0.406700  0.453800  0.722400  1.0  -0.0198
  C  C262  1  0.400200  0.475200  0.640400  1.0  -0.1098
  C  C263  1  0.300600  0.627400  0.377200  1.0  -0.0143
  C  C264  1  0.600700  0.095700  0.650900  1.0  0.6583
  N  N265  1  0.719500  0.255300  0.803500  1.0  -0.3754
  N  N266  1  0.026100  0.196400  0.075300  1.0  -0.4203
  N  N267  1  0.925100  0.154500  0.000500  1.0  -0.1864
  N  N268  1  0.850300  0.878100  0.870900  1.0  -0.3754
  N  N269  1  0.811600  0.191000  0.919900  1.0  -0.178
  N  N270  1  0.885200  0.139300  0.216700  1.0  -0.3889
  N  N271  1  0.874900  0.105400  0.081700  1.0  -0.1836
  N  N272  1  0.846400  0.016000  0.935600  1.0  -0.1614
  N  N273  1  0.219500  0.755300  0.803500  1.0  -0.3754
  N  N274  1  0.526100  0.696400  0.075300  1.0  -0.4203
  N  N275  1  0.425100  0.654500  0.000500  1.0  -0.1864
  N  N276  1  0.350300  0.378100  0.870900  1.0  -0.3754
  N  N277  1  0.311600  0.691000  0.919900  1.0  -0.178
  N  N278  1  0.385200  0.639300  0.216700  1.0  -0.3889
  N  N279  1  0.374900  0.605400  0.081700  1.0  -0.1836
  N  N280  1  0.346400  0.516000  0.935600  1.0  -0.1614
  N  N281  1  0.280500  0.255300  0.696500  1.0  -0.3757
  N  N282  1  0.973900  0.196400  0.424700  1.0  -0.4207
  N  N283  1  0.074900  0.154500  0.499500  1.0  -0.1866
  N  N284  1  0.149700  0.878100  0.629100  1.0  -0.3757
  N  N285  1  0.188400  0.191000  0.580100  1.0  -0.1777
  N  N286  1  0.114800  0.139300  0.283300  1.0  -0.3884
  N  N287  1  0.125100  0.105400  0.418300  1.0  -0.1826
  N  N288  1  0.153600  0.016000  0.564400  1.0  -0.1608
  N  N289  1  0.780500  0.755300  0.696500  1.0  -0.3757
  N  N290  1  0.473900  0.696400  0.424700  1.0  -0.4207
  N  N291  1  0.574900  0.654500  0.499500  1.0  -0.1866
  N  N292  1  0.649700  0.378100  0.629100  1.0  -0.3757
  N  N293  1  0.688400  0.691000  0.580100  1.0  -0.1777
  N  N294  1  0.614800  0.639300  0.283300  1.0  -0.3884
  N  N295  1  0.625100  0.605400  0.418300  1.0  -0.1826
  N  N296  1  0.653600  0.516000  0.564400  1.0  -0.1608
  N  N297  1  0.280500  0.744700  0.196500  1.0  -0.3752
  N  N298  1  0.973900  0.803600  0.924700  1.0  -0.4211
  N  N299  1  0.074900  0.845500  0.999500  1.0  -0.1861
  N  N300  1  0.149700  0.121900  0.129100  1.0  -0.3762
  N  N301  1  0.188400  0.809000  0.080100  1.0  -0.1778
  N  N302  1  0.114800  0.860700  0.783300  1.0  -0.3891
  N  N303  1  0.125100  0.894600  0.918300  1.0  -0.1828
  N  N304  1  0.153600  0.984000  0.064400  1.0  -0.1612
  N  N305  1  0.780500  0.244700  0.196500  1.0  -0.3752
  N  N306  1  0.473900  0.303600  0.924700  1.0  -0.4211
  N  N307  1  0.574900  0.345500  0.999500  1.0  -0.1861
  N  N308  1  0.649700  0.621900  0.129100  1.0  -0.3762
  N  N309  1  0.688400  0.309000  0.080100  1.0  -0.1778
  N  N310  1  0.614800  0.360700  0.783300  1.0  -0.3891
  N  N311  1  0.625100  0.394600  0.918300  1.0  -0.1828
  N  N312  1  0.653600  0.484000  0.064400  1.0  -0.1612
  N  N313  1  0.719500  0.744700  0.303500  1.0  -0.3754
  N  N314  1  0.026100  0.803600  0.575300  1.0  -0.4201
  N  N315  1  0.925100  0.845500  0.500500  1.0  -0.1861
  N  N316  1  0.850300  0.121900  0.370900  1.0  -0.376
  N  N317  1  0.811600  0.809000  0.419900  1.0  -0.1777
  N  N318  1  0.885200  0.860700  0.716700  1.0  -0.3884
  N  N319  1  0.874900  0.894600  0.581700  1.0  -0.1837
  N  N320  1  0.846400  0.984000  0.435600  1.0  -0.1612
  N  N321  1  0.219500  0.244700  0.303500  1.0  -0.3754
  N  N322  1  0.526100  0.303600  0.575300  1.0  -0.4201
  N  N323  1  0.425100  0.345500  0.500500  1.0  -0.1861
  N  N324  1  0.350300  0.621900  0.370900  1.0  -0.376
  N  N325  1  0.311600  0.309000  0.419900  1.0  -0.1777
  N  N326  1  0.385200  0.360700  0.716700  1.0  -0.3884
  N  N327  1  0.374900  0.394600  0.581700  1.0  -0.1837
  N  N328  1  0.346400  0.484000  0.435600  1.0  -0.1612
  O  O329  1  0.118900  0.353300  0.111200  1.0  -0.5719
  O  O330  1  0.097600  0.369100  0.214600  1.0  -0.5951
  O  O331  1  0.618900  0.853300  0.111200  1.0  -0.5719
  O  O332  1  0.597600  0.869100  0.214600  1.0  -0.5951
  O  O333  1  0.881100  0.353300  0.388800  1.0  -0.5725
  O  O334  1  0.902400  0.369100  0.285400  1.0  -0.593
  O  O335  1  0.381100  0.853300  0.388800  1.0  -0.5725
  O  O336  1  0.402400  0.869100  0.285400  1.0  -0.593
  O  O337  1  0.881100  0.646700  0.888800  1.0  -0.5732
  O  O338  1  0.902400  0.630900  0.785400  1.0  -0.5921
  O  O339  1  0.381100  0.146700  0.888800  1.0  -0.5732
  O  O340  1  0.402400  0.130900  0.785400  1.0  -0.5921
  O  O341  1  0.118900  0.646700  0.611200  1.0  -0.572
  O  O342  1  0.097600  0.630900  0.714600  1.0  -0.5955
  O  O343  1  0.618900  0.146700  0.611200  1.0  -0.572
  O  O344  1  0.597600  0.130900  0.714600  1.0  -0.5955
