# generated using pymatgen
data_CdBH15C18(N4O)2
_symmetry_space_group_name_H-M   'P 1'
_cell_length_a   9.00300000
_cell_length_b   17.38200000
_cell_length_c   17.05700000
_cell_angle_alpha   90.00000000
_cell_angle_beta   104.59500000
_cell_angle_gamma   90.00000000
_symmetry_Int_Tables_number   1
_chemical_formula_structural   CdBH15C18(N4O)2
_chemical_formula_sum   'Cd4 B4 H60 C72 N32 O8'
_cell_volume   2583.11875172
_cell_formula_units_Z   4
loop_
 _symmetry_equiv_pos_site_id
 _symmetry_equiv_pos_as_xyz
  1  'x, y, z'
loop_
 _atom_site_type_symbol
 _atom_site_label
 _atom_site_symmetry_multiplicity
 _atom_site_fract_x
 _atom_site_fract_y
 _atom_site_fract_z
 _atom_site_occupancy
 _atom_site_charge
  Cd  Cd1  1  0.384380  0.060150  0.214750  1.0  0.9583
  Cd  Cd2  1  0.115620  0.560150  0.285250  1.0  0.9592
  Cd  Cd3  1  0.615620  0.939850  0.785250  1.0  0.9594
  Cd  Cd4  1  0.884380  0.439850  0.714750  1.0  0.9586
  B  B5  1  0.844600  0.853700  0.129400  1.0  0.4633
  B  B6  1  0.655400  0.353700  0.370600  1.0  0.4638
  B  B7  1  0.155400  0.146300  0.870600  1.0  0.4639
  B  B8  1  0.344600  0.646300  0.629400  1.0  0.4634
  H  H9  1  0.682700  0.967800  0.336300  1.0  0.0998
  H  H10  1  0.753800  0.630200  0.253400  1.0  0.0975
  H  H11  1  0.029400  0.981300  0.204700  1.0  0.0978
  H  H12  1  0.596700  0.962200  0.097100  1.0  0.0906
  H  H13  1  0.646200  0.752800  0.192300  1.0  0.1271
  H  H14  1  0.082600  0.736400  0.178000  1.0  0.0903
  H  H15  1  0.084500  0.819200  0.048100  1.0  0.1277
  H  H16  1  0.873500  0.881300  0.300800  1.0  0.1242
  H  H17  1  0.830600  0.934000  0.982800  1.0  0.0887
  H  H18  1  0.999300  0.084200  0.370200  1.0  0.1016
  H  H19  1  0.308900  0.905500  0.076200  1.0  0.0965
  H  H20  1  0.356100  0.945300  0.475800  1.0  0.1133
  H  H21  1  0.477900  0.798100  0.894500  1.0  0.0964
  H  H22  1  0.582900  0.762100  0.037700  1.0  0.1206
  H  H23  1  0.227500  0.906900  0.571000  1.0  0.0969
  H  H24  1  0.817300  0.467800  0.163700  1.0  0.1003
  H  H25  1  0.746200  0.130200  0.246600  1.0  0.0974
  H  H26  1  0.470600  0.481300  0.295300  1.0  0.0977
  H  H27  1  0.903300  0.462200  0.402900  1.0  0.0909
  H  H28  1  0.853800  0.252800  0.307700  1.0  0.1278
  H  H29  1  0.417400  0.236400  0.322000  1.0  0.0906
  H  H30  1  0.415500  0.319200  0.451900  1.0  0.1274
  H  H31  1  0.626500  0.381300  0.199200  1.0  0.1246
  H  H32  1  0.669400  0.434000  0.517200  1.0  0.0886
  H  H33  1  0.500700  0.584200  0.129800  1.0  0.101
  H  H34  1  0.191100  0.405500  0.423800  1.0  0.0965
  H  H35  1  0.143900  0.445300  0.024200  1.0  0.1136
  H  H36  1  0.022100  0.298100  0.605500  1.0  0.0965
  H  H37  1  0.917100  0.262100  0.462300  1.0  0.1203
  H  H38  1  0.272500  0.406900  0.929000  1.0  0.0974
  H  H39  1  0.317300  0.032200  0.663700  1.0  0.1025
  H  H40  1  0.246200  0.369800  0.746600  1.0  0.0969
  H  H41  1  0.970600  0.018700  0.795300  1.0  0.0982
  H  H42  1  0.403300  0.037800  0.902900  1.0  0.0909
  H  H43  1  0.353800  0.247200  0.807700  1.0  0.1277
  H  H44  1  0.917400  0.263600  0.822000  1.0  0.0904
  H  H45  1  0.915500  0.180800  0.951900  1.0  0.1276
  H  H46  1  0.126500  0.118700  0.699200  1.0  0.1251
  H  H47  1  0.169400  0.066000  0.017200  1.0  0.0885
  H  H48  1  0.000700  0.915800  0.629800  1.0  0.102
  H  H49  1  0.691100  0.094500  0.923800  1.0  0.0965
  H  H50  1  0.643900  0.054700  0.524200  1.0  0.1135
  H  H51  1  0.522100  0.201900  0.105500  1.0  0.0963
  H  H52  1  0.417100  0.237900  0.962300  1.0  0.1208
  H  H53  1  0.772500  0.093100  0.429000  1.0  0.0975
  H  H54  1  0.182700  0.532200  0.836300  1.0  0.1025
  H  H55  1  0.253800  0.869800  0.753400  1.0  0.0973
  H  H56  1  0.529400  0.518700  0.704700  1.0  0.0983
  H  H57  1  0.096700  0.537800  0.597100  1.0  0.0902
  H  H58  1  0.146200  0.747200  0.692300  1.0  0.1271
  H  H59  1  0.582600  0.763600  0.678000  1.0  0.0906
  H  H60  1  0.584500  0.680800  0.548100  1.0  0.1274
  H  H61  1  0.373500  0.618700  0.800800  1.0  0.1243
  H  H62  1  0.330600  0.566000  0.482800  1.0  0.0886
  H  H63  1  0.499300  0.415800  0.870200  1.0  0.1019
  H  H64  1  0.808900  0.594500  0.576200  1.0  0.0964
  H  H65  1  0.856100  0.554700  0.975800  1.0  0.1139
  H  H66  1  0.977900  0.701900  0.394500  1.0  0.0965
  H  H67  1  0.082900  0.737900  0.537700  1.0  0.1208
  H  H68  1  0.727500  0.593100  0.071000  1.0  0.097
  C  C69  1  0.689200  0.955800  0.282900  1.0  0.0105
  C  C70  1  0.807200  0.667500  0.230200  1.0  0.0196
  C  C71  1  0.071400  0.951400  0.168900  1.0  0.1793
  C  C72  1  0.642000  0.952600  0.152800  1.0  0.1994
  C  C73  1  0.747500  0.734700  0.196700  1.0  -0.118
  C  C74  1  0.986800  0.725100  0.189200  1.0  0.1854
  C  C75  1  0.100300  0.862300  0.083400  1.0  -0.1197
  C  C76  1  0.793600  0.907900  0.263700  1.0  -0.1168
  C  C77  1  0.754900  0.895000  0.978400  1.0  0.1761
  C  C78  1  0.045300  0.048300  0.411100  1.0  -0.1135
  C  C79  1  0.965700  0.027100  0.469800  1.0  0.0301
  C  C80  1  0.223100  0.910000  0.098800  1.0  -0.0083
  C  C81  1  0.186700  0.018500  0.411600  1.0  -0.1332
  C  C82  1  0.257000  0.965300  0.473700  1.0  -0.0639
  C  C83  1  0.563900  0.821500  0.930600  1.0  0.0125
  C  C84  1  0.621200  0.801400  0.009400  1.0  -0.0787
  C  C85  1  0.266700  0.038900  0.347300  1.0  0.6659
  C  C86  1  0.180700  0.943100  0.530600  1.0  -0.1474
  C  C87  1  0.810800  0.455800  0.217100  1.0  0.0103
  C  C88  1  0.692800  0.167500  0.269800  1.0  0.0181
  C  C89  1  0.428600  0.451400  0.331100  1.0  0.1804
  C  C90  1  0.858000  0.452600  0.347200  1.0  0.2004
  C  C91  1  0.752500  0.234700  0.303300  1.0  -0.1174
  C  C92  1  0.513200  0.225100  0.310800  1.0  0.1849
  C  C93  1  0.399700  0.362300  0.416600  1.0  -0.1197
  C  C94  1  0.706400  0.407900  0.236300  1.0  -0.1187
  C  C95  1  0.745100  0.395000  0.521600  1.0  0.1766
  C  C96  1  0.454700  0.548300  0.088900  1.0  -0.1138
  C  C97  1  0.534300  0.527100  0.030200  1.0  0.03
  C  C98  1  0.276900  0.410000  0.401200  1.0  -0.0087
  C  C99  1  0.313300  0.518500  0.088400  1.0  -0.133
  C  C100  1  0.243000  0.465300  0.026300  1.0  -0.0632
  C  C101  1  0.936100  0.321500  0.569400  1.0  0.0127
  C  C102  1  0.878800  0.301400  0.490600  1.0  -0.0779
  C  C103  1  0.233300  0.538900  0.152700  1.0  0.6666
  C  C104  1  0.319300  0.443100  0.969400  1.0  -0.146
  C  C105  1  0.310800  0.044200  0.717100  1.0  0.0099
  C  C106  1  0.192800  0.332500  0.769800  1.0  0.0182
  C  C107  1  0.928600  0.048600  0.831100  1.0  0.1795
  C  C108  1  0.358000  0.047400  0.847200  1.0  0.2005
  C  C109  1  0.252500  0.265300  0.803300  1.0  -0.1177
  C  C110  1  0.013200  0.274900  0.810800  1.0  0.1849
  C  C111  1  0.899700  0.137700  0.916600  1.0  -0.1209
  C  C112  1  0.206400  0.092100  0.736300  1.0  -0.119
  C  C113  1  0.245100  0.105000  0.021600  1.0  0.1775
  C  C114  1  0.954700  0.951700  0.588900  1.0  -0.113
  C  C115  1  0.034300  0.972900  0.530200  1.0  0.0299
  C  C116  1  0.776900  0.090000  0.901200  1.0  -0.0031
  C  C117  1  0.813300  0.981500  0.588400  1.0  -0.1327
  C  C118  1  0.743000  0.034700  0.526300  1.0  -0.0635
  C  C119  1  0.436100  0.178500  0.069400  1.0  0.0122
  C  C120  1  0.378800  0.198600  0.990600  1.0  -0.0775
  C  C121  1  0.733300  0.961100  0.652700  1.0  0.6665
  C  C122  1  0.819300  0.056900  0.469400  1.0  -0.147
  C  C123  1  0.189200  0.544200  0.782900  1.0  0.0103
  C  C124  1  0.307200  0.832500  0.730200  1.0  0.0199
  C  C125  1  0.571400  0.548600  0.668900  1.0  0.1803
  C  C126  1  0.142000  0.547400  0.652800  1.0  0.1996
  C  C127  1  0.247500  0.765300  0.696700  1.0  -0.1177
  C  C128  1  0.486800  0.774900  0.689200  1.0  0.1854
  C  C129  1  0.600300  0.637700  0.583400  1.0  -0.119
  C  C130  1  0.293600  0.592100  0.763700  1.0  -0.1173
  C  C131  1  0.254900  0.605000  0.478400  1.0  0.177
  C  C132  1  0.545300  0.451700  0.911100  1.0  -0.1128
  C  C133  1  0.465700  0.472900  0.969800  1.0  0.03
  C  C134  1  0.723100  0.590000  0.598800  1.0  -0.0021
  C  C135  1  0.686700  0.481500  0.911600  1.0  -0.1328
  C  C136  1  0.757000  0.534700  0.973700  1.0  -0.0643
  C  C137  1  0.063900  0.678500  0.430600  1.0  0.0128
  C  C138  1  0.121200  0.698600  0.509400  1.0  -0.079
  C  C139  1  0.766700  0.461100  0.847300  1.0  0.6657
  C  C140  1  0.680700  0.556900  0.030600  1.0  -0.1489
  N  N141  1  0.762100  0.905000  0.179400  1.0  -0.1952
  N  N142  1  0.957700  0.661400  0.225700  1.0  -0.3725
  N  N143  1  0.002100  0.887800  0.128600  1.0  -0.177
  N  N144  1  0.745000  0.848500  0.040800  1.0  -0.1885
  N  N145  1  0.861900  0.772300  0.169800  1.0  -0.2189
  N  N146  1  0.204100  0.966100  0.152100  1.0  -0.356
  N  N147  1  0.648900  0.880800  0.910800  1.0  -0.4036
  N  N148  1  0.593500  0.984500  0.212100  1.0  -0.4168
  N  N149  1  0.737900  0.405000  0.320600  1.0  -0.194
  N  N150  1  0.542300  0.161400  0.274300  1.0  -0.3729
  N  N151  1  0.497900  0.387800  0.371400  1.0  -0.1778
  N  N152  1  0.755000  0.348500  0.459200  1.0  -0.1877
  N  N153  1  0.638100  0.272300  0.330200  1.0  -0.2192
  N  N154  1  0.295900  0.466100  0.347900  1.0  -0.3561
  N  N155  1  0.851100  0.380800  0.589200  1.0  -0.4062
  N  N156  1  0.906500  0.484500  0.287900  1.0  -0.417
  N  N157  1  0.237900  0.095000  0.820600  1.0  -0.1943
  N  N158  1  0.042300  0.338600  0.774300  1.0  -0.3717
  N  N159  1  0.997900  0.112200  0.871400  1.0  -0.1781
  N  N160  1  0.255000  0.151500  0.959200  1.0  -0.1879
  N  N161  1  0.138100  0.227700  0.830200  1.0  -0.2197
  N  N162  1  0.795900  0.033900  0.847900  1.0  -0.3561
  N  N163  1  0.351100  0.119200  0.089200  1.0  -0.4057
  N  N164  1  0.406500  0.015500  0.787900  1.0  -0.4173
  N  N165  1  0.262100  0.595000  0.679400  1.0  -0.1955
  N  N166  1  0.457700  0.838600  0.725700  1.0  -0.3726
  N  N167  1  0.502100  0.612200  0.628600  1.0  -0.1775
  N  N168  1  0.245000  0.651500  0.540800  1.0  -0.1883
  N  N169  1  0.361900  0.727700  0.669800  1.0  -0.2191
  N  N170  1  0.704100  0.533900  0.652100  1.0  -0.3548
  N  N171  1  0.148900  0.619200  0.410800  1.0  -0.4049
  N  N172  1  0.093500  0.515500  0.712100  1.0  -0.4173
  O  O173  1  0.206400  0.087500  0.293200  1.0  -0.6059
  O  O174  1  0.388400  0.005200  0.346600  1.0  -0.6414
  O  O175  1  0.293600  0.587500  0.206800  1.0  -0.6065
  O  O176  1  0.111600  0.505200  0.153400  1.0  -0.6425
  O  O177  1  0.793600  0.912500  0.706800  1.0  -0.6055
  O  O178  1  0.611600  0.994800  0.653400  1.0  -0.6409
  O  O179  1  0.706400  0.412500  0.793200  1.0  -0.6062
  O  O180  1  0.888400  0.494800  0.846600  1.0  -0.6404
