# generated using pymatgen
data_ZnH3C9(NO)4
_symmetry_space_group_name_H-M   'P 1'
_cell_length_a   10.09700000
_cell_length_b   12.81010000
_cell_length_c   10.92290000
_cell_angle_alpha   90.00000000
_cell_angle_beta   102.58100000
_cell_angle_gamma   90.00000000
_symmetry_Int_Tables_number   1
_chemical_formula_structural   ZnH3C9(NO)4
_chemical_formula_sum   'Zn4 H12 C36 N16 O16'
_cell_volume   1378.88414500
_cell_formula_units_Z   4
loop_
 _symmetry_equiv_pos_site_id
 _symmetry_equiv_pos_as_xyz
  1  'x, y, z'
loop_
 _atom_site_type_symbol
 _atom_site_label
 _atom_site_symmetry_multiplicity
 _atom_site_fract_x
 _atom_site_fract_y
 _atom_site_fract_z
 _atom_site_occupancy
 _atom_site_charge
  Zn  Zn1  1  0.731240  0.355230  0.279880  1.0  0.9977
  Zn  Zn2  1  0.268760  0.855230  0.220120  1.0  0.9984
  Zn  Zn3  1  0.268760  0.644770  0.720120  1.0  0.9985
  Zn  Zn4  1  0.731240  0.144770  0.779880  1.0  0.9974
  H  H5  1  0.235600  0.351100  0.262900  1.0  0.1301
  H  H6  1  0.456800  0.607800  0.382000  1.0  0.1337
  H  H7  1  0.061700  0.593800  0.400000  1.0  0.1312
  H  H8  1  0.764400  0.851100  0.237100  1.0  0.1306
  H  H9  1  0.543200  0.107800  0.118000  1.0  0.1337
  H  H10  1  0.938300  0.093800  0.100000  1.0  0.1315
  H  H11  1  0.764400  0.648900  0.737100  1.0  0.1308
  H  H12  1  0.543200  0.392200  0.618000  1.0  0.1341
  H  H13  1  0.938300  0.406200  0.600000  1.0  0.1305
  H  H14  1  0.235600  0.148900  0.762900  1.0  0.1302
  H  H15  1  0.456800  0.892200  0.882000  1.0  0.1331
  H  H16  1  0.061700  0.906200  0.900000  1.0  0.1306
  C  C17  1  0.996600  0.401000  0.303700  1.0  0.707
  C  C18  1  0.486700  0.416600  0.286100  1.0  0.7059
  C  C19  1  0.267800  0.722900  0.457800  1.0  0.3715
  C  C20  1  0.128600  0.463000  0.329300  1.0  -0.1364
  C  C21  1  0.242200  0.417400  0.298200  1.0  0.0521
  C  C22  1  0.365600  0.470600  0.319700  1.0  -0.1329
  C  C23  1  0.375200  0.571500  0.369600  1.0  -0.0579
  C  C24  1  0.260500  0.617700  0.400900  1.0  -0.0112
  C  C25  1  0.137700  0.563100  0.380000  1.0  -0.012
  C  C26  1  0.003400  0.901000  0.196300  1.0  0.7056
  C  C27  1  0.513300  0.916600  0.213900  1.0  0.7046
  C  C28  1  0.732200  0.222900  0.042200  1.0  0.3717
  C  C29  1  0.871400  0.963000  0.170700  1.0  -0.1351
  C  C30  1  0.757800  0.917400  0.201800  1.0  0.0519
  C  C31  1  0.634400  0.970600  0.180300  1.0  -0.1329
  C  C32  1  0.624800  0.071500  0.130400  1.0  -0.056
  C  C33  1  0.739500  0.117700  0.099100  1.0  -0.0112
  C  C34  1  0.862300  0.063100  0.120000  1.0  -0.0144
  C  C35  1  0.003400  0.599000  0.696300  1.0  0.7063
  C  C36  1  0.513300  0.583400  0.713900  1.0  0.705
  C  C37  1  0.732200  0.277100  0.542200  1.0  0.3713
  C  C38  1  0.871400  0.537000  0.670700  1.0  -0.1355
  C  C39  1  0.757800  0.582600  0.701800  1.0  0.0533
  C  C40  1  0.634400  0.529400  0.680300  1.0  -0.1322
  C  C41  1  0.624800  0.428500  0.630400  1.0  -0.056
  C  C42  1  0.739500  0.382300  0.599100  1.0  -0.0109
  C  C43  1  0.862300  0.436900  0.620000  1.0  -0.0134
  C  C44  1  0.996600  0.099000  0.803700  1.0  0.7065
  C  C45  1  0.486700  0.083400  0.786100  1.0  0.7057
  C  C46  1  0.267800  0.777100  0.957800  1.0  0.3712
  C  C47  1  0.128600  0.037000  0.829300  1.0  -0.1358
  C  C48  1  0.242200  0.082600  0.798200  1.0  0.053
  C  C49  1  0.365600  0.029400  0.819700  1.0  -0.1324
  C  C50  1  0.375200  0.928500  0.869600  1.0  -0.0587
  C  C51  1  0.260500  0.882300  0.900900  1.0  -0.0112
  C  C52  1  0.137700  0.936900  0.880000  1.0  -0.0137
  N  N53  1  0.258400  0.741100  0.573900  1.0  -0.2369
  N  N54  1  0.265500  0.846200  0.588100  1.0  -0.1243
  N  N55  1  0.280600  0.885900  0.481800  1.0  -0.046
  N  N56  1  0.281800  0.810700  0.397700  1.0  -0.2397
  N  N57  1  0.741600  0.241100  0.926100  1.0  -0.2365
  N  N58  1  0.734500  0.346200  0.911900  1.0  -0.1225
  N  N59  1  0.719400  0.385900  0.018200  1.0  -0.0467
  N  N60  1  0.718200  0.310700  0.102300  1.0  -0.2404
  N  N61  1  0.741600  0.258900  0.426100  1.0  -0.2369
  N  N62  1  0.734500  0.153800  0.411900  1.0  -0.123
  N  N63  1  0.719400  0.114100  0.518200  1.0  -0.0469
  N  N64  1  0.718200  0.189300  0.602300  1.0  -0.2403
  N  N65  1  0.258400  0.758900  0.073900  1.0  -0.2375
  N  N66  1  0.265500  0.653800  0.088100  1.0  -0.1243
  N  N67  1  0.280600  0.614100  0.981800  1.0  -0.0461
  N  N68  1  0.281800  0.689300  0.897700  1.0  -0.2398
  O  O69  1  0.889500  0.452800  0.305900  1.0  -0.5823
  O  O70  1  0.000200  0.306300  0.285900  1.0  -0.513
  O  O71  1  0.475200  0.325400  0.249100  1.0  -0.567
  O  O72  1  0.599500  0.466700  0.305400  1.0  -0.572
  O  O73  1  0.110500  0.952800  0.194100  1.0  -0.582
  O  O74  1  0.999800  0.806300  0.214100  1.0  -0.5133
  O  O75  1  0.524800  0.825400  0.250900  1.0  -0.5661
  O  O76  1  0.400500  0.966700  0.194600  1.0  -0.5718
  O  O77  1  0.110500  0.547200  0.694100  1.0  -0.5835
  O  O78  1  0.999800  0.693700  0.714100  1.0  -0.5106
  O  O79  1  0.524800  0.674600  0.750900  1.0  -0.5651
  O  O80  1  0.400500  0.533300  0.694600  1.0  -0.5715
  O  O81  1  0.889500  0.047200  0.805900  1.0  -0.583
  O  O82  1  0.000200  0.193700  0.785900  1.0  -0.5087
  O  O83  1  0.475200  0.174600  0.749100  1.0  -0.5654
  O  O84  1  0.599500  0.033300  0.805400  1.0  -0.5716
