# generated using pymatgen
data_Cd2H3C9N4O5
_symmetry_space_group_name_H-M   'P 1'
_cell_length_a   10.46220000
_cell_length_b   7.18700000
_cell_length_c   13.45440000
_cell_angle_alpha   90.00000000
_cell_angle_beta   112.69400000
_cell_angle_gamma   90.00000000
_symmetry_Int_Tables_number   1
_chemical_formula_structural   Cd2H3C9N4O5
_chemical_formula_sum   'Cd4 H6 C18 N8 O10'
_cell_volume   933.33666245
_cell_formula_units_Z   2
loop_
 _symmetry_equiv_pos_site_id
 _symmetry_equiv_pos_as_xyz
  1  'x, y, z'
loop_
 _atom_site_type_symbol
 _atom_site_label
 _atom_site_symmetry_multiplicity
 _atom_site_fract_x
 _atom_site_fract_y
 _atom_site_fract_z
 _atom_site_occupancy
 _atom_site_charge
  Cd  Cd1  1  0.856300  0.250000  0.725120  1.0  1.0035
  Cd  Cd2  1  0.143700  0.750000  0.274880  1.0  1.0048
  Cd  Cd3  1  0.000000  0.000000  0.000000  1.0  0.9907
  Cd  Cd4  1  0.000000  0.500000  0.000000  1.0  0.9907
  H  H5  1  0.421500  0.250000  0.471000  1.0  0.1159
  H  H6  1  0.031300  0.250000  0.453500  1.0  0.1124
  H  H7  1  0.346400  0.250000  0.742600  1.0  0.1221
  H  H8  1  0.578500  0.750000  0.529000  1.0  0.1161
  H  H9  1  0.968700  0.750000  0.546500  1.0  0.1113
  H  H10  1  0.653600  0.750000  0.257400  1.0  0.1221
  C  C11  1  0.564000  0.250000  0.679100  1.0  0.6935
  C  C12  1  0.407800  0.250000  0.614500  1.0  -0.1317
  C  C13  1  0.359400  0.250000  0.505200  1.0  -0.043
  C  C14  1  0.214300  0.250000  0.442700  1.0  0.0185
  C  C15  1  0.126400  0.250000  0.493000  1.0  -0.036
  C  C16  1  0.179600  0.250000  0.608000  1.0  -0.1265
  C  C17  1  0.314200  0.250000  0.667800  1.0  0.0395
  C  C18  1  0.071100  0.250000  0.659000  1.0  0.6688
  C  C19  1  0.163900  0.250000  0.322600  1.0  0.3201
  C  C20  1  0.436000  0.750000  0.320900  1.0  0.6965
  C  C21  1  0.592200  0.750000  0.385500  1.0  -0.1326
  C  C22  1  0.640600  0.750000  0.494800  1.0  -0.0416
  C  C23  1  0.785700  0.750000  0.557300  1.0  0.0187
  C  C24  1  0.873600  0.750000  0.507000  1.0  -0.0376
  C  C25  1  0.820400  0.750000  0.392000  1.0  -0.1226
  C  C26  1  0.685800  0.750000  0.332200  1.0  0.0412
  C  C27  1  0.928900  0.750000  0.341000  1.0  0.6711
  C  C28  1  0.836100  0.750000  0.677400  1.0  0.3207
  N  N29  1  0.135500  0.096400  0.260600  1.0  -0.253
  N  N30  1  0.096400  0.157200  0.161800  1.0  -0.0628
  N  N31  1  0.864500  0.596400  0.739400  1.0  -0.2539
  N  N32  1  0.903600  0.657200  0.838200  1.0  -0.0628
  N  N33  1  0.864500  0.903600  0.739400  1.0  -0.2508
  N  N34  1  0.903600  0.842800  0.838200  1.0  -0.0629
  N  N35  1  0.135500  0.403600  0.260600  1.0  -0.25
  N  N36  1  0.096400  0.342800  0.161800  1.0  -0.0618
  O  O37  1  0.635000  0.250000  0.622600  1.0  -0.6046
  O  O38  1  0.605600  0.250000  0.776700  1.0  -0.4206
  O  O39  1  0.114300  0.250000  0.762700  1.0  -0.6572
  O  O40  1  0.943600  0.250000  0.601500  1.0  -0.5847
  O  O41  1  0.902500  0.250000  0.902400  1.0  -0.853
  O  O42  1  0.365000  0.750000  0.377400  1.0  -0.6041
  O  O43  1  0.394400  0.750000  0.223300  1.0  -0.4244
  O  O44  1  0.885700  0.750000  0.237300  1.0  -0.6601
  O  O45  1  0.056400  0.750000  0.398500  1.0  -0.5859
  O  O46  1  0.097500  0.750000  0.097600  1.0  -0.8539
