# generated using pymatgen
data_NdH21C14O9
_symmetry_space_group_name_H-M   'P 1'
_cell_length_a   8.66300000
_cell_length_b   9.06900000
_cell_length_c   11.87500000
_cell_angle_alpha   110.05000000
_cell_angle_beta   90.00000000
_cell_angle_gamma   90.00000000
_symmetry_Int_Tables_number   1
_chemical_formula_structural   NdH21C14O9
_chemical_formula_sum   'Nd2 H42 C28 O18'
_cell_volume   876.41342476
_cell_formula_units_Z   2
loop_
 _symmetry_equiv_pos_site_id
 _symmetry_equiv_pos_as_xyz
  1  'x, y, z'
loop_
 _atom_site_type_symbol
 _atom_site_label
 _atom_site_symmetry_multiplicity
 _atom_site_fract_x
 _atom_site_fract_y
 _atom_site_fract_z
 _atom_site_occupancy
 _atom_site_charge
  Nd  Nd1  1  0.470620  0.025710  0.987760  1.0  2.3578
  Nd  Nd2  1  0.970620  0.974290  0.012240  1.0  2.3579
  H  H3  1  0.090500  0.832400  0.661600  1.0  0.1233
  H  H4  1  0.122200  0.687300  0.701300  1.0  0.1077
  H  H5  1  0.313900  0.771200  0.538100  1.0  0.0736
  H  H6  1  0.345900  0.626300  0.577900  1.0  0.1688
  H  H7  1  0.096400  0.657400  0.440100  1.0  0.0962
  H  H8  1  0.113000  0.517500  0.488100  1.0  0.1027
  H  H9  1  0.312000  0.572700  0.318200  1.0  0.0764
  H  H10  1  0.342100  0.439800  0.371700  1.0  0.0693
  H  H11  1  0.101500  0.450300  0.220100  1.0  0.1236
  H  H12  1  0.103700  0.329100  0.287300  1.0  0.1608
  H  H13  1  0.509900  0.184800  0.759000  1.0  0.4082
  H  H14  1  0.373600  0.909800  0.362700  1.0  0.1095
  H  H15  1  0.197300  0.866700  0.354600  1.0  0.106
  H  H16  1  0.308700  0.183200  0.413200  1.0  0.0788
  H  H17  1  0.132400  0.140500  0.404200  1.0  0.0829
  H  H18  1  0.331300  0.088400  0.575900  1.0  0.0722
  H  H19  1  0.153100  0.056600  0.569100  1.0  0.0746
  H  H20  1  0.286600  0.359800  0.631700  1.0  0.0739
  H  H21  1  0.108500  0.331000  0.619700  1.0  0.0779
  H  H22  1  0.108300  0.254900  0.784700  1.0  0.1266
  H  H23  1  0.175500  0.424700  0.816700  1.0  0.1387
  H  H24  1  0.590500  0.167600  0.338400  1.0  0.1124
  H  H25  1  0.622200  0.312700  0.298700  1.0  0.1071
  H  H26  1  0.813900  0.228800  0.461900  1.0  0.0747
  H  H27  1  0.845900  0.373700  0.422100  1.0  0.169
  H  H28  1  0.596400  0.342600  0.559900  1.0  0.0959
  H  H29  1  0.613000  0.482500  0.511900  1.0  0.1018
  H  H30  1  0.812000  0.427300  0.681800  1.0  0.0752
  H  H31  1  0.842100  0.560200  0.628300  1.0  0.0697
  H  H32  1  0.601500  0.549700  0.779900  1.0  0.1232
  H  H33  1  0.603700  0.670900  0.712700  1.0  0.1628
  H  H34  1  0.009900  0.815200  0.241000  1.0  0.4092
  H  H35  1  0.873600  0.090200  0.637300  1.0  0.1106
  H  H36  1  0.697300  0.133300  0.645400  1.0  0.1074
  H  H37  1  0.808700  0.816800  0.586800  1.0  0.0793
  H  H38  1  0.632400  0.859500  0.595800  1.0  0.0822
  H  H39  1  0.831300  0.911600  0.424100  1.0  0.0725
  H  H40  1  0.653100  0.943400  0.430900  1.0  0.0753
  H  H41  1  0.786600  0.640200  0.368300  1.0  0.073
  H  H42  1  0.608500  0.669000  0.380300  1.0  0.0764
  H  H43  1  0.608300  0.745100  0.215300  1.0  0.1258
  H  H44  1  0.675500  0.575300  0.183300  1.0  0.1402
  C  C45  1  0.266800  0.868100  0.779000  1.0  0.7704
  C  C46  1  0.171400  0.768500  0.677800  1.0  -0.3666
  C  C47  1  0.264900  0.690100  0.561600  1.0  -0.0433
  C  C48  1  0.170500  0.591100  0.461400  1.0  -0.1751
  C  C49  1  0.261800  0.498800  0.349100  1.0  -0.0482
  C  C50  1  0.168800  0.389500  0.252800  1.0  -0.2659
  C  C51  1  0.262100  0.274400  0.148900  1.0  0.7788
  C  C52  1  0.271000  0.927800  0.215000  1.0  0.8132
  C  C53  1  0.272000  0.939000  0.342200  1.0  -0.324
  C  C54  1  0.233000  0.111000  0.425500  1.0  -0.0765
  C  C55  1  0.233000  0.125000  0.556700  1.0  -0.1277
  C  C56  1  0.204000  0.294000  0.642800  1.0  -0.0824
  C  C57  1  0.195000  0.315000  0.772000  1.0  -0.3509
  C  C58  1  0.341300  0.264100  0.821700  1.0  0.7258
  C  C59  1  0.766800  0.131900  0.221000  1.0  0.7681
  C  C60  1  0.671400  0.231500  0.322200  1.0  -0.3612
  C  C61  1  0.764900  0.309900  0.438400  1.0  -0.032
  C  C62  1  0.670500  0.408900  0.538600  1.0  -0.1748
  C  C63  1  0.761800  0.501200  0.650900  1.0  -0.0585
  C  C64  1  0.668800  0.610500  0.747200  1.0  -0.3049
  C  C65  1  0.762100  0.725600  0.851100  1.0  0.7807
  C  C66  1  0.771000  0.072200  0.785000  1.0  0.812
  C  C67  1  0.772000  0.061000  0.657800  1.0  -0.3208
  C  C68  1  0.733000  0.889000  0.574500  1.0  -0.0774
  C  C69  1  0.733000  0.875000  0.443300  1.0  -0.127
  C  C70  1  0.704000  0.706000  0.357200  1.0  -0.0808
  C  C71  1  0.695000  0.685000  0.228000  1.0  -0.3471
  C  C72  1  0.841300  0.735900  0.178300  1.0  0.7271
  O  O73  1  0.190400  0.926000  0.886800  1.0  -0.9103
  O  O74  1  0.397700  0.898900  0.773400  1.0  -0.6212
  O  O75  1  0.191700  0.147500  0.085200  1.0  -0.8427
  O  O76  1  0.399100  0.297300  0.132300  1.0  -0.6325
  O  O77  1  0.390300  0.978800  0.176100  1.0  -0.7586
  O  O78  1  0.158100  0.871000  0.151200  1.0  -0.7209
  O  O79  1  0.462000  0.266600  0.769300  1.0  -0.4937
  O  O80  1  0.337000  0.233700  0.919400  1.0  -0.636
  O  O81  1  0.489000  0.634000  0.597800  1.0  -0.4145
  O  O82  1  0.690400  0.074000  0.113200  1.0  -0.8987
  O  O83  1  0.897700  0.101100  0.226600  1.0  -0.6212
  O  O84  1  0.691700  0.852500  0.914800  1.0  -0.8456
  O  O85  1  0.899100  0.702700  0.867700  1.0  -0.6316
  O  O86  1  0.890300  0.021200  0.823900  1.0  -0.7491
  O  O87  1  0.658100  0.129000  0.848800  1.0  -0.7206
  O  O88  1  0.962000  0.733400  0.230700  1.0  -0.4976
  O  O89  1  0.837000  0.766300  0.080600  1.0  -0.635
  O  O90  1  0.989000  0.366000  0.402200  1.0  -0.4123
