# generated using pymatgen
data_CuH16C20N7O9
_symmetry_space_group_name_H-M   'P 1'
_cell_length_a   14.39050000
_cell_length_b   22.20740000
_cell_length_c   22.27320000
_cell_angle_alpha   83.99210000
_cell_angle_beta   71.15280000
_cell_angle_gamma   71.09500000
_symmetry_Int_Tables_number   1
_chemical_formula_structural   CuH16C20N7O9
_chemical_formula_sum   'Cu8 H128 C160 N56 O72'
_cell_volume   6372.95277417
_cell_formula_units_Z   8
loop_
 _symmetry_equiv_pos_site_id
 _symmetry_equiv_pos_as_xyz
  1  'x, y, z'
loop_
 _atom_site_type_symbol
 _atom_site_label
 _atom_site_symmetry_multiplicity
 _atom_site_fract_x
 _atom_site_fract_y
 _atom_site_fract_z
 _atom_site_occupancy
 _atom_site_charge
  Cu  Cu1  1  0.578440  0.252350  0.820050  1.0  0.4437
  Cu  Cu2  1  0.601510  0.747650  0.820050  1.0  0.4439
  Cu  Cu3  1  0.080790  0.247650  0.320050  1.0  0.4437
  Cu  Cu4  1  0.599160  0.752350  0.320050  1.0  0.444
  Cu  Cu5  1  0.504880  0.246840  0.468860  1.0  0.5814
  Cu  Cu6  1  0.026260  0.753160  0.468860  1.0  0.5796
  Cu  Cu7  1  0.001720  0.253160  0.968860  1.0  0.5816
  Cu  Cu8  1  0.029420  0.746840  0.968860  1.0  0.5797
  H  H9  1  0.569000  0.169600  0.934000  1.0  0.1172
  H  H10  1  0.469200  0.167800  0.039200  1.0  0.1581
  H  H11  1  0.284200  0.343800  0.013200  1.0  0.1589
  H  H12  1  0.387500  0.338200  0.907600  1.0  0.1074
  H  H13  1  0.414400  0.205200  0.142800  1.0  0.1547
  H  H14  1  0.306800  0.206000  0.246200  1.0  0.1124
  H  H15  1  0.061500  0.301200  0.195000  1.0  0.1079
  H  H16  1  0.161900  0.307200  0.090800  1.0  0.1606
  H  H17  1  0.739300  0.124800  0.786400  1.0  0.1371
  H  H18  1  0.747300  0.018000  0.785400  1.0  0.156
  H  H19  1  0.435800  0.072000  0.838000  1.0  0.1662
  H  H20  1  0.434700  0.176800  0.840400  1.0  0.1168
  H  H21  1  0.605600  0.334000  0.907400  1.0  0.1122
  H  H22  1  0.605500  0.437400  0.915600  1.0  0.1594
  H  H23  1  0.550600  0.475200  0.745400  1.0  0.1708
  H  H24  1  0.538300  0.374200  0.747200  1.0  0.1257
  H  H25  1  0.497000  0.830400  0.934000  1.0  0.1167
  H  H26  1  0.491600  0.832200  0.039200  1.0  0.1599
  H  H27  1  0.702600  0.656200  0.013200  1.0  0.1577
  H  H28  1  0.704900  0.661800  0.907600  1.0  0.1078
  H  H29  1  0.442800  0.794800  0.142800  1.0  0.1553
  H  H30  1  0.447000  0.794000  0.246200  1.0  0.111
  H  H31  1  0.743500  0.698800  0.195000  1.0  0.107
  H  H32  1  0.747300  0.692800  0.090800  1.0  0.1593
  H  H33  1  0.474300  0.875200  0.786400  1.0  0.1376
  H  H34  1  0.467300  0.982000  0.785400  1.0  0.1561
  H  H35  1  0.726200  0.928000  0.838000  1.0  0.1664
  H  H36  1  0.724900  0.823200  0.840400  1.0  0.1168
  H  H37  1  0.487000  0.666000  0.907400  1.0  0.112
  H  H38  1  0.478900  0.562600  0.915600  1.0  0.1556
  H  H39  1  0.704000  0.524800  0.745400  1.0  0.1702
  H  H40  1  0.714500  0.625800  0.747200  1.0  0.1259
  H  H41  1  0.988600  0.330400  0.434000  1.0  0.116
  H  H42  1  0.887000  0.332200  0.539200  1.0  0.1588
  H  H43  1  0.878000  0.156200  0.513200  1.0  0.1587
  H  H44  1  0.975700  0.161800  0.407600  1.0  0.1077
  H  H45  1  0.869600  0.294800  0.642800  1.0  0.1544
  H  H46  1  0.762800  0.294000  0.746200  1.0  0.1119
  H  H47  1  0.612700  0.198800  0.695000  1.0  0.1079
  H  H48  1  0.719100  0.192800  0.590800  1.0  0.1604
  H  H49  1  0.114100  0.375200  0.286400  1.0  0.1373
  H  H50  1  0.015300  0.482000  0.285400  1.0  0.1559
  H  H51  1  0.757800  0.428000  0.338000  1.0  0.1661
  H  H52  1  0.861500  0.323200  0.340400  1.0  0.1172
  H  H53  1  0.189600  0.166000  0.407400  1.0  0.1122
  H  H54  1  0.292900  0.062600  0.415600  1.0  0.1594
  H  H55  1  0.275800  0.024800  0.245400  1.0  0.1703
  H  H56  1  0.162500  0.125800  0.247200  1.0  0.126
  H  H57  1  0.577400  0.669600  0.434000  1.0  0.1165
  H  H58  1  0.573800  0.667800  0.539200  1.0  0.1588
  H  H59  1  0.608800  0.843800  0.513200  1.0  0.158
  H  H60  1  0.616700  0.838200  0.407600  1.0  0.1079
  H  H61  1  0.487600  0.705200  0.642800  1.0  0.1549
  H  H62  1  0.491000  0.706000  0.746200  1.0  0.1112
  H  H63  1  0.692300  0.801200  0.695000  1.0  0.1071
  H  H64  1  0.690100  0.807200  0.590800  1.0  0.159
  H  H65  1  0.599500  0.624800  0.286400  1.0  0.1374
  H  H66  1  0.699300  0.518000  0.285400  1.0  0.156
  H  H67  1  0.904200  0.572000  0.338000  1.0  0.1667
  H  H68  1  0.798100  0.676800  0.340400  1.0  0.1167
  H  H69  1  0.403000  0.834000  0.407400  1.0  0.1118
  H  H70  1  0.291500  0.937400  0.415600  1.0  0.1568
  H  H71  1  0.478800  0.975200  0.245400  1.0  0.1707
  H  H72  1  0.590300  0.874200  0.247200  1.0  0.1257
  H  H73  1  0.600800  0.164800  0.354200  1.0  0.1106
  H  H74  1  0.701500  0.165200  0.249200  1.0  0.1568
  H  H75  1  0.712300  0.339400  0.278400  1.0  0.154
  H  H76  1  0.611300  0.334400  0.382800  1.0  0.1152
  H  H77  1  0.716300  0.207400  0.146400  1.0  0.143
  H  H78  1  0.820500  0.210200  0.042600  1.0  0.1163
  H  H79  1  0.972300  0.302600  0.096600  1.0  0.1132
  H  H80  1  0.871700  0.303200  0.200200  1.0  0.15
  H  H81  1  0.484100  0.117600  0.505200  1.0  0.1286
  H  H82  1  0.586300  0.014000  0.512800  1.0  0.155
  H  H83  1  0.837500  0.076400  0.456000  1.0  0.1542
  H  H84  1  0.727100  0.178600  0.451000  1.0  0.113
  H  H85  1  0.401300  0.333400  0.380800  1.0  0.1144
  H  H86  1  0.302800  0.439000  0.374800  1.0  0.1584
  H  H87  1  0.327200  0.470400  0.544000  1.0  0.156
  H  H88  1  0.426600  0.365400  0.545400  1.0  0.1343
  H  H89  1  0.045000  0.835200  0.354200  1.0  0.1087
  H  H90  1  0.049300  0.834800  0.249200  1.0  0.1584
  H  H91  1  0.009300  0.660600  0.278400  1.0  0.1535
  H  H92  1  0.005900  0.665600  0.382800  1.0  0.1148
  H  H93  1  0.137300  0.792600  0.146400  1.0  0.1431
  H  H94  1  0.136900  0.789800  0.042600  1.0  0.1152
  H  H95  1  0.931100  0.697400  0.096600  1.0  0.1133
  H  H96  1  0.928100  0.696800  0.200200  1.0  0.149
  H  H97  1  0.010700  0.882400  0.505200  1.0  0.1295
  H  H98  1  0.900900  0.986000  0.512800  1.0  0.1549
  H  H99  1  0.706500  0.923600  0.456000  1.0  0.1538
  H  H100  1  0.821900  0.821400  0.451000  1.0  0.1135
  H  H101  1  0.217900  0.666667  0.380800  1.0  0.1171
  H  H102  1  0.322400  0.561000  0.374800  1.0  0.158
  H  H103  1  0.128800  0.529600  0.544000  1.0  0.1565
  H  H104  1  0.028000  0.634600  0.545400  1.0  0.1337
  H  H105  1  0.015600  0.335200  0.854200  1.0  0.1107
  H  H106  1  0.116700  0.334800  0.749200  1.0  0.1574
  H  H107  1  0.301700  0.160600  0.778400  1.0  0.1543
  H  H108  1  0.195700  0.165600  0.882800  1.0  0.1154
  H  H109  1  0.173700  0.292600  0.646400  1.0  0.1429
  H  H110  1  0.280700  0.289800  0.542600  1.0  0.1161
  H  H111  1  0.524900  0.197400  0.596600  1.0  0.1132
  H  H112  1  0.424900  0.196800  0.700200  1.0  0.15
  H  H113  1  0.851700  0.382400  0.005200  1.0  0.1287
  H  H114  1  0.850300  0.486000  0.012800  1.0  0.1548
  H  H115  1  0.163900  0.423600  0.956000  1.0  0.1539
  H  H116  1  0.155700  0.321400  0.951000  1.0  0.1138
  H  H117  1  0.984700  0.166600  0.880800  1.0  0.1145
  H  H118  1  0.991800  0.061000  0.874800  1.0  0.1584
  H  H119  1  0.047600  0.029600  0.044000  1.0  0.1562
  H  H120  1  0.042000  0.134600  0.045400  1.0  0.1349
  H  H121  1  0.130200  0.664800  0.854200  1.0  0.1092
  H  H122  1  0.134100  0.665200  0.749200  1.0  0.1578
  H  H123  1  0.919900  0.839400  0.778400  1.0  0.1537
  H  H124  1  0.921500  0.834400  0.882800  1.0  0.1152
  H  H125  1  0.179900  0.707400  0.646400  1.0  0.1434
  H  H126  1  0.176700  0.710200  0.542600  1.0  0.1156
  H  H127  1  0.878500  0.802600  0.596600  1.0  0.1133
  H  H128  1  0.874900  0.803200  0.700200  1.0  0.1489
  H  H129  1  0.143100  0.617600  0.005200  1.0  0.1298
  H  H130  1  0.136900  0.514000  0.012800  1.0  0.1553
  H  H131  1  0.880100  0.576400  0.956000  1.0  0.1537
  H  H132  1  0.893300  0.678600  0.951000  1.0  0.1135
  H  H133  1  0.134500  0.833400  0.880800  1.0  0.115
  H  H134  1  0.133400  0.939000  0.874800  1.0  0.1581
  H  H135  1  0.908400  0.970400  0.044000  1.0  0.1563
  H  H136  1  0.912600  0.865400  0.045400  1.0  0.1332
  C  C137  1  0.509710  0.205120  0.950460  1.0  0.2016
  C  C138  1  0.451220  0.203840  0.013320  1.0  -0.1557
  C  C139  1  0.366520  0.255740  0.037620  1.0  0.0977
  C  C140  1  0.341930  0.307300  0.997840  1.0  -0.1977
  C  C141  1  0.404480  0.303540  0.935100  1.0  0.1989
  C  C142  1  0.299310  0.256220  0.105160  1.0  0.0894
  C  C143  1  0.342200  0.225660  0.152540  1.0  -0.1785
  C  C144  1  0.277240  0.225760  0.213960  1.0  0.1959
  C  C145  1  0.134060  0.281820  0.184260  1.0  0.2062
  C  C146  1  0.193290  0.285260  0.121760  1.0  -0.1827
  C  C147  1  0.677080  0.114020  0.797220  1.0  0.1639
  C  C148  1  0.682210  0.050200  0.795980  1.0  -0.1354
  C  C149  1  0.593320  0.034260  0.810100  1.0  0.0951
  C  C150  1  0.498710  0.081860  0.827320  1.0  -0.1757
  C  C151  1  0.499180  0.144020  0.828420  1.0  0.1873
  C  C152  1  0.592520  0.363580  0.874780  1.0  0.1888
  C  C153  1  0.594670  0.424900  0.879560  1.0  -0.1975
  C  C154  1  0.580670  0.467620  0.830840  1.0  0.1309
  C  C155  1  0.560480  0.447360  0.779880  1.0  -0.1887
  C  C156  1  0.555270  0.386840  0.780820  1.0  0.1845
  C  C157  1  0.539830  0.794880  0.950460  1.0  0.2022
  C  C158  1  0.535460  0.796160  0.013320  1.0  -0.1602
  C  C159  1  0.595860  0.744260  0.037620  1.0  0.0986
  C  C160  1  0.660230  0.692700  0.997840  1.0  -0.1988
  C  C161  1  0.660420  0.696460  0.935100  1.0  0.1981
  C  C162  1  0.595530  0.743780  0.105160  1.0  0.0887
  C  C163  1  0.505260  0.774340  0.152540  1.0  -0.1783
  C  C164  1  0.508800  0.774240  0.213960  1.0  0.2003
  C  C165  1  0.681680  0.718180  0.184260  1.0  0.2025
  C  C166  1  0.684950  0.714740  0.121760  1.0  -0.182
  C  C167  1  0.525700  0.885980  0.797220  1.0  0.1638
  C  C168  1  0.521810  0.949800  0.795980  1.0  -0.1337
  C  C169  1  0.596580  0.965740  0.810100  1.0  0.0926
  C  C170  1  0.673970  0.918140  0.827320  1.0  -0.1748
  C  C171  1  0.672400  0.855980  0.828420  1.0  0.1875
  C  C172  1  0.532700  0.636420  0.874780  1.0  0.1907
  C  C173  1  0.525770  0.575100  0.879560  1.0  -0.1973
  C  C174  1  0.588490  0.532380  0.830840  1.0  0.1311
  C  C175  1  0.659640  0.552640  0.779880  1.0  -0.1921
  C  C176  1  0.663910  0.613160  0.780820  1.0  0.1845
  C  C177  1  0.964830  0.294880  0.450460  1.0  0.1969
  C  C178  1  0.905060  0.296160  0.513320  1.0  -0.1576
  C  C179  1  0.872260  0.244260  0.537620  1.0  0.0979
  C  C180  1  0.899230  0.192700  0.497840  1.0  -0.1981
  C  C181  1  0.958020  0.196460  0.435100  1.0  0.1998
  C  C182  1  0.805530  0.243780  0.605160  1.0  0.0891
  C  C183  1  0.817860  0.274340  0.652540  1.0  -0.1785
  C  C184  1  0.753000  0.274240  0.713960  1.0  0.1956
  C  C185  1  0.665880  0.218180  0.684260  1.0  0.2046
  C  C186  1  0.728550  0.214740  0.621760  1.0  -0.1822
  C  C187  1  0.041100  0.385980  0.297220  1.0  0.1644
  C  C188  1  0.982410  0.449800  0.295980  1.0  -0.1355
  C  C189  1  0.877580  0.465740  0.310100  1.0  0.0947
  C  C190  1  0.830570  0.418140  0.327320  1.0  -0.1757
  C  C191  1  0.893200  0.355980  0.328420  1.0  0.1874
  C  C192  1  0.206100  0.136420  0.374780  1.0  0.1894
  C  C193  1  0.269570  0.075100  0.379560  1.0  -0.1971
  C  C194  1  0.298290  0.032380  0.330840  1.0  0.131
  C  C195  1  0.257840  0.052640  0.279880  1.0  -0.1874
  C  C196  1  0.192110  0.113160  0.280820  1.0  0.1845
  C  C197  1  0.584710  0.705120  0.450460  1.0  0.2045
  C  C198  1  0.581620  0.703840  0.513320  1.0  -0.158
  C  C199  1  0.590120  0.755740  0.537620  1.0  0.0985
  C  C200  1  0.602930  0.807300  0.497840  1.0  -0.1981
  C  C201  1  0.606880  0.803540  0.435100  1.0  0.1968
  C  C202  1  0.589310  0.756220  0.605160  1.0  0.0894
  C  C203  1  0.529600  0.725660  0.652540  1.0  -0.1785
  C  C204  1  0.533040  0.725760  0.713960  1.0  0.2009
  C  C205  1  0.649860  0.781820  0.684260  1.0  0.2024
  C  C206  1  0.649690  0.785260  0.621760  1.0  -0.1823
  C  C207  1  0.661680  0.614020  0.297220  1.0  0.1632
  C  C208  1  0.721610  0.550200  0.295980  1.0  -0.134
  C  C209  1  0.812320  0.534260  0.310100  1.0  0.0928
  C  C210  1  0.842110  0.581860  0.327320  1.0  -0.1748
  C  C211  1  0.778380  0.644020  0.328420  1.0  0.1863
  C  C212  1  0.419120  0.863580  0.374780  1.0  0.19
  C  C213  1  0.350870  0.924900  0.379560  1.0  -0.1971
  C  C214  1  0.370870  0.967620  0.330840  1.0  0.1308
  C  C215  1  0.462280  0.947360  0.279880  1.0  -0.1936
  C  C216  1  0.527070  0.886840  0.280820  1.0  0.1843
  C  C217  1  0.623970  0.200560  0.338700  1.0  0.1942
  C  C218  1  0.684230  0.200600  0.275740  1.0  -0.163
  C  C219  1  0.719310  0.252140  0.251640  1.0  0.1148
  C  C220  1  0.690640  0.302880  0.292840  1.0  -0.164
  C  C221  1  0.630230  0.299580  0.355160  1.0  0.1996
  C  C222  1  0.782710  0.253800  0.185780  1.0  0.1449
  C  C223  1  0.768980  0.227000  0.137240  1.0  -0.1649
  C  C224  1  0.831600  0.228660  0.075140  1.0  0.1671
  C  C225  1  0.919720  0.282780  0.106980  1.0  0.1788
  C  C226  1  0.860370  0.283120  0.168740  1.0  -0.1712
  C  C227  1  0.556610  0.108920  0.495060  1.0  0.1934
  C  C228  1  0.617290  0.046840  0.498980  1.0  -0.1541
  C  C229  1  0.724650  0.032640  0.482460  1.0  0.1048
  C  C230  1  0.765410  0.083520  0.465660  1.0  -0.1708
  C  C231  1  0.698980  0.144400  0.463240  1.0  0.1888
  C  C232  1  0.386350  0.361980  0.414120  1.0  0.1862
  C  C233  1  0.326780  0.424560  0.410480  1.0  -0.203
  C  C234  1  0.302490  0.466500  0.460520  1.0  0.1206
  C  C235  1  0.341450  0.443100  0.509800  1.0  -0.1417
  C  C236  1  0.400850  0.380580  0.510520  1.0  0.16
  C  C237  1  0.037330  0.799440  0.338700  1.0  0.1922
  C  C238  1  0.040030  0.799400  0.275740  1.0  -0.163
  C  C239  1  0.029050  0.747860  0.251640  1.0  0.1129
  C  C240  1  0.016520  0.697120  0.292840  1.0  -0.1653
  C  C241  1  0.014610  0.700420  0.355160  1.0  0.2028
  C  C242  1  0.031510  0.746200  0.185780  1.0  0.1458
  C  C243  1  0.093780  0.773000  0.137240  1.0  -0.1643
  C  C244  1  0.093260  0.771340  0.075140  1.0  0.1683
  C  C245  1  0.973300  0.717220  0.106980  1.0  0.1844
  C  C246  1  0.970890  0.716880  0.168740  1.0  -0.171
  C  C247  1  0.948330  0.891080  0.495060  1.0  0.1921
  C  C248  1  0.883730  0.953160  0.498980  1.0  -0.1543
  C  C249  1  0.792890  0.967360  0.482460  1.0  0.1038
  C  C250  1  0.768930  0.916480  0.465660  1.0  -0.1688
  C  C251  1  0.837780  0.855600  0.463240  1.0  0.192
  C  C252  1  0.199530  0.638020  0.414120  1.0  0.1869
  C  C253  1  0.262740  0.575440  0.410480  1.0  -0.1979
  C  C254  1  0.236990  0.533500  0.460520  1.0  0.1236
  C  C255  1  0.148750  0.556900  0.509800  1.0  -0.1441
  C  C256  1  0.088630  0.619420  0.510520  1.0  0.159
  C  C257  1  0.074530  0.299440  0.838700  1.0  0.1916
  C  C258  1  0.134830  0.299400  0.775740  1.0  -0.1634
  C  C259  1  0.221450  0.247860  0.751640  1.0  0.1143
  C  C260  1  0.243520  0.197120  0.792840  1.0  -0.1645
  C  C261  1  0.179810  0.200420  0.855160  1.0  0.2014
  C  C262  1  0.286510  0.246200  0.685780  1.0  0.1449
  C  C263  1  0.245980  0.273000  0.637240  1.0  -0.1644
  C  C264  1  0.310260  0.271340  0.575140  1.0  0.1672
  C  C265  1  0.452500  0.217220  0.606980  1.0  0.1817
  C  C266  1  0.393490  0.216880  0.668740  1.0  -0.1713
  C  C267  1  0.915530  0.391080  0.995060  1.0  0.1937
  C  C268  1  0.914130  0.453160  0.998980  1.0  -0.154
  C  C269  1  0.007290  0.467360  0.982460  1.0  0.105
  C  C270  1  0.098930  0.416480  0.965660  1.0  -0.1709
  C  C271  1  0.093380  0.355600  0.963240  1.0  0.1901
  C  C272  1  0.998330  0.138020  0.914120  1.0  0.1861
  C  C273  1  0.001340  0.075440  0.910480  1.0  -0.2026
  C  C274  1  0.018990  0.033500  0.960520  1.0  0.1205
  C  C275  1  0.034550  0.056900  0.009800  1.0  -0.1419
  C  C276  1  0.031430  0.119420  0.010520  1.0  0.1601
  C  C277  1  0.086770  0.700560  0.838700  1.0  0.1915
  C  C278  1  0.089430  0.700600  0.775740  1.0  -0.1634
  C  C279  1  0.026910  0.752140  0.751640  1.0  0.1133
  C  C280  1  0.963640  0.802880  0.792840  1.0  -0.1646
  C  C281  1  0.965030  0.799580  0.855160  1.0  0.1982
  C  C282  1  0.027710  0.753800  0.685780  1.0  0.1459
  C  C283  1  0.116780  0.727000  0.637240  1.0  -0.1641
  C  C284  1  0.114600  0.728660  0.575140  1.0  0.1686
  C  C285  1  0.940520  0.782780  0.606980  1.0  0.1846
  C  C286  1  0.937770  0.783120  0.668740  1.0  -0.1703
  C  C287  1  0.089410  0.608920  0.995060  1.0  0.1921
  C  C288  1  0.086890  0.546840  0.998980  1.0  -0.1539
  C  C289  1  0.010250  0.532640  0.982460  1.0  0.1036
  C  C290  1  0.935410  0.583520  0.965660  1.0  -0.1689
  C  C291  1  0.943380  0.644400  0.963240  1.0  0.1922
  C  C292  1  0.087550  0.861980  0.914120  1.0  0.1862
  C  C293  1  0.088180  0.924560  0.910480  1.0  -0.1994
  C  C294  1  0.020490  0.966500  0.960520  1.0  0.1241
  C  C295  1  0.955650  0.943100  0.009800  1.0  -0.1416
  C  C296  1  0.958050  0.880580  0.010520  1.0  0.1589
  N  N297  1  0.486560  0.254280  0.911600  1.0  -0.2718
  N  N298  1  0.585740  0.160460  0.813460  1.0  -0.2648
  N  N299  1  0.572910  0.344080  0.826700  1.0  -0.2733
  N  N300  1  0.173630  0.252720  0.230020  1.0  -0.2704
  N  N301  1  0.601840  0.745720  0.911600  1.0  -0.2716
  N  N302  1  0.600800  0.839540  0.813460  1.0  -0.2644
  N  N303  1  0.600390  0.655920  0.826700  1.0  -0.2725
  N  N304  1  0.596350  0.747280  0.230020  1.0  -0.2703
  N  N305  1  0.990840  0.245720  0.411600  1.0  -0.2719
  N  N306  1  0.996200  0.339540  0.313460  1.0  -0.2637
  N  N307  1  0.166990  0.155920  0.326700  1.0  -0.2728
  N  N308  1  0.676350  0.247280  0.730020  1.0  -0.2702
  N  N309  1  0.597560  0.754280  0.411600  1.0  -0.2715
  N  N310  1  0.690340  0.660460  0.313460  1.0  -0.2652
  N  N311  1  0.506310  0.844080  0.326700  1.0  -0.2724
  N  N312  1  0.593630  0.752720  0.730020  1.0  -0.2704
  N  N313  1  0.597160  0.248780  0.378100  1.0  -0.2709
  N  N314  1  0.596480  0.156880  0.477560  1.0  -0.264
  N  N315  1  0.423390  0.340300  0.462520  1.0  -0.28
  N  N316  1  0.907180  0.255540  0.059900  1.0  -0.2625
  N  N317  1  0.646720  0.334060  0.505500  1.0  0.6587
  N  N318  1  0.024740  0.751220  0.378100  1.0  -0.273
  N  N319  1  0.925960  0.843120  0.477560  1.0  -0.2643
  N  N320  1  0.114090  0.659700  0.462520  1.0  -0.2795
  N  N321  1  0.032920  0.744460  0.059900  1.0  -0.2611
  N  N322  1  0.847780  0.665940  0.505500  1.0  0.6603
  N  N323  1  0.095940  0.251220  0.878100  1.0  -0.2713
  N  N324  1  0.003360  0.343120  0.977560  1.0  -0.2647
  N  N325  1  0.013690  0.159700  0.962520  1.0  -0.2795
  N  N326  1  0.412720  0.244460  0.559900  1.0  -0.2627
  N  N327  1  0.230780  0.165940  0.005500  1.0  0.6602
  N  N328  1  0.025960  0.748780  0.878100  1.0  -0.2709
  N  N329  1  0.019080  0.656880  0.977560  1.0  -0.2638
  N  N330  1  0.023790  0.840300  0.962520  1.0  -0.2795
  N  N331  1  0.027380  0.755540  0.559900  1.0  -0.2611
  N  N332  1  0.763720  0.834060  0.005500  1.0  0.6589
  N  N333  1  0.452560  0.245000  0.264480  1.0  0.3881
  N  N334  1  0.063830  0.996540  0.384000  1.0  0.8224
  N  N335  1  0.780700  0.943000  0.662200  1.0  0.6538
  N  N336  1  0.805400  0.002800  0.907600  1.0  0.8496
  N  N337  1  0.645700  0.244000  0.027400  1.0  0.4081
  N  N338  1  0.282960  0.755000  0.264480  1.0  0.3901
  N  N339  1  0.552170  0.003460  0.384000  1.0  0.8214
  N  N340  1  0.557100  0.057000  0.662200  1.0  0.6546
  N  N341  1  0.287000  0.997200  0.907600  1.0  0.8497
  N  N342  1  0.326900  0.756000  0.027400  1.0  0.4102
  N  N343  1  0.947560  0.255000  0.764480  1.0  0.3882
  N  N344  1  0.310370  0.503460  0.884000  1.0  0.8227
  N  N345  1  0.973700  0.557000  0.162200  1.0  0.6537
  N  N346  1  0.058200  0.497200  0.407600  1.0  0.8496
  N  N347  1  0.139700  0.256000  0.527400  1.0  0.4098
  N  N348  1  0.287960  0.745000  0.764480  1.0  0.39
  N  N349  1  0.805630  0.496540  0.884000  1.0  0.8211
  N  N350  1  0.864100  0.443000  0.162200  1.0  0.6547
  N  N351  1  0.534200  0.502800  0.407600  1.0  0.8494
  N  N352  1  0.332900  0.744000  0.527400  1.0  0.4083
  O  O353  1  0.621150  0.285880  0.512020  1.0  -0.5555
  O  O354  1  0.688900  0.362600  0.459200  1.0  -0.512
  O  O355  1  0.621100  0.365200  0.556800  1.0  -0.4934
  O  O356  1  0.866830  0.714120  0.512020  1.0  -0.5585
  O  O357  1  0.851900  0.637400  0.459200  1.0  -0.5119
  O  O358  1  0.822100  0.634800  0.556800  1.0  -0.495
  O  O359  1  0.157030  0.214120  0.012020  1.0  -0.5555
  O  O360  1  0.301500  0.137400  0.959200  1.0  -0.5116
  O  O361  1  0.236300  0.134800  0.056800  1.0  -0.4948
  O  O362  1  0.830950  0.785880  0.012020  1.0  -0.5579
  O  O363  1  0.739300  0.862600  0.959200  1.0  -0.5119
  O  O364  1  0.706900  0.865200  0.056800  1.0  -0.4936
  O  O365  1  0.399420  0.295400  0.284360  1.0  -0.4021
  O  O366  1  0.435150  0.204400  0.298100  1.0  -0.4227
  O  O367  1  0.517070  0.236600  0.209860  1.0  -0.5091
  O  O368  1  0.031490  0.042820  0.418000  1.0  -0.4605
  O  O369  1  0.123520  0.945160  0.391000  1.0  -0.3839
  O  O370  1  0.037300  0.000000  0.335200  1.0  -0.478
  O  O371  1  0.744300  0.900400  0.668800  1.0  -0.458
  O  O372  1  0.755500  0.997200  0.642000  1.0  -0.4674
  O  O373  1  0.853700  0.930400  0.686000  1.0  -0.5726
  O  O374  1  0.857700  0.960200  0.868600  1.0  -0.4318
  O  O375  1  0.821800  0.053800  0.893600  1.0  -0.419
  O  O376  1  0.746000  0.993600  0.958400  1.0  -0.3725
  O  O377  1  0.698000  0.198200  0.995800  1.0  -0.425
  O  O378  1  0.649200  0.292400  0.001600  1.0  -0.3914
  O  O379  1  0.591000  0.238000  0.082400  1.0  -0.433
  O  O380  1  0.316220  0.704600  0.284360  1.0  -0.4043
  O  O381  1  0.266750  0.795600  0.298100  1.0  -0.4252
  O  O382  1  0.273070  0.763400  0.209860  1.0  -0.507
  O  O383  1  0.550510  0.957180  0.418000  1.0  -0.4606
  O  O384  1  0.485480  0.054840  0.391000  1.0  -0.3836
  O  O385  1  0.627500  0.000000  0.335200  1.0  -0.4797
  O  O386  1  0.586900  0.099600  0.668800  1.0  -0.459
  O  O387  1  0.602500  0.002800  0.642000  1.0  -0.4691
  O  O388  1  0.460300  0.069600  0.686000  1.0  -0.5756
  O  O389  1  0.273700  0.039800  0.868600  1.0  -0.4314
  O  O390  1  0.284600  0.946200  0.893600  1.0  -0.4186
  O  O391  1  0.295600  0.006400  0.958400  1.0  -0.3694
  O  O392  1  0.306200  0.801800  0.995800  1.0  -0.4245
  O  O393  1  0.349200  0.707600  0.001600  1.0  -0.3941
  O  O394  1  0.326600  0.762000  0.082400  1.0  -0.4328
  O  O395  1  0.944820  0.204600  0.784360  1.0  -0.404
  O  O396  1  0.889550  0.295600  0.798100  1.0  -0.4231
  O  O397  1  0.003670  0.263400  0.709860  1.0  -0.5076
  O  O398  1  0.324310  0.457180  0.918000  1.0  -0.46
  O  O399  1  0.318680  0.554840  0.891000  1.0  -0.384
  O  O400  1  0.287300  0.500000  0.835200  1.0  -0.4801
  O  O401  1  0.894700  0.599600  0.168800  1.0  -0.4578
  O  O402  1  0.002700  0.502800  0.142000  1.0  -0.4681
  O  O403  1  0.034100  0.569600  0.186000  1.0  -0.5745
  O  O404  1  0.067900  0.539800  0.368600  1.0  -0.4321
  O  O405  1  0.125600  0.446200  0.393600  1.0  -0.4192
  O  O406  1  0.989600  0.506400  0.458400  1.0  -0.373
  O  O407  1  0.146200  0.301800  0.495800  1.0  -0.4243
  O  O408  1  0.191600  0.207600  0.501600  1.0  -0.3911
  O  O409  1  0.079000  0.262000  0.582400  1.0  -0.4335
  O  O410  1  0.270820  0.795400  0.784360  1.0  -0.4026
  O  O411  1  0.312350  0.704400  0.798100  1.0  -0.4248
  O  O412  1  0.286470  0.736600  0.709860  1.0  -0.507
  O  O413  1  0.757690  0.542820  0.918000  1.0  -0.463
  O  O414  1  0.790320  0.445160  0.891000  1.0  -0.3832
  O  O415  1  0.877500  0.500000  0.835200  1.0  -0.48
  O  O416  1  0.936500  0.400400  0.168800  1.0  -0.4596
  O  O417  1  0.855300  0.497200  0.142000  1.0  -0.4704
  O  O418  1  0.779900  0.430400  0.186000  1.0  -0.5748
  O  O419  1  0.563500  0.460200  0.368600  1.0  -0.4315
  O  O420  1  0.480800  0.553800  0.393600  1.0  -0.4181
  O  O421  1  0.552000  0.493600  0.458400  1.0  -0.3688
  O  O422  1  0.358000  0.698200  0.495800  1.0  -0.4251
  O  O423  1  0.306800  0.792400  0.501600  1.0  -0.3933
  O  O424  1  0.338600  0.738000  0.582400  1.0  -0.4323
