# generated using pymatgen
data_MnH5C11O4
_symmetry_space_group_name_H-M   'P 1'
_cell_length_a   8.83530000
_cell_length_b   14.26820000
_cell_length_c   22.80800000
_cell_angle_alpha   92.47500000
_cell_angle_beta   91.10100000
_cell_angle_gamma   105.44500000
_symmetry_Int_Tables_number   1
_chemical_formula_structural   MnH5C11O4
_chemical_formula_sum   'Mn8 H40 C88 O32'
_cell_volume   2767.43396503
_cell_formula_units_Z   8
loop_
 _symmetry_equiv_pos_site_id
 _symmetry_equiv_pos_as_xyz
  1  'x, y, z'
loop_
 _atom_site_type_symbol
 _atom_site_label
 _atom_site_symmetry_multiplicity
 _atom_site_fract_x
 _atom_site_fract_y
 _atom_site_fract_z
 _atom_site_occupancy
 _atom_site_charge
  Mn  Mn1  1  0.008330  0.548150  0.079580  1.0  1.0898
  Mn  Mn2  1  0.505750  0.952960  0.426160  1.0  1.1061
  Mn  Mn3  1  0.256600  0.826340  0.301810  1.0  1.063
  Mn  Mn4  1  0.991670  0.451850  0.920420  1.0  1.0892
  Mn  Mn5  1  0.494250  0.047040  0.573840  1.0  1.1062
  Mn  Mn6  1  0.743400  0.173660  0.698190  1.0  1.0601
  Mn  Mn7  1  0.500000  0.500000  0.000000  1.0  1.2125
  Mn  Mn8  1  0.000000  0.000000  0.500000  1.0  1.1972
  H  H9  1  0.540500  0.661100  0.416800  1.0  0.1031
  H  H10  1  0.565700  0.504500  0.415800  1.0  0.123
  H  H11  1  0.911000  0.587100  0.539200  1.0  0.1005
  H  H12  1  0.886800  0.744800  0.539800  1.0  0.1072
  H  H13  1  0.770000  0.236200  0.396900  1.0  0.1096
  H  H14  1  0.755400  0.424000  0.565100  1.0  0.111
  H  H15  1  0.951600  0.538200  0.389900  1.0  0.1088
  H  H16  1  0.635500  0.300600  0.322600  1.0  0.1136
  H  H17  1  0.692500  0.352000  0.228700  1.0  0.1101
  H  H18  1  0.008400  0.589200  0.296400  1.0  0.108
  H  H19  1  0.750600  0.076400  0.947000  1.0  0.1088
  H  H20  1  0.735900  0.267500  0.113100  1.0  0.1106
  H  H21  1  0.871700  0.197800  0.190700  1.0  0.1201
  H  H22  1  0.821600  0.135300  0.282700  1.0  0.1096
  H  H23  1  0.505500  0.901900  0.209300  1.0  0.1108
  H  H24  1  0.551000  0.966300  0.118000  1.0  0.1033
  H  H25  1  0.939900  0.995500  0.095700  1.0  0.1218
  H  H26  1  0.961400  0.837800  0.095100  1.0  0.1053
  H  H27  1  0.607900  0.757100  0.974400  1.0  0.1069
  H  H28  1  0.587500  0.914600  0.975700  1.0  0.0977
  H  H29  1  0.459500  0.338900  0.583200  1.0  0.1043
  H  H30  1  0.434300  0.495500  0.584200  1.0  0.1232
  H  H31  1  0.089000  0.412900  0.460800  1.0  0.101
  H  H32  1  0.113200  0.255200  0.460200  1.0  0.1076
  H  H33  1  0.230000  0.763800  0.603100  1.0  0.109
  H  H34  1  0.244600  0.576000  0.434900  1.0  0.1118
  H  H35  1  0.048400  0.461800  0.610100  1.0  0.1087
  H  H36  1  0.364500  0.699400  0.677400  1.0  0.1146
  H  H37  1  0.307500  0.648000  0.771300  1.0  0.1095
  H  H38  1  0.991600  0.410800  0.703600  1.0  0.1077
  H  H39  1  0.249400  0.923600  0.053000  1.0  0.1085
  H  H40  1  0.264100  0.732500  0.886900  1.0  0.1102
  H  H41  1  0.128300  0.802200  0.809300  1.0  0.1192
  H  H42  1  0.178400  0.864700  0.717300  1.0  0.1095
  H  H43  1  0.494500  0.098100  0.790700  1.0  0.1105
  H  H44  1  0.449000  0.033700  0.882000  1.0  0.1033
  H  H45  1  0.060100  0.004500  0.904300  1.0  0.1222
  H  H46  1  0.038600  0.162200  0.904900  1.0  0.1051
  H  H47  1  0.392100  0.242900  0.025600  1.0  0.1071
  H  H48  1  0.412500  0.085400  0.024300  1.0  0.0975
  C  C49  1  0.697200  0.821400  0.477100  1.0  0.7128
  C  C50  1  0.712100  0.719800  0.478330  1.0  -0.1316
  C  C51  1  0.615700  0.646500  0.441230  1.0  -0.0257
  C  C52  1  0.630800  0.552800  0.440540  1.0  -0.0966
  C  C53  1  0.743400  0.530100  0.476720  1.0  0.0524
  C  C54  1  0.837300  0.602100  0.514220  1.0  -0.1058
  C  C55  1  0.822300  0.696800  0.514750  1.0  -0.014
  C  C56  1  0.757100  0.428000  0.477230  1.0  0.0239
  C  C57  1  0.767000  0.371500  0.425710  1.0  0.0252
  C  C58  1  0.766400  0.274200  0.430730  1.0  -0.1354
  C  C59  1  0.760300  0.232400  0.485150  1.0  -0.0821
  C  C60  1  0.756700  0.289800  0.535880  1.0  -0.1323
  C  C61  1  0.756300  0.386000  0.531050  1.0  -0.0603
  C  C62  1  0.751200  0.248900  0.595460  1.0  0.6846
  C  C63  1  0.760800  0.127500  0.485000  1.0  0.7167
  C  C64  1  0.900200  0.500000  0.357710  1.0  -0.128
  C  C65  1  0.789200  0.411700  0.366150  1.0  0.0329
  C  C66  1  0.711900  0.358400  0.317540  1.0  -0.1439
  C  C67  1  0.745800  0.389300  0.260950  1.0  -0.0481
  C  C68  1  0.858800  0.475700  0.252690  1.0  -0.1336
  C  C69  1  0.933800  0.530500  0.301480  1.0  -0.0521
  C  C70  1  0.903400  0.506600  0.191320  1.0  0.7216
  C  C71  1  0.743200  0.375200  0.022840  1.0  0.7322
  C  C72  1  0.745500  0.269800  0.024970  1.0  -0.0678
  C  C73  1  0.748200  0.211800  0.974670  1.0  -0.1644
  C  C74  1  0.749500  0.115200  0.980690  1.0  -0.0757
  C  C75  1  0.749300  0.074700  0.034660  1.0  0.0049
  C  C76  1  0.739100  0.131700  0.085530  1.0  0.031
  C  C77  1  0.739600  0.228900  0.079570  1.0  -0.0806
  C  C78  1  0.744800  0.247900  0.913460  1.0  0.7126
  C  C79  1  0.715100  0.089900  0.145160  1.0  0.0438
  C  C80  1  0.796600  0.139000  0.194420  1.0  -0.1248
  C  C81  1  0.767400  0.101100  0.249650  1.0  -0.0412
  C  C82  1  0.656500  0.011800  0.255290  1.0  -0.1194
  C  C83  1  0.577900  0.962000  0.205900  1.0  -0.0422
  C  C84  1  0.605700  0.000400  0.151040  1.0  -0.0983
  C  C85  1  0.760000  0.971900  0.036000  1.0  0.0585
  C  C86  1  0.872700  0.947600  0.071450  1.0  -0.0936
  C  C87  1  0.885900  0.852900  0.071030  1.0  -0.0178
  C  C88  1  0.786400  0.780100  0.034700  1.0  -0.1186
  C  C89  1  0.674800  0.804700  0.999010  1.0  -0.0234
  C  C90  1  0.662600  0.899400  0.999870  1.0  -0.1106
  C  C91  1  0.800400  0.677900  0.033220  1.0  0.7248
  C  C92  1  0.615400  0.975900  0.315160  1.0  0.6959
  C  C93  1  0.302800  0.178600  0.522900  1.0  0.7121
  C  C94  1  0.287900  0.280200  0.521670  1.0  -0.1322
  C  C95  1  0.384300  0.353500  0.558770  1.0  -0.0253
  C  C96  1  0.369200  0.447200  0.559460  1.0  -0.0966
  C  C97  1  0.256600  0.469900  0.523280  1.0  0.0517
  C  C98  1  0.162700  0.397900  0.485780  1.0  -0.1056
  C  C99  1  0.177700  0.303200  0.485250  1.0  -0.0162
  C  C100  1  0.242900  0.572000  0.522770  1.0  0.024
  C  C101  1  0.233000  0.628500  0.574290  1.0  0.0274
  C  C102  1  0.233600  0.725800  0.569270  1.0  -0.1365
  C  C103  1  0.239700  0.767600  0.514850  1.0  -0.0817
  C  C104  1  0.243300  0.710200  0.464120  1.0  -0.1329
  C  C105  1  0.243700  0.614000  0.468950  1.0  -0.0599
  C  C106  1  0.248800  0.751100  0.404540  1.0  0.6847
  C  C107  1  0.239200  0.872500  0.515000  1.0  0.7167
  C  C108  1  0.099800  0.500000  0.642290  1.0  -0.1284
  C  C109  1  0.210800  0.588300  0.633850  1.0  0.0323
  C  C110  1  0.288100  0.641600  0.682460  1.0  -0.1452
  C  C111  1  0.254200  0.610700  0.739050  1.0  -0.0489
  C  C112  1  0.141200  0.524300  0.747310  1.0  -0.1338
  C  C113  1  0.066200  0.469500  0.698520  1.0  -0.0498
  C  C114  1  0.096600  0.493400  0.808680  1.0  0.7218
  C  C115  1  0.256800  0.624800  0.977160  1.0  0.7318
  C  C116  1  0.254500  0.730200  0.975030  1.0  -0.0681
  C  C117  1  0.251800  0.788200  0.025330  1.0  -0.1643
  C  C118  1  0.250500  0.884800  0.019310  1.0  -0.0771
  C  C119  1  0.250700  0.925300  0.965340  1.0  0.0051
  C  C120  1  0.260900  0.868300  0.914470  1.0  0.0288
  C  C121  1  0.260400  0.771100  0.920430  1.0  -0.0803
  C  C122  1  0.255200  0.752100  0.086540  1.0  0.7117
  C  C123  1  0.284900  0.910100  0.854840  1.0  0.0444
  C  C124  1  0.203400  0.861000  0.805580  1.0  -0.1262
  C  C125  1  0.232600  0.898900  0.750350  1.0  -0.0401
  C  C126  1  0.343500  0.988200  0.744710  1.0  -0.1179
  C  C127  1  0.422100  0.038000  0.794100  1.0  -0.0438
  C  C128  1  0.394300  0.999600  0.848960  1.0  -0.0979
  C  C129  1  0.240000  0.028100  0.964000  1.0  0.0578
  C  C130  1  0.127300  0.052400  0.928550  1.0  -0.0923
  C  C131  1  0.114100  0.147100  0.928970  1.0  -0.0178
  C  C132  1  0.213600  0.219900  0.965300  1.0  -0.1191
  C  C133  1  0.325200  0.195300  0.000990  1.0  -0.0223
  C  C134  1  0.337400  0.100600  0.000130  1.0  -0.1107
  C  C135  1  0.199600  0.322100  0.966780  1.0  0.7265
  C  C136  1  0.384600  0.024100  0.684840  1.0  0.6947
  O  O137  1  0.597300  0.836530  0.441250  1.0  -0.6248
  O  O138  1  0.782100  0.885800  0.512610  1.0  -0.6651
  O  O139  1  0.750000  0.301710  0.640140  1.0  -0.5551
  O  O140  1  0.744300  0.158690  0.599580  1.0  -0.682
  O  O141  1  0.627600  0.065230  0.489830  1.0  -0.6892
  O  O142  1  0.886900  0.107720  0.477820  1.0  -0.6004
  O  O143  1  0.024700  0.575100  0.185020  1.0  -0.649
  O  O144  1  0.821400  0.462900  0.148150  1.0  -0.6092
  O  O145  1  0.614800  0.393310  0.031580  1.0  -0.6113
  O  O146  1  0.871500  0.437760  0.014250  1.0  -0.6492
  O  O147  1  0.758700  0.337010  0.907860  1.0  -0.6765
  O  O148  1  0.727300  0.185370  0.871710  1.0  -0.5239
  O  O149  1  0.717300  0.617200  0.995430  1.0  -0.6819
  O  O150  1  0.897800  0.659800  0.068790  1.0  -0.6213
  O  O151  1  0.498000  0.902800  0.320650  1.0  -0.723
  O  O152  1  0.693700  0.017900  0.359580  1.0  -0.5932
  O  O153  1  0.402700  0.163470  0.558750  1.0  -0.6258
  O  O154  1  0.217900  0.114200  0.487390  1.0  -0.6676
  O  O155  1  0.250000  0.698290  0.359860  1.0  -0.5518
  O  O156  1  0.255700  0.841310  0.400420  1.0  -0.6844
  O  O157  1  0.372400  0.934770  0.510170  1.0  -0.6896
  O  O158  1  0.113100  0.892280  0.522180  1.0  -0.5999
  O  O159  1  0.975300  0.424900  0.814980  1.0  -0.6487
  O  O160  1  0.178600  0.537100  0.851850  1.0  -0.6088
  O  O161  1  0.385200  0.606690  0.968420  1.0  -0.6118
  O  O162  1  0.128500  0.562240  0.985750  1.0  -0.6501
  O  O163  1  0.241300  0.662990  0.092140  1.0  -0.6724
  O  O164  1  0.272700  0.814630  0.128290  1.0  -0.5263
  O  O165  1  0.282700  0.382800  0.004570  1.0  -0.6807
  O  O166  1  0.102200  0.340200  0.931210  1.0  -0.6203
  O  O167  1  0.502000  0.097200  0.679350  1.0  -0.7234
  O  O168  1  0.306300  0.982100  0.640420  1.0  -0.5941
