# generated using pymatgen
data_EuH9C19O6
_symmetry_space_group_name_H-M   'P 1'
_cell_length_a   29.20630000
_cell_length_b   13.66070000
_cell_length_c   13.92940000
_cell_angle_alpha   90.00000000
_cell_angle_beta   98.29100000
_cell_angle_gamma   90.00000000
_symmetry_Int_Tables_number   1
_chemical_formula_structural   EuH9C19O6
_chemical_formula_sum   'Eu8 H72 C152 O48'
_cell_volume   5499.44634944
_cell_formula_units_Z   8
loop_
 _symmetry_equiv_pos_site_id
 _symmetry_equiv_pos_as_xyz
  1  'x, y, z'
loop_
 _atom_site_type_symbol
 _atom_site_label
 _atom_site_symmetry_multiplicity
 _atom_site_fract_x
 _atom_site_fract_y
 _atom_site_fract_z
 _atom_site_occupancy
 _atom_site_charge
  Eu  Eu1  1  0.317330  0.291660  0.536800  1.0  2.1042
  Eu  Eu2  1  0.817330  0.791660  0.536800  1.0  2.1045
  Eu  Eu3  1  0.682670  0.291660  0.963200  1.0  2.1015
  Eu  Eu4  1  0.182670  0.791660  0.963200  1.0  2.1015
  Eu  Eu5  1  0.682670  0.708350  0.463200  1.0  2.1001
  Eu  Eu6  1  0.182670  0.208350  0.463200  1.0  2.1001
  Eu  Eu7  1  0.317330  0.708350  0.036800  1.0  2.0976
  Eu  Eu8  1  0.817330  0.208350  0.036800  1.0  2.0974
  H  H9  1  0.766600  0.031900  0.285900  1.0  0.1115
  H  H10  1  0.657900  0.951100  0.412800  1.0  0.0914
  H  H11  1  0.643200  0.160900  0.214500  1.0  0.0828
  H  H12  1  0.574600  0.940900  0.361100  1.0  0.0958
  H  H13  1  0.502500  0.969700  0.397300  1.0  0.0914
  H  H14  1  0.442900  0.083500  0.439400  1.0  0.0794
  H  H15  1  0.465900  0.361500  0.411000  1.0  0.0883
  H  H16  1  0.534700  0.330900  0.357000  1.0  0.1021
  H  H17  1  0.594500  0.218100  0.322900  1.0  0.0825
  H  H18  1  0.266600  0.531900  0.285900  1.0  0.1115
  H  H19  1  0.157900  0.451100  0.412800  1.0  0.0914
  H  H20  1  0.143200  0.660900  0.214500  1.0  0.0828
  H  H21  1  0.074600  0.440900  0.361100  1.0  0.0958
  H  H22  1  0.002500  0.469700  0.397300  1.0  0.0914
  H  H23  1  0.942900  0.583500  0.439400  1.0  0.0794
  H  H24  1  0.965900  0.861500  0.411000  1.0  0.0883
  H  H25  1  0.034700  0.830900  0.357000  1.0  0.1021
  H  H26  1  0.094500  0.718100  0.322900  1.0  0.0825
  H  H27  1  0.233400  0.031900  0.214100  1.0  0.1111
  H  H28  1  0.342100  0.951100  0.087200  1.0  0.0911
  H  H29  1  0.356800  0.160900  0.285500  1.0  0.0817
  H  H30  1  0.425400  0.940900  0.138900  1.0  0.0959
  H  H31  1  0.497500  0.969700  0.102700  1.0  0.092
  H  H32  1  0.557100  0.083500  0.060600  1.0  0.0799
  H  H33  1  0.534100  0.361500  0.089000  1.0  0.0886
  H  H34  1  0.465300  0.330900  0.143000  1.0  0.1026
  H  H35  1  0.405500  0.218100  0.177100  1.0  0.0826
  H  H36  1  0.733400  0.531900  0.214100  1.0  0.1111
  H  H37  1  0.842100  0.451100  0.087200  1.0  0.0911
  H  H38  1  0.856800  0.660900  0.285500  1.0  0.0817
  H  H39  1  0.925400  0.440900  0.138900  1.0  0.0959
  H  H40  1  0.997500  0.469700  0.102700  1.0  0.092
  H  H41  1  0.057100  0.583500  0.060600  1.0  0.0799
  H  H42  1  0.034100  0.861500  0.089000  1.0  0.0886
  H  H43  1  0.965300  0.830900  0.143000  1.0  0.1026
  H  H44  1  0.905500  0.718100  0.177100  1.0  0.0826
  H  H45  1  0.233400  0.968100  0.714100  1.0  0.1108
  H  H46  1  0.342100  0.048900  0.587200  1.0  0.0909
  H  H47  1  0.356800  0.839100  0.785500  1.0  0.0825
  H  H48  1  0.425400  0.059100  0.638900  1.0  0.0962
  H  H49  1  0.497500  0.030300  0.602700  1.0  0.0923
  H  H50  1  0.557100  0.916500  0.560600  1.0  0.08
  H  H51  1  0.534100  0.638500  0.589000  1.0  0.0886
  H  H52  1  0.465300  0.669100  0.643000  1.0  0.1014
  H  H53  1  0.405500  0.781900  0.677100  1.0  0.0824
  H  H54  1  0.733400  0.468100  0.714100  1.0  0.1108
  H  H55  1  0.842100  0.548900  0.587200  1.0  0.0909
  H  H56  1  0.856800  0.339100  0.785500  1.0  0.0825
  H  H57  1  0.925400  0.559100  0.638900  1.0  0.0962
  H  H58  1  0.997500  0.530300  0.602700  1.0  0.0923
  H  H59  1  0.057100  0.416500  0.560600  1.0  0.08
  H  H60  1  0.034100  0.138500  0.589000  1.0  0.0886
  H  H61  1  0.965300  0.169100  0.643000  1.0  0.1014
  H  H62  1  0.905500  0.281900  0.677100  1.0  0.0824
  H  H63  1  0.766600  0.968100  0.785900  1.0  0.1114
  H  H64  1  0.657900  0.048900  0.912800  1.0  0.0909
  H  H65  1  0.643200  0.839100  0.714500  1.0  0.0829
  H  H66  1  0.574600  0.059100  0.861100  1.0  0.0962
  H  H67  1  0.502500  0.030300  0.897300  1.0  0.0923
  H  H68  1  0.442900  0.916500  0.939400  1.0  0.0798
  H  H69  1  0.465900  0.638500  0.911000  1.0  0.0885
  H  H70  1  0.534700  0.669100  0.857000  1.0  0.102
  H  H71  1  0.594500  0.781900  0.822900  1.0  0.0826
  H  H72  1  0.266600  0.468100  0.785900  1.0  0.1114
  H  H73  1  0.157900  0.548900  0.912800  1.0  0.0909
  H  H74  1  0.143200  0.339100  0.714500  1.0  0.0829
  H  H75  1  0.074600  0.559100  0.861100  1.0  0.0962
  H  H76  1  0.002500  0.530300  0.897300  1.0  0.0923
  H  H77  1  0.942900  0.416500  0.939400  1.0  0.0798
  H  H78  1  0.965900  0.138500  0.911000  1.0  0.0885
  H  H79  1  0.034700  0.169100  0.857000  1.0  0.102
  H  H80  1  0.094500  0.281900  0.822900  1.0  0.0826
  C  C81  1  0.707690  0.104700  0.238100  1.0  -0.1554
  C  C82  1  0.735510  0.038400  0.292800  1.0  -0.0475
  C  C83  1  0.716310  0.982100  0.357600  1.0  -0.0918
  C  C84  1  0.670070  0.992000  0.369400  1.0  -0.0524
  C  C85  1  0.641840  0.060400  0.318700  1.0  0.0421
  C  C86  1  0.661480  0.115200  0.251900  1.0  -0.0872
  C  C87  1  0.727270  0.164500  0.164000  1.0  0.7466
  C  C88  1  0.746680  0.910900  0.415400  1.0  0.725
  C  C89  1  0.593590  0.077900  0.338900  1.0  0.1119
  C  C90  1  0.564400  0.005400  0.361500  1.0  -0.1698
  C  C91  1  0.520810  0.022700  0.384900  1.0  -0.1883
  C  C92  1  0.503970  0.113700  0.390400  1.0  0.0728
  C  C93  1  0.461230  0.135100  0.423700  1.0  -0.1585
  C  C94  1  0.447050  0.223900  0.432900  1.0  -0.0084
  C  C95  1  0.475340  0.296800  0.406700  1.0  -0.0551
  C  C96  1  0.517160  0.278700  0.374400  1.0  -0.1959
  C  C97  1  0.532870  0.187000  0.367800  1.0  0.0431
  C  C98  1  0.576850  0.166300  0.340500  1.0  -0.1155
  C  C99  1  0.403060  0.245700  0.473200  1.0  0.7002
  C  C100  1  0.207690  0.604700  0.238100  1.0  -0.1554
  C  C101  1  0.235510  0.538400  0.292800  1.0  -0.0475
  C  C102  1  0.216310  0.482100  0.357600  1.0  -0.0918
  C  C103  1  0.170070  0.492000  0.369400  1.0  -0.0524
  C  C104  1  0.141840  0.560400  0.318700  1.0  0.0421
  C  C105  1  0.161480  0.615200  0.251900  1.0  -0.0872
  C  C106  1  0.227270  0.664500  0.164000  1.0  0.7466
  C  C107  1  0.246680  0.410900  0.415400  1.0  0.725
  C  C108  1  0.093590  0.577900  0.338900  1.0  0.1119
  C  C109  1  0.064400  0.505400  0.361500  1.0  -0.1698
  C  C110  1  0.020810  0.522700  0.384900  1.0  -0.1883
  C  C111  1  0.003970  0.613700  0.390400  1.0  0.0728
  C  C112  1  0.961230  0.635100  0.423700  1.0  -0.1585
  C  C113  1  0.947050  0.723900  0.432900  1.0  -0.0084
  C  C114  1  0.975340  0.796800  0.406700  1.0  -0.0551
  C  C115  1  0.017160  0.778700  0.374400  1.0  -0.1959
  C  C116  1  0.032870  0.687000  0.367800  1.0  0.0431
  C  C117  1  0.076850  0.666300  0.340500  1.0  -0.1155
  C  C118  1  0.903060  0.745700  0.473200  1.0  0.7002
  C  C119  1  0.292310  0.104700  0.261900  1.0  -0.1553
  C  C120  1  0.264490  0.038400  0.207200  1.0  -0.0479
  C  C121  1  0.283690  0.982100  0.142400  1.0  -0.0911
  C  C122  1  0.329930  0.992000  0.130600  1.0  -0.0512
  C  C123  1  0.358160  0.060400  0.181300  1.0  0.0424
  C  C124  1  0.338520  0.115200  0.248100  1.0  -0.088
  C  C125  1  0.272730  0.164500  0.336000  1.0  0.7461
  C  C126  1  0.253320  0.910900  0.084600  1.0  0.7242
  C  C127  1  0.406410  0.077900  0.161100  1.0  0.1098
  C  C128  1  0.435600  0.005400  0.138500  1.0  -0.1711
  C  C129  1  0.479190  0.022700  0.115100  1.0  -0.1872
  C  C130  1  0.496030  0.113700  0.109600  1.0  0.0712
  C  C131  1  0.538770  0.135100  0.076300  1.0  -0.1588
  C  C132  1  0.552950  0.223900  0.067100  1.0  -0.0082
  C  C133  1  0.524660  0.296800  0.093300  1.0  -0.0545
  C  C134  1  0.482840  0.278700  0.125600  1.0  -0.1952
  C  C135  1  0.467130  0.187000  0.132200  1.0  0.0441
  C  C136  1  0.423150  0.166300  0.159500  1.0  -0.1159
  C  C137  1  0.596940  0.245700  0.026800  1.0  0.7026
  C  C138  1  0.792310  0.604700  0.261900  1.0  -0.1553
  C  C139  1  0.764490  0.538400  0.207200  1.0  -0.0479
  C  C140  1  0.783690  0.482100  0.142400  1.0  -0.0911
  C  C141  1  0.829930  0.492000  0.130600  1.0  -0.0512
  C  C142  1  0.858160  0.560400  0.181300  1.0  0.0424
  C  C143  1  0.838520  0.615200  0.248100  1.0  -0.088
  C  C144  1  0.772730  0.664500  0.336000  1.0  0.7461
  C  C145  1  0.753320  0.410900  0.084600  1.0  0.7242
  C  C146  1  0.906410  0.577900  0.161100  1.0  0.1098
  C  C147  1  0.935600  0.505400  0.138500  1.0  -0.1711
  C  C148  1  0.979190  0.522700  0.115100  1.0  -0.1872
  C  C149  1  0.996030  0.613700  0.109600  1.0  0.0712
  C  C150  1  0.038770  0.635100  0.076300  1.0  -0.1588
  C  C151  1  0.052950  0.723900  0.067100  1.0  -0.0082
  C  C152  1  0.024660  0.796800  0.093300  1.0  -0.0545
  C  C153  1  0.982840  0.778700  0.125600  1.0  -0.1952
  C  C154  1  0.967130  0.687000  0.132200  1.0  0.0441
  C  C155  1  0.923150  0.666300  0.159500  1.0  -0.1159
  C  C156  1  0.096940  0.745700  0.026800  1.0  0.7026
  C  C157  1  0.292310  0.895300  0.761900  1.0  -0.1555
  C  C158  1  0.264490  0.961600  0.707200  1.0  -0.0473
  C  C159  1  0.283690  0.017900  0.642400  1.0  -0.0911
  C  C160  1  0.329930  0.008000  0.630600  1.0  -0.0506
  C  C161  1  0.358160  0.939600  0.681300  1.0  0.0424
  C  C162  1  0.338520  0.884800  0.748100  1.0  -0.0865
  C  C163  1  0.272730  0.835500  0.836000  1.0  0.746
  C  C164  1  0.253320  0.089100  0.584600  1.0  0.7238
  C  C165  1  0.406410  0.922100  0.661100  1.0  0.11
  C  C166  1  0.435600  0.994600  0.638500  1.0  -0.1713
  C  C167  1  0.479190  0.977300  0.615100  1.0  -0.1881
  C  C168  1  0.496030  0.886300  0.609600  1.0  0.0712
  C  C169  1  0.538770  0.864900  0.576300  1.0  -0.1577
  C  C170  1  0.552950  0.776100  0.567100  1.0  -0.0083
  C  C171  1  0.524660  0.703200  0.593300  1.0  -0.0621
  C  C172  1  0.482840  0.721300  0.625600  1.0  -0.1945
  C  C173  1  0.467130  0.813000  0.632200  1.0  0.044
  C  C174  1  0.423150  0.833700  0.659500  1.0  -0.1153
  C  C175  1  0.596940  0.754300  0.526800  1.0  0.7023
  C  C176  1  0.792310  0.395300  0.761900  1.0  -0.1555
  C  C177  1  0.764490  0.461600  0.707200  1.0  -0.0473
  C  C178  1  0.783690  0.517900  0.642400  1.0  -0.0911
  C  C179  1  0.829930  0.508000  0.630600  1.0  -0.0506
  C  C180  1  0.858160  0.439600  0.681300  1.0  0.0424
  C  C181  1  0.838520  0.384800  0.748100  1.0  -0.0865
  C  C182  1  0.772730  0.335500  0.836000  1.0  0.746
  C  C183  1  0.753320  0.589100  0.584600  1.0  0.7238
  C  C184  1  0.906410  0.422100  0.661100  1.0  0.11
  C  C185  1  0.935600  0.494600  0.638500  1.0  -0.1713
  C  C186  1  0.979190  0.477300  0.615100  1.0  -0.1881
  C  C187  1  0.996030  0.386300  0.609600  1.0  0.0712
  C  C188  1  0.038770  0.364900  0.576300  1.0  -0.1577
  C  C189  1  0.052950  0.276100  0.567100  1.0  -0.0083
  C  C190  1  0.024660  0.203200  0.593300  1.0  -0.0621
  C  C191  1  0.982840  0.221300  0.625600  1.0  -0.1945
  C  C192  1  0.967130  0.313000  0.632200  1.0  0.044
  C  C193  1  0.923150  0.333700  0.659500  1.0  -0.1153
  C  C194  1  0.096940  0.254300  0.526800  1.0  0.7023
  C  C195  1  0.707690  0.895300  0.738100  1.0  -0.155
  C  C196  1  0.735510  0.961600  0.792800  1.0  -0.0476
  C  C197  1  0.716310  0.017900  0.857600  1.0  -0.0921
  C  C198  1  0.670070  0.008000  0.869400  1.0  -0.0516
  C  C199  1  0.641840  0.939600  0.818700  1.0  0.0422
  C  C200  1  0.661480  0.884800  0.751900  1.0  -0.0859
  C  C201  1  0.727270  0.835500  0.664000  1.0  0.7465
  C  C202  1  0.746680  0.089100  0.915400  1.0  0.7247
  C  C203  1  0.593590  0.922100  0.838900  1.0  0.1116
  C  C204  1  0.564400  0.994600  0.861500  1.0  -0.1699
  C  C205  1  0.520810  0.977300  0.884900  1.0  -0.1902
  C  C206  1  0.503970  0.886300  0.890400  1.0  0.0726
  C  C207  1  0.461230  0.864900  0.923700  1.0  -0.1575
  C  C208  1  0.447050  0.776100  0.932900  1.0  -0.0088
  C  C209  1  0.475340  0.703200  0.906700  1.0  -0.0635
  C  C210  1  0.517160  0.721300  0.874400  1.0  -0.1937
  C  C211  1  0.532870  0.813000  0.867800  1.0  0.0427
  C  C212  1  0.576850  0.833700  0.840500  1.0  -0.116
  C  C213  1  0.403060  0.754300  0.973200  1.0  0.701
  C  C214  1  0.207690  0.395300  0.738100  1.0  -0.155
  C  C215  1  0.235510  0.461600  0.792800  1.0  -0.0476
  C  C216  1  0.216310  0.517900  0.857600  1.0  -0.0921
  C  C217  1  0.170070  0.508000  0.869400  1.0  -0.0516
  C  C218  1  0.141840  0.439600  0.818700  1.0  0.0422
  C  C219  1  0.161480  0.384800  0.751900  1.0  -0.0859
  C  C220  1  0.227270  0.335500  0.664000  1.0  0.7465
  C  C221  1  0.246680  0.589100  0.915400  1.0  0.7247
  C  C222  1  0.093590  0.422100  0.838900  1.0  0.1116
  C  C223  1  0.064400  0.494600  0.861500  1.0  -0.1699
  C  C224  1  0.020810  0.477300  0.884900  1.0  -0.1902
  C  C225  1  0.003970  0.386300  0.890400  1.0  0.0726
  C  C226  1  0.961230  0.364900  0.923700  1.0  -0.1575
  C  C227  1  0.947050  0.276100  0.932900  1.0  -0.0088
  C  C228  1  0.975340  0.203200  0.906700  1.0  -0.0635
  C  C229  1  0.017160  0.221300  0.874400  1.0  -0.1937
  C  C230  1  0.032870  0.313000  0.867800  1.0  0.0427
  C  C231  1  0.076850  0.333700  0.840500  1.0  -0.116
  C  C232  1  0.903060  0.254300  0.973200  1.0  0.701
  O  O233  1  0.700510  0.226110  0.122700  1.0  -0.6625
  O  O234  1  0.768240  0.149420  0.149940  1.0  -0.7759
  O  O235  1  0.789940  0.924050  0.432700  1.0  -0.6475
  O  O236  1  0.728070  0.840390  0.447390  1.0  -0.7434
  O  O237  1  0.387570  0.326930  0.466000  1.0  -0.6091
  O  O238  1  0.382720  0.184000  0.514200  1.0  -0.601
  O  O239  1  0.200510  0.726110  0.122700  1.0  -0.6625
  O  O240  1  0.268240  0.649420  0.149940  1.0  -0.7759
  O  O241  1  0.289940  0.424050  0.432700  1.0  -0.6475
  O  O242  1  0.228070  0.340390  0.447390  1.0  -0.7434
  O  O243  1  0.887570  0.826930  0.466000  1.0  -0.6091
  O  O244  1  0.882720  0.684000  0.514200  1.0  -0.601
  O  O245  1  0.299490  0.226110  0.377300  1.0  -0.6627
  O  O246  1  0.231760  0.149420  0.350060  1.0  -0.7788
  O  O247  1  0.210060  0.924050  0.067300  1.0  -0.6465
  O  O248  1  0.271930  0.840390  0.052610  1.0  -0.7426
  O  O249  1  0.612430  0.326930  0.034000  1.0  -0.6085
  O  O250  1  0.617280  0.184000  0.985800  1.0  -0.6016
  O  O251  1  0.799490  0.726110  0.377300  1.0  -0.6627
  O  O252  1  0.731760  0.649420  0.350060  1.0  -0.7788
  O  O253  1  0.710060  0.424050  0.067300  1.0  -0.6458
  O  O254  1  0.771930  0.340390  0.052610  1.0  -0.7426
  O  O255  1  0.112430  0.826930  0.034000  1.0  -0.6083
  O  O256  1  0.117280  0.684000  0.985800  1.0  -0.6016
  O  O257  1  0.299490  0.773890  0.877300  1.0  -0.6629
  O  O258  1  0.231760  0.850580  0.850060  1.0  -0.7785
  O  O259  1  0.210060  0.075950  0.567300  1.0  -0.6452
  O  O260  1  0.271930  0.159610  0.552610  1.0  -0.7429
  O  O261  1  0.612430  0.673070  0.534000  1.0  -0.6092
  O  O262  1  0.617280  0.816000  0.485800  1.0  -0.6016
  O  O263  1  0.799490  0.273890  0.877300  1.0  -0.6629
  O  O264  1  0.731760  0.350580  0.850060  1.0  -0.7785
  O  O265  1  0.710060  0.575950  0.567300  1.0  -0.6452
  O  O266  1  0.771930  0.659610  0.552610  1.0  -0.7429
  O  O267  1  0.112430  0.173070  0.534000  1.0  -0.6092
  O  O268  1  0.117280  0.316000  0.485800  1.0  -0.6016
  O  O269  1  0.700510  0.773890  0.622700  1.0  -0.6623
  O  O270  1  0.768240  0.850580  0.649940  1.0  -0.7756
  O  O271  1  0.789940  0.075950  0.932700  1.0  -0.6467
  O  O272  1  0.728070  0.159610  0.947390  1.0  -0.7436
  O  O273  1  0.387570  0.673070  0.966000  1.0  -0.6102
  O  O274  1  0.382720  0.816000  0.014200  1.0  -0.6008
  O  O275  1  0.200510  0.273890  0.622700  1.0  -0.6623
  O  O276  1  0.268240  0.350580  0.649940  1.0  -0.7756
  O  O277  1  0.289940  0.575950  0.932700  1.0  -0.6462
  O  O278  1  0.228070  0.659610  0.947390  1.0  -0.7436
  O  O279  1  0.887570  0.173070  0.966000  1.0  -0.6102
  O  O280  1  0.882720  0.316000  0.014200  1.0  -0.6008
