# generated using pymatgen
data_TbH9C19O6
_symmetry_space_group_name_H-M   'P 1'
_cell_length_a   28.85330000
_cell_length_b   14.40380000
_cell_length_c   13.74140000
_cell_angle_alpha   90.00000000
_cell_angle_beta   98.66600000
_cell_angle_gamma   90.00000000
_symmetry_Int_Tables_number   1
_chemical_formula_structural   TbH9C19O6
_chemical_formula_sum   'Tb8 H72 C152 O48'
_cell_volume   5645.68835392
_cell_formula_units_Z   8
loop_
 _symmetry_equiv_pos_site_id
 _symmetry_equiv_pos_as_xyz
  1  'x, y, z'
loop_
 _atom_site_type_symbol
 _atom_site_label
 _atom_site_symmetry_multiplicity
 _atom_site_fract_x
 _atom_site_fract_y
 _atom_site_fract_z
 _atom_site_occupancy
 _atom_site_charge
  Tb  Tb1  1  0.317080  0.293290  0.536880  1.0  2.2273
  Tb  Tb2  1  0.817080  0.793290  0.536880  1.0  2.2273
  Tb  Tb3  1  0.682920  0.293290  0.963120  1.0  2.226
  Tb  Tb4  1  0.182920  0.793290  0.963120  1.0  2.2261
  Tb  Tb5  1  0.682920  0.706710  0.463120  1.0  2.2238
  Tb  Tb6  1  0.182920  0.206710  0.463120  1.0  2.2242
  Tb  Tb7  1  0.317080  0.706710  0.036880  1.0  2.2161
  Tb  Tb8  1  0.817080  0.206710  0.036880  1.0  2.2161
  H  H9  1  0.766000  0.031500  0.283000  1.0  0.1063
  H  H10  1  0.656400  0.953100  0.412300  1.0  0.091
  H  H11  1  0.642200  0.159600  0.213000  1.0  0.0849
  H  H12  1  0.574200  0.944400  0.360100  1.0  0.0987
  H  H13  1  0.501100  0.973900  0.397200  1.0  0.1
  H  H14  1  0.441500  0.087500  0.440400  1.0  0.0904
  H  H15  1  0.464800  0.359900  0.412200  1.0  0.0948
  H  H16  1  0.534500  0.329600  0.357100  1.0  0.1091
  H  H17  1  0.594500  0.215500  0.322100  1.0  0.0957
  H  H18  1  0.266000  0.531500  0.283000  1.0  0.1063
  H  H19  1  0.156400  0.453100  0.412300  1.0  0.091
  H  H20  1  0.142200  0.659600  0.213000  1.0  0.0849
  H  H21  1  0.074200  0.444400  0.360100  1.0  0.0987
  H  H22  1  0.001100  0.473900  0.397200  1.0  0.1
  H  H23  1  0.941500  0.587500  0.440400  1.0  0.0904
  H  H24  1  0.964800  0.859900  0.412200  1.0  0.0948
  H  H25  1  0.034500  0.829600  0.357100  1.0  0.1091
  H  H26  1  0.094500  0.715500  0.322100  1.0  0.0957
  H  H27  1  0.234000  0.031500  0.217000  1.0  0.1065
  H  H28  1  0.343600  0.953100  0.087700  1.0  0.091
  H  H29  1  0.357800  0.159600  0.287000  1.0  0.0845
  H  H30  1  0.425800  0.944400  0.139900  1.0  0.0985
  H  H31  1  0.498900  0.973900  0.102800  1.0  0.1003
  H  H32  1  0.558500  0.087500  0.059600  1.0  0.0907
  H  H33  1  0.535200  0.359900  0.087800  1.0  0.095
  H  H34  1  0.465500  0.329600  0.142900  1.0  0.1092
  H  H35  1  0.405500  0.215500  0.177900  1.0  0.0959
  H  H36  1  0.734000  0.531500  0.217000  1.0  0.1065
  H  H37  1  0.843600  0.453100  0.087700  1.0  0.091
  H  H38  1  0.857800  0.659600  0.287000  1.0  0.0845
  H  H39  1  0.925800  0.444400  0.139900  1.0  0.0985
  H  H40  1  0.998900  0.473900  0.102800  1.0  0.1003
  H  H41  1  0.058500  0.587500  0.059600  1.0  0.0907
  H  H42  1  0.035200  0.859900  0.087800  1.0  0.095
  H  H43  1  0.965500  0.829600  0.142900  1.0  0.1092
  H  H44  1  0.905500  0.715500  0.177900  1.0  0.0959
  H  H45  1  0.234000  0.968500  0.717000  1.0  0.1064
  H  H46  1  0.343600  0.046900  0.587700  1.0  0.091
  H  H47  1  0.357800  0.840400  0.787000  1.0  0.0853
  H  H48  1  0.425800  0.055600  0.639900  1.0  0.0989
  H  H49  1  0.498900  0.026100  0.602800  1.0  0.0997
  H  H50  1  0.558500  0.912500  0.559600  1.0  0.091
  H  H51  1  0.535200  0.640100  0.587800  1.0  0.0949
  H  H52  1  0.465500  0.670400  0.642900  1.0  0.1082
  H  H53  1  0.405500  0.784500  0.677900  1.0  0.0953
  H  H54  1  0.734000  0.468500  0.717000  1.0  0.1064
  H  H55  1  0.843600  0.546900  0.587700  1.0  0.091
  H  H56  1  0.857800  0.340400  0.787000  1.0  0.0853
  H  H57  1  0.925800  0.555600  0.639900  1.0  0.0989
  H  H58  1  0.998900  0.526100  0.602800  1.0  0.0997
  H  H59  1  0.058500  0.412500  0.559600  1.0  0.091
  H  H60  1  0.035200  0.140100  0.587800  1.0  0.0949
  H  H61  1  0.965500  0.170400  0.642900  1.0  0.1082
  H  H62  1  0.905500  0.284500  0.677900  1.0  0.0953
  H  H63  1  0.766000  0.968500  0.783000  1.0  0.1062
  H  H64  1  0.656400  0.046900  0.912300  1.0  0.0906
  H  H65  1  0.642200  0.840400  0.713000  1.0  0.0849
  H  H66  1  0.574200  0.055600  0.860100  1.0  0.0989
  H  H67  1  0.501100  0.026100  0.897200  1.0  0.0999
  H  H68  1  0.441500  0.912500  0.940400  1.0  0.0907
  H  H69  1  0.464800  0.640100  0.912200  1.0  0.0949
  H  H70  1  0.534500  0.670400  0.857100  1.0  0.1088
  H  H71  1  0.594500  0.784500  0.822100  1.0  0.0963
  H  H72  1  0.266000  0.468500  0.783000  1.0  0.1062
  H  H73  1  0.156400  0.546900  0.912300  1.0  0.0906
  H  H74  1  0.142200  0.340400  0.713000  1.0  0.0849
  H  H75  1  0.074200  0.555600  0.860100  1.0  0.0989
  H  H76  1  0.001100  0.526100  0.897200  1.0  0.0999
  H  H77  1  0.941500  0.412500  0.940400  1.0  0.0907
  H  H78  1  0.964800  0.140100  0.912200  1.0  0.0949
  H  H79  1  0.034500  0.170400  0.857100  1.0  0.1088
  H  H80  1  0.094500  0.284500  0.822100  1.0  0.0963
  C  C81  1  0.706900  0.104200  0.236100  1.0  -0.1567
  C  C82  1  0.734600  0.037900  0.290400  1.0  0.0179
  C  C83  1  0.715570  0.981300  0.355500  1.0  -0.1383
  C  C84  1  0.668910  0.991800  0.368600  1.0  -0.0767
  C  C85  1  0.640530  0.060000  0.316700  1.0  0.0257
  C  C86  1  0.660530  0.114900  0.249500  1.0  -0.0825
  C  C87  1  0.726180  0.163800  0.160400  1.0  0.7913
  C  C88  1  0.745790  0.909600  0.413700  1.0  0.7441
  C  C89  1  0.592680  0.078200  0.338100  1.0  0.0181
  C  C90  1  0.563650  0.005300  0.361100  1.0  -0.1522
  C  C91  1  0.520100  0.023300  0.384700  1.0  -0.1246
  C  C92  1  0.503170  0.115100  0.390700  1.0  0.0185
  C  C93  1  0.460530  0.135700  0.424600  1.0  -0.0795
  C  C94  1  0.446860  0.225700  0.434500  1.0  -0.1508
  C  C95  1  0.474700  0.298800  0.407600  1.0  -0.0446
  C  C96  1  0.516400  0.280800  0.374700  1.0  -0.1139
  C  C97  1  0.531900  0.188100  0.367200  1.0  0.0316
  C  C98  1  0.576130  0.167200  0.339700  1.0  -0.0552
  C  C99  1  0.402500  0.247700  0.474800  1.0  0.7014
  C  C100  1  0.206900  0.604200  0.236100  1.0  -0.1567
  C  C101  1  0.234600  0.537900  0.290400  1.0  0.0179
  C  C102  1  0.215570  0.481300  0.355500  1.0  -0.1383
  C  C103  1  0.168910  0.491800  0.368600  1.0  -0.0767
  C  C104  1  0.140530  0.560000  0.316700  1.0  0.0257
  C  C105  1  0.160530  0.614900  0.249500  1.0  -0.0825
  C  C106  1  0.226180  0.663800  0.160400  1.0  0.7913
  C  C107  1  0.245790  0.409600  0.413700  1.0  0.7441
  C  C108  1  0.092680  0.578200  0.338100  1.0  0.0181
  C  C109  1  0.063650  0.505300  0.361100  1.0  -0.1522
  C  C110  1  0.020100  0.523300  0.384700  1.0  -0.1246
  C  C111  1  0.003170  0.615100  0.390700  1.0  0.0185
  C  C112  1  0.960530  0.635700  0.424600  1.0  -0.0795
  C  C113  1  0.946860  0.725700  0.434500  1.0  -0.1508
  C  C114  1  0.974700  0.798800  0.407600  1.0  -0.0446
  C  C115  1  0.016400  0.780800  0.374700  1.0  -0.1139
  C  C116  1  0.031900  0.688100  0.367200  1.0  0.0316
  C  C117  1  0.076130  0.667200  0.339700  1.0  -0.0552
  C  C118  1  0.902500  0.747700  0.474800  1.0  0.7014
  C  C119  1  0.293100  0.104200  0.263900  1.0  -0.1561
  C  C120  1  0.265400  0.037900  0.209600  1.0  0.0164
  C  C121  1  0.284430  0.981300  0.144500  1.0  -0.1375
  C  C122  1  0.331090  0.991800  0.131400  1.0  -0.0757
  C  C123  1  0.359470  0.060000  0.183300  1.0  0.0259
  C  C124  1  0.339470  0.114900  0.250500  1.0  -0.082
  C  C125  1  0.273820  0.163800  0.339600  1.0  0.7912
  C  C126  1  0.254210  0.909600  0.086300  1.0  0.744
  C  C127  1  0.407320  0.078200  0.161900  1.0  0.0182
  C  C128  1  0.436350  0.005300  0.138900  1.0  -0.1529
  C  C129  1  0.479900  0.023300  0.115300  1.0  -0.1243
  C  C130  1  0.496830  0.115100  0.109300  1.0  0.0185
  C  C131  1  0.539470  0.135700  0.075400  1.0  -0.0793
  C  C132  1  0.553140  0.225700  0.065500  1.0  -0.1508
  C  C133  1  0.525300  0.298800  0.092400  1.0  -0.0444
  C  C134  1  0.483600  0.280800  0.125300  1.0  -0.1126
  C  C135  1  0.468100  0.188100  0.132800  1.0  0.0315
  C  C136  1  0.423870  0.167200  0.160300  1.0  -0.0562
  C  C137  1  0.597500  0.247700  0.025200  1.0  0.7028
  C  C138  1  0.793100  0.604200  0.263900  1.0  -0.1561
  C  C139  1  0.765400  0.537900  0.209600  1.0  0.0164
  C  C140  1  0.784430  0.481300  0.144500  1.0  -0.1375
  C  C141  1  0.831090  0.491800  0.131400  1.0  -0.0757
  C  C142  1  0.859470  0.560000  0.183300  1.0  0.0259
  C  C143  1  0.839470  0.614900  0.250500  1.0  -0.082
  C  C144  1  0.773820  0.663800  0.339600  1.0  0.7912
  C  C145  1  0.754210  0.409600  0.086300  1.0  0.744
  C  C146  1  0.907320  0.578200  0.161900  1.0  0.0182
  C  C147  1  0.936350  0.505300  0.138900  1.0  -0.1529
  C  C148  1  0.979900  0.523300  0.115300  1.0  -0.1243
  C  C149  1  0.996830  0.615100  0.109300  1.0  0.0185
  C  C150  1  0.039470  0.635700  0.075400  1.0  -0.0793
  C  C151  1  0.053140  0.725700  0.065500  1.0  -0.1508
  C  C152  1  0.025300  0.798800  0.092400  1.0  -0.0444
  C  C153  1  0.983600  0.780800  0.125300  1.0  -0.1126
  C  C154  1  0.968100  0.688100  0.132800  1.0  0.0315
  C  C155  1  0.923870  0.667200  0.160300  1.0  -0.0562
  C  C156  1  0.097500  0.747700  0.025200  1.0  0.7028
  C  C157  1  0.293100  0.895800  0.763900  1.0  -0.1562
  C  C158  1  0.265400  0.962100  0.709600  1.0  0.0166
  C  C159  1  0.284430  0.018700  0.644500  1.0  -0.137
  C  C160  1  0.331090  0.008200  0.631400  1.0  -0.0759
  C  C161  1  0.359470  0.940000  0.683300  1.0  0.026
  C  C162  1  0.339470  0.885100  0.750500  1.0  -0.0811
  C  C163  1  0.273820  0.836200  0.839600  1.0  0.7908
  C  C164  1  0.254210  0.090400  0.586300  1.0  0.7444
  C  C165  1  0.407320  0.921800  0.661900  1.0  0.0184
  C  C166  1  0.436350  0.994700  0.638900  1.0  -0.1534
  C  C167  1  0.479900  0.976700  0.615300  1.0  -0.1235
  C  C168  1  0.496830  0.884900  0.609300  1.0  0.0183
  C  C169  1  0.539470  0.864300  0.575400  1.0  -0.079
  C  C170  1  0.553140  0.774300  0.565500  1.0  -0.151
  C  C171  1  0.525300  0.701200  0.592400  1.0  -0.0475
  C  C172  1  0.483600  0.719200  0.625300  1.0  -0.1131
  C  C173  1  0.468100  0.811900  0.632800  1.0  0.0321
  C  C174  1  0.423870  0.832800  0.660300  1.0  -0.0541
  C  C175  1  0.597500  0.752300  0.525200  1.0  0.7035
  C  C176  1  0.793100  0.395800  0.763900  1.0  -0.1562
  C  C177  1  0.765400  0.462100  0.709600  1.0  0.0166
  C  C178  1  0.784430  0.518700  0.644500  1.0  -0.137
  C  C179  1  0.831090  0.508200  0.631400  1.0  -0.0759
  C  C180  1  0.859470  0.440000  0.683300  1.0  0.026
  C  C181  1  0.839470  0.385100  0.750500  1.0  -0.0811
  C  C182  1  0.773820  0.336200  0.839600  1.0  0.7908
  C  C183  1  0.754210  0.590400  0.586300  1.0  0.7444
  C  C184  1  0.907320  0.421800  0.661900  1.0  0.0184
  C  C185  1  0.936350  0.494700  0.638900  1.0  -0.1534
  C  C186  1  0.979900  0.476700  0.615300  1.0  -0.1235
  C  C187  1  0.996830  0.384900  0.609300  1.0  0.0183
  C  C188  1  0.039470  0.364300  0.575400  1.0  -0.079
  C  C189  1  0.053140  0.274300  0.565500  1.0  -0.151
  C  C190  1  0.025300  0.201200  0.592400  1.0  -0.0475
  C  C191  1  0.983600  0.219200  0.625300  1.0  -0.1131
  C  C192  1  0.968100  0.311900  0.632800  1.0  0.0321
  C  C193  1  0.923870  0.332800  0.660300  1.0  -0.0541
  C  C194  1  0.097500  0.252300  0.525200  1.0  0.7035
  C  C195  1  0.706900  0.895800  0.736100  1.0  -0.1564
  C  C196  1  0.734600  0.962100  0.790400  1.0  0.0183
  C  C197  1  0.715570  0.018700  0.855500  1.0  -0.1382
  C  C198  1  0.668910  0.008200  0.868600  1.0  -0.0759
  C  C199  1  0.640530  0.940000  0.816700  1.0  0.0258
  C  C200  1  0.660530  0.885100  0.749500  1.0  -0.0813
  C  C201  1  0.726180  0.836200  0.660400  1.0  0.7908
  C  C202  1  0.745790  0.090400  0.913700  1.0  0.7441
  C  C203  1  0.592680  0.921800  0.838100  1.0  0.018
  C  C204  1  0.563650  0.994700  0.861100  1.0  -0.1531
  C  C205  1  0.520100  0.976700  0.884700  1.0  -0.1238
  C  C206  1  0.503170  0.884900  0.890700  1.0  0.0188
  C  C207  1  0.460530  0.864300  0.924600  1.0  -0.0787
  C  C208  1  0.446860  0.774300  0.934500  1.0  -0.1499
  C  C209  1  0.474700  0.701200  0.907600  1.0  -0.0475
  C  C210  1  0.516400  0.719200  0.874700  1.0  -0.1128
  C  C211  1  0.531900  0.811900  0.867200  1.0  0.0333
  C  C212  1  0.576130  0.832800  0.839700  1.0  -0.0532
  C  C213  1  0.402500  0.752300  0.974800  1.0  0.7029
  C  C214  1  0.206900  0.395800  0.736100  1.0  -0.1564
  C  C215  1  0.234600  0.462100  0.790400  1.0  0.0183
  C  C216  1  0.215570  0.518700  0.855500  1.0  -0.1382
  C  C217  1  0.168910  0.508200  0.868600  1.0  -0.0759
  C  C218  1  0.140530  0.440000  0.816700  1.0  0.0258
  C  C219  1  0.160530  0.385100  0.749500  1.0  -0.0813
  C  C220  1  0.226180  0.336200  0.660400  1.0  0.7908
  C  C221  1  0.245790  0.590400  0.913700  1.0  0.7441
  C  C222  1  0.092680  0.421800  0.838100  1.0  0.018
  C  C223  1  0.063650  0.494700  0.861100  1.0  -0.1531
  C  C224  1  0.020100  0.476700  0.884700  1.0  -0.1238
  C  C225  1  0.003170  0.384900  0.890700  1.0  0.0188
  C  C226  1  0.960530  0.364300  0.924600  1.0  -0.0787
  C  C227  1  0.946860  0.274300  0.934500  1.0  -0.1499
  C  C228  1  0.974700  0.201200  0.907600  1.0  -0.0475
  C  C229  1  0.016400  0.219200  0.874700  1.0  -0.1128
  C  C230  1  0.031900  0.311900  0.867200  1.0  0.0333
  C  C231  1  0.076130  0.332800  0.839700  1.0  -0.0532
  C  C232  1  0.902500  0.252300  0.974800  1.0  0.7029
  O  O233  1  0.699750  0.226000  0.120300  1.0  -0.697
  O  O234  1  0.767190  0.147900  0.146200  1.0  -0.8043
  O  O235  1  0.789010  0.922600  0.432300  1.0  -0.6595
  O  O236  1  0.726800  0.838400  0.444600  1.0  -0.8669
  O  O237  1  0.386550  0.329300  0.465900  1.0  -0.6332
  O  O238  1  0.382590  0.185900  0.517200  1.0  -0.6089
  O  O239  1  0.199750  0.726000  0.120300  1.0  -0.697
  O  O240  1  0.267190  0.647900  0.146200  1.0  -0.8043
  O  O241  1  0.289010  0.422600  0.432300  1.0  -0.6596
  O  O242  1  0.226800  0.338400  0.444600  1.0  -0.8669
  O  O243  1  0.886550  0.829300  0.465900  1.0  -0.6338
  O  O244  1  0.882590  0.685900  0.517200  1.0  -0.6089
  O  O245  1  0.300250  0.226000  0.379700  1.0  -0.6977
  O  O246  1  0.232810  0.147900  0.353800  1.0  -0.8074
  O  O247  1  0.210990  0.922600  0.067700  1.0  -0.6612
  O  O248  1  0.273200  0.838400  0.055400  1.0  -0.8658
  O  O249  1  0.613450  0.329300  0.034100  1.0  -0.6329
  O  O250  1  0.617410  0.185900  0.982800  1.0  -0.609
  O  O251  1  0.800250  0.726000  0.379700  1.0  -0.6977
  O  O252  1  0.732810  0.647900  0.353800  1.0  -0.8074
  O  O253  1  0.710990  0.422600  0.067700  1.0  -0.6614
  O  O254  1  0.773200  0.338400  0.055400  1.0  -0.8658
  O  O255  1  0.113450  0.829300  0.034100  1.0  -0.6327
  O  O256  1  0.117410  0.685900  0.982800  1.0  -0.609
  O  O257  1  0.300250  0.774000  0.879700  1.0  -0.698
  O  O258  1  0.232810  0.852100  0.853800  1.0  -0.8076
  O  O259  1  0.210990  0.077400  0.567700  1.0  -0.6589
  O  O260  1  0.273200  0.161600  0.555400  1.0  -0.8669
  O  O261  1  0.613450  0.670700  0.534100  1.0  -0.6305
  O  O262  1  0.617410  0.814100  0.482800  1.0  -0.609
  O  O263  1  0.800250  0.274000  0.879700  1.0  -0.698
  O  O264  1  0.732810  0.352100  0.853800  1.0  -0.8076
  O  O265  1  0.710990  0.577400  0.567700  1.0  -0.659
  O  O266  1  0.773200  0.661600  0.555400  1.0  -0.8669
  O  O267  1  0.113450  0.170700  0.534100  1.0  -0.6307
  O  O268  1  0.117410  0.314100  0.482800  1.0  -0.609
  O  O269  1  0.699750  0.774000  0.620300  1.0  -0.6973
  O  O270  1  0.767190  0.852100  0.646200  1.0  -0.8043
  O  O271  1  0.789010  0.077400  0.932300  1.0  -0.6598
  O  O272  1  0.726800  0.161600  0.944600  1.0  -0.868
  O  O273  1  0.386550  0.670700  0.965900  1.0  -0.634
  O  O274  1  0.382590  0.814100  0.017200  1.0  -0.6092
  O  O275  1  0.199750  0.274000  0.620300  1.0  -0.6973
  O  O276  1  0.267190  0.352100  0.646200  1.0  -0.8043
  O  O277  1  0.289010  0.577400  0.932300  1.0  -0.66
  O  O278  1  0.226800  0.661600  0.944600  1.0  -0.868
  O  O279  1  0.886550  0.170700  0.965900  1.0  -0.6338
  O  O280  1  0.882590  0.314100  0.017200  1.0  -0.6092
