# generated using pymatgen
data_HoH9C19O6
_symmetry_space_group_name_H-M   'P 1'
_cell_length_a   29.16200000
_cell_length_b   13.45450000
_cell_length_c   13.90300000
_cell_angle_alpha   90.00000000
_cell_angle_beta   98.21900000
_cell_angle_gamma   90.00000000
_symmetry_Int_Tables_number   1
_chemical_formula_structural   HoH9C19O6
_chemical_formula_sum   'Ho8 H72 C152 O48'
_cell_volume   5398.95408402
_cell_formula_units_Z   8
loop_
 _symmetry_equiv_pos_site_id
 _symmetry_equiv_pos_as_xyz
  1  'x, y, z'
loop_
 _atom_site_type_symbol
 _atom_site_label
 _atom_site_symmetry_multiplicity
 _atom_site_fract_x
 _atom_site_fract_y
 _atom_site_fract_z
 _atom_site_occupancy
 _atom_site_charge
  Ho  Ho1  1  0.315410  0.300930  0.540770  1.0  2.158
  Ho  Ho2  1  0.815410  0.800930  0.540770  1.0  2.158
  Ho  Ho3  1  0.684590  0.300930  0.959230  1.0  2.1525
  Ho  Ho4  1  0.184590  0.800930  0.959230  1.0  2.153
  Ho  Ho5  1  0.684590  0.699070  0.459230  1.0  2.1501
  Ho  Ho6  1  0.184590  0.199070  0.459230  1.0  2.1509
  Ho  Ho7  1  0.315410  0.699070  0.040770  1.0  2.15
  Ho  Ho8  1  0.815410  0.199070  0.040770  1.0  2.15
  H  H9  1  0.763600  0.047300  0.292900  1.0  0.1122
  H  H10  1  0.653400  0.965100  0.417500  1.0  0.0987
  H  H11  1  0.641300  0.183100  0.217400  1.0  0.0976
  H  H12  1  0.574600  0.953000  0.363200  1.0  0.0998
  H  H13  1  0.501100  0.977900  0.395600  1.0  0.1116
  H  H14  1  0.440900  0.098200  0.440600  1.0  0.1
  H  H15  1  0.459700  0.389000  0.410200  1.0  0.1003
  H  H16  1  0.529500  0.363100  0.356100  1.0  0.1246
  H  H17  1  0.591500  0.242200  0.323400  1.0  0.1052
  H  H18  1  0.263600  0.547300  0.292900  1.0  0.1122
  H  H19  1  0.153400  0.465100  0.417500  1.0  0.0987
  H  H20  1  0.141300  0.683100  0.217400  1.0  0.0976
  H  H21  1  0.074600  0.453000  0.363200  1.0  0.0998
  H  H22  1  0.001100  0.477900  0.395600  1.0  0.1116
  H  H23  1  0.940900  0.598200  0.440600  1.0  0.1
  H  H24  1  0.959700  0.889000  0.410200  1.0  0.1003
  H  H25  1  0.029500  0.863100  0.356100  1.0  0.1246
  H  H26  1  0.091500  0.742200  0.323400  1.0  0.1052
  H  H27  1  0.236400  0.047300  0.207100  1.0  0.111
  H  H28  1  0.346600  0.965100  0.082500  1.0  0.0998
  H  H29  1  0.358700  0.183100  0.282600  1.0  0.0972
  H  H30  1  0.425400  0.953000  0.136800  1.0  0.0999
  H  H31  1  0.498900  0.977900  0.104400  1.0  0.1118
  H  H32  1  0.559100  0.098200  0.059400  1.0  0.1006
  H  H33  1  0.540300  0.389000  0.089800  1.0  0.0995
  H  H34  1  0.470500  0.363100  0.143900  1.0  0.1257
  H  H35  1  0.408500  0.242200  0.176600  1.0  0.1061
  H  H36  1  0.736400  0.547300  0.207100  1.0  0.111
  H  H37  1  0.846600  0.465100  0.082500  1.0  0.0998
  H  H38  1  0.858700  0.683100  0.282600  1.0  0.0972
  H  H39  1  0.925400  0.453000  0.136800  1.0  0.0999
  H  H40  1  0.998900  0.477900  0.104400  1.0  0.1118
  H  H41  1  0.059100  0.598200  0.059400  1.0  0.1006
  H  H42  1  0.040300  0.889000  0.089800  1.0  0.0995
  H  H43  1  0.970500  0.863100  0.143900  1.0  0.1257
  H  H44  1  0.908500  0.742200  0.176600  1.0  0.1061
  H  H45  1  0.236400  0.952700  0.707100  1.0  0.1107
  H  H46  1  0.346600  0.034900  0.582500  1.0  0.0997
  H  H47  1  0.358700  0.816900  0.782600  1.0  0.0976
  H  H48  1  0.425400  0.047000  0.636800  1.0  0.1002
  H  H49  1  0.498900  0.022100  0.604400  1.0  0.1114
  H  H50  1  0.559100  0.901800  0.559400  1.0  0.1006
  H  H51  1  0.540300  0.611000  0.589800  1.0  0.1
  H  H52  1  0.470500  0.636900  0.643900  1.0  0.1233
  H  H53  1  0.408500  0.757800  0.676600  1.0  0.1049
  H  H54  1  0.736400  0.452700  0.707100  1.0  0.1107
  H  H55  1  0.846600  0.534900  0.582500  1.0  0.0997
  H  H56  1  0.858700  0.316900  0.782600  1.0  0.0976
  H  H57  1  0.925400  0.547000  0.636800  1.0  0.1002
  H  H58  1  0.998900  0.522100  0.604400  1.0  0.1114
  H  H59  1  0.059100  0.401800  0.559400  1.0  0.1006
  H  H60  1  0.040300  0.111000  0.589800  1.0  0.1
  H  H61  1  0.970500  0.136900  0.643900  1.0  0.1233
  H  H62  1  0.908500  0.257800  0.676600  1.0  0.1049
  H  H63  1  0.763600  0.952700  0.792900  1.0  0.1122
  H  H64  1  0.653400  0.034900  0.917500  1.0  0.0985
  H  H65  1  0.641300  0.816900  0.717400  1.0  0.0974
  H  H66  1  0.574600  0.047000  0.863200  1.0  0.1001
  H  H67  1  0.501100  0.022100  0.895600  1.0  0.1118
  H  H68  1  0.440900  0.901800  0.940600  1.0  0.1003
  H  H69  1  0.459700  0.611000  0.910200  1.0  0.1005
  H  H70  1  0.529500  0.636900  0.856100  1.0  0.1237
  H  H71  1  0.591500  0.757800  0.823400  1.0  0.1053
  H  H72  1  0.263600  0.452700  0.792900  1.0  0.1122
  H  H73  1  0.153400  0.534900  0.917500  1.0  0.0985
  H  H74  1  0.141300  0.316900  0.717400  1.0  0.0974
  H  H75  1  0.074600  0.547000  0.863200  1.0  0.1001
  H  H76  1  0.001100  0.522100  0.895600  1.0  0.1118
  H  H77  1  0.940900  0.401800  0.940600  1.0  0.1003
  H  H78  1  0.959700  0.111000  0.910200  1.0  0.1005
  H  H79  1  0.029500  0.136900  0.856100  1.0  0.1237
  H  H80  1  0.091500  0.257800  0.823400  1.0  0.1053
  C  C81  1  0.704400  0.121800  0.242000  1.0  -0.1655
  C  C82  1  0.732400  0.053700  0.299100  1.0  -0.0027
  C  C83  1  0.712900  0.995700  0.365300  1.0  -0.1415
  C  C84  1  0.666300  0.006300  0.374900  1.0  -0.0627
  C  C85  1  0.639100  0.077000  0.322300  1.0  0.0055
  C  C86  1  0.659100  0.135400  0.254000  1.0  -0.0603
  C  C87  1  0.725000  0.179700  0.164100  1.0  0.7801
  C  C88  1  0.742900  0.922700  0.427400  1.0  0.7186
  C  C89  1  0.590800  0.095300  0.341600  1.0  -0.0124
  C  C90  1  0.563200  0.017500  0.363500  1.0  -0.1218
  C  C91  1  0.519500  0.032300  0.385400  1.0  -0.1541
  C  C92  1  0.501900  0.129400  0.392900  1.0  0.0274
  C  C93  1  0.459200  0.150500  0.424600  1.0  -0.0617
  C  C94  1  0.444100  0.245000  0.432300  1.0  -0.1817
  C  C95  1  0.470600  0.324500  0.406000  1.0  -0.0457
  C  C96  1  0.512500  0.309400  0.374000  1.0  -0.1207
  C  C97  1  0.529800  0.210800  0.368400  1.0  0.0495
  C  C98  1  0.573700  0.190000  0.341600  1.0  -0.0517
  C  C99  1  0.399800  0.264400  0.473800  1.0  0.6955
  C  C100  1  0.204400  0.621800  0.242000  1.0  -0.1655
  C  C101  1  0.232400  0.553700  0.299100  1.0  -0.0027
  C  C102  1  0.212900  0.495700  0.365300  1.0  -0.1415
  C  C103  1  0.166300  0.506300  0.374900  1.0  -0.0627
  C  C104  1  0.139100  0.577000  0.322300  1.0  0.0055
  C  C105  1  0.159100  0.635400  0.254000  1.0  -0.0603
  C  C106  1  0.225000  0.679700  0.164100  1.0  0.7801
  C  C107  1  0.242900  0.422700  0.427400  1.0  0.7186
  C  C108  1  0.090800  0.595300  0.341600  1.0  -0.0124
  C  C109  1  0.063200  0.517500  0.363500  1.0  -0.1218
  C  C110  1  0.019500  0.532300  0.385400  1.0  -0.1541
  C  C111  1  0.001900  0.629400  0.392900  1.0  0.0274
  C  C112  1  0.959200  0.650500  0.424600  1.0  -0.0617
  C  C113  1  0.944100  0.745000  0.432300  1.0  -0.1817
  C  C114  1  0.970600  0.824500  0.406000  1.0  -0.0457
  C  C115  1  0.012500  0.809400  0.374000  1.0  -0.1207
  C  C116  1  0.029800  0.710800  0.368400  1.0  0.0495
  C  C117  1  0.073700  0.690000  0.341600  1.0  -0.0517
  C  C118  1  0.899800  0.764400  0.473800  1.0  0.6955
  C  C119  1  0.295600  0.121800  0.258000  1.0  -0.1647
  C  C120  1  0.267600  0.053700  0.200900  1.0  -0.0042
  C  C121  1  0.287100  0.995700  0.134700  1.0  -0.1416
  C  C122  1  0.333700  0.006300  0.125100  1.0  -0.0604
  C  C123  1  0.360900  0.077000  0.177700  1.0  0.0055
  C  C124  1  0.340900  0.135400  0.246000  1.0  -0.0608
  C  C125  1  0.275000  0.179700  0.335900  1.0  0.7797
  C  C126  1  0.257100  0.922700  0.072600  1.0  0.7168
  C  C127  1  0.409200  0.095300  0.158400  1.0  -0.012
  C  C128  1  0.436800  0.017500  0.136500  1.0  -0.1226
  C  C129  1  0.480500  0.032300  0.114600  1.0  -0.1548
  C  C130  1  0.498100  0.129400  0.107100  1.0  0.0276
  C  C131  1  0.540800  0.150500  0.075400  1.0  -0.0617
  C  C132  1  0.555900  0.245000  0.067700  1.0  -0.1824
  C  C133  1  0.529400  0.324500  0.094000  1.0  -0.0462
  C  C134  1  0.487500  0.309400  0.126000  1.0  -0.1204
  C  C135  1  0.470200  0.210800  0.131600  1.0  0.0488
  C  C136  1  0.426300  0.190000  0.158400  1.0  -0.0502
  C  C137  1  0.600200  0.264400  0.026200  1.0  0.6967
  C  C138  1  0.795600  0.621800  0.258000  1.0  -0.1647
  C  C139  1  0.767600  0.553700  0.200900  1.0  -0.0042
  C  C140  1  0.787100  0.495700  0.134700  1.0  -0.1416
  C  C141  1  0.833700  0.506300  0.125100  1.0  -0.0604
  C  C142  1  0.860900  0.577000  0.177700  1.0  0.0055
  C  C143  1  0.840900  0.635400  0.246000  1.0  -0.0608
  C  C144  1  0.775000  0.679700  0.335900  1.0  0.7797
  C  C145  1  0.757100  0.422700  0.072600  1.0  0.7168
  C  C146  1  0.909200  0.595300  0.158400  1.0  -0.012
  C  C147  1  0.936800  0.517500  0.136500  1.0  -0.1226
  C  C148  1  0.980500  0.532300  0.114600  1.0  -0.1548
  C  C149  1  0.998100  0.629400  0.107100  1.0  0.0276
  C  C150  1  0.040800  0.650500  0.075400  1.0  -0.0617
  C  C151  1  0.055900  0.745000  0.067700  1.0  -0.1824
  C  C152  1  0.029400  0.824500  0.094000  1.0  -0.0462
  C  C153  1  0.987500  0.809400  0.126000  1.0  -0.1204
  C  C154  1  0.970200  0.710800  0.131600  1.0  0.0488
  C  C155  1  0.926300  0.690000  0.158400  1.0  -0.0502
  C  C156  1  0.100200  0.764400  0.026200  1.0  0.6967
  C  C157  1  0.295600  0.878200  0.758000  1.0  -0.1653
  C  C158  1  0.267600  0.946300  0.700900  1.0  -0.0038
  C  C159  1  0.287100  0.004300  0.634700  1.0  -0.1414
  C  C160  1  0.333700  0.993700  0.625100  1.0  -0.0601
  C  C161  1  0.360900  0.923000  0.677700  1.0  0.0056
  C  C162  1  0.340900  0.864600  0.746000  1.0  -0.0605
  C  C163  1  0.275000  0.820300  0.835900  1.0  0.7797
  C  C164  1  0.257100  0.077300  0.572600  1.0  0.7168
  C  C165  1  0.409200  0.904700  0.658400  1.0  -0.012
  C  C166  1  0.436800  0.982500  0.636500  1.0  -0.1235
  C  C167  1  0.480500  0.967700  0.614600  1.0  -0.153
  C  C168  1  0.498100  0.870600  0.607100  1.0  0.0275
  C  C169  1  0.540800  0.849500  0.575400  1.0  -0.0629
  C  C170  1  0.555900  0.755000  0.567700  1.0  -0.1821
  C  C171  1  0.529400  0.675500  0.594000  1.0  -0.0473
  C  C172  1  0.487500  0.690600  0.626000  1.0  -0.1211
  C  C173  1  0.470200  0.789200  0.631600  1.0  0.048
  C  C174  1  0.426300  0.810000  0.658400  1.0  -0.0488
  C  C175  1  0.600200  0.735600  0.526200  1.0  0.6965
  C  C176  1  0.795600  0.378200  0.758000  1.0  -0.1653
  C  C177  1  0.767600  0.446300  0.700900  1.0  -0.0038
  C  C178  1  0.787100  0.504300  0.634700  1.0  -0.1414
  C  C179  1  0.833700  0.493700  0.625100  1.0  -0.0601
  C  C180  1  0.860900  0.423000  0.677700  1.0  0.0056
  C  C181  1  0.840900  0.364600  0.746000  1.0  -0.0605
  C  C182  1  0.775000  0.320300  0.835900  1.0  0.7797
  C  C183  1  0.757100  0.577300  0.572600  1.0  0.7168
  C  C184  1  0.909200  0.404700  0.658400  1.0  -0.012
  C  C185  1  0.936800  0.482500  0.636500  1.0  -0.1235
  C  C186  1  0.980500  0.467700  0.614600  1.0  -0.153
  C  C187  1  0.998100  0.370600  0.607100  1.0  0.0275
  C  C188  1  0.040800  0.349500  0.575400  1.0  -0.0629
  C  C189  1  0.055900  0.255000  0.567700  1.0  -0.1821
  C  C190  1  0.029400  0.175500  0.594000  1.0  -0.0473
  C  C191  1  0.987500  0.190600  0.626000  1.0  -0.1211
  C  C192  1  0.970200  0.289200  0.631600  1.0  0.048
  C  C193  1  0.926300  0.310000  0.658400  1.0  -0.0488
  C  C194  1  0.100200  0.235600  0.526200  1.0  0.6965
  C  C195  1  0.704400  0.878200  0.742000  1.0  -0.1653
  C  C196  1  0.732400  0.946300  0.799100  1.0  -0.0024
  C  C197  1  0.712900  0.004300  0.865300  1.0  -0.1415
  C  C198  1  0.666300  0.993700  0.874900  1.0  -0.0622
  C  C199  1  0.639100  0.923000  0.822300  1.0  0.0054
  C  C200  1  0.659100  0.864600  0.754000  1.0  -0.0602
  C  C201  1  0.725000  0.820300  0.664100  1.0  0.7799
  C  C202  1  0.742900  0.077300  0.927400  1.0  0.7182
  C  C203  1  0.590800  0.904700  0.841600  1.0  -0.0125
  C  C204  1  0.563200  0.982500  0.863500  1.0  -0.1227
  C  C205  1  0.519500  0.967700  0.885400  1.0  -0.1526
  C  C206  1  0.501900  0.870600  0.892900  1.0  0.0277
  C  C207  1  0.459200  0.849500  0.924600  1.0  -0.0629
  C  C208  1  0.444100  0.755000  0.932300  1.0  -0.1812
  C  C209  1  0.470600  0.675500  0.906000  1.0  -0.0478
  C  C210  1  0.512500  0.690600  0.874000  1.0  -0.119
  C  C211  1  0.529800  0.789200  0.868400  1.0  0.0501
  C  C212  1  0.573700  0.810000  0.841600  1.0  -0.0492
  C  C213  1  0.399800  0.735600  0.973800  1.0  0.6959
  C  C214  1  0.204400  0.378200  0.742000  1.0  -0.1653
  C  C215  1  0.232400  0.446300  0.799100  1.0  -0.0024
  C  C216  1  0.212900  0.504300  0.865300  1.0  -0.1415
  C  C217  1  0.166300  0.493700  0.874900  1.0  -0.0622
  C  C218  1  0.139100  0.423000  0.822300  1.0  0.0054
  C  C219  1  0.159100  0.364600  0.754000  1.0  -0.0602
  C  C220  1  0.225000  0.320300  0.664100  1.0  0.7799
  C  C221  1  0.242900  0.577300  0.927400  1.0  0.7182
  C  C222  1  0.090800  0.404700  0.841600  1.0  -0.0125
  C  C223  1  0.063200  0.482500  0.863500  1.0  -0.1227
  C  C224  1  0.019500  0.467700  0.885400  1.0  -0.1526
  C  C225  1  0.001900  0.370600  0.892900  1.0  0.0277
  C  C226  1  0.959200  0.349500  0.924600  1.0  -0.0629
  C  C227  1  0.944100  0.255000  0.932300  1.0  -0.1812
  C  C228  1  0.970600  0.175500  0.906000  1.0  -0.0478
  C  C229  1  0.012500  0.190600  0.874000  1.0  -0.119
  C  C230  1  0.029800  0.289200  0.868400  1.0  0.0501
  C  C231  1  0.073700  0.310000  0.841600  1.0  -0.0492
  C  C232  1  0.899800  0.235600  0.973800  1.0  0.6959
  O  O233  1  0.700000  0.247800  0.121100  1.0  -0.7187
  O  O234  1  0.765200  0.156400  0.151600  1.0  -0.7589
  O  O235  1  0.785000  0.943900  0.450700  1.0  -0.6334
  O  O236  1  0.725400  0.845900  0.454600  1.0  -0.7953
  O  O237  1  0.383000  0.351300  0.467800  1.0  -0.6386
  O  O238  1  0.380600  0.195200  0.513100  1.0  -0.6512
  O  O239  1  0.200000  0.747800  0.121100  1.0  -0.7187
  O  O240  1  0.265200  0.656400  0.151600  1.0  -0.7589
  O  O241  1  0.285000  0.443900  0.450700  1.0  -0.6336
  O  O242  1  0.225400  0.345900  0.454600  1.0  -0.7953
  O  O243  1  0.883000  0.851300  0.467800  1.0  -0.6387
  O  O244  1  0.880600  0.695200  0.513100  1.0  -0.6512
  O  O245  1  0.300000  0.247800  0.378900  1.0  -0.7193
  O  O246  1  0.234800  0.156400  0.348400  1.0  -0.7604
  O  O247  1  0.215000  0.943900  0.049300  1.0  -0.6336
  O  O248  1  0.274600  0.845900  0.045400  1.0  -0.7942
  O  O249  1  0.617000  0.351300  0.032200  1.0  -0.6365
  O  O250  1  0.619400  0.195200  0.986900  1.0  -0.6528
  O  O251  1  0.800000  0.747800  0.378900  1.0  -0.7193
  O  O252  1  0.734800  0.656400  0.348400  1.0  -0.7604
  O  O253  1  0.715000  0.443900  0.049300  1.0  -0.6338
  O  O254  1  0.774600  0.345900  0.045400  1.0  -0.7942
  O  O255  1  0.117000  0.851300  0.032200  1.0  -0.6366
  O  O256  1  0.119400  0.695200  0.986900  1.0  -0.6528
  O  O257  1  0.300000  0.752200  0.878900  1.0  -0.7201
  O  O258  1  0.234800  0.843600  0.848400  1.0  -0.7606
  O  O259  1  0.215000  0.056100  0.549300  1.0  -0.631
  O  O260  1  0.274600  0.154100  0.545400  1.0  -0.7948
  O  O261  1  0.617000  0.648700  0.532200  1.0  -0.637
  O  O262  1  0.619400  0.804800  0.486900  1.0  -0.6529
  O  O263  1  0.800000  0.252200  0.878900  1.0  -0.7201
  O  O264  1  0.734800  0.343600  0.848400  1.0  -0.7606
  O  O265  1  0.715000  0.556100  0.549300  1.0  -0.6313
  O  O266  1  0.774600  0.654100  0.545400  1.0  -0.7948
  O  O267  1  0.117000  0.148700  0.532200  1.0  -0.637
  O  O268  1  0.119400  0.304800  0.486900  1.0  -0.6529
  O  O269  1  0.700000  0.752200  0.621100  1.0  -0.7188
  O  O270  1  0.765200  0.843600  0.651600  1.0  -0.7591
  O  O271  1  0.785000  0.056100  0.950700  1.0  -0.6324
  O  O272  1  0.725400  0.154100  0.954600  1.0  -0.7958
  O  O273  1  0.383000  0.648700  0.967800  1.0  -0.6408
  O  O274  1  0.380600  0.804800  0.013100  1.0  -0.6511
  O  O275  1  0.200000  0.252200  0.621100  1.0  -0.7188
  O  O276  1  0.265200  0.343600  0.651600  1.0  -0.7591
  O  O277  1  0.285000  0.556100  0.950700  1.0  -0.6328
  O  O278  1  0.225400  0.654100  0.954600  1.0  -0.7958
  O  O279  1  0.883000  0.148700  0.967800  1.0  -0.641
  O  O280  1  0.880600  0.304800  0.013100  1.0  -0.6511
