# generated using pymatgen
data_Zn2H7C12O7
_symmetry_space_group_name_H-M   'P 1'
_cell_length_a   14.50490000
_cell_length_b   17.16160000
_cell_length_c   18.13890000
_cell_angle_alpha   90.00000000
_cell_angle_beta   90.00000000
_cell_angle_gamma   90.00000000
_symmetry_Int_Tables_number   1
_chemical_formula_structural   Zn2H7C12O7
_chemical_formula_sum   'Zn16 H56 C96 O56'
_cell_volume   4515.26725396
_cell_formula_units_Z   8
loop_
 _symmetry_equiv_pos_site_id
 _symmetry_equiv_pos_as_xyz
  1  'x, y, z'
loop_
 _atom_site_type_symbol
 _atom_site_label
 _atom_site_symmetry_multiplicity
 _atom_site_fract_x
 _atom_site_fract_y
 _atom_site_fract_z
 _atom_site_occupancy
 _atom_site_charge
  Zn  Zn1  1  0.554790  0.938280  0.452250  1.0  1.2107
  Zn  Zn2  1  0.346700  0.946120  0.397560  1.0  1.0331
  Zn  Zn3  1  0.445210  0.438280  0.047750  1.0  1.2112
  Zn  Zn4  1  0.653300  0.446120  0.102440  1.0  1.0341
  Zn  Zn5  1  0.445210  0.061720  0.547750  1.0  1.211
  Zn  Zn6  1  0.653300  0.053880  0.602440  1.0  1.0342
  Zn  Zn7  1  0.554790  0.561720  0.952250  1.0  1.2115
  Zn  Zn8  1  0.346700  0.553880  0.897560  1.0  1.0332
  Zn  Zn9  1  0.945210  0.061720  0.952250  1.0  1.2111
  Zn  Zn10  1  0.153300  0.053880  0.897560  1.0  1.0337
  Zn  Zn11  1  0.054790  0.561720  0.547750  1.0  1.2116
  Zn  Zn12  1  0.846700  0.553880  0.602440  1.0  1.0339
  Zn  Zn13  1  0.054790  0.938280  0.047750  1.0  1.2107
  Zn  Zn14  1  0.846700  0.946120  0.102440  1.0  1.0338
  Zn  Zn15  1  0.945210  0.438280  0.452250  1.0  1.2111
  Zn  Zn16  1  0.153300  0.446120  0.397560  1.0  1.0336
  H  H17  1  0.078600  0.062300  0.406500  1.0  0.0956
  H  H18  1  0.063400  0.891200  0.555700  1.0  0.0903
  H  H19  1  0.338000  0.730800  0.265100  1.0  0.108
  H  H20  1  0.595100  0.723200  0.346300  1.0  0.1093
  H  H21  1  0.625100  0.614100  0.277000  1.0  0.1064
  H  H22  1  0.367100  0.621500  0.196200  1.0  0.1099
  H  H23  1  0.391000  0.938000  0.519000  1.0  0.4838
  H  H24  1  0.921400  0.562300  0.093500  1.0  0.0954
  H  H25  1  0.936600  0.391200  0.944300  1.0  0.0904
  H  H26  1  0.662000  0.230800  0.234900  1.0  0.1079
  H  H27  1  0.404900  0.223200  0.153700  1.0  0.11
  H  H28  1  0.374900  0.114100  0.223000  1.0  0.1061
  H  H29  1  0.632900  0.121500  0.303800  1.0  0.1102
  H  H30  1  0.609000  0.438000  0.981000  1.0  0.4831
  H  H31  1  0.921400  0.937700  0.593500  1.0  0.0956
  H  H32  1  0.936600  0.108800  0.444300  1.0  0.0905
  H  H33  1  0.662000  0.269200  0.734900  1.0  0.108
  H  H34  1  0.404900  0.276800  0.653700  1.0  0.1097
  H  H35  1  0.374900  0.385900  0.723000  1.0  0.1056
  H  H36  1  0.632900  0.378500  0.803800  1.0  0.1098
  H  H37  1  0.609000  0.062000  0.481000  1.0  0.484
  H  H38  1  0.078600  0.437700  0.906500  1.0  0.0956
  H  H39  1  0.063400  0.608800  0.055700  1.0  0.0903
  H  H40  1  0.338000  0.769200  0.765100  1.0  0.108
  H  H41  1  0.595100  0.776800  0.846300  1.0  0.1094
  H  H42  1  0.625100  0.885900  0.777000  1.0  0.1063
  H  H43  1  0.367100  0.878500  0.696200  1.0  0.1096
  H  H44  1  0.391000  0.562000  0.019000  1.0  0.4845
  H  H45  1  0.421400  0.937700  0.906500  1.0  0.0957
  H  H46  1  0.436600  0.108800  0.055700  1.0  0.0902
  H  H47  1  0.162000  0.269200  0.765100  1.0  0.1076
  H  H48  1  0.904900  0.276800  0.846300  1.0  0.1094
  H  H49  1  0.874900  0.385900  0.777000  1.0  0.1058
  H  H50  1  0.132900  0.378500  0.696200  1.0  0.1097
  H  H51  1  0.109000  0.062000  0.019000  1.0  0.4839
  H  H52  1  0.578600  0.437700  0.593500  1.0  0.0955
  H  H53  1  0.563400  0.608800  0.444300  1.0  0.0904
  H  H54  1  0.838000  0.769200  0.734900  1.0  0.1084
  H  H55  1  0.095100  0.776800  0.653700  1.0  0.1099
  H  H56  1  0.125100  0.885900  0.723000  1.0  0.1062
  H  H57  1  0.867100  0.878500  0.803800  1.0  0.1098
  H  H58  1  0.891000  0.562000  0.481000  1.0  0.4843
  H  H59  1  0.578600  0.062300  0.093500  1.0  0.0952
  H  H60  1  0.563400  0.891200  0.944300  1.0  0.0905
  H  H61  1  0.838000  0.730800  0.234900  1.0  0.1081
  H  H62  1  0.095100  0.723200  0.153700  1.0  0.1103
  H  H63  1  0.125100  0.614100  0.223000  1.0  0.1065
  H  H64  1  0.867100  0.621500  0.303800  1.0  0.1102
  H  H65  1  0.891000  0.938000  0.981000  1.0  0.4832
  H  H66  1  0.421400  0.562300  0.406500  1.0  0.0957
  H  H67  1  0.436600  0.391200  0.555700  1.0  0.0902
  H  H68  1  0.162000  0.230800  0.265100  1.0  0.1078
  H  H69  1  0.904900  0.223200  0.346300  1.0  0.1092
  H  H70  1  0.874900  0.114100  0.277000  1.0  0.106
  H  H71  1  0.132900  0.121500  0.196200  1.0  0.11
  H  H72  1  0.109000  0.438000  0.519000  1.0  0.4836
  C  C73  1  0.180700  0.944400  0.456500  1.0  0.6688
  C  C74  1  0.086800  0.972900  0.477900  1.0  -0.1219
  C  C75  1  0.047400  0.037200  0.444400  1.0  -0.0639
  C  C76  1  0.038400  0.935100  0.533400  1.0  -0.0645
  C  C77  1  0.447600  0.813500  0.355100  1.0  0.7279
  C  C78  1  0.463500  0.739800  0.311900  1.0  -0.1254
  C  C79  1  0.395900  0.707600  0.267200  1.0  -0.0508
  C  C80  1  0.549600  0.703100  0.315700  1.0  -0.0469
  C  C81  1  0.521300  0.539200  0.179100  1.0  0.7147
  C  C82  1  0.499800  0.606200  0.228600  1.0  -0.1378
  C  C83  1  0.567400  0.637600  0.274400  1.0  -0.0429
  C  C84  1  0.413200  0.642100  0.226000  1.0  -0.0549
  C  C85  1  0.819300  0.444400  0.043500  1.0  0.6691
  C  C86  1  0.913200  0.472900  0.022100  1.0  -0.1213
  C  C87  1  0.952600  0.537200  0.055600  1.0  -0.065
  C  C88  1  0.961600  0.435100  0.966600  1.0  -0.0637
  C  C89  1  0.552400  0.313500  0.144900  1.0  0.7281
  C  C90  1  0.536500  0.239800  0.188100  1.0  -0.1245
  C  C91  1  0.604100  0.207600  0.232800  1.0  -0.0499
  C  C92  1  0.450400  0.203100  0.184300  1.0  -0.0472
  C  C93  1  0.478700  0.039200  0.320900  1.0  0.7147
  C  C94  1  0.500200  0.106200  0.271400  1.0  -0.137
  C  C95  1  0.432600  0.137600  0.225600  1.0  -0.0433
  C  C96  1  0.586800  0.142100  0.274000  1.0  -0.0545
  C  C97  1  0.819300  0.055600  0.543500  1.0  0.6692
  C  C98  1  0.913200  0.027100  0.522100  1.0  -0.1211
  C  C99  1  0.952600  0.962800  0.555600  1.0  -0.0651
  C  C100  1  0.961600  0.064900  0.466600  1.0  -0.0605
  C  C101  1  0.552400  0.186500  0.644900  1.0  0.7283
  C  C102  1  0.536500  0.260200  0.688100  1.0  -0.1251
  C  C103  1  0.604100  0.292400  0.732800  1.0  -0.0493
  C  C104  1  0.450400  0.296900  0.684300  1.0  -0.0467
  C  C105  1  0.478700  0.460800  0.820900  1.0  0.7141
  C  C106  1  0.500200  0.393800  0.771400  1.0  -0.1375
  C  C107  1  0.432600  0.362400  0.725600  1.0  -0.0435
  C  C108  1  0.586800  0.357900  0.774000  1.0  -0.0546
  C  C109  1  0.180700  0.555600  0.956500  1.0  0.6695
  C  C110  1  0.086800  0.527100  0.977900  1.0  -0.1214
  C  C111  1  0.047400  0.462800  0.944400  1.0  -0.064
  C  C112  1  0.038400  0.564900  0.033400  1.0  -0.0615
  C  C113  1  0.447600  0.686500  0.855100  1.0  0.7279
  C  C114  1  0.463500  0.760200  0.811900  1.0  -0.1255
  C  C115  1  0.395900  0.792400  0.767200  1.0  -0.0494
  C  C116  1  0.549600  0.796900  0.815700  1.0  -0.0465
  C  C117  1  0.521300  0.960800  0.679100  1.0  0.7141
  C  C118  1  0.499800  0.893800  0.728600  1.0  -0.1369
  C  C119  1  0.567400  0.862400  0.774400  1.0  -0.0431
  C  C120  1  0.413200  0.857900  0.726000  1.0  -0.0559
  C  C121  1  0.319300  0.055600  0.956500  1.0  0.6691
  C  C122  1  0.413200  0.027100  0.977900  1.0  -0.1211
  C  C123  1  0.452600  0.962800  0.944400  1.0  -0.0645
  C  C124  1  0.461600  0.064900  0.033400  1.0  -0.0644
  C  C125  1  0.052400  0.186500  0.855100  1.0  0.7283
  C  C126  1  0.036500  0.260200  0.811900  1.0  -0.1251
  C  C127  1  0.104100  0.292400  0.767200  1.0  -0.05
  C  C128  1  0.950400  0.296900  0.815700  1.0  -0.0467
  C  C129  1  0.978700  0.460800  0.679100  1.0  0.7141
  C  C130  1  0.000200  0.393800  0.728600  1.0  -0.1376
  C  C131  1  0.932600  0.362400  0.774400  1.0  -0.0437
  C  C132  1  0.086800  0.357900  0.726000  1.0  -0.0556
  C  C133  1  0.680700  0.555600  0.543500  1.0  0.6696
  C  C134  1  0.586800  0.527100  0.522100  1.0  -0.1217
  C  C135  1  0.547400  0.462800  0.555600  1.0  -0.0642
  C  C136  1  0.538400  0.564900  0.466600  1.0  -0.065
  C  C137  1  0.947600  0.686500  0.644900  1.0  0.728
  C  C138  1  0.963500  0.760200  0.688100  1.0  -0.1256
  C  C139  1  0.895900  0.792400  0.732800  1.0  -0.0484
  C  C140  1  0.049600  0.796900  0.684300  1.0  -0.0466
  C  C141  1  0.021300  0.960800  0.820900  1.0  0.7141
  C  C142  1  0.999800  0.893800  0.771400  1.0  -0.137
  C  C143  1  0.067400  0.862400  0.725600  1.0  -0.0432
  C  C144  1  0.913200  0.857900  0.774000  1.0  -0.0557
  C  C145  1  0.680700  0.944400  0.043500  1.0  0.669
  C  C146  1  0.586800  0.972900  0.022100  1.0  -0.1219
  C  C147  1  0.547400  0.037200  0.055600  1.0  -0.0643
  C  C148  1  0.538400  0.935100  0.966600  1.0  -0.0607
  C  C149  1  0.947600  0.813500  0.144900  1.0  0.7278
  C  C150  1  0.963500  0.739800  0.188100  1.0  -0.1254
  C  C151  1  0.895900  0.707600  0.232800  1.0  -0.0498
  C  C152  1  0.049600  0.703100  0.184300  1.0  -0.0469
  C  C153  1  0.021300  0.539200  0.320900  1.0  0.7148
  C  C154  1  0.999800  0.606200  0.271400  1.0  -0.1365
  C  C155  1  0.067400  0.637600  0.225600  1.0  -0.0433
  C  C156  1  0.913200  0.642100  0.274000  1.0  -0.0554
  C  C157  1  0.319300  0.444400  0.456500  1.0  0.6689
  C  C158  1  0.413200  0.472900  0.477900  1.0  -0.1217
  C  C159  1  0.452600  0.537200  0.444400  1.0  -0.0641
  C  C160  1  0.461600  0.435100  0.533400  1.0  -0.0598
  C  C161  1  0.052400  0.313500  0.355100  1.0  0.7282
  C  C162  1  0.036500  0.239800  0.311900  1.0  -0.1246
  C  C163  1  0.104100  0.207600  0.267200  1.0  -0.0505
  C  C164  1  0.950400  0.203100  0.315700  1.0  -0.0474
  C  C165  1  0.978700  0.039200  0.179100  1.0  0.7146
  C  C166  1  0.000200  0.106200  0.228600  1.0  -0.1384
  C  C167  1  0.932600  0.137600  0.274400  1.0  -0.0434
  C  C168  1  0.086800  0.142100  0.226000  1.0  -0.0544
  O  O169  1  0.514500  0.841200  0.388700  1.0  -0.6654
  O  O170  1  0.366700  0.841740  0.353500  1.0  -0.58
  O  O171  1  0.218800  0.979500  0.402700  1.0  -0.6287
  O  O172  1  0.216800  0.890300  0.489200  1.0  -0.6099
  O  O173  1  0.457800  0.512740  0.139560  1.0  -0.6574
  O  O174  1  0.603100  0.514500  0.180110  1.0  -0.5842
  O  O175  1  0.418800  0.960850  0.487100  1.0  -1.028
  O  O176  1  0.485500  0.341200  0.111300  1.0  -0.6649
  O  O177  1  0.633300  0.341740  0.146500  1.0  -0.5802
  O  O178  1  0.781200  0.479500  0.097300  1.0  -0.6299
  O  O179  1  0.783200  0.390300  0.010800  1.0  -0.6103
  O  O180  1  0.542200  0.012740  0.360440  1.0  -0.6573
  O  O181  1  0.396900  0.014500  0.319890  1.0  -0.5853
  O  O182  1  0.581200  0.460850  0.012900  1.0  -1.0276
  O  O183  1  0.485500  0.158800  0.611300  1.0  -0.6653
  O  O184  1  0.633300  0.158260  0.646500  1.0  -0.5805
  O  O185  1  0.781200  0.020500  0.597300  1.0  -0.6294
  O  O186  1  0.783200  0.109700  0.510800  1.0  -0.6087
  O  O187  1  0.542200  0.487260  0.860440  1.0  -0.6581
  O  O188  1  0.396900  0.485500  0.819890  1.0  -0.5843
  O  O189  1  0.581200  0.039150  0.512900  1.0  -1.0275
  O  O190  1  0.514500  0.658800  0.888700  1.0  -0.6654
  O  O191  1  0.366700  0.658260  0.853500  1.0  -0.5804
  O  O192  1  0.218800  0.520500  0.902700  1.0  -0.628
  O  O193  1  0.216800  0.609700  0.989200  1.0  -0.6088
  O  O194  1  0.457800  0.987260  0.639560  1.0  -0.658
  O  O195  1  0.603100  0.985500  0.680110  1.0  -0.585
  O  O196  1  0.418800  0.539150  0.987100  1.0  -1.0279
  O  O197  1  0.985500  0.158800  0.888700  1.0  -0.6652
  O  O198  1  0.133300  0.158260  0.853500  1.0  -0.5808
  O  O199  1  0.281200  0.020500  0.902700  1.0  -0.6273
  O  O200  1  0.283200  0.109700  0.989200  1.0  -0.6077
  O  O201  1  0.042200  0.487260  0.639560  1.0  -0.6582
  O  O202  1  0.896900  0.485500  0.680110  1.0  -0.584
  O  O203  1  0.081200  0.039150  0.987100  1.0  -1.0273
  O  O204  1  0.014500  0.658800  0.611300  1.0  -0.6652
  O  O205  1  0.866700  0.658260  0.646500  1.0  -0.5802
  O  O206  1  0.718800  0.520500  0.597300  1.0  -0.6296
  O  O207  1  0.716800  0.609700  0.510800  1.0  -0.61
  O  O208  1  0.957800  0.987260  0.860440  1.0  -0.658
  O  O209  1  0.103100  0.985500  0.819890  1.0  -0.5852
  O  O210  1  0.918800  0.539150  0.512900  1.0  -1.0272
  O  O211  1  0.014500  0.841200  0.111300  1.0  -0.6652
  O  O212  1  0.866700  0.841740  0.146500  1.0  -0.5798
  O  O213  1  0.718800  0.979500  0.097300  1.0  -0.6301
  O  O214  1  0.716800  0.890300  0.010800  1.0  -0.6111
  O  O215  1  0.957800  0.512740  0.360440  1.0  -0.6575
  O  O216  1  0.103100  0.514500  0.319890  1.0  -0.5845
  O  O217  1  0.918800  0.960850  0.012900  1.0  -1.0277
  O  O218  1  0.985500  0.341200  0.388700  1.0  -0.665
  O  O219  1  0.133300  0.341740  0.353500  1.0  -0.5804
  O  O220  1  0.281200  0.479500  0.402700  1.0  -0.6281
  O  O221  1  0.283200  0.390300  0.489200  1.0  -0.6091
  O  O222  1  0.042200  0.012740  0.139560  1.0  -0.6574
  O  O223  1  0.896900  0.014500  0.180110  1.0  -0.5845
  O  O224  1  0.081200  0.460850  0.487100  1.0  -1.0272
