# generated using pymatgen
data_NaTbH24C28(NO2)4
_symmetry_space_group_name_H-M   'P 1'
_cell_length_a   9.89390000
_cell_length_b   18.46620000
_cell_length_c   18.52900000
_cell_angle_alpha   90.00000000
_cell_angle_beta   90.00000000
_cell_angle_gamma   90.00000000
_symmetry_Int_Tables_number   1
_chemical_formula_structural   NaTbH24C28(NO2)4
_chemical_formula_sum   'Na4 Tb4 H96 C112 N16 O32'
_cell_volume   3385.29899868
_cell_formula_units_Z   4
loop_
 _symmetry_equiv_pos_site_id
 _symmetry_equiv_pos_as_xyz
  1  'x, y, z'
loop_
 _atom_site_type_symbol
 _atom_site_label
 _atom_site_symmetry_multiplicity
 _atom_site_fract_x
 _atom_site_fract_y
 _atom_site_fract_z
 _atom_site_occupancy
 _atom_site_charge
  Na  Na1  1  0.097180  0.157290  0.916110  1.0  0.9557
  Na  Na2  1  0.597180  0.842710  0.083890  1.0  0.9594
  Na  Na3  1  0.097180  0.657290  0.583890  1.0  0.956
  Na  Na4  1  0.597180  0.342710  0.416110  1.0  0.959
  Tb  Tb5  1  0.801440  0.121010  0.230500  1.0  2.2303
  Tb  Tb6  1  0.301440  0.878990  0.769500  1.0  2.2303
  Tb  Tb7  1  0.801440  0.621010  0.269500  1.0  2.2302
  Tb  Tb8  1  0.301440  0.378990  0.730500  1.0  2.2304
  H  H9  1  0.020900  0.420600  0.130500  1.0  0.0878
  H  H10  1  0.958800  0.405500  0.249000  1.0  0.1
  H  H11  1  0.877300  0.295300  0.286200  1.0  0.0754
  H  H12  1  0.106800  0.311400  0.011000  1.0  0.1275
  H  H13  1  0.954300  0.308900  0.988100  1.0  0.1089
  H  H14  1  0.021100  0.382800  0.009600  1.0  0.1152
  H  H15  1  0.368700  0.976700  0.218700  1.0  0.0867
  H  H16  1  0.228500  0.963400  0.121700  1.0  0.1208
  H  H17  1  0.016100  0.016100  0.124800  1.0  0.078
  H  H18  1  0.323200  0.007700  0.378900  1.0  0.1161
  H  H19  1  0.431000  0.041200  0.326600  1.0  0.1116
  H  H20  1  0.325700  0.091500  0.365100  1.0  0.1102
  H  H21  1  0.608300  0.899300  0.460900  1.0  0.0942
  H  H22  1  0.708500  0.004600  0.498100  1.0  0.1087
  H  H23  1  0.784300  0.086700  0.412200  1.0  0.0807
  H  H24  1  0.616500  0.820300  0.299300  1.0  0.1007
  H  H25  1  0.542100  0.818000  0.374000  1.0  0.1087
  H  H26  1  0.474700  0.857200  0.308100  1.0  0.1189
  H  H27  1  0.215700  0.195200  0.133700  1.0  0.0845
  H  H28  1  0.351400  0.127500  0.058300  1.0  0.1091
  H  H29  1  0.566600  0.096600  0.096500  1.0  0.084
  H  H30  1  0.168500  0.252000  0.242100  1.0  0.1054
  H  H31  1  0.250900  0.226600  0.309800  1.0  0.1172
  H  H32  1  0.292500  0.297500  0.268800  1.0  0.1114
  H  H33  1  0.520900  0.579400  0.869500  1.0  0.0874
  H  H34  1  0.458800  0.594500  0.751000  1.0  0.1001
  H  H35  1  0.377300  0.704700  0.713800  1.0  0.0753
  H  H36  1  0.606800  0.688600  0.989000  1.0  0.1264
  H  H37  1  0.454300  0.691100  0.011900  1.0  0.1088
  H  H38  1  0.521100  0.617200  0.990400  1.0  0.1133
  H  H39  1  0.868700  0.023300  0.781300  1.0  0.0866
  H  H40  1  0.728500  0.036600  0.878300  1.0  0.1209
  H  H41  1  0.516100  0.983900  0.875200  1.0  0.0787
  H  H42  1  0.823200  0.992300  0.621100  1.0  0.115
  H  H43  1  0.931000  0.958800  0.673400  1.0  0.1113
  H  H44  1  0.825700  0.908500  0.634900  1.0  0.1097
  H  H45  1  0.108300  0.100700  0.539100  1.0  0.0948
  H  H46  1  0.208500  0.995400  0.501900  1.0  0.1082
  H  H47  1  0.284300  0.913300  0.587800  1.0  0.081
  H  H48  1  0.116500  0.179700  0.700700  1.0  0.101
  H  H49  1  0.042100  0.182000  0.626000  1.0  0.1083
  H  H50  1  0.974700  0.142800  0.691900  1.0  0.118
  H  H51  1  0.715700  0.804800  0.866300  1.0  0.085
  H  H52  1  0.851400  0.872500  0.941700  1.0  0.109
  H  H53  1  0.066600  0.903400  0.903500  1.0  0.0837
  H  H54  1  0.668500  0.748000  0.757900  1.0  0.1046
  H  H55  1  0.750900  0.773400  0.690200  1.0  0.1164
  H  H56  1  0.792500  0.702500  0.731200  1.0  0.1103
  H  H57  1  0.020900  0.920600  0.369500  1.0  0.0873
  H  H58  1  0.958800  0.905500  0.251000  1.0  0.1001
  H  H59  1  0.877300  0.795300  0.213800  1.0  0.0753
  H  H60  1  0.106800  0.811400  0.489000  1.0  0.1275
  H  H61  1  0.954300  0.808900  0.511900  1.0  0.1094
  H  H62  1  0.021100  0.882800  0.490400  1.0  0.1149
  H  H63  1  0.368700  0.476700  0.281300  1.0  0.087
  H  H64  1  0.228500  0.463400  0.378300  1.0  0.121
  H  H65  1  0.016100  0.516100  0.375200  1.0  0.0786
  H  H66  1  0.323200  0.507700  0.121100  1.0  0.1145
  H  H67  1  0.431000  0.541200  0.173400  1.0  0.1113
  H  H68  1  0.325700  0.591500  0.134900  1.0  0.1105
  H  H69  1  0.608300  0.399300  0.039100  1.0  0.0942
  H  H70  1  0.708500  0.504600  0.001900  1.0  0.1106
  H  H71  1  0.784300  0.586700  0.087800  1.0  0.0809
  H  H72  1  0.616500  0.320300  0.200700  1.0  0.1029
  H  H73  1  0.542100  0.318000  0.126000  1.0  0.1078
  H  H74  1  0.474700  0.357200  0.191900  1.0  0.1183
  H  H75  1  0.215700  0.695200  0.366300  1.0  0.0849
  H  H76  1  0.351400  0.627500  0.441700  1.0  0.109
  H  H77  1  0.566600  0.596600  0.403500  1.0  0.0841
  H  H78  1  0.168500  0.752000  0.257900  1.0  0.1046
  H  H79  1  0.250900  0.726600  0.190200  1.0  0.1163
  H  H80  1  0.292500  0.797500  0.231200  1.0  0.1118
  H  H81  1  0.520900  0.079400  0.630500  1.0  0.0874
  H  H82  1  0.458800  0.094500  0.749000  1.0  0.1007
  H  H83  1  0.377300  0.204700  0.786200  1.0  0.0753
  H  H84  1  0.606800  0.188600  0.511000  1.0  0.127
  H  H85  1  0.454300  0.191100  0.488100  1.0  0.1091
  H  H86  1  0.521100  0.117200  0.509600  1.0  0.113
  H  H87  1  0.868700  0.523300  0.718700  1.0  0.0869
  H  H88  1  0.728500  0.536600  0.621700  1.0  0.1209
  H  H89  1  0.516100  0.483900  0.624800  1.0  0.0781
  H  H90  1  0.823200  0.492300  0.878900  1.0  0.1153
  H  H91  1  0.931000  0.458800  0.826600  1.0  0.1116
  H  H92  1  0.825700  0.408500  0.865100  1.0  0.1103
  H  H93  1  0.108300  0.600700  0.960900  1.0  0.0944
  H  H94  1  0.208500  0.495400  0.998100  1.0  0.1106
  H  H95  1  0.284300  0.413300  0.912200  1.0  0.0808
  H  H96  1  0.116500  0.679700  0.799300  1.0  0.1022
  H  H97  1  0.042100  0.682000  0.874000  1.0  0.1083
  H  H98  1  0.974700  0.642800  0.808100  1.0  0.1188
  H  H99  1  0.715700  0.304800  0.633700  1.0  0.0843
  H  H100  1  0.851400  0.372500  0.558300  1.0  0.1097
  H  H101  1  0.066600  0.403400  0.596500  1.0  0.0843
  H  H102  1  0.668500  0.248000  0.742100  1.0  0.1053
  H  H103  1  0.750900  0.273400  0.809800  1.0  0.1175
  H  H104  1  0.792500  0.202500  0.768800  1.0  0.111
  C  C105  1  0.930200  0.253530  0.123930  1.0  0.0516
  C  C106  1  0.978600  0.319370  0.096940  1.0  0.0976
  C  C107  1  0.988400  0.375910  0.146000  1.0  -0.1032
  C  C108  1  0.951300  0.367320  0.216400  1.0  -0.1147
  C  C109  1  0.902800  0.301230  0.238260  1.0  0.142
  C  C110  1  0.918400  0.183990  0.080160  1.0  0.6512
  C  C111  1  0.018900  0.331800  0.019400  1.0  -0.3775
  C  C112  1  0.113600  0.065560  0.279450  1.0  0.0476
  C  C113  1  0.244200  0.035400  0.281590  1.0  0.0857
  C  C114  1  0.283000  0.997400  0.220110  1.0  -0.1465
  C  C115  1  0.200500  0.989370  0.162000  1.0  -0.1919
  C  C116  1  0.073300  0.021010  0.164340  1.0  0.155
  C  C117  1  0.052400  0.108930  0.340090  1.0  0.62
  C  C118  1  0.339600  0.044800  0.343600  1.0  -0.3766
  C  C119  1  0.676400  0.967390  0.304610  1.0  0.1083
  C  C120  1  0.626200  0.915780  0.353010  1.0  0.0943
  C  C121  1  0.640100  0.932060  0.426740  1.0  -0.1005
  C  C122  1  0.699100  0.994600  0.449170  1.0  -0.1512
  C  C123  1  0.745100  0.043360  0.397350  1.0  0.1546
  C  C124  1  0.672500  0.958700  0.223240  1.0  0.6282
  C  C125  1  0.558900  0.846700  0.331710  1.0  -0.3669
  C  C126  1  0.481600  0.187080  0.233570  1.0  0.1086
  C  C127  1  0.348800  0.205970  0.215260  1.0  0.0923
  C  C128  1  0.302700  0.183000  0.148280  1.0  -0.109
  C  C129  1  0.382900  0.142550  0.103100  1.0  -0.1434
  C  C130  1  0.512000  0.124860  0.126060  1.0  0.1542
  C  C131  1  0.552400  0.212720  0.302010  1.0  0.6226
  C  C132  1  0.256900  0.249400  0.263300  1.0  -0.3699
  C  C133  1  0.430200  0.746470  0.876070  1.0  0.0531
  C  C134  1  0.478600  0.680630  0.903060  1.0  0.0983
  C  C135  1  0.488400  0.624090  0.854000  1.0  -0.1025
  C  C136  1  0.451300  0.632680  0.783600  1.0  -0.1161
  C  C137  1  0.402800  0.698770  0.761740  1.0  0.1433
  C  C138  1  0.418400  0.816010  0.919840  1.0  0.6489
  C  C139  1  0.518900  0.668200  0.980600  1.0  -0.3774
  C  C140  1  0.613600  0.934440  0.720550  1.0  0.0471
  C  C141  1  0.744200  0.964600  0.718410  1.0  0.0855
  C  C142  1  0.783000  0.002600  0.779890  1.0  -0.1451
  C  C143  1  0.700500  0.010630  0.838000  1.0  -0.1898
  C  C144  1  0.573300  0.978990  0.835660  1.0  0.1531
  C  C145  1  0.552400  0.891070  0.659910  1.0  0.6211
  C  C146  1  0.839600  0.955200  0.656400  1.0  -0.3754
  C  C147  1  0.176400  0.032610  0.695390  1.0  0.1073
  C  C148  1  0.126200  0.084220  0.646990  1.0  0.095
  C  C149  1  0.140100  0.067940  0.573260  1.0  -0.1025
  C  C150  1  0.199100  0.005400  0.550830  1.0  -0.1512
  C  C151  1  0.245100  0.956640  0.602650  1.0  0.1543
  C  C152  1  0.172500  0.041300  0.776760  1.0  0.6279
  C  C153  1  0.058900  0.153300  0.668290  1.0  -0.3671
  C  C154  1  0.981600  0.812920  0.766430  1.0  0.1089
  C  C155  1  0.848800  0.794030  0.784740  1.0  0.093
  C  C156  1  0.802700  0.817000  0.851720  1.0  -0.1086
  C  C157  1  0.882900  0.857450  0.896900  1.0  -0.1418
  C  C158  1  0.012000  0.875140  0.873940  1.0  0.1546
  C  C159  1  0.052400  0.787280  0.697990  1.0  0.6222
  C  C160  1  0.756900  0.750600  0.736700  1.0  -0.3689
  C  C161  1  0.930200  0.753530  0.376070  1.0  0.0528
  C  C162  1  0.978600  0.819370  0.403060  1.0  0.0983
  C  C163  1  0.988400  0.875910  0.354000  1.0  -0.1031
  C  C164  1  0.951300  0.867320  0.283600  1.0  -0.116
  C  C165  1  0.902800  0.801230  0.261740  1.0  0.1428
  C  C166  1  0.918400  0.683990  0.419840  1.0  0.6495
  C  C167  1  0.018900  0.831800  0.480600  1.0  -0.3769
  C  C168  1  0.113600  0.565560  0.220550  1.0  0.0474
  C  C169  1  0.244200  0.535400  0.218410  1.0  0.0854
  C  C170  1  0.283000  0.497400  0.279890  1.0  -0.1457
  C  C171  1  0.200500  0.489370  0.338000  1.0  -0.1904
  C  C172  1  0.073300  0.521010  0.335660  1.0  0.1529
  C  C173  1  0.052400  0.608930  0.159910  1.0  0.6217
  C  C174  1  0.339600  0.544800  0.156400  1.0  -0.3755
  C  C175  1  0.676400  0.467390  0.195390  1.0  0.1075
  C  C176  1  0.626200  0.415780  0.146990  1.0  0.0946
  C  C177  1  0.640100  0.432060  0.073260  1.0  -0.102
  C  C178  1  0.699100  0.494600  0.050830  1.0  -0.1513
  C  C179  1  0.745100  0.543360  0.102650  1.0  0.1546
  C  C180  1  0.672500  0.458700  0.276760  1.0  0.6281
  C  C181  1  0.558900  0.346700  0.168290  1.0  -0.3672
  C  C182  1  0.481600  0.687080  0.266430  1.0  0.1089
  C  C183  1  0.348800  0.705970  0.284740  1.0  0.0925
  C  C184  1  0.302700  0.683000  0.351720  1.0  -0.1088
  C  C185  1  0.382900  0.642550  0.396900  1.0  -0.1411
  C  C186  1  0.512000  0.624860  0.373940  1.0  0.1551
  C  C187  1  0.552400  0.712720  0.197990  1.0  0.622
  C  C188  1  0.256900  0.749400  0.236700  1.0  -0.369
  C  C189  1  0.430200  0.246470  0.623930  1.0  0.0524
  C  C190  1  0.478600  0.180630  0.596940  1.0  0.0976
  C  C191  1  0.488400  0.124090  0.646000  1.0  -0.1028
  C  C192  1  0.451300  0.132680  0.716400  1.0  -0.1155
  C  C193  1  0.402800  0.198770  0.738260  1.0  0.1421
  C  C194  1  0.418400  0.316010  0.580160  1.0  0.6507
  C  C195  1  0.518900  0.168200  0.519400  1.0  -0.3776
  C  C196  1  0.613600  0.434440  0.779450  1.0  0.0474
  C  C197  1  0.744200  0.464600  0.781590  1.0  0.0857
  C  C198  1  0.783000  0.502600  0.720110  1.0  -0.1452
  C  C199  1  0.700500  0.510630  0.662000  1.0  -0.1915
  C  C200  1  0.573300  0.478990  0.664340  1.0  0.1553
  C  C201  1  0.552400  0.391070  0.840090  1.0  0.6208
  C  C202  1  0.839600  0.455200  0.843600  1.0  -0.3766
  C  C203  1  0.176400  0.532610  0.804610  1.0  0.1084
  C  C204  1  0.126200  0.584220  0.853010  1.0  0.0945
  C  C205  1  0.140100  0.567940  0.926740  1.0  -0.1013
  C  C206  1  0.199100  0.505400  0.949170  1.0  -0.151
  C  C207  1  0.245100  0.456640  0.897350  1.0  0.155
  C  C208  1  0.172500  0.541300  0.723240  1.0  0.6278
  C  C209  1  0.058900  0.653300  0.831710  1.0  -0.3663
  C  C210  1  0.981600  0.312920  0.733570  1.0  0.1087
  C  C211  1  0.848800  0.294030  0.715260  1.0  0.0928
  C  C212  1  0.802700  0.317000  0.648280  1.0  -0.1089
  C  C213  1  0.882900  0.357450  0.603100  1.0  -0.144
  C  C214  1  0.012000  0.375140  0.626060  1.0  0.1537
  C  C215  1  0.052400  0.287280  0.802010  1.0  0.6226
  C  C216  1  0.756900  0.250600  0.763300  1.0  -0.3698
  N  N217  1  0.891000  0.245160  0.193260  1.0  -0.4285
  N  N218  1  0.030700  0.058210  0.221570  1.0  -0.4381
  N  N219  1  0.734300  0.029380  0.326450  1.0  -0.4347
  N  N220  1  0.560100  0.147430  0.189750  1.0  -0.4269
  N  N221  1  0.391000  0.754840  0.806740  1.0  -0.4299
  N  N222  1  0.530700  0.941790  0.778430  1.0  -0.4388
  N  N223  1  0.234300  0.970620  0.673550  1.0  -0.4312
  N  N224  1  0.060100  0.852570  0.810250  1.0  -0.4292
  N  N225  1  0.891000  0.745160  0.306740  1.0  -0.4285
  N  N226  1  0.030700  0.558210  0.278430  1.0  -0.4385
  N  N227  1  0.734300  0.529380  0.173550  1.0  -0.4342
  N  N228  1  0.560100  0.647430  0.310250  1.0  -0.4273
  N  N229  1  0.391000  0.254840  0.693260  1.0  -0.4297
  N  N230  1  0.530700  0.441790  0.721570  1.0  -0.4381
  N  N231  1  0.234300  0.470620  0.826450  1.0  -0.4312
  N  N232  1  0.060100  0.352570  0.689750  1.0  -0.4287
  O  O233  1  0.848400  0.133480  0.108710  1.0  -0.6533
  O  O234  1  0.975900  0.179330  0.021290  1.0  -0.6897
  O  O235  1  0.948500  0.146550  0.323380  1.0  -0.6437
  O  O236  1  0.101200  0.105380  0.400790  1.0  -0.5739
  O  O237  1  0.731900  0.008840  0.187130  1.0  -0.6679
  O  O238  1  0.615400  0.906350  0.195800  1.0  -0.6832
  O  O239  1  0.675700  0.191880  0.307380  1.0  -0.6603
  O  O240  1  0.493700  0.250330  0.346230  1.0  -0.613
  O  O241  1  0.348400  0.866520  0.891290  1.0  -0.6512
  O  O242  1  0.475900  0.820670  0.978710  1.0  -0.6907
  O  O243  1  0.448500  0.853450  0.676620  1.0  -0.6454
  O  O244  1  0.601200  0.894620  0.599210  1.0  -0.5729
  O  O245  1  0.231900  0.991160  0.812870  1.0  -0.6705
  O  O246  1  0.115400  0.093650  0.804200  1.0  -0.683
  O  O247  1  0.175700  0.808120  0.692620  1.0  -0.6603
  O  O248  1  0.993700  0.749670  0.653770  1.0  -0.6117
  O  O249  1  0.848400  0.633480  0.391290  1.0  -0.6511
  O  O250  1  0.975900  0.679330  0.478710  1.0  -0.6914
  O  O251  1  0.948500  0.646550  0.176620  1.0  -0.6437
  O  O252  1  0.101200  0.605380  0.099210  1.0  -0.5728
  O  O253  1  0.731900  0.508840  0.312870  1.0  -0.6695
  O  O254  1  0.615400  0.406350  0.304200  1.0  -0.6836
  O  O255  1  0.675700  0.691880  0.192620  1.0  -0.6604
  O  O256  1  0.493700  0.750330  0.153770  1.0  -0.6117
  O  O257  1  0.348400  0.366520  0.608710  1.0  -0.6507
  O  O258  1  0.475900  0.320670  0.521290  1.0  -0.6906
  O  O259  1  0.448500  0.353450  0.823380  1.0  -0.6447
  O  O260  1  0.601200  0.394620  0.900790  1.0  -0.574
  O  O261  1  0.231900  0.491160  0.687130  1.0  -0.6697
  O  O262  1  0.115400  0.593650  0.695800  1.0  -0.6833
  O  O263  1  0.175700  0.308120  0.807380  1.0  -0.6606
  O  O264  1  0.993700  0.249670  0.846230  1.0  -0.6128
