# generated using pymatgen
data_BaH16(C9O2)3
_symmetry_space_group_name_H-M   'P 1'
_cell_length_a   7.31620000
_cell_length_b   19.40400000
_cell_length_c   26.15500000
_cell_angle_alpha   90.00000000
_cell_angle_beta   90.00000000
_cell_angle_gamma   90.00000000
_symmetry_Int_Tables_number   1
_chemical_formula_structural   BaH16(C9O2)3
_chemical_formula_sum   'Ba4 H64 C108 O24'
_cell_volume   3713.05651424
_cell_formula_units_Z   4
loop_
 _symmetry_equiv_pos_site_id
 _symmetry_equiv_pos_as_xyz
  1  'x, y, z'
loop_
 _atom_site_type_symbol
 _atom_site_label
 _atom_site_symmetry_multiplicity
 _atom_site_fract_x
 _atom_site_fract_y
 _atom_site_fract_z
 _atom_site_occupancy
 _atom_site_charge
  Ba  Ba1  1  0.398290  0.693740  0.992980  1.0  1.6213
  Ba  Ba2  1  0.601710  0.306260  0.492980  1.0  1.621
  Ba  Ba3  1  0.898290  0.806260  0.992980  1.0  1.6217
  Ba  Ba4  1  0.101710  0.193740  0.492980  1.0  1.6207
  H  H5  1  0.131800  0.125100  0.028000  1.0  0.1089
  H  H6  1  0.129200  0.227600  0.981800  1.0  0.1075
  H  H7  1  0.979800  0.318400  0.941900  1.0  0.1019
  H  H8  1  0.270900  0.409500  0.750400  1.0  0.1008
  H  H9  1  0.069700  0.218400  0.729700  1.0  0.0987
  H  H10  1  0.030000  0.413400  0.805500  1.0  0.1104
  H  H11  1  0.371600  0.413000  0.667800  1.0  0.111
  H  H12  1  0.130700  0.210000  0.817500  1.0  0.1051
  H  H13  1  0.167800  0.221100  0.644400  1.0  0.0871
  H  H14  1  0.027400  0.976300  0.064200  1.0  0.4469
  H  H15  1  0.933600  0.127500  0.858700  1.0  0.1074
  H  H16  1  0.796600  0.479300  0.844400  1.0  0.1071
  H  H17  1  0.088800  0.428700  0.968300  1.0  0.109
  H  H18  1  0.750200  0.589600  0.878000  1.0  0.1068
  H  H19  1  0.923800  0.027300  0.905300  1.0  0.101
  H  H20  1  0.058200  0.537500  0.000000  1.0  0.1113
  H  H21  1  0.868200  0.874900  0.528000  1.0  0.109
  H  H22  1  0.870800  0.772400  0.481800  1.0  0.1071
  H  H23  1  0.020200  0.681600  0.441900  1.0  0.1018
  H  H24  1  0.729100  0.590500  0.250400  1.0  0.1007
  H  H25  1  0.930300  0.781600  0.229700  1.0  0.0986
  H  H26  1  0.970000  0.586600  0.305500  1.0  0.1103
  H  H27  1  0.628400  0.587000  0.167800  1.0  0.1113
  H  H28  1  0.869300  0.790000  0.317500  1.0  0.1049
  H  H29  1  0.832200  0.778900  0.144400  1.0  0.0871
  H  H30  1  0.972600  0.023700  0.564200  1.0  0.4458
  H  H31  1  0.066400  0.872500  0.358700  1.0  0.1077
  H  H32  1  0.203400  0.520700  0.344400  1.0  0.107
  H  H33  1  0.911200  0.571300  0.468300  1.0  0.109
  H  H34  1  0.249800  0.410400  0.378000  1.0  0.1064
  H  H35  1  0.076200  0.972700  0.405300  1.0  0.1005
  H  H36  1  0.941800  0.462500  0.500000  1.0  0.1118
  H  H37  1  0.631800  0.374900  0.028000  1.0  0.1093
  H  H38  1  0.629200  0.272400  0.981800  1.0  0.1076
  H  H39  1  0.479800  0.181600  0.941900  1.0  0.1021
  H  H40  1  0.770900  0.090500  0.750400  1.0  0.1009
  H  H41  1  0.569700  0.281600  0.729700  1.0  0.0989
  H  H42  1  0.530000  0.086600  0.805500  1.0  0.1107
  H  H43  1  0.871600  0.087000  0.667800  1.0  0.1115
  H  H44  1  0.630700  0.290000  0.817500  1.0  0.1048
  H  H45  1  0.667800  0.278900  0.644400  1.0  0.0871
  H  H46  1  0.527400  0.523700  0.064200  1.0  0.4456
  H  H47  1  0.433600  0.372500  0.858700  1.0  0.1077
  H  H48  1  0.296600  0.020700  0.844400  1.0  0.1069
  H  H49  1  0.588800  0.071300  0.968300  1.0  0.109
  H  H50  1  0.250200  0.910400  0.878000  1.0  0.1064
  H  H51  1  0.423800  0.472700  0.905300  1.0  0.1005
  H  H52  1  0.558200  0.962500  0.000000  1.0  0.1114
  H  H53  1  0.368200  0.625100  0.528000  1.0  0.1086
  H  H54  1  0.370800  0.727600  0.481800  1.0  0.1072
  H  H55  1  0.520200  0.818400  0.441900  1.0  0.1017
  H  H56  1  0.229100  0.909500  0.250400  1.0  0.1007
  H  H57  1  0.430300  0.718400  0.229700  1.0  0.0984
  H  H58  1  0.470000  0.913400  0.305500  1.0  0.1099
  H  H59  1  0.128400  0.913000  0.167800  1.0  0.1112
  H  H60  1  0.369300  0.710000  0.317500  1.0  0.105
  H  H61  1  0.332200  0.721100  0.144400  1.0  0.0871
  H  H62  1  0.472600  0.476300  0.564200  1.0  0.4449
  H  H63  1  0.566400  0.627500  0.358700  1.0  0.1075
  H  H64  1  0.703400  0.979300  0.344400  1.0  0.1075
  H  H65  1  0.411200  0.928700  0.468300  1.0  0.1091
  H  H66  1  0.749800  0.089600  0.378000  1.0  0.1066
  H  H67  1  0.576200  0.527300  0.405300  1.0  0.1011
  H  H68  1  0.441800  0.037500  0.500000  1.0  0.1117
  C  C69  1  0.097900  0.311600  0.803800  1.0  0.0455
  C  C70  1  0.089700  0.125500  0.994000  1.0  -0.0336
  C  C71  1  0.092100  0.186600  0.965600  1.0  -0.1424
  C  C72  1  0.157900  0.313000  0.748800  1.0  0.0388
  C  C73  1  0.267700  0.316000  0.645700  1.0  -0.1462
  C  C74  1  0.004800  0.316600  0.906600  1.0  -0.1592
  C  C75  1  0.249600  0.371600  0.728800  1.0  -0.1541
  C  C76  1  0.128700  0.257900  0.717000  1.0  -0.1288
  C  C77  1  0.039800  0.373500  0.825600  1.0  -0.141
  C  C78  1  0.995700  0.375700  0.878200  1.0  0.041
  C  C79  1  0.307300  0.374400  0.679900  1.0  -0.0499
  C  C80  1  0.098000  0.252100  0.832800  1.0  -0.1412
  C  C81  1  0.050900  0.253200  0.883900  1.0  0.0417
  C  C82  1  0.041200  0.189100  0.914000  1.0  0.071
  C  C83  1  0.186600  0.259900  0.665300  1.0  -0.0201
  C  C84  1  0.335400  0.318100  0.591200  1.0  0.7167
  C  C85  1  0.013800  0.999600  0.998700  1.0  0.6917
  C  C86  1  0.024700  0.065600  0.971600  1.0  -0.1955
  C  C87  1  0.951600  0.444400  0.901500  1.0  0.0556
  C  C88  1  0.974600  0.127700  0.892800  1.0  -0.1304
  C  C89  1  0.849600  0.491300  0.875900  1.0  -0.1592
  C  C90  1  0.024600  0.461900  0.949300  1.0  -0.133
  C  C91  1  0.822200  0.557500  0.895800  1.0  -0.0526
  C  C92  1  0.967800  0.067800  0.920800  1.0  -0.0219
  C  C93  1  0.003600  0.526100  0.968600  1.0  -0.0441
  C  C94  1  0.902200  0.575700  0.942400  1.0  -0.147
  C  C95  1  0.890800  0.649700  0.960800  1.0  0.7343
  C  C96  1  0.902100  0.688400  0.303800  1.0  0.0448
  C  C97  1  0.910300  0.874500  0.494000  1.0  -0.0346
  C  C98  1  0.907900  0.813400  0.465600  1.0  -0.1419
  C  C99  1  0.842100  0.687000  0.248800  1.0  0.0381
  C  C100  1  0.732300  0.684000  0.145700  1.0  -0.1485
  C  C101  1  0.995200  0.683400  0.406600  1.0  -0.1564
  C  C102  1  0.750400  0.628400  0.228800  1.0  -0.1561
  C  C103  1  0.871300  0.742100  0.217000  1.0  -0.1288
  C  C104  1  0.960200  0.626500  0.325600  1.0  -0.1466
  C  C105  1  0.004300  0.624300  0.378200  1.0  0.041
  C  C106  1  0.692700  0.625600  0.179900  1.0  -0.0459
  C  C107  1  0.902000  0.747900  0.332800  1.0  -0.1424
  C  C108  1  0.949100  0.746800  0.383900  1.0  0.0417
  C  C109  1  0.958800  0.810900  0.414000  1.0  0.0713
  C  C110  1  0.813400  0.740100  0.165300  1.0  -0.0196
  C  C111  1  0.664600  0.681900  0.091200  1.0  0.7169
  C  C112  1  0.986200  0.000400  0.498700  1.0  0.6922
  C  C113  1  0.975300  0.934400  0.471600  1.0  -0.1957
  C  C114  1  0.048400  0.555600  0.401500  1.0  0.0561
  C  C115  1  0.025400  0.872300  0.392800  1.0  -0.1299
  C  C116  1  0.150400  0.508700  0.375900  1.0  -0.1604
  C  C117  1  0.975400  0.538100  0.449300  1.0  -0.133
  C  C118  1  0.177800  0.442500  0.395800  1.0  -0.0528
  C  C119  1  0.032200  0.932200  0.420800  1.0  -0.0208
  C  C120  1  0.996400  0.473900  0.468600  1.0  -0.0434
  C  C121  1  0.097800  0.424300  0.442400  1.0  -0.1472
  C  C122  1  0.109200  0.350300  0.460800  1.0  0.7344
  C  C123  1  0.597900  0.188400  0.803800  1.0  0.0447
  C  C124  1  0.589700  0.374500  0.994000  1.0  -0.0336
  C  C125  1  0.592100  0.313400  0.965600  1.0  -0.1406
  C  C126  1  0.657900  0.187000  0.748800  1.0  0.0384
  C  C127  1  0.767700  0.184000  0.645700  1.0  -0.1476
  C  C128  1  0.504800  0.183400  0.906600  1.0  -0.1593
  C  C129  1  0.749600  0.128400  0.728800  1.0  -0.1555
  C  C130  1  0.628700  0.242100  0.717000  1.0  -0.1284
  C  C131  1  0.539800  0.126500  0.825600  1.0  -0.1463
  C  C132  1  0.495700  0.124300  0.878200  1.0  0.041
  C  C133  1  0.807300  0.125600  0.679900  1.0  -0.0461
  C  C134  1  0.598000  0.247900  0.832800  1.0  -0.1419
  C  C135  1  0.550900  0.246800  0.883900  1.0  0.0418
  C  C136  1  0.541200  0.310900  0.914000  1.0  0.0711
  C  C137  1  0.686600  0.240100  0.665300  1.0  -0.0196
  C  C138  1  0.835400  0.181900  0.591200  1.0  0.7169
  C  C139  1  0.513800  0.500400  0.998700  1.0  0.6912
  C  C140  1  0.524700  0.434400  0.971600  1.0  -0.1971
  C  C141  1  0.451600  0.055600  0.901500  1.0  0.0562
  C  C142  1  0.474600  0.372300  0.892800  1.0  -0.1306
  C  C143  1  0.349600  0.008700  0.875900  1.0  -0.1607
  C  C144  1  0.524600  0.038100  0.949300  1.0  -0.1325
  C  C145  1  0.322200  0.942500  0.895800  1.0  -0.0513
  C  C146  1  0.467800  0.432200  0.920800  1.0  -0.0208
  C  C147  1  0.503600  0.973900  0.968600  1.0  -0.0439
  C  C148  1  0.402200  0.924300  0.942400  1.0  -0.1475
  C  C149  1  0.390800  0.850300  0.960800  1.0  0.7344
  C  C150  1  0.402100  0.811600  0.303800  1.0  0.0458
  C  C151  1  0.410300  0.625500  0.494000  1.0  -0.0348
  C  C152  1  0.407900  0.686600  0.465600  1.0  -0.1438
  C  C153  1  0.342100  0.813000  0.248800  1.0  0.0383
  C  C154  1  0.232300  0.816000  0.145700  1.0  -0.1471
  C  C155  1  0.495200  0.816600  0.406600  1.0  -0.1564
  C  C156  1  0.250400  0.871600  0.228800  1.0  -0.1555
  C  C157  1  0.371300  0.757900  0.217000  1.0  -0.1291
  C  C158  1  0.460200  0.873500  0.325600  1.0  -0.1417
  C  C159  1  0.504300  0.875700  0.378200  1.0  0.041
  C  C160  1  0.192700  0.874400  0.179900  1.0  -0.0499
  C  C161  1  0.402000  0.752100  0.332800  1.0  -0.1417
  C  C162  1  0.449100  0.753200  0.383900  1.0  0.0416
  C  C163  1  0.458800  0.689100  0.414000  1.0  0.0712
  C  C164  1  0.313400  0.759900  0.165300  1.0  -0.0202
  C  C165  1  0.164600  0.818100  0.091200  1.0  0.7166
  C  C166  1  0.486200  0.499600  0.498700  1.0  0.6924
  C  C167  1  0.475300  0.565600  0.471600  1.0  -0.1941
  C  C168  1  0.548400  0.944400  0.401500  1.0  0.0553
  C  C169  1  0.525400  0.627700  0.392800  1.0  -0.1297
  C  C170  1  0.650400  0.991300  0.375900  1.0  -0.1588
  C  C171  1  0.475400  0.961900  0.449300  1.0  -0.1336
  C  C172  1  0.677800  0.057500  0.395800  1.0  -0.0518
  C  C173  1  0.532200  0.567800  0.420800  1.0  -0.0216
  C  C174  1  0.496400  0.026100  0.468600  1.0  -0.0441
  C  C175  1  0.597800  0.075700  0.442400  1.0  -0.147
  C  C176  1  0.609200  0.149700  0.460800  1.0  0.7342
  O  O177  1  0.749700  0.683100  0.951700  1.0  -0.7474
  O  O178  1  0.026800  0.671700  0.985700  1.0  -0.7471
  O  O179  1  0.939100  0.948100  0.980100  1.0  -0.6101
  O  O180  1  0.429200  0.370400  0.577100  1.0  -0.7184
  O  O181  1  0.306900  0.266800  0.563870  1.0  -0.7001
  O  O182  1  0.092600  0.998200  0.043900  1.0  -0.5513
  O  O183  1  0.250300  0.316900  0.451700  1.0  -0.7479
  O  O184  1  0.973200  0.328300  0.485700  1.0  -0.7464
  O  O185  1  0.060900  0.051900  0.480100  1.0  -0.61
  O  O186  1  0.570800  0.629600  0.077100  1.0  -0.7184
  O  O187  1  0.693100  0.733200  0.063870  1.0  -0.6997
  O  O188  1  0.907400  0.001800  0.543900  1.0  -0.5511
  O  O189  1  0.249700  0.816900  0.951700  1.0  -0.7481
  O  O190  1  0.526800  0.828300  0.985700  1.0  -0.749
  O  O191  1  0.439100  0.551900  0.980100  1.0  -0.6097
  O  O192  1  0.929200  0.129600  0.577100  1.0  -0.7192
  O  O193  1  0.806900  0.233200  0.563870  1.0  -0.6993
  O  O194  1  0.592600  0.501800  0.043900  1.0  -0.5508
  O  O195  1  0.750300  0.183100  0.451700  1.0  -0.7474
  O  O196  1  0.473200  0.171700  0.485700  1.0  -0.7496
  O  O197  1  0.560900  0.448100  0.480100  1.0  -0.6104
  O  O198  1  0.070800  0.870400  0.077100  1.0  -0.7174
  O  O199  1  0.193100  0.766800  0.063870  1.0  -0.7005
  O  O200  1  0.407400  0.498200  0.543900  1.0  -0.5505
