# generated using pymatgen
data_U3H9C27O19
_symmetry_space_group_name_H-M   'P 1'
_cell_length_a   9.77360000
_cell_length_b   18.35390000
_cell_length_c   18.35390000
_cell_angle_alpha   120.00000000
_cell_angle_beta   90.00000000
_cell_angle_gamma   90.00000000
_symmetry_Int_Tables_number   1
_chemical_formula_structural   U3H9C27O19
_chemical_formula_sum   'U6 H18 C54 O38'
_cell_volume   2851.29343981
_cell_formula_units_Z   2
loop_
 _symmetry_equiv_pos_site_id
 _symmetry_equiv_pos_as_xyz
  1  'x, y, z'
loop_
 _atom_site_type_symbol
 _atom_site_label
 _atom_site_symmetry_multiplicity
 _atom_site_fract_x
 _atom_site_fract_y
 _atom_site_fract_z
 _atom_site_occupancy
 _atom_site_charge
  U  U1  1  0.750000  0.642920  0.440950  1.0  2.4499
  U  U2  1  0.750000  0.798030  0.357080  1.0  2.4499
  U  U3  1  0.750000  0.559050  0.201970  1.0  2.4511
  U  U4  1  0.250000  0.357080  0.559050  1.0  2.4488
  U  U5  1  0.250000  0.201970  0.642920  1.0  2.4512
  U  U6  1  0.250000  0.440950  0.798030  1.0  2.4525
  H  H7  1  0.041500  0.915900  0.515500  1.0  0.1202
  H  H8  1  0.041500  0.599600  0.084100  1.0  0.1216
  H  H9  1  0.041500  0.484500  0.400400  1.0  0.1194
  H  H10  1  0.541500  0.084100  0.484500  1.0  0.1198
  H  H11  1  0.541500  0.400400  0.915900  1.0  0.1214
  H  H12  1  0.541500  0.515500  0.599600  1.0  0.1192
  H  H13  1  0.958500  0.084100  0.484500  1.0  0.12
  H  H14  1  0.958500  0.400400  0.915900  1.0  0.1218
  H  H15  1  0.958500  0.515500  0.599600  1.0  0.1194
  H  H16  1  0.458500  0.915900  0.515500  1.0  0.1202
  H  H17  1  0.458500  0.599600  0.084100  1.0  0.1216
  H  H18  1  0.458500  0.484500  0.400400  1.0  0.1193
  H  H19  1  0.250000  0.707000  0.463300  1.0  0.1127
  H  H20  1  0.250000  0.756300  0.293000  1.0  0.1108
  H  H21  1  0.250000  0.536700  0.243700  1.0  0.1127
  H  H22  1  0.750000  0.293000  0.536700  1.0  0.1124
  H  H23  1  0.750000  0.243700  0.707000  1.0  0.111
  H  H24  1  0.750000  0.463300  0.756300  1.0  0.1122
  C  C25  1  0.127000  0.804700  0.487100  1.0  -0.1716
  C  C26  1  0.124300  0.888900  0.510700  1.0  0.0406
  C  C27  1  0.993600  0.760200  0.471900  1.0  0.7166
  C  C28  1  0.127000  0.682400  0.195300  1.0  -0.17
  C  C29  1  0.124300  0.621800  0.111100  1.0  0.0344
  C  C30  1  0.993600  0.711700  0.239800  1.0  0.7173
  C  C31  1  0.127000  0.512900  0.317600  1.0  -0.1713
  C  C32  1  0.124300  0.489300  0.378200  1.0  0.0095
  C  C33  1  0.993600  0.528100  0.288300  1.0  0.7172
  C  C34  1  0.627000  0.195300  0.512900  1.0  -0.1724
  C  C35  1  0.624300  0.111100  0.489300  1.0  0.0405
  C  C36  1  0.493600  0.239800  0.528100  1.0  0.7174
  C  C37  1  0.627000  0.317600  0.804700  1.0  -0.1709
  C  C38  1  0.624300  0.378200  0.888900  1.0  0.0341
  C  C39  1  0.493600  0.288300  0.760200  1.0  0.7154
  C  C40  1  0.627000  0.487100  0.682400  1.0  -0.171
  C  C41  1  0.624300  0.510700  0.621800  1.0  0.0085
  C  C42  1  0.493600  0.471900  0.711700  1.0  0.7178
  C  C43  1  0.873000  0.195300  0.512900  1.0  -0.1721
  C  C44  1  0.875700  0.111100  0.489300  1.0  0.0402
  C  C45  1  0.006400  0.239800  0.528100  1.0  0.7149
  C  C46  1  0.873000  0.317600  0.804700  1.0  -0.1695
  C  C47  1  0.875700  0.378200  0.888900  1.0  0.0346
  C  C48  1  0.006400  0.288300  0.760200  1.0  0.7156
  C  C49  1  0.873000  0.487100  0.682400  1.0  -0.1708
  C  C50  1  0.875700  0.510700  0.621800  1.0  0.0096
  C  C51  1  0.006400  0.471900  0.711700  1.0  0.7168
  C  C52  1  0.373000  0.804700  0.487100  1.0  -0.1701
  C  C53  1  0.375700  0.888900  0.510700  1.0  0.042
  C  C54  1  0.506400  0.760200  0.471900  1.0  0.7176
  C  C55  1  0.373000  0.682400  0.195300  1.0  -0.1697
  C  C56  1  0.375700  0.621800  0.111100  1.0  0.034
  C  C57  1  0.506400  0.711700  0.239800  1.0  0.7164
  C  C58  1  0.373000  0.512900  0.317600  1.0  -0.1704
  C  C59  1  0.375700  0.489300  0.378200  1.0  0.0095
  C  C60  1  0.506400  0.528100  0.288300  1.0  0.716
  C  C61  1  0.250000  0.933700  0.527600  1.0  -0.1641
  C  C62  1  0.250000  0.763100  0.477000  1.0  0.044
  C  C63  1  0.250000  0.025600  0.558200  1.0  0.6441
  C  C64  1  0.250000  0.593900  0.066300  1.0  -0.1686
  C  C65  1  0.250000  0.713900  0.236900  1.0  0.0421
  C  C66  1  0.250000  0.532600  0.974400  1.0  0.6436
  C  C67  1  0.250000  0.472400  0.406100  1.0  -0.1575
  C  C68  1  0.250000  0.523000  0.286100  1.0  0.0447
  C  C69  1  0.250000  0.441800  0.467400  1.0  0.645
  C  C70  1  0.750000  0.066300  0.472400  1.0  -0.1662
  C  C71  1  0.750000  0.236900  0.523000  1.0  0.0441
  C  C72  1  0.750000  0.974400  0.441800  1.0  0.6435
  C  C73  1  0.750000  0.406100  0.933700  1.0  -0.1677
  C  C74  1  0.750000  0.286100  0.763100  1.0  0.0406
  C  C75  1  0.750000  0.467400  0.025600  1.0  0.645
  C  C76  1  0.750000  0.527600  0.593900  1.0  -0.156
  C  C77  1  0.750000  0.477000  0.713900  1.0  0.0442
  C  C78  1  0.750000  0.558200  0.532600  1.0  0.6436
  O  O79  1  0.991300  0.688000  0.461800  1.0  -0.6417
  O  O80  1  0.362000  0.065000  0.571000  1.0  -0.633
  O  O81  1  0.884000  0.796200  0.467000  1.0  -0.7463
  O  O82  1  0.991300  0.773800  0.312000  1.0  -0.6385
  O  O83  1  0.362000  0.506000  0.935000  1.0  -0.633
  O  O84  1  0.884000  0.670800  0.203800  1.0  -0.7456
  O  O85  1  0.991300  0.538200  0.226200  1.0  -0.6363
  O  O86  1  0.362000  0.429000  0.494000  1.0  -0.6341
  O  O87  1  0.884000  0.533000  0.329200  1.0  -0.7456
  O  O88  1  0.491300  0.312000  0.538200  1.0  -0.6424
  O  O89  1  0.862000  0.935000  0.429000  1.0  -0.6327
  O  O90  1  0.384000  0.203800  0.533000  1.0  -0.7464
  O  O91  1  0.491300  0.226200  0.688000  1.0  -0.6376
  O  O92  1  0.862000  0.494000  0.065000  1.0  -0.6328
  O  O93  1  0.384000  0.329200  0.796200  1.0  -0.7441
  O  O94  1  0.491300  0.461800  0.773800  1.0  -0.6367
  O  O95  1  0.862000  0.571000  0.506000  1.0  -0.6333
  O  O96  1  0.384000  0.467000  0.670800  1.0  -0.7452
  O  O97  1  0.008700  0.312000  0.538200  1.0  -0.6413
  O  O98  1  0.638000  0.935000  0.429000  1.0  -0.632
  O  O99  1  0.116000  0.203800  0.533000  1.0  -0.7462
  O  O100  1  0.008700  0.226200  0.688000  1.0  -0.637
  O  O101  1  0.638000  0.494000  0.065000  1.0  -0.632
  O  O102  1  0.116000  0.329200  0.796200  1.0  -0.7439
  O  O103  1  0.008700  0.461800  0.773800  1.0  -0.6356
  O  O104  1  0.638000  0.571000  0.506000  1.0  -0.6326
  O  O105  1  0.116000  0.467000  0.670800  1.0  -0.7455
  O  O106  1  0.508700  0.688000  0.461800  1.0  -0.6406
  O  O107  1  0.138000  0.065000  0.571000  1.0  -0.6318
  O  O108  1  0.616000  0.796200  0.467000  1.0  -0.7463
  O  O109  1  0.508700  0.773800  0.312000  1.0  -0.6376
  O  O110  1  0.138000  0.506000  0.935000  1.0  -0.6323
  O  O111  1  0.616000  0.670800  0.203800  1.0  -0.7459
  O  O112  1  0.508700  0.538200  0.226200  1.0  -0.6354
  O  O113  1  0.138000  0.429000  0.494000  1.0  -0.6331
  O  O114  1  0.616000  0.533000  0.329200  1.0  -0.7451
  O  O115  1  0.750000  0.666667  0.333333  1.0  -1.3251
  O  O116  1  0.250000  0.333333  0.666667  1.0  -1.3251
