# generated using pymatgen
data_MnRe3Te4(CN)3
_symmetry_space_group_name_H-M   'P 1'
_cell_length_a   9.78820000
_cell_length_b   12.66790000
_cell_length_c   17.45240000
_cell_angle_alpha   90.00000000
_cell_angle_beta   90.00000000
_cell_angle_gamma   105.57000000
_symmetry_Int_Tables_number   1
_chemical_formula_structural   MnRe3Te4(CN)3
_chemical_formula_sum   'Mn4 Re12 Te16 C12 N12'
_cell_volume   2084.61395456
_cell_formula_units_Z   4
loop_
 _symmetry_equiv_pos_site_id
 _symmetry_equiv_pos_as_xyz
  1  'x, y, z'
loop_
 _atom_site_type_symbol
 _atom_site_label
 _atom_site_symmetry_multiplicity
 _atom_site_fract_x
 _atom_site_fract_y
 _atom_site_fract_z
 _atom_site_occupancy
 _atom_site_charge
  Mn  Mn1  1  0.132900  0.887530  0.891690  1.0  1.1458
  Mn  Mn2  1  0.367100  0.612470  0.391690  1.0  1.1457
  Mn  Mn3  1  0.867100  0.112470  0.108310  1.0  1.1471
  Mn  Mn4  1  0.632900  0.387530  0.608310  1.0  1.1468
  Re  Re5  1  0.380890  0.582610  0.960330  1.0  -0.2425
  Re  Re6  1  0.660150  0.620680  0.984190  1.0  -0.249
  Re  Re7  1  0.522260  0.448630  0.900000  1.0  -0.2383
  Re  Re8  1  0.119110  0.917390  0.460330  1.0  -0.2433
  Re  Re9  1  0.839850  0.879320  0.484190  1.0  -0.2483
  Re  Re10  1  0.977740  0.051370  0.400000  1.0  -0.2382
  Re  Re11  1  0.619110  0.417390  0.039670  1.0  -0.2433
  Re  Re12  1  0.339850  0.379320  0.015810  1.0  -0.2481
  Re  Re13  1  0.477740  0.551370  0.100000  1.0  -0.2382
  Re  Re14  1  0.880890  0.082610  0.539670  1.0  -0.2425
  Re  Re15  1  0.160150  0.120680  0.515810  1.0  -0.249
  Re  Re16  1  0.022260  0.948630  0.600000  1.0  -0.2383
  Te  Te17  1  0.564100  0.653540  0.844540  1.0  0.1631
  Te  Te18  1  0.519520  0.756370  0.044700  1.0  0.0863
  Te  Te19  1  0.195710  0.513730  0.075310  1.0  0.1911
  Te  Te20  1  0.240040  0.408970  0.875930  1.0  0.1477
  Te  Te21  1  0.935900  0.846460  0.344540  1.0  0.1633
  Te  Te22  1  0.980480  0.743630  0.544700  1.0  0.0818
  Te  Te23  1  0.304290  0.986270  0.575310  1.0  0.191
  Te  Te24  1  0.259960  0.091030  0.375930  1.0  0.1473
  Te  Te25  1  0.435900  0.346460  0.155460  1.0  0.1637
  Te  Te26  1  0.480480  0.243630  0.955300  1.0  0.0808
  Te  Te27  1  0.804290  0.486270  0.924690  1.0  0.1908
  Te  Te28  1  0.759960  0.591030  0.124070  1.0  0.148
  Te  Te29  1  0.064100  0.153540  0.655460  1.0  0.1637
  Te  Te30  1  0.019520  0.256370  0.455300  1.0  0.0853
  Te  Te31  1  0.695710  0.013730  0.424690  1.0  0.1911
  Te  Te32  1  0.740040  0.908970  0.624070  1.0  0.1484
  C  C33  1  0.834300  0.750700  0.962300  1.0  0.2151
  C  C34  1  0.251200  0.675900  0.916700  1.0  0.2002
  C  C35  1  0.546300  0.398400  0.789300  1.0  0.1954
  C  C36  1  0.665700  0.749300  0.462300  1.0  0.2147
  C  C37  1  0.248800  0.824100  0.416700  1.0  0.2006
  C  C38  1  0.953700  0.101600  0.289300  1.0  0.1948
  C  C39  1  0.165700  0.249300  0.037700  1.0  0.2149
  C  C40  1  0.748800  0.324100  0.083300  1.0  0.2013
  C  C41  1  0.453700  0.601600  0.210700  1.0  0.1949
  C  C42  1  0.334300  0.250700  0.537700  1.0  0.2152
  C  C43  1  0.751200  0.175900  0.583300  1.0  0.2004
  C  C44  1  0.046300  0.898400  0.710700  1.0  0.1955
  N  N45  1  0.931200  0.825200  0.949500  1.0  -0.5775
  N  N46  1  0.188300  0.732300  0.896200  1.0  -0.4956
  N  N47  1  0.564100  0.375200  0.725900  1.0  -0.5398
  N  N48  1  0.568800  0.674800  0.449500  1.0  -0.5743
  N  N49  1  0.311700  0.767700  0.396200  1.0  -0.4978
  N  N50  1  0.935900  0.124800  0.225900  1.0  -0.54
  N  N51  1  0.068800  0.174800  0.050500  1.0  -0.5746
  N  N52  1  0.811700  0.267700  0.103800  1.0  -0.4987
  N  N53  1  0.435900  0.624800  0.274100  1.0  -0.5403
  N  N54  1  0.431200  0.325200  0.550500  1.0  -0.5777
  N  N55  1  0.688300  0.232300  0.603800  1.0  -0.4966
  N  N56  1  0.064100  0.875200  0.774100  1.0  -0.54
