# generated using pymatgen
data_La2Mg3H18C42(NO4)6
_symmetry_space_group_name_H-M   'P 1'
_cell_length_a   15.10000000
_cell_length_b   15.67700000
_cell_length_c   15.67700000
_cell_angle_alpha   120.00000000
_cell_angle_beta   90.00000000
_cell_angle_gamma   90.00000000
_symmetry_Int_Tables_number   1
_chemical_formula_structural   La2Mg3H18C42(NO4)6
_chemical_formula_sum   'La4 Mg6 H36 C84 N12 O48'
_cell_volume   3213.90840703
_cell_formula_units_Z   2
loop_
 _symmetry_equiv_pos_site_id
 _symmetry_equiv_pos_as_xyz
  1  'x, y, z'
loop_
 _atom_site_type_symbol
 _atom_site_label
 _atom_site_symmetry_multiplicity
 _atom_site_fract_x
 _atom_site_fract_y
 _atom_site_fract_z
 _atom_site_occupancy
 _atom_site_charge
  La  La1  1  0.750000  0.333333  0.666667  1.0  2.02
  La  La2  1  0.750000  0.666667  0.333333  1.0  2.02
  La  La3  1  0.250000  0.666667  0.333333  1.0  2.02
  La  La4  1  0.250000  0.333333  0.666667  1.0  2.02
  Mg  Mg5  1  0.000000  0.500000  0.000000  1.0  1.598
  Mg  Mg6  1  0.000000  0.500000  0.500000  1.0  1.598
  Mg  Mg7  1  0.000000  0.000000  0.500000  1.0  1.598
  Mg  Mg8  1  0.500000  0.500000  0.000000  1.0  1.598
  Mg  Mg9  1  0.500000  0.000000  0.500000  1.0  1.598
  Mg  Mg10  1  0.500000  0.500000  0.500000  1.0  1.598
  H  H11  1  0.844000  0.235000  0.946600  1.0  0.1151
  H  H12  1  0.844000  0.711600  0.765000  1.0  0.1154
  H  H13  1  0.844000  0.053400  0.288400  1.0  0.1146
  H  H14  1  0.844000  0.765000  0.053400  1.0  0.1152
  H  H15  1  0.844000  0.288400  0.235000  1.0  0.115
  H  H16  1  0.844000  0.946600  0.711600  1.0  0.1148
  H  H17  1  0.656000  0.288400  0.053400  1.0  0.1149
  H  H18  1  0.656000  0.946600  0.235000  1.0  0.1148
  H  H19  1  0.656000  0.765000  0.711600  1.0  0.1152
  H  H20  1  0.656000  0.711600  0.946600  1.0  0.1149
  H  H21  1  0.656000  0.053400  0.765000  1.0  0.1147
  H  H22  1  0.656000  0.235000  0.288400  1.0  0.1151
  H  H23  1  0.156000  0.765000  0.053400  1.0  0.1152
  H  H24  1  0.156000  0.288400  0.235000  1.0  0.1151
  H  H25  1  0.156000  0.946600  0.711600  1.0  0.115
  H  H26  1  0.156000  0.235000  0.946600  1.0  0.1152
  H  H27  1  0.156000  0.711600  0.765000  1.0  0.1153
  H  H28  1  0.156000  0.053400  0.288400  1.0  0.1143
  H  H29  1  0.344000  0.711600  0.946600  1.0  0.115
  H  H30  1  0.344000  0.053400  0.765000  1.0  0.1148
  H  H31  1  0.344000  0.235000  0.288400  1.0  0.1151
  H  H32  1  0.344000  0.288400  0.053400  1.0  0.1149
  H  H33  1  0.344000  0.946600  0.235000  1.0  0.1149
  H  H34  1  0.344000  0.765000  0.711600  1.0  0.115
  H  H35  1  0.750000  0.101000  0.899000  1.0  0.0922
  H  H36  1  0.750000  0.798000  0.899000  1.0  0.09
  H  H37  1  0.750000  0.101000  0.202000  1.0  0.0922
  H  H38  1  0.750000  0.899000  0.101000  1.0  0.0923
  H  H39  1  0.750000  0.202000  0.101000  1.0  0.0891
  H  H40  1  0.750000  0.899000  0.798000  1.0  0.0922
  H  H41  1  0.250000  0.899000  0.101000  1.0  0.0923
  H  H42  1  0.250000  0.202000  0.101000  1.0  0.0891
  H  H43  1  0.250000  0.899000  0.798000  1.0  0.0922
  H  H44  1  0.250000  0.101000  0.899000  1.0  0.0922
  H  H45  1  0.250000  0.798000  0.899000  1.0  0.09
  H  H46  1  0.250000  0.101000  0.202000  1.0  0.0922
  C  C47  1  0.805740  0.215110  0.893480  1.0  -0.121
  C  C48  1  0.803060  0.264690  0.841080  1.0  0.1298
  C  C49  1  0.860940  0.352560  0.865980  1.0  0.6935
  C  C50  1  0.805740  0.678370  0.784890  1.0  -0.1194
  C  C51  1  0.803060  0.576390  0.735310  1.0  0.1294
  C  C52  1  0.860940  0.513420  0.647440  1.0  0.6937
  C  C53  1  0.805740  0.106520  0.321630  1.0  -0.1199
  C  C54  1  0.803060  0.158920  0.423610  1.0  0.1305
  C  C55  1  0.860940  0.134020  0.486580  1.0  0.6952
  C  C56  1  0.805740  0.784890  0.106520  1.0  -0.121
  C  C57  1  0.803060  0.735310  0.158920  1.0  0.13
  C  C58  1  0.860940  0.647440  0.134020  1.0  0.6934
  C  C59  1  0.805740  0.321630  0.215110  1.0  -0.119
  C  C60  1  0.803060  0.423610  0.264690  1.0  0.1291
  C  C61  1  0.860940  0.486580  0.352560  1.0  0.6939
  C  C62  1  0.805740  0.893480  0.678370  1.0  -0.1203
  C  C63  1  0.803060  0.841080  0.576390  1.0  0.1307
  C  C64  1  0.860940  0.865980  0.513420  1.0  0.6951
  C  C65  1  0.694260  0.321630  0.106520  1.0  -0.1212
  C  C66  1  0.696940  0.423610  0.158920  1.0  0.1294
  C  C67  1  0.639060  0.486580  0.134020  1.0  0.6936
  C  C68  1  0.694260  0.893480  0.215110  1.0  -0.1222
  C  C69  1  0.696940  0.841080  0.264690  1.0  0.1304
  C  C70  1  0.639060  0.865980  0.352560  1.0  0.6951
  C  C71  1  0.694260  0.784890  0.678370  1.0  -0.1229
  C  C72  1  0.696940  0.735310  0.576390  1.0  0.1294
  C  C73  1  0.639060  0.647440  0.513420  1.0  0.6934
  C  C74  1  0.694260  0.678370  0.893480  1.0  -0.1215
  C  C75  1  0.696940  0.576390  0.841080  1.0  0.1291
  C  C76  1  0.639060  0.513420  0.865980  1.0  0.694
  C  C77  1  0.694260  0.106520  0.784890  1.0  -0.1219
  C  C78  1  0.696940  0.158920  0.735310  1.0  0.131
  C  C79  1  0.639060  0.134020  0.647440  1.0  0.6954
  C  C80  1  0.694260  0.215110  0.321630  1.0  -0.1232
  C  C81  1  0.696940  0.264690  0.423610  1.0  0.1299
  C  C82  1  0.639060  0.352560  0.486580  1.0  0.6937
  C  C83  1  0.194260  0.784890  0.106520  1.0  -0.1211
  C  C84  1  0.196940  0.735310  0.158920  1.0  0.1297
  C  C85  1  0.139060  0.647440  0.134020  1.0  0.6935
  C  C86  1  0.194260  0.321630  0.215110  1.0  -0.1194
  C  C87  1  0.196940  0.423610  0.264690  1.0  0.1295
  C  C88  1  0.139060  0.486580  0.352560  1.0  0.6938
  C  C89  1  0.194260  0.893480  0.678370  1.0  -0.1204
  C  C90  1  0.196940  0.841080  0.576390  1.0  0.1308
  C  C91  1  0.139060  0.865980  0.513420  1.0  0.6956
  C  C92  1  0.194260  0.215110  0.893480  1.0  -0.1212
  C  C93  1  0.196940  0.264690  0.841080  1.0  0.13
  C  C94  1  0.139060  0.352560  0.865980  1.0  0.6937
  C  C95  1  0.194260  0.678370  0.784890  1.0  -0.1196
  C  C96  1  0.196940  0.576390  0.735310  1.0  0.1291
  C  C97  1  0.139060  0.513420  0.647440  1.0  0.6937
  C  C98  1  0.194260  0.106520  0.321630  1.0  -0.1201
  C  C99  1  0.196940  0.158920  0.423610  1.0  0.1308
  C  C100  1  0.139060  0.134020  0.486580  1.0  0.6949
  C  C101  1  0.305740  0.678370  0.893480  1.0  -0.1212
  C  C102  1  0.303060  0.576390  0.841080  1.0  0.1291
  C  C103  1  0.360940  0.513420  0.865980  1.0  0.6942
  C  C104  1  0.305740  0.106520  0.784890  1.0  -0.1215
  C  C105  1  0.303060  0.158920  0.735310  1.0  0.131
  C  C106  1  0.360940  0.134020  0.647440  1.0  0.6948
  C  C107  1  0.305740  0.215110  0.321630  1.0  -0.1227
  C  C108  1  0.303060  0.264690  0.423610  1.0  0.1296
  C  C109  1  0.360940  0.352560  0.486580  1.0  0.6934
  C  C110  1  0.305740  0.321630  0.106520  1.0  -0.1207
  C  C111  1  0.303060  0.423610  0.158920  1.0  0.1292
  C  C112  1  0.360940  0.486580  0.134020  1.0  0.6935
  C  C113  1  0.305740  0.893480  0.215110  1.0  -0.1218
  C  C114  1  0.303060  0.841080  0.264690  1.0  0.1301
  C  C115  1  0.360940  0.865980  0.352560  1.0  0.6953
  C  C116  1  0.305740  0.784890  0.678370  1.0  -0.1224
  C  C117  1  0.303060  0.735310  0.576390  1.0  0.1297
  C  C118  1  0.360940  0.647440  0.513420  1.0  0.6934
  C  C119  1  0.750000  0.135250  0.864750  1.0  -0.028
  C  C120  1  0.750000  0.729500  0.864750  1.0  -0.0275
  C  C121  1  0.750000  0.135250  0.270500  1.0  -0.0285
  C  C122  1  0.750000  0.864750  0.135250  1.0  -0.0282
  C  C123  1  0.750000  0.270500  0.135250  1.0  -0.0271
  C  C124  1  0.750000  0.864750  0.729500  1.0  -0.0279
  C  C125  1  0.250000  0.864750  0.135250  1.0  -0.0282
  C  C126  1  0.250000  0.270500  0.135250  1.0  -0.0271
  C  C127  1  0.250000  0.864750  0.729500  1.0  -0.0279
  C  C128  1  0.250000  0.135250  0.864750  1.0  -0.028
  C  C129  1  0.250000  0.729500  0.864750  1.0  -0.0275
  C  C130  1  0.250000  0.135250  0.270500  1.0  -0.0285
  N  N131  1  0.750000  0.236530  0.763480  1.0  -0.3783
  N  N132  1  0.750000  0.526950  0.763480  1.0  -0.3778
  N  N133  1  0.750000  0.236530  0.473060  1.0  -0.3781
  N  N134  1  0.750000  0.763470  0.236520  1.0  -0.3778
  N  N135  1  0.750000  0.473050  0.236520  1.0  -0.3789
  N  N136  1  0.750000  0.763470  0.526940  1.0  -0.3791
  N  N137  1  0.250000  0.763470  0.236520  1.0  -0.3778
  N  N138  1  0.250000  0.473050  0.236520  1.0  -0.3789
  N  N139  1  0.250000  0.763470  0.526940  1.0  -0.3791
  N  N140  1  0.250000  0.236530  0.763480  1.0  -0.3783
  N  N141  1  0.250000  0.526950  0.763480  1.0  -0.3777
  N  N142  1  0.250000  0.236530  0.473060  1.0  -0.3781
  O  O143  1  0.905390  0.388430  0.942610  1.0  -0.7188
  O  O144  1  0.859380  0.383440  0.804930  1.0  -0.6779
  O  O145  1  0.905390  0.554180  0.611570  1.0  -0.7203
  O  O146  1  0.859380  0.421490  0.616560  1.0  -0.6765
  O  O147  1  0.905390  0.057390  0.445820  1.0  -0.7192
  O  O148  1  0.859380  0.195070  0.578510  1.0  -0.6784
  O  O149  1  0.905390  0.611570  0.057390  1.0  -0.7203
  O  O150  1  0.859380  0.616560  0.195070  1.0  -0.6776
  O  O151  1  0.905390  0.445820  0.388430  1.0  -0.7191
  O  O152  1  0.859380  0.578510  0.383440  1.0  -0.6756
  O  O153  1  0.905390  0.942610  0.554180  1.0  -0.7194
  O  O154  1  0.859380  0.804930  0.421490  1.0  -0.6784
  O  O155  1  0.594610  0.445820  0.057390  1.0  -0.7193
  O  O156  1  0.640620  0.578510  0.195070  1.0  -0.6765
  O  O157  1  0.594610  0.942610  0.388430  1.0  -0.7185
  O  O158  1  0.640620  0.804930  0.383440  1.0  -0.6787
  O  O159  1  0.594610  0.611570  0.554180  1.0  -0.7173
  O  O160  1  0.640620  0.616560  0.421490  1.0  -0.6776
  O  O161  1  0.594610  0.554180  0.942610  1.0  -0.7182
  O  O162  1  0.640620  0.421490  0.804930  1.0  -0.6762
  O  O163  1  0.594610  0.057390  0.611570  1.0  -0.7183
  O  O164  1  0.640620  0.195070  0.616560  1.0  -0.6779
  O  O165  1  0.594610  0.388430  0.445820  1.0  -0.7196
  O  O166  1  0.640620  0.383440  0.578510  1.0  -0.6779
  O  O167  1  0.094610  0.611570  0.057390  1.0  -0.7196
  O  O168  1  0.140620  0.616560  0.195070  1.0  -0.6773
  O  O169  1  0.094610  0.445820  0.388430  1.0  -0.7184
  O  O170  1  0.140620  0.578510  0.383440  1.0  -0.6765
  O  O171  1  0.094610  0.942610  0.554180  1.0  -0.7191
  O  O172  1  0.140620  0.804930  0.421490  1.0  -0.6782
  O  O173  1  0.094610  0.388430  0.942610  1.0  -0.7185
  O  O174  1  0.140620  0.383440  0.804930  1.0  -0.6781
  O  O175  1  0.094610  0.554180  0.611570  1.0  -0.7201
  O  O176  1  0.140620  0.421490  0.616560  1.0  -0.676
  O  O177  1  0.094610  0.057390  0.445820  1.0  -0.7188
  O  O178  1  0.140620  0.195070  0.578510  1.0  -0.6786
  O  O179  1  0.405390  0.554180  0.942610  1.0  -0.7197
  O  O180  1  0.359380  0.421490  0.804930  1.0  -0.6766
  O  O181  1  0.405390  0.057390  0.611570  1.0  -0.7199
  O  O182  1  0.359380  0.195070  0.616560  1.0  -0.6777
  O  O183  1  0.405390  0.388430  0.445820  1.0  -0.7205
  O  O184  1  0.359380  0.383440  0.578510  1.0  -0.6779
  O  O185  1  0.405390  0.445820  0.057390  1.0  -0.7209
  O  O186  1  0.359380  0.578510  0.195070  1.0  -0.6755
  O  O187  1  0.405390  0.942610  0.388430  1.0  -0.7194
  O  O188  1  0.359380  0.804930  0.383440  1.0  -0.6789
  O  O189  1  0.405390  0.611570  0.554180  1.0  -0.7188
  O  O190  1  0.359380  0.616560  0.421490  1.0  -0.678
