# generated using pymatgen
data_LaMgH12(C4O5)3
_symmetry_space_group_name_H-M   'P 1'
_cell_length_a   18.47320000
_cell_length_b   18.47320000
_cell_length_c   18.47320000
_cell_angle_alpha   60.00000000
_cell_angle_beta   60.00000000
_cell_angle_gamma   60.00000000
_symmetry_Int_Tables_number   1
_chemical_formula_structural   LaMgH12(C4O5)3
_chemical_formula_sum   'La8 Mg8 H96 C96 O120'
_cell_volume   4457.70576015
_cell_formula_units_Z   8
loop_
 _symmetry_equiv_pos_site_id
 _symmetry_equiv_pos_as_xyz
  1  'x, y, z'
loop_
 _atom_site_type_symbol
 _atom_site_label
 _atom_site_symmetry_multiplicity
 _atom_site_fract_x
 _atom_site_fract_y
 _atom_site_fract_z
 _atom_site_occupancy
 _atom_site_charge
  La  La1  1  0.750000  0.750000  0.250000  1.0  2.0791
  La  La2  1  0.250000  0.250000  0.250000  1.0  2.0791
  La  La3  1  0.750000  0.250000  0.250000  1.0  2.0791
  La  La4  1  0.750000  0.250000  0.750000  1.0  2.0791
  La  La5  1  0.250000  0.250000  0.750000  1.0  2.0791
  La  La6  1  0.750000  0.750000  0.750000  1.0  2.0791
  La  La7  1  0.250000  0.750000  0.750000  1.0  2.0791
  La  La8  1  0.250000  0.750000  0.250000  1.0  2.0791
  Mg  Mg9  1  0.000000  0.000000  0.000000  1.0  1.4886
  Mg  Mg10  1  0.500000  0.500000  0.000000  1.0  1.4886
  Mg  Mg11  1  0.500000  0.000000  0.500000  1.0  1.4886
  Mg  Mg12  1  0.500000  0.000000  0.000000  1.0  1.4886
  Mg  Mg13  1  0.000000  0.000000  0.500000  1.0  1.4886
  Mg  Mg14  1  0.500000  0.500000  0.500000  1.0  1.4886
  Mg  Mg15  1  0.000000  0.500000  0.000000  1.0  1.4886
  Mg  Mg16  1  0.000000  0.500000  0.500000  1.0  1.4886
  H  H17  1  0.993200  0.779400  0.154200  1.0  0.0945
  H  H18  1  0.932500  0.845900  0.207700  1.0  0.0977
  H  H19  1  0.279400  0.493200  0.073200  1.0  0.0946
  H  H20  1  0.345900  0.432500  0.013900  1.0  0.0973
  H  H21  1  0.654200  0.073200  0.493200  1.0  0.0946
  H  H22  1  0.707700  0.013900  0.432500  1.0  0.0973
  H  H23  1  0.573200  0.154200  0.779400  1.0  0.0951
  H  H24  1  0.513900  0.207700  0.845900  1.0  0.0963
  H  H25  1  0.993200  0.154200  0.073200  1.0  0.0938
  H  H26  1  0.932500  0.207700  0.013900  1.0  0.0978
  H  H27  1  0.279400  0.073200  0.154200  1.0  0.0944
  H  H28  1  0.345900  0.013900  0.207700  1.0  0.0983
  H  H29  1  0.654200  0.493200  0.779400  1.0  0.0947
  H  H30  1  0.707700  0.432500  0.845900  1.0  0.0974
  H  H31  1  0.573200  0.779400  0.493200  1.0  0.0946
  H  H32  1  0.513900  0.845900  0.432500  1.0  0.0967
  H  H33  1  0.993200  0.073200  0.779400  1.0  0.0932
  H  H34  1  0.932500  0.013900  0.845900  1.0  0.0985
  H  H35  1  0.279400  0.154200  0.493200  1.0  0.0955
  H  H36  1  0.345900  0.207700  0.432500  1.0  0.0967
  H  H37  1  0.654200  0.779400  0.073200  1.0  0.0942
  H  H38  1  0.707700  0.845900  0.013900  1.0  0.0967
  H  H39  1  0.573200  0.493200  0.154200  1.0  0.0948
  H  H40  1  0.513900  0.432500  0.207700  1.0  0.096
  H  H41  1  0.220600  0.006800  0.345800  1.0  0.0954
  H  H42  1  0.154100  0.067500  0.292300  1.0  0.098
  H  H43  1  0.506800  0.720600  0.426800  1.0  0.0946
  H  H44  1  0.567500  0.654100  0.486100  1.0  0.0976
  H  H45  1  0.926800  0.345800  0.006800  1.0  0.0945
  H  H46  1  0.986100  0.292300  0.067500  1.0  0.0966
  H  H47  1  0.845800  0.426800  0.720600  1.0  0.0948
  H  H48  1  0.792300  0.486100  0.654100  1.0  0.0979
  H  H49  1  0.845800  0.006800  0.426800  1.0  0.0954
  H  H50  1  0.792300  0.067500  0.486100  1.0  0.0972
  H  H51  1  0.926800  0.720600  0.345800  1.0  0.0946
  H  H52  1  0.986100  0.654100  0.292300  1.0  0.0961
  H  H53  1  0.506800  0.345800  0.720600  1.0  0.0931
  H  H54  1  0.567500  0.292300  0.654100  1.0  0.0974
  H  H55  1  0.220600  0.426800  0.006800  1.0  0.0944
  H  H56  1  0.154100  0.486100  0.067500  1.0  0.0981
  H  H57  1  0.926800  0.006800  0.720600  1.0  0.0962
  H  H58  1  0.986100  0.067500  0.654100  1.0  0.0946
  H  H59  1  0.845800  0.720600  0.006800  1.0  0.0937
  H  H60  1  0.792300  0.654100  0.067500  1.0  0.0964
  H  H61  1  0.220600  0.345800  0.426800  1.0  0.0943
  H  H62  1  0.154100  0.292300  0.486100  1.0  0.0979
  H  H63  1  0.506800  0.426800  0.345800  1.0  0.0951
  H  H64  1  0.567500  0.486100  0.292300  1.0  0.0978
  H  H65  1  0.006800  0.220600  0.845800  1.0  0.0945
  H  H66  1  0.067500  0.154100  0.792300  1.0  0.0975
  H  H67  1  0.720600  0.506800  0.926800  1.0  0.0953
  H  H68  1  0.654100  0.567500  0.986100  1.0  0.098
  H  H69  1  0.345800  0.926800  0.506800  1.0  0.0943
  H  H70  1  0.292300  0.986100  0.567500  1.0  0.0974
  H  H71  1  0.426800  0.845800  0.220600  1.0  0.0948
  H  H72  1  0.486100  0.792300  0.154100  1.0  0.0962
  H  H73  1  0.006800  0.845800  0.926800  1.0  0.0935
  H  H74  1  0.067500  0.792300  0.986100  1.0  0.0978
  H  H75  1  0.720600  0.926800  0.845800  1.0  0.0945
  H  H76  1  0.654100  0.986100  0.792300  1.0  0.0982
  H  H77  1  0.345800  0.506800  0.220600  1.0  0.0955
  H  H78  1  0.292300  0.567500  0.154100  1.0  0.0975
  H  H79  1  0.426800  0.220600  0.506800  1.0  0.0942
  H  H80  1  0.486100  0.154100  0.567500  1.0  0.097
  H  H81  1  0.006800  0.926800  0.220600  1.0  0.0951
  H  H82  1  0.067500  0.986100  0.154100  1.0  0.098
  H  H83  1  0.720600  0.845800  0.506800  1.0  0.0942
  H  H84  1  0.654100  0.792300  0.567500  1.0  0.0976
  H  H85  1  0.345800  0.220600  0.926800  1.0  0.0938
  H  H86  1  0.292300  0.154100  0.986100  1.0  0.0965
  H  H87  1  0.426800  0.506800  0.845800  1.0  0.0961
  H  H88  1  0.486100  0.567500  0.792300  1.0  0.0945
  H  H89  1  0.779400  0.993200  0.654200  1.0  0.0947
  H  H90  1  0.845900  0.932500  0.707700  1.0  0.098
  H  H91  1  0.493200  0.279400  0.573200  1.0  0.095
  H  H92  1  0.432500  0.345900  0.513900  1.0  0.0974
  H  H93  1  0.073200  0.654200  0.993200  1.0  0.095
  H  H94  1  0.013900  0.707700  0.932500  1.0  0.0969
  H  H95  1  0.154200  0.573200  0.279400  1.0  0.0943
  H  H96  1  0.207700  0.513900  0.345900  1.0  0.0975
  H  H97  1  0.154200  0.993200  0.573200  1.0  0.0942
  H  H98  1  0.207700  0.932500  0.513900  1.0  0.0968
  H  H99  1  0.073200  0.279400  0.654200  1.0  0.0947
  H  H100  1  0.013900  0.345900  0.707700  1.0  0.0966
  H  H101  1  0.493200  0.654200  0.279400  1.0  0.0936
  H  H102  1  0.432500  0.707700  0.345900  1.0  0.0976
  H  H103  1  0.779400  0.573200  0.993200  1.0  0.0946
  H  H104  1  0.845900  0.513900  0.932500  1.0  0.0977
  H  H105  1  0.073200  0.993200  0.279400  1.0  0.0948
  H  H106  1  0.013900  0.932500  0.345900  1.0  0.0959
  H  H107  1  0.154200  0.279400  0.993200  1.0  0.0944
  H  H108  1  0.207700  0.345900  0.932500  1.0  0.0964
  H  H109  1  0.779400  0.654200  0.573200  1.0  0.0953
  H  H110  1  0.845900  0.707700  0.513900  1.0  0.0969
  H  H111  1  0.493200  0.573200  0.654200  1.0  0.0932
  H  H112  1  0.432500  0.513900  0.707700  1.0  0.0985
  C  C113  1  0.932100  0.811300  0.182100  1.0  -0.0687
  C  C114  1  0.887110  0.872290  0.113510  1.0  0.7324
  C  C115  1  0.311300  0.432100  0.074500  1.0  -0.0662
  C  C116  1  0.372290  0.387110  0.127090  1.0  0.7301
  C  C117  1  0.682100  0.074500  0.432100  1.0  -0.0695
  C  C118  1  0.613510  0.127090  0.387110  1.0  0.7363
  C  C119  1  0.574500  0.182100  0.811300  1.0  -0.0687
  C  C120  1  0.627090  0.113510  0.872290  1.0  0.737
  C  C121  1  0.932100  0.182100  0.074500  1.0  -0.0685
  C  C122  1  0.887110  0.113510  0.127090  1.0  0.7262
  C  C123  1  0.311300  0.074500  0.182100  1.0  -0.069
  C  C124  1  0.372290  0.127090  0.113510  1.0  0.7259
  C  C125  1  0.682100  0.432100  0.811300  1.0  -0.0661
  C  C126  1  0.613510  0.387110  0.872290  1.0  0.7235
  C  C127  1  0.574500  0.811300  0.432100  1.0  -0.0677
  C  C128  1  0.627090  0.872290  0.387110  1.0  0.7257
  C  C129  1  0.932100  0.074500  0.811300  1.0  -0.0682
  C  C130  1  0.887110  0.127090  0.872290  1.0  0.7327
  C  C131  1  0.311300  0.182100  0.432100  1.0  -0.0732
  C  C132  1  0.372290  0.113510  0.387110  1.0  0.7331
  C  C133  1  0.682100  0.811300  0.074500  1.0  -0.0728
  C  C134  1  0.613510  0.872290  0.127090  1.0  0.7312
  C  C135  1  0.574500  0.432100  0.182100  1.0  -0.0666
  C  C136  1  0.627090  0.387110  0.113510  1.0  0.7293
  C  C137  1  0.188700  0.067900  0.317900  1.0  -0.0683
  C  C138  1  0.127710  0.112890  0.386490  1.0  0.7303
  C  C139  1  0.567900  0.688700  0.425500  1.0  -0.068
  C  C140  1  0.612890  0.627710  0.372910  1.0  0.7321
  C  C141  1  0.925500  0.317900  0.067900  1.0  -0.0699
  C  C142  1  0.872910  0.386490  0.112890  1.0  0.7363
  C  C143  1  0.817900  0.425500  0.688700  1.0  -0.0682
  C  C144  1  0.886490  0.372910  0.627710  1.0  0.7345
  C  C145  1  0.817900  0.067900  0.425500  1.0  -0.0683
  C  C146  1  0.886490  0.112890  0.372910  1.0  0.7261
  C  C147  1  0.925500  0.688700  0.317900  1.0  -0.0683
  C  C148  1  0.872910  0.627710  0.386490  1.0  0.7244
  C  C149  1  0.567900  0.317900  0.688700  1.0  -0.0676
  C  C150  1  0.612890  0.386490  0.627710  1.0  0.7267
  C  C151  1  0.188700  0.425500  0.067900  1.0  -0.0672
  C  C152  1  0.127710  0.372910  0.112890  1.0  0.7265
  C  C153  1  0.925500  0.067900  0.688700  1.0  -0.0671
  C  C154  1  0.872910  0.112890  0.627710  1.0  0.7306
  C  C155  1  0.817900  0.688700  0.067900  1.0  -0.0722
  C  C156  1  0.886490  0.627710  0.112890  1.0  0.7288
  C  C157  1  0.188700  0.317900  0.425500  1.0  -0.0731
  C  C158  1  0.127710  0.386490  0.372910  1.0  0.7317
  C  C159  1  0.567900  0.425500  0.317900  1.0  -0.0677
  C  C160  1  0.612890  0.372910  0.386490  1.0  0.7315
  C  C161  1  0.067900  0.188700  0.817900  1.0  -0.0683
  C  C162  1  0.112890  0.127710  0.886490  1.0  0.732
  C  C163  1  0.688700  0.567900  0.925500  1.0  -0.0681
  C  C164  1  0.627710  0.612890  0.872910  1.0  0.7312
  C  C165  1  0.317900  0.925500  0.567900  1.0  -0.0683
  C  C166  1  0.386490  0.872910  0.612890  1.0  0.7346
  C  C167  1  0.425500  0.817900  0.188700  1.0  -0.07
  C  C168  1  0.372910  0.886490  0.127710  1.0  0.7365
  C  C169  1  0.067900  0.817900  0.925500  1.0  -0.0681
  C  C170  1  0.112890  0.886490  0.872910  1.0  0.727
  C  C171  1  0.688700  0.925500  0.817900  1.0  -0.0667
  C  C172  1  0.627710  0.872910  0.886490  1.0  0.7267
  C  C173  1  0.317900  0.567900  0.188700  1.0  -0.0678
  C  C174  1  0.386490  0.612890  0.127710  1.0  0.7257
  C  C175  1  0.425500  0.188700  0.567900  1.0  -0.069
  C  C176  1  0.372910  0.127710  0.612890  1.0  0.7242
  C  C177  1  0.067900  0.925500  0.188700  1.0  -0.0678
  C  C178  1  0.112890  0.872910  0.127710  1.0  0.7303
  C  C179  1  0.688700  0.817900  0.567900  1.0  -0.0732
  C  C180  1  0.627710  0.886490  0.612890  1.0  0.7331
  C  C181  1  0.317900  0.188700  0.925500  1.0  -0.0724
  C  C182  1  0.386490  0.127710  0.872910  1.0  0.7287
  C  C183  1  0.425500  0.567900  0.817900  1.0  -0.0674
  C  C184  1  0.372910  0.612890  0.886490  1.0  0.7313
  C  C185  1  0.811300  0.932100  0.682100  1.0  -0.0657
  C  C186  1  0.872290  0.887110  0.613510  1.0  0.7296
  C  C187  1  0.432100  0.311300  0.574500  1.0  -0.069
  C  C188  1  0.387110  0.372290  0.627090  1.0  0.7321
  C  C189  1  0.074500  0.682100  0.932100  1.0  -0.0692
  C  C190  1  0.127090  0.613510  0.887110  1.0  0.7365
  C  C191  1  0.182100  0.574500  0.311300  1.0  -0.0694
  C  C192  1  0.113510  0.627090  0.372290  1.0  0.7359
  C  C193  1  0.182100  0.932100  0.574500  1.0  -0.0665
  C  C194  1  0.113510  0.887110  0.627090  1.0  0.7237
  C  C195  1  0.074500  0.311300  0.682100  1.0  -0.0678
  C  C196  1  0.127090  0.372290  0.613510  1.0  0.7248
  C  C197  1  0.432100  0.682100  0.311300  1.0  -0.0684
  C  C198  1  0.387110  0.613510  0.372290  1.0  0.7267
  C  C199  1  0.811300  0.574500  0.932100  1.0  -0.0686
  C  C200  1  0.872290  0.627090  0.887110  1.0  0.7266
  C  C201  1  0.074500  0.932100  0.311300  1.0  -0.0666
  C  C202  1  0.127090  0.887110  0.372290  1.0  0.7307
  C  C203  1  0.182100  0.311300  0.932100  1.0  -0.0723
  C  C204  1  0.113510  0.372290  0.887110  1.0  0.7308
  C  C205  1  0.811300  0.682100  0.574500  1.0  -0.0732
  C  C206  1  0.872290  0.613510  0.627090  1.0  0.7338
  C  C207  1  0.432100  0.574500  0.682100  1.0  -0.0682
  C  C208  1  0.387110  0.627090  0.613510  1.0  0.7316
  O  O209  1  0.918950  0.928690  0.048410  1.0  -0.6435
  O  O210  1  0.820480  0.862220  0.123040  1.0  -0.6385
  O  O211  1  0.428690  0.418950  0.103950  1.0  -0.6401
  O  O212  1  0.362220  0.320480  0.194260  1.0  -0.6406
  O  O213  1  0.548410  0.103950  0.418950  1.0  -0.6375
  O  O214  1  0.623040  0.194260  0.320480  1.0  -0.6432
  O  O215  1  0.603950  0.048410  0.928690  1.0  -0.6402
  O  O216  1  0.694260  0.123040  0.862220  1.0  -0.6416
  O  O217  1  0.918950  0.048410  0.103950  1.0  -0.6392
  O  O218  1  0.820480  0.123040  0.194260  1.0  -0.6373
  O  O219  1  0.428690  0.103950  0.048410  1.0  -0.6375
  O  O220  1  0.362220  0.194260  0.123040  1.0  -0.6411
  O  O221  1  0.548410  0.418950  0.928690  1.0  -0.6413
  O  O222  1  0.623040  0.320480  0.862220  1.0  -0.6377
  O  O223  1  0.603950  0.928690  0.418950  1.0  -0.6413
  O  O224  1  0.694260  0.862220  0.320480  1.0  -0.6381
  O  O225  1  0.918950  0.103950  0.928690  1.0  -0.6426
  O  O226  1  0.820480  0.194260  0.862220  1.0  -0.639
  O  O227  1  0.428690  0.048410  0.418950  1.0  -0.636
  O  O228  1  0.362220  0.123040  0.320480  1.0  -0.6401
  O  O229  1  0.548410  0.928690  0.103950  1.0  -0.6414
  O  O230  1  0.623040  0.862220  0.194260  1.0  -0.6376
  O  O231  1  0.603950  0.418950  0.048410  1.0  -0.6423
  O  O232  1  0.694260  0.320480  0.123040  1.0  -0.6382
  O  O233  1  0.071310  0.081050  0.451590  1.0  -0.6449
  O  O234  1  0.137780  0.179520  0.376960  1.0  -0.641
  O  O235  1  0.581050  0.571310  0.396050  1.0  -0.6397
  O  O236  1  0.679520  0.637780  0.305740  1.0  -0.637
  O  O237  1  0.896050  0.451590  0.081050  1.0  -0.6412
  O  O238  1  0.805740  0.376960  0.179520  1.0  -0.6414
  O  O239  1  0.951590  0.396050  0.571310  1.0  -0.6366
  O  O240  1  0.876960  0.305740  0.637780  1.0  -0.6416
  O  O241  1  0.951590  0.081050  0.396050  1.0  -0.6442
  O  O242  1  0.876960  0.179520  0.305740  1.0  -0.6377
  O  O243  1  0.896050  0.571310  0.451590  1.0  -0.6391
  O  O244  1  0.805740  0.637780  0.376960  1.0  -0.6374
  O  O245  1  0.581050  0.451590  0.571310  1.0  -0.638
  O  O246  1  0.679520  0.376960  0.637780  1.0  -0.6381
  O  O247  1  0.071310  0.396050  0.081050  1.0  -0.6371
  O  O248  1  0.137780  0.305740  0.179520  1.0  -0.6388
  O  O249  1  0.896050  0.081050  0.571310  1.0  -0.645
  O  O250  1  0.805740  0.179520  0.637780  1.0  -0.6383
  O  O251  1  0.951590  0.571310  0.081050  1.0  -0.6406
  O  O252  1  0.876960  0.637780  0.179520  1.0  -0.6357
  O  O253  1  0.071310  0.451590  0.396050  1.0  -0.6368
  O  O254  1  0.137780  0.376960  0.305740  1.0  -0.6387
  O  O255  1  0.581050  0.396050  0.451590  1.0  -0.6407
  O  O256  1  0.679520  0.305740  0.376960  1.0  -0.6398
  O  O257  1  0.081050  0.071310  0.951590  1.0  -0.64
  O  O258  1  0.179520  0.137780  0.876960  1.0  -0.6365
  O  O259  1  0.571310  0.581050  0.896050  1.0  -0.6443
  O  O260  1  0.637780  0.679520  0.805740  1.0  -0.6413
  O  O261  1  0.451590  0.896050  0.581050  1.0  -0.6388
  O  O262  1  0.376960  0.805740  0.679520  1.0  -0.6426
  O  O263  1  0.396050  0.951590  0.071310  1.0  -0.6386
  O  O264  1  0.305740  0.876960  0.137780  1.0  -0.6408
  O  O265  1  0.081050  0.951590  0.896050  1.0  -0.6382
  O  O266  1  0.179520  0.876960  0.805740  1.0  -0.6379
  O  O267  1  0.571310  0.896050  0.951590  1.0  -0.6369
  O  O268  1  0.637780  0.805740  0.876960  1.0  -0.6406
  O  O269  1  0.451590  0.581050  0.071310  1.0  -0.6438
  O  O270  1  0.376960  0.679520  0.137780  1.0  -0.6382
  O  O271  1  0.396050  0.071310  0.581050  1.0  -0.6394
  O  O272  1  0.305740  0.137780  0.679520  1.0  -0.6357
  O  O273  1  0.081050  0.896050  0.071310  1.0  -0.6402
  O  O274  1  0.179520  0.805740  0.137780  1.0  -0.6408
  O  O275  1  0.571310  0.951590  0.581050  1.0  -0.6382
  O  O276  1  0.637780  0.876960  0.679520  1.0  -0.6378
  O  O277  1  0.451590  0.071310  0.896050  1.0  -0.638
  O  O278  1  0.376960  0.137780  0.805740  1.0  -0.6365
  O  O279  1  0.396050  0.581050  0.951590  1.0  -0.6464
  O  O280  1  0.305740  0.679520  0.876960  1.0  -0.6372
  O  O281  1  0.928690  0.918950  0.548410  1.0  -0.6399
  O  O282  1  0.862220  0.820480  0.623040  1.0  -0.6407
  O  O283  1  0.418950  0.428690  0.603950  1.0  -0.644
  O  O284  1  0.320480  0.362220  0.694260  1.0  -0.6382
  O  O285  1  0.103950  0.548410  0.918950  1.0  -0.6387
  O  O286  1  0.194260  0.623040  0.820480  1.0  -0.6409
  O  O287  1  0.048410  0.603950  0.428690  1.0  -0.6386
  O  O288  1  0.123040  0.694260  0.362220  1.0  -0.6432
  O  O289  1  0.048410  0.918950  0.603950  1.0  -0.6412
  O  O290  1  0.123040  0.820480  0.694260  1.0  -0.6379
  O  O291  1  0.103950  0.428690  0.548410  1.0  -0.6418
  O  O292  1  0.194260  0.362220  0.623040  1.0  -0.6379
  O  O293  1  0.418950  0.548410  0.428690  1.0  -0.639
  O  O294  1  0.320480  0.623040  0.362220  1.0  -0.637
  O  O295  1  0.928690  0.603950  0.918950  1.0  -0.6363
  O  O296  1  0.862220  0.694260  0.820480  1.0  -0.6407
  O  O297  1  0.103950  0.918950  0.428690  1.0  -0.6437
  O  O298  1  0.194260  0.820480  0.362220  1.0  -0.6373
  O  O299  1  0.048410  0.428690  0.918950  1.0  -0.6403
  O  O300  1  0.123040  0.362220  0.820480  1.0  -0.6381
  O  O301  1  0.928690  0.548410  0.603950  1.0  -0.6375
  O  O302  1  0.862220  0.623040  0.694260  1.0  -0.6395
  O  O303  1  0.418950  0.603950  0.548410  1.0  -0.6418
  O  O304  1  0.320480  0.694260  0.623040  1.0  -0.6393
  O  O305  1  0.887500  0.750000  0.250000  1.0  -0.337
  O  O306  1  0.250000  0.387500  0.112500  1.0  -0.3383
  O  O307  1  0.750000  0.112500  0.387500  1.0  -0.3364
  O  O308  1  0.612500  0.250000  0.750000  1.0  -0.3369
  O  O309  1  0.887500  0.250000  0.112500  1.0  -0.3383
  O  O310  1  0.250000  0.112500  0.250000  1.0  -0.3374
  O  O311  1  0.750000  0.387500  0.750000  1.0  -0.338
  O  O312  1  0.612500  0.750000  0.387500  1.0  -0.336
  O  O313  1  0.887500  0.112500  0.750000  1.0  -0.3378
  O  O314  1  0.250000  0.250000  0.387500  1.0  -0.3332
  O  O315  1  0.750000  0.750000  0.112500  1.0  -0.3342
  O  O316  1  0.612500  0.387500  0.250000  1.0  -0.3379
  O  O317  1  0.112500  0.250000  0.750000  1.0  -0.3369
  O  O318  1  0.750000  0.612500  0.887500  1.0  -0.3364
  O  O319  1  0.250000  0.887500  0.612500  1.0  -0.3383
  O  O320  1  0.387500  0.750000  0.250000  1.0  -0.337
  O  O321  1  0.112500  0.750000  0.887500  1.0  -0.336
  O  O322  1  0.750000  0.887500  0.750000  1.0  -0.338
  O  O323  1  0.250000  0.612500  0.250000  1.0  -0.3374
  O  O324  1  0.387500  0.250000  0.612500  1.0  -0.3383
  O  O325  1  0.112500  0.887500  0.250000  1.0  -0.3379
  O  O326  1  0.750000  0.750000  0.612500  1.0  -0.3342
  O  O327  1  0.250000  0.250000  0.887500  1.0  -0.3332
  O  O328  1  0.387500  0.612500  0.750000  1.0  -0.3378
