# generated using pymatgen
data_ZnH30C44(N5O2)2
_symmetry_space_group_name_H-M   'P 1'
_cell_length_a   9.30860000
_cell_length_b   21.18290000
_cell_length_c   21.45600000
_cell_angle_alpha   90.00000000
_cell_angle_beta   90.00000000
_cell_angle_gamma   90.00000000
_symmetry_Int_Tables_number   1
_chemical_formula_structural   ZnH30C44(N5O2)2
_chemical_formula_sum   'Zn4 H120 C176 N40 O16'
_cell_volume   4230.76151492
_cell_formula_units_Z   4
loop_
 _symmetry_equiv_pos_site_id
 _symmetry_equiv_pos_as_xyz
  1  'x, y, z'
loop_
 _atom_site_type_symbol
 _atom_site_label
 _atom_site_symmetry_multiplicity
 _atom_site_fract_x
 _atom_site_fract_y
 _atom_site_fract_z
 _atom_site_occupancy
 _atom_site_charge
  Zn  Zn1  1  0.922750  0.502860  0.146630  1.0  0.9107
  Zn  Zn2  1  0.577250  0.497140  0.646630  1.0  0.9098
  Zn  Zn3  1  0.077250  0.002860  0.353370  1.0  0.909
  Zn  Zn4  1  0.422750  0.997140  0.853370  1.0  0.9095
  H  H5  1  0.606560  0.559740  0.142060  1.0  0.1117
  H  H6  1  0.829620  0.495340  0.003140  1.0  0.0941
  H  H7  1  0.815920  0.529690  0.754150  1.0  0.108
  H  H8  1  0.504720  0.635570  0.694760  1.0  0.0851
  H  H9  1  0.532310  0.674240  0.213480  1.0  0.1012
  H  H10  1  0.560810  0.828380  0.304590  1.0  0.0988
  H  H11  1  0.471540  0.617040  0.952680  1.0  0.1122
  H  H12  1  0.255180  0.667350  0.935890  1.0  0.1042
  H  H13  1  0.129430  0.623230  0.109090  1.0  0.0945
  H  H14  1  0.346080  0.573920  0.126510  1.0  0.1101
  H  H15  1  0.783980  0.724250  0.835060  1.0  0.1062
  H  H16  1  0.893980  0.748830  0.928140  1.0  0.0924
  H  H17  1  0.024530  0.568950  0.945380  1.0  0.1054
  H  H18  1  0.902190  0.543280  0.855730  1.0  0.1235
  H  H19  1  0.936810  0.773700  0.185100  1.0  0.1236
  H  H20  1  0.083210  0.747250  0.102550  1.0  0.0968
  H  H21  1  0.756250  0.656620  0.020420  1.0  0.0878
  H  H22  1  0.607030  0.688390  0.100320  1.0  0.1036
  H  H23  1  0.351330  0.447110  0.142000  1.0  0.1016
  H  H24  1  0.579230  0.403220  0.133820  1.0  0.0989
  H  H25  1  0.493460  0.354420  0.957050  1.0  0.0906
  H  H26  1  0.265510  0.397110  0.966970  1.0  0.1099
  H  H27  1  0.238260  0.172100  0.189330  1.0  0.0958
  H  H28  1  0.158680  0.244570  0.117770  1.0  0.1084
  H  H29  1  0.753040  0.212300  0.171300  1.0  0.1125
  H  H30  1  0.833520  0.142570  0.245820  1.0  0.0989
  H  H31  1  0.064990  0.269010  0.027540  1.0  0.1083
  H  H32  1  0.975440  0.327930  0.945540  1.0  0.1067
  H  H33  1  0.753240  0.375630  0.953450  1.0  0.1073
  H  H34  1  0.705660  0.302980  0.124160  1.0  0.101
  H  H35  1  0.893440  0.440260  0.642060  1.0  0.1115
  H  H36  1  0.670380  0.504660  0.503140  1.0  0.0935
  H  H37  1  0.684080  0.470310  0.254150  1.0  0.1081
  H  H38  1  0.995280  0.364430  0.194760  1.0  0.0857
  H  H39  1  0.967690  0.325760  0.713480  1.0  0.1012
  H  H40  1  0.939190  0.171620  0.804590  1.0  0.0989
  H  H41  1  0.028460  0.382960  0.452680  1.0  0.113
  H  H42  1  0.244820  0.332650  0.435890  1.0  0.1049
  H  H43  1  0.370570  0.376770  0.609090  1.0  0.0948
  H  H44  1  0.153920  0.426080  0.626510  1.0  0.1096
  H  H45  1  0.716020  0.275750  0.335060  1.0  0.1063
  H  H46  1  0.606020  0.251170  0.428140  1.0  0.092
  H  H47  1  0.475470  0.431050  0.445380  1.0  0.1063
  H  H48  1  0.597810  0.456720  0.355730  1.0  0.123
  H  H49  1  0.563190  0.226300  0.685100  1.0  0.1234
  H  H50  1  0.416790  0.252750  0.602550  1.0  0.096
  H  H51  1  0.743750  0.343380  0.520420  1.0  0.0877
  H  H52  1  0.892970  0.311610  0.600320  1.0  0.1034
  H  H53  1  0.148670  0.552890  0.642000  1.0  0.1018
  H  H54  1  0.920770  0.596780  0.633820  1.0  0.0986
  H  H55  1  0.006540  0.645580  0.457050  1.0  0.0906
  H  H56  1  0.234490  0.602890  0.466970  1.0  0.1098
  H  H57  1  0.261740  0.827900  0.689330  1.0  0.096
  H  H58  1  0.341320  0.755430  0.617770  1.0  0.1075
  H  H59  1  0.746960  0.787700  0.671300  1.0  0.1124
  H  H60  1  0.666480  0.857430  0.745820  1.0  0.099
  H  H61  1  0.435010  0.730990  0.527540  1.0  0.1081
  H  H62  1  0.524560  0.672070  0.445540  1.0  0.1062
  H  H63  1  0.746760  0.624370  0.453450  1.0  0.1072
  H  H64  1  0.794340  0.697020  0.624160  1.0  0.1005
  H  H65  1  0.393440  0.059740  0.357940  1.0  0.1108
  H  H66  1  0.170380  0.995340  0.496860  1.0  0.0936
  H  H67  1  0.184080  0.029690  0.745850  1.0  0.1068
  H  H68  1  0.495280  0.135570  0.805240  1.0  0.0856
  H  H69  1  0.467690  0.174240  0.286520  1.0  0.1002
  H  H70  1  0.439190  0.328380  0.195410  1.0  0.0985
  H  H71  1  0.528460  0.117040  0.547320  1.0  0.1121
  H  H72  1  0.744820  0.167350  0.564110  1.0  0.1036
  H  H73  1  0.870570  0.123230  0.390910  1.0  0.0951
  H  H74  1  0.653920  0.073920  0.373490  1.0  0.1112
  H  H75  1  0.216020  0.224250  0.664940  1.0  0.1065
  H  H76  1  0.106020  0.248830  0.571860  1.0  0.0924
  H  H77  1  0.975470  0.068950  0.554620  1.0  0.1063
  H  H78  1  0.097810  0.043280  0.644270  1.0  0.1235
  H  H79  1  0.063190  0.273700  0.314900  1.0  0.1235
  H  H80  1  0.916790  0.247250  0.397450  1.0  0.097
  H  H81  1  0.243750  0.156620  0.479580  1.0  0.0881
  H  H82  1  0.392970  0.188390  0.399680  1.0  0.1032
  H  H83  1  0.648670  0.947110  0.358000  1.0  0.1021
  H  H84  1  0.420770  0.903220  0.366180  1.0  0.0987
  H  H85  1  0.506540  0.854420  0.542950  1.0  0.0903
  H  H86  1  0.734490  0.897110  0.533030  1.0  0.1098
  H  H87  1  0.761740  0.672100  0.310670  1.0  0.0958
  H  H88  1  0.841320  0.744570  0.382230  1.0  0.108
  H  H89  1  0.246960  0.712300  0.328700  1.0  0.1117
  H  H90  1  0.166480  0.642570  0.254180  1.0  0.0989
  H  H91  1  0.935010  0.769010  0.472460  1.0  0.1083
  H  H92  1  0.024560  0.827930  0.554460  1.0  0.1068
  H  H93  1  0.246760  0.875630  0.546550  1.0  0.1067
  H  H94  1  0.294340  0.802980  0.375840  1.0  0.1003
  H  H95  1  0.106560  0.940260  0.857940  1.0  0.1112
  H  H96  1  0.329620  0.004660  0.996860  1.0  0.0946
  H  H97  1  0.315920  0.970310  0.245850  1.0  0.1076
  H  H98  1  0.004720  0.864430  0.305240  1.0  0.0848
  H  H99  1  0.032310  0.825760  0.786520  1.0  0.1012
  H  H100  1  0.060810  0.671620  0.695410  1.0  0.0988
  H  H101  1  0.971540  0.882960  0.047320  1.0  0.1123
  H  H102  1  0.755180  0.832650  0.064110  1.0  0.1044
  H  H103  1  0.629430  0.876770  0.890910  1.0  0.0946
  H  H104  1  0.846080  0.926080  0.873490  1.0  0.1108
  H  H105  1  0.283980  0.775750  0.164940  1.0  0.1066
  H  H106  1  0.393980  0.751170  0.071860  1.0  0.0922
  H  H107  1  0.524530  0.931050  0.054620  1.0  0.106
  H  H108  1  0.402190  0.956720  0.144270  1.0  0.1227
  H  H109  1  0.436810  0.726300  0.814900  1.0  0.1237
  H  H110  1  0.583210  0.752750  0.897450  1.0  0.0961
  H  H111  1  0.256250  0.843380  0.979580  1.0  0.0878
  H  H112  1  0.107030  0.811610  0.899680  1.0  0.1039
  H  H113  1  0.851330  0.052890  0.858000  1.0  0.1021
  H  H114  1  0.079230  0.096780  0.866180  1.0  0.099
  H  H115  1  0.993460  0.145580  0.042950  1.0  0.0903
  H  H116  1  0.765510  0.102890  0.033030  1.0  0.1102
  H  H117  1  0.738260  0.327900  0.810670  1.0  0.0957
  H  H118  1  0.658680  0.255430  0.882230  1.0  0.1086
  H  H119  1  0.253040  0.287700  0.828700  1.0  0.1134
  H  H120  1  0.333520  0.357430  0.754180  1.0  0.0985
  H  H121  1  0.564990  0.230990  0.972460  1.0  0.1082
  H  H122  1  0.475440  0.172070  0.054460  1.0  0.1067
  H  H123  1  0.253240  0.124370  0.046550  1.0  0.107
  H  H124  1  0.205660  0.197020  0.875840  1.0  0.1012
  C  C125  1  0.636600  0.548600  0.102200  1.0  0.1415
  C  C126  1  0.755900  0.514100  0.025800  1.0  0.2549
  C  C127  1  0.750900  0.562600  0.749100  1.0  0.1528
  C  C128  1  0.582300  0.621100  0.718100  1.0  0.2596
  C  C129  1  0.560600  0.713900  0.227400  1.0  0.1808
  C  C130  1  0.578600  0.796800  0.275500  1.0  0.3126
  C  C131  1  0.429300  0.589650  0.041200  1.0  0.123
  C  C132  1  0.402500  0.618100  0.984000  1.0  -0.1324
  C  C133  1  0.272800  0.647800  0.974000  1.0  -0.1479
  C  C134  1  0.167700  0.649000  0.020400  1.0  0.1699
  C  C135  1  0.197600  0.621700  0.077400  1.0  -0.1841
  C  C136  1  0.327200  0.592200  0.087900  1.0  -0.1558
  C  C137  1  0.829100  0.630800  0.837800  1.0  0.1278
  C  C138  1  0.829100  0.693000  0.858300  1.0  -0.1829
  C  C139  1  0.896500  0.707600  0.913200  1.0  -0.1751
  C  C140  1  0.969000  0.661000  0.946800  1.0  0.1359
  C  C141  1  0.973200  0.599800  0.924100  1.0  -0.1509
  C  C142  1  0.901700  0.584600  0.870300  1.0  -0.1635
  C  C143  1  0.758300  0.732200  0.150800  1.0  0.1312
  C  C144  1  0.900700  0.750400  0.151900  1.0  -0.1687
  C  C145  1  0.988400  0.733400  0.102900  1.0  -0.1474
  C  C146  1  0.938900  0.696230  0.053900  1.0  0.1869
  C  C147  1  0.793300  0.680100  0.053400  1.0  -0.1127
  C  C148  1  0.704100  0.698700  0.101400  1.0  -0.1694
  C  C149  1  0.135300  0.454300  0.060900  1.0  0.6604
  C  C150  1  0.098300  0.099400  0.269900  1.0  0.666
  C  C151  1  0.283700  0.424500  0.055800  1.0  -0.1129
  C  C152  1  0.379000  0.427500  0.105100  1.0  -0.0555
  C  C153  1  0.516500  0.401400  0.100100  1.0  -0.0967
  C  C154  1  0.559500  0.372700  0.044800  1.0  0.0486
  C  C155  1  0.465200  0.372100  0.994800  1.0  -0.1048
  C  C156  1  0.327900  0.398000  0.000800  1.0  -0.0286
  C  C157  1  0.044500  0.147600  0.224100  1.0  -0.1106
  C  C158  1  0.140300  0.179900  0.185700  1.0  -0.0498
  C  C159  1  0.092400  0.223200  0.142400  1.0  -0.1266
  C  C160  1  0.945700  0.235500  0.135000  1.0  0.0434
  C  C161  1  0.851000  0.204400  0.174700  1.0  -0.1062
  C  C162  1  0.899000  0.161800  0.219100  1.0  -0.0381
  C  C163  1  0.893600  0.278300  0.084800  1.0  0.028
  C  C164  1  0.974400  0.287200  0.030700  1.0  -0.1009
  C  C165  1  0.921200  0.323000  0.981600  1.0  -0.0881
  C  C166  1  0.787800  0.351200  0.986200  1.0  -0.1071
  C  C167  1  0.705600  0.343400  0.039300  1.0  0.0141
  C  C168  1  0.760200  0.307600  0.088100  1.0  -0.1235
  C  C169  1  0.863400  0.451400  0.602200  1.0  0.1404
  C  C170  1  0.744100  0.485900  0.525800  1.0  0.255
  C  C171  1  0.749100  0.437400  0.249100  1.0  0.1541
  C  C172  1  0.917700  0.378900  0.218100  1.0  0.2582
  C  C173  1  0.939400  0.286100  0.727400  1.0  0.1809
  C  C174  1  0.921400  0.203200  0.775500  1.0  0.3133
  C  C175  1  0.070700  0.410350  0.541200  1.0  0.1221
  C  C176  1  0.097500  0.381900  0.484000  1.0  -0.1306
  C  C177  1  0.227200  0.352200  0.474000  1.0  -0.1482
  C  C178  1  0.332300  0.351000  0.520400  1.0  0.1693
  C  C179  1  0.302400  0.378300  0.577400  1.0  -0.1859
  C  C180  1  0.172800  0.407800  0.587900  1.0  -0.1575
  C  C181  1  0.670900  0.369200  0.337800  1.0  0.1277
  C  C182  1  0.670900  0.307000  0.358300  1.0  -0.1837
  C  C183  1  0.603500  0.292400  0.413200  1.0  -0.1751
  C  C184  1  0.531000  0.339000  0.446800  1.0  0.1352
  C  C185  1  0.526800  0.400200  0.424100  1.0  -0.1507
  C  C186  1  0.598300  0.415400  0.370300  1.0  -0.1607
  C  C187  1  0.741700  0.267800  0.650800  1.0  0.1314
  C  C188  1  0.599300  0.249600  0.651900  1.0  -0.1686
  C  C189  1  0.511600  0.266600  0.602900  1.0  -0.1466
  C  C190  1  0.561100  0.303770  0.553900  1.0  0.187
  C  C191  1  0.706700  0.319900  0.553400  1.0  -0.112
  C  C192  1  0.795900  0.301300  0.601400  1.0  -0.1703
  C  C193  1  0.364700  0.545700  0.560900  1.0  0.6628
  C  C194  1  0.401700  0.900600  0.769900  1.0  0.6672
  C  C195  1  0.216300  0.575500  0.555800  1.0  -0.1123
  C  C196  1  0.121000  0.572500  0.605100  1.0  -0.0544
  C  C197  1  0.983500  0.598600  0.600100  1.0  -0.0958
  C  C198  1  0.940500  0.627300  0.544800  1.0  0.0498
  C  C199  1  0.034800  0.627900  0.494800  1.0  -0.1068
  C  C200  1  0.172100  0.602000  0.500800  1.0  -0.0306
  C  C201  1  0.455500  0.852400  0.724100  1.0  -0.1103
  C  C202  1  0.359700  0.820100  0.685700  1.0  -0.0476
  C  C203  1  0.407600  0.776800  0.642400  1.0  -0.1255
  C  C204  1  0.554300  0.764500  0.635000  1.0  0.0428
  C  C205  1  0.649000  0.795600  0.674700  1.0  -0.1072
  C  C206  1  0.601000  0.838200  0.719100  1.0  -0.0382
  C  C207  1  0.606400  0.721700  0.584800  1.0  0.028
  C  C208  1  0.525600  0.712800  0.530700  1.0  -0.0994
  C  C209  1  0.578800  0.677000  0.481600  1.0  -0.088
  C  C210  1  0.712200  0.648800  0.486200  1.0  -0.1057
  C  C211  1  0.794400  0.656600  0.539300  1.0  0.0136
  C  C212  1  0.739800  0.692400  0.588100  1.0  -0.1224
  C  C213  1  0.363400  0.048600  0.397800  1.0  0.14
  C  C214  1  0.244100  0.014100  0.474200  1.0  0.2566
  C  C215  1  0.249100  0.062600  0.750900  1.0  0.1538
  C  C216  1  0.417700  0.121100  0.781900  1.0  0.2579
  C  C217  1  0.439400  0.213900  0.272600  1.0  0.1801
  C  C218  1  0.421400  0.296800  0.224500  1.0  0.3119
  C  C219  1  0.570700  0.089650  0.458800  1.0  0.1224
  C  C220  1  0.597500  0.118100  0.516000  1.0  -0.1295
  C  C221  1  0.727200  0.147800  0.526000  1.0  -0.147
  C  C222  1  0.832300  0.149000  0.479600  1.0  0.1697
  C  C223  1  0.802400  0.121700  0.422600  1.0  -0.1843
  C  C224  1  0.672800  0.092200  0.412100  1.0  -0.1564
  C  C225  1  0.170900  0.130800  0.662200  1.0  0.1281
  C  C226  1  0.170900  0.193000  0.641700  1.0  -0.1823
  C  C227  1  0.103500  0.207600  0.586800  1.0  -0.1739
  C  C228  1  0.031000  0.161000  0.553200  1.0  0.1357
  C  C229  1  0.026800  0.099800  0.575900  1.0  -0.1483
  C  C230  1  0.098300  0.084600  0.629700  1.0  -0.1612
  C  C231  1  0.241700  0.232200  0.349200  1.0  0.1314
  C  C232  1  0.099300  0.250400  0.348100  1.0  -0.1701
  C  C233  1  0.011600  0.233400  0.397100  1.0  -0.1478
  C  C234  1  0.061100  0.196230  0.446100  1.0  0.1868
  C  C235  1  0.206700  0.180100  0.446600  1.0  -0.1122
  C  C236  1  0.295900  0.198700  0.398600  1.0  -0.1706
  C  C237  1  0.864700  0.954300  0.439100  1.0  0.6632
  C  C238  1  0.901700  0.599400  0.230100  1.0  0.6666
  C  C239  1  0.716300  0.924500  0.444200  1.0  -0.1122
  C  C240  1  0.621000  0.927500  0.394900  1.0  -0.055
  C  C241  1  0.483500  0.901400  0.399900  1.0  -0.0978
  C  C242  1  0.440500  0.872700  0.455200  1.0  0.0497
  C  C243  1  0.534800  0.872100  0.505200  1.0  -0.1066
  C  C244  1  0.672100  0.898000  0.499200  1.0  -0.0301
  C  C245  1  0.955500  0.647600  0.275900  1.0  -0.1107
  C  C246  1  0.859700  0.679900  0.314300  1.0  -0.0473
  C  C247  1  0.907600  0.723200  0.357600  1.0  -0.1251
  C  C248  1  0.054300  0.735500  0.365000  1.0  0.0429
  C  C249  1  0.149000  0.704400  0.325300  1.0  -0.1072
  C  C250  1  0.101000  0.661800  0.280900  1.0  -0.0383
  C  C251  1  0.106400  0.778300  0.415200  1.0  0.0281
  C  C252  1  0.025600  0.787200  0.469300  1.0  -0.0994
  C  C253  1  0.078800  0.823000  0.518400  1.0  -0.0886
  C  C254  1  0.212200  0.851200  0.513800  1.0  -0.1046
  C  C255  1  0.294400  0.843400  0.460700  1.0  0.0138
  C  C256  1  0.239800  0.807600  0.411900  1.0  -0.1236
  C  C257  1  0.136600  0.951400  0.897800  1.0  0.1412
  C  C258  1  0.255900  0.985900  0.974200  1.0  0.2558
  C  C259  1  0.250900  0.937400  0.250900  1.0  0.1548
  C  C260  1  0.082300  0.878900  0.281900  1.0  0.2596
  C  C261  1  0.060600  0.786100  0.772600  1.0  0.1805
  C  C262  1  0.078600  0.703200  0.724500  1.0  0.3125
  C  C263  1  0.929300  0.910350  0.958800  1.0  0.1236
  C  C264  1  0.902500  0.881900  0.016000  1.0  -0.1307
  C  C265  1  0.772800  0.852200  0.026000  1.0  -0.1459
  C  C266  1  0.667700  0.851000  0.979600  1.0  0.1696
  C  C267  1  0.697600  0.878300  0.922600  1.0  -0.1834
  C  C268  1  0.827200  0.907800  0.912100  1.0  -0.1564
  C  C269  1  0.329100  0.869200  0.162200  1.0  0.1283
  C  C270  1  0.329100  0.807000  0.141700  1.0  -0.1827
  C  C271  1  0.396500  0.792400  0.086800  1.0  -0.1741
  C  C272  1  0.469000  0.839000  0.053200  1.0  0.1353
  C  C273  1  0.473200  0.900200  0.075900  1.0  -0.1524
  C  C274  1  0.401700  0.915400  0.129700  1.0  -0.1597
  C  C275  1  0.258300  0.767800  0.849200  1.0  0.1311
  C  C276  1  0.400700  0.749600  0.848100  1.0  -0.1701
  C  C277  1  0.488400  0.766600  0.897100  1.0  -0.1477
  C  C278  1  0.438900  0.803770  0.946100  1.0  0.1871
  C  C279  1  0.293300  0.819900  0.946600  1.0  -0.1112
  C  C280  1  0.204100  0.801300  0.898600  1.0  -0.17
  C  C281  1  0.635300  0.045700  0.939100  1.0  0.6606
  C  C282  1  0.598300  0.400600  0.730100  1.0  0.6671
  C  C283  1  0.783700  0.075500  0.944200  1.0  -0.1135
  C  C284  1  0.879000  0.072500  0.894900  1.0  -0.0555
  C  C285  1  0.016500  0.098600  0.899900  1.0  -0.0984
  C  C286  1  0.059500  0.127300  0.955200  1.0  0.0486
  C  C287  1  0.965200  0.127900  0.005200  1.0  -0.1053
  C  C288  1  0.827900  0.102000  0.999200  1.0  -0.0289
  C  C289  1  0.544500  0.352400  0.775900  1.0  -0.1106
  C  C290  1  0.640300  0.320100  0.814300  1.0  -0.0493
  C  C291  1  0.592400  0.276800  0.857600  1.0  -0.1267
  C  C292  1  0.445700  0.264500  0.865000  1.0  0.0435
  C  C293  1  0.351000  0.295600  0.825300  1.0  -0.1063
  C  C294  1  0.399000  0.338200  0.780900  1.0  -0.0394
  C  C295  1  0.393600  0.221700  0.915200  1.0  0.0282
  C  C296  1  0.474400  0.212800  0.969300  1.0  -0.1011
  C  C297  1  0.421200  0.177000  0.018400  1.0  -0.0887
  C  C298  1  0.287800  0.148800  0.013800  1.0  -0.1052
  C  C299  1  0.205600  0.156600  0.960700  1.0  0.0144
  C  C300  1  0.260200  0.192400  0.911900  1.0  -0.1244
  N  N301  1  0.760600  0.521100  0.088100  1.0  -0.3994
  N  N302  1  0.562500  0.557730  0.049960  1.0  0.1297
  N  N303  1  0.637900  0.535960  0.999740  1.0  -0.3643
  N  N304  1  0.647900  0.564570  0.706760  1.0  -0.4193
  N  N305  1  0.747800  0.614640  0.783230  1.0  0.1226
  N  N306  1  0.637400  0.653320  0.764230  1.0  -0.3749
  N  N307  1  0.502200  0.743200  0.275000  1.0  -0.4029
  N  N308  1  0.666400  0.748100  0.201240  1.0  0.1334
  N  N309  1  0.681000  0.803000  0.232500  1.0  -0.3755
  N  N310  1  0.031800  0.676100  0.006280  1.0  -0.2086
  N  N311  1  0.739400  0.478900  0.588100  1.0  -0.4008
  N  N312  1  0.937500  0.442270  0.549960  1.0  0.1305
  N  N313  1  0.862100  0.464040  0.499740  1.0  -0.3641
  N  N314  1  0.852100  0.435430  0.206760  1.0  -0.4194
  N  N315  1  0.752200  0.385360  0.283230  1.0  0.1229
  N  N316  1  0.862600  0.346680  0.264230  1.0  -0.3741
  N  N317  1  0.997800  0.256800  0.775000  1.0  -0.4025
  N  N318  1  0.833600  0.251900  0.701240  1.0  0.1338
  N  N319  1  0.819000  0.197000  0.732500  1.0  -0.3742
  N  N320  1  0.468200  0.323900  0.506280  1.0  -0.2087
  N  N321  1  0.239400  0.021100  0.411900  1.0  -0.4003
  N  N322  1  0.437500  0.057730  0.450040  1.0  0.1324
  N  N323  1  0.362100  0.035960  0.500260  1.0  -0.3675
  N  N324  1  0.352100  0.064570  0.793240  1.0  -0.4194
  N  N325  1  0.252200  0.114640  0.716770  1.0  0.1229
  N  N326  1  0.362600  0.153320  0.735770  1.0  -0.3758
  N  N327  1  0.497800  0.243200  0.225000  1.0  -0.4039
  N  N328  1  0.333600  0.248100  0.298760  1.0  0.1341
  N  N329  1  0.319000  0.303000  0.267500  1.0  -0.3749
  N  N330  1  0.968200  0.176100  0.493720  1.0  -0.209
  N  N331  1  0.260600  0.978900  0.911900  1.0  -0.3997
  N  N332  1  0.062500  0.942270  0.950040  1.0  0.1312
  N  N333  1  0.137900  0.964040  0.000260  1.0  -0.3691
  N  N334  1  0.147900  0.935430  0.293240  1.0  -0.4194
  N  N335  1  0.247800  0.885360  0.216770  1.0  0.1227
  N  N336  1  0.137400  0.846680  0.235770  1.0  -0.3764
  N  N337  1  0.002200  0.756800  0.725000  1.0  -0.4024
  N  N338  1  0.166400  0.751900  0.798760  1.0  0.1338
  N  N339  1  0.181000  0.697000  0.767500  1.0  -0.3745
  N  N340  1  0.531800  0.823900  0.993720  1.0  -0.2085
  O  O341  1  0.092800  0.461230  0.117150  1.0  -0.6069
  O  O342  1  0.070900  0.470450  0.014350  1.0  -0.5454
  O  O343  1  0.003500  0.074530  0.305560  1.0  -0.6145
  O  O344  1  0.227600  0.085160  0.271020  1.0  -0.5866
  O  O345  1  0.407200  0.538770  0.617150  1.0  -0.6079
  O  O346  1  0.429100  0.529550  0.514350  1.0  -0.5451
  O  O347  1  0.496500  0.925470  0.805560  1.0  -0.6129
  O  O348  1  0.272400  0.914840  0.771020  1.0  -0.5861
  O  O349  1  0.907200  0.961230  0.382850  1.0  -0.6064
  O  O350  1  0.929100  0.970450  0.485650  1.0  -0.5448
  O  O351  1  0.996500  0.574530  0.194440  1.0  -0.6133
  O  O352  1  0.772400  0.585160  0.228980  1.0  -0.5855
  O  O353  1  0.592800  0.038770  0.882850  1.0  -0.6063
  O  O354  1  0.570900  0.029550  0.985650  1.0  -0.5448
  O  O355  1  0.503500  0.425470  0.694440  1.0  -0.6133
  O  O356  1  0.727600  0.414840  0.728980  1.0  -0.5858
