# generated using pymatgen
data_ZnH30C44(N5O2)2
_symmetry_space_group_name_H-M   'P 1'
_cell_length_a   9.32720000
_cell_length_b   21.37700000
_cell_length_c   21.37700000
_cell_angle_alpha   90.00000000
_cell_angle_beta   90.00000000
_cell_angle_gamma   90.00000000
_symmetry_Int_Tables_number   1
_chemical_formula_structural   ZnH30C44(N5O2)2
_chemical_formula_sum   'Zn4 H120 C176 N40 O16'
_cell_volume   4262.30775041
_cell_formula_units_Z   4
loop_
 _symmetry_equiv_pos_site_id
 _symmetry_equiv_pos_as_xyz
  1  'x, y, z'
loop_
 _atom_site_type_symbol
 _atom_site_label
 _atom_site_symmetry_multiplicity
 _atom_site_fract_x
 _atom_site_fract_y
 _atom_site_fract_z
 _atom_site_occupancy
 _atom_site_charge
  Zn  Zn1  1  0.422720  0.996940  0.646940  1.0  0.8562
  Zn  Zn2  1  0.077280  0.003060  0.146940  1.0  0.8557
  Zn  Zn3  1  0.577280  0.496940  0.853060  1.0  0.854
  Zn  Zn4  1  0.922720  0.503060  0.353060  1.0  0.8548
  H  H5  1  0.106860  0.940200  0.642680  1.0  0.1148
  H  H6  1  0.328730  0.004270  0.503000  1.0  0.0921
  H  H7  1  0.317360  0.970000  0.253890  1.0  0.1067
  H  H8  1  0.004870  0.864840  0.194900  1.0  0.0831
  H  H9  1  0.031100  0.825880  0.713640  1.0  0.1094
  H  H10  1  0.060610  0.672520  0.805410  1.0  0.096
  H  H11  1  0.972680  0.882100  0.453180  1.0  0.1093
  H  H12  1  0.756010  0.832240  0.436020  1.0  0.1049
  H  H13  1  0.629820  0.876510  0.609880  1.0  0.0963
  H  H14  1  0.845830  0.926290  0.626900  1.0  0.1106
  H  H15  1  0.284660  0.776080  0.335040  1.0  0.1102
  H  H16  1  0.397460  0.751420  0.427990  1.0  0.0984
  H  H17  1  0.525000  0.930700  0.446020  1.0  0.113
  H  H18  1  0.403110  0.956060  0.355540  1.0  0.1259
  H  H19  1  0.583430  0.753080  0.603240  1.0  0.0976
  H  H20  1  0.435650  0.726390  0.685420  1.0  0.1173
  H  H21  1  0.107330  0.811930  0.600080  1.0  0.1006
  H  H22  1  0.257240  0.843460  0.520190  1.0  0.0923
  H  H23  1  0.852010  0.052970  0.642400  1.0  0.1062
  H  H24  1  0.079280  0.096220  0.633720  1.0  0.0981
  H  H25  1  0.991640  0.145710  0.457090  1.0  0.1038
  H  H26  1  0.765320  0.104250  0.467250  1.0  0.1118
  H  H27  1  0.738840  0.327520  0.688730  1.0  0.1036
  H  H28  1  0.659410  0.255370  0.617300  1.0  0.1108
  H  H29  1  0.253460  0.287380  0.671540  1.0  0.1133
  H  H30  1  0.334010  0.357080  0.745840  1.0  0.1104
  H  H31  1  0.563780  0.230550  0.527010  1.0  0.1047
  H  H32  1  0.475240  0.171980  0.444900  1.0  0.1142
  H  H33  1  0.253330  0.124470  0.453120  1.0  0.107
  H  H34  1  0.206140  0.196640  0.624330  1.0  0.1035
  H  H35  1  0.393140  0.059800  0.142680  1.0  0.1145
  H  H36  1  0.171270  0.995730  0.003000  1.0  0.0914
  H  H37  1  0.182640  0.030000  0.753890  1.0  0.1065
  H  H38  1  0.495130  0.135160  0.694900  1.0  0.084
  H  H39  1  0.468900  0.174120  0.213640  1.0  0.1091
  H  H40  1  0.439390  0.327480  0.305410  1.0  0.0965
  H  H41  1  0.527320  0.117900  0.953180  1.0  0.1091
  H  H42  1  0.743990  0.167760  0.936020  1.0  0.1039
  H  H43  1  0.870180  0.123490  0.109880  1.0  0.0965
  H  H44  1  0.654170  0.073710  0.126900  1.0  0.1109
  H  H45  1  0.215340  0.223920  0.835040  1.0  0.1107
  H  H46  1  0.102540  0.248580  0.927990  1.0  0.0983
  H  H47  1  0.975000  0.069300  0.946020  1.0  0.1123
  H  H48  1  0.096890  0.043940  0.855540  1.0  0.1263
  H  H49  1  0.916570  0.246920  0.103240  1.0  0.0984
  H  H50  1  0.064350  0.273610  0.185420  1.0  0.1169
  H  H51  1  0.392670  0.188070  0.100080  1.0  0.1004
  H  H52  1  0.242760  0.156540  0.020190  1.0  0.0919
  H  H53  1  0.647990  0.947030  0.142400  1.0  0.1055
  H  H54  1  0.420720  0.903780  0.133720  1.0  0.0974
  H  H55  1  0.508360  0.854290  0.957090  1.0  0.1044
  H  H56  1  0.734680  0.895750  0.967250  1.0  0.1117
  H  H57  1  0.761160  0.672480  0.188730  1.0  0.1031
  H  H58  1  0.840590  0.744630  0.117300  1.0  0.1108
  H  H59  1  0.246540  0.712620  0.171540  1.0  0.1124
  H  H60  1  0.165990  0.642920  0.245840  1.0  0.1108
  H  H61  1  0.936220  0.769450  0.027010  1.0  0.1048
  H  H62  1  0.024760  0.828020  0.944900  1.0  0.1141
  H  H63  1  0.246670  0.875530  0.953120  1.0  0.1072
  H  H64  1  0.293860  0.803360  0.124330  1.0  0.1036
  H  H65  1  0.893140  0.440200  0.857320  1.0  0.1137
  H  H66  1  0.671270  0.504270  0.997000  1.0  0.0919
  H  H67  1  0.682640  0.470000  0.246110  1.0  0.1069
  H  H68  1  0.995130  0.364840  0.305100  1.0  0.0837
  H  H69  1  0.968900  0.325880  0.786360  1.0  0.109
  H  H70  1  0.939390  0.172520  0.694590  1.0  0.0956
  H  H71  1  0.027320  0.382100  0.046820  1.0  0.1088
  H  H72  1  0.243990  0.332240  0.063980  1.0  0.1036
  H  H73  1  0.370180  0.376510  0.890120  1.0  0.0965
  H  H74  1  0.154170  0.426290  0.873100  1.0  0.1113
  H  H75  1  0.715340  0.276080  0.164960  1.0  0.111
  H  H76  1  0.602540  0.251420  0.072010  1.0  0.0983
  H  H77  1  0.475000  0.430700  0.053980  1.0  0.1137
  H  H78  1  0.596890  0.456060  0.144460  1.0  0.126
  H  H79  1  0.416570  0.253080  0.896760  1.0  0.0973
  H  H80  1  0.564350  0.226390  0.814580  1.0  0.1172
  H  H81  1  0.892670  0.311930  0.899920  1.0  0.1003
  H  H82  1  0.742760  0.343460  0.979810  1.0  0.0919
  H  H83  1  0.147990  0.552970  0.857600  1.0  0.1063
  H  H84  1  0.920720  0.596220  0.866280  1.0  0.097
  H  H85  1  0.008360  0.645710  0.042910  1.0  0.1039
  H  H86  1  0.234680  0.604250  0.032750  1.0  0.1119
  H  H87  1  0.261160  0.827520  0.811270  1.0  0.103
  H  H88  1  0.340590  0.755370  0.882700  1.0  0.1107
  H  H89  1  0.746540  0.787380  0.828460  1.0  0.113
  H  H90  1  0.665990  0.857080  0.754160  1.0  0.1112
  H  H91  1  0.436220  0.730550  0.972990  1.0  0.1048
  H  H92  1  0.524760  0.671980  0.055100  1.0  0.1145
  H  H93  1  0.746670  0.624470  0.046880  1.0  0.1069
  H  H94  1  0.793860  0.696640  0.875670  1.0  0.1034
  H  H95  1  0.606860  0.559800  0.357320  1.0  0.1138
  H  H96  1  0.828730  0.495730  0.497000  1.0  0.093
  H  H97  1  0.817360  0.530000  0.746110  1.0  0.1063
  H  H98  1  0.504870  0.635160  0.805100  1.0  0.0831
  H  H99  1  0.531100  0.674120  0.286360  1.0  0.1088
  H  H100  1  0.560610  0.827480  0.194590  1.0  0.0962
  H  H101  1  0.472680  0.617900  0.546820  1.0  0.1089
  H  H102  1  0.256010  0.667760  0.563980  1.0  0.1032
  H  H103  1  0.129820  0.623490  0.390120  1.0  0.096
  H  H104  1  0.345830  0.573710  0.373100  1.0  0.1115
  H  H105  1  0.784660  0.723920  0.664960  1.0  0.1104
  H  H106  1  0.897460  0.748580  0.572010  1.0  0.0985
  H  H107  1  0.025000  0.569300  0.553980  1.0  0.1133
  H  H108  1  0.903110  0.543940  0.644460  1.0  0.1262
  H  H109  1  0.083430  0.746920  0.396760  1.0  0.0978
  H  H110  1  0.935650  0.773610  0.314580  1.0  0.1178
  H  H111  1  0.607330  0.688070  0.399920  1.0  0.1001
  H  H112  1  0.757240  0.656540  0.479810  1.0  0.0924
  H  H113  1  0.352010  0.447030  0.357600  1.0  0.1061
  H  H114  1  0.579280  0.403780  0.366280  1.0  0.0978
  H  H115  1  0.491640  0.354290  0.542910  1.0  0.1032
  H  H116  1  0.265320  0.395750  0.532750  1.0  0.1119
  H  H117  1  0.238840  0.172480  0.311270  1.0  0.1032
  H  H118  1  0.159410  0.244630  0.382700  1.0  0.111
  H  H119  1  0.753460  0.212620  0.328460  1.0  0.1128
  H  H120  1  0.834010  0.142920  0.254160  1.0  0.1105
  H  H121  1  0.063780  0.269450  0.472990  1.0  0.1051
  H  H122  1  0.975240  0.328020  0.555100  1.0  0.1143
  H  H123  1  0.753330  0.375530  0.546880  1.0  0.1069
  H  H124  1  0.706140  0.303360  0.375670  1.0  0.1036
  C  C125  1  0.136600  0.951290  0.602660  1.0  0.1375
  C  C126  1  0.255400  0.985730  0.525910  1.0  0.2801
  C  C127  1  0.252000  0.937500  0.249050  1.0  0.1459
  C  C128  1  0.082700  0.878980  0.218140  1.0  0.2513
  C  C129  1  0.059800  0.786600  0.727600  1.0  0.1846
  C  C130  1  0.078500  0.703800  0.776200  1.0  0.3153
  C  C131  1  0.929000  0.910190  0.541590  1.0  0.1497
  C  C132  1  0.903200  0.881440  0.484380  1.0  -0.1161
  C  C133  1  0.773200  0.851750  0.474170  1.0  -0.1505
  C  C134  1  0.667600  0.850800  0.520500  1.0  0.1362
  C  C135  1  0.697600  0.878180  0.578020  1.0  -0.1746
  C  C136  1  0.827200  0.907860  0.588340  1.0  -0.1281
  C  C137  1  0.329700  0.869030  0.337840  1.0  0.0916
  C  C138  1  0.330100  0.807030  0.358310  1.0  -0.156
  C  C139  1  0.398500  0.792340  0.413230  1.0  -0.1829
  C  C140  1  0.469700  0.838930  0.446920  1.0  0.1021
  C  C141  1  0.474000  0.900170  0.424450  1.0  -0.1521
  C  C142  1  0.402500  0.915140  0.370310  1.0  -0.1563
  C  C143  1  0.438800  0.803580  0.554280  1.0  0.1564
  C  C144  1  0.488700  0.766630  0.603400  1.0  -0.1651
  C  C145  1  0.400100  0.749800  0.652190  1.0  -0.1323
  C  C146  1  0.257500  0.768130  0.651220  1.0  0.1307
  C  C147  1  0.204200  0.801640  0.601380  1.0  -0.1709
  C  C148  1  0.293600  0.820070  0.553270  1.0  -0.1683
  C  C149  1  0.635400  0.045770  0.560600  1.0  0.6656
  C  C150  1  0.599500  0.400420  0.769460  1.0  0.6696
  C  C151  1  0.783200  0.075280  0.556030  1.0  -0.1412
  C  C152  1  0.879100  0.072400  0.605300  1.0  -0.0506
  C  C153  1  0.016400  0.098250  0.600000  1.0  -0.1063
  C  C154  1  0.059700  0.127020  0.544700  1.0  0.0621
  C  C155  1  0.964100  0.127900  0.494900  1.0  -0.1128
  C  C156  1  0.828000  0.102700  0.501100  1.0  -0.0264
  C  C157  1  0.545600  0.352430  0.723610  1.0  -0.1035
  C  C158  1  0.641000  0.319900  0.685150  1.0  -0.0378
  C  C159  1  0.593300  0.276630  0.641950  1.0  -0.1349
  C  C160  1  0.445600  0.264220  0.634650  1.0  0.0659
  C  C161  1  0.351200  0.295400  0.674700  1.0  -0.098
  C  C162  1  0.399200  0.338000  0.719030  1.0  -0.0434
  C  C163  1  0.394100  0.221230  0.584490  1.0  0.0102
  C  C164  1  0.473500  0.212300  0.530340  1.0  -0.0859
  C  C165  1  0.421100  0.176900  0.481100  1.0  -0.0827
  C  C166  1  0.287700  0.148700  0.486000  1.0  -0.1076
  C  C167  1  0.204700  0.156260  0.539430  1.0  0.0291
  C  C168  1  0.260100  0.191990  0.588050  1.0  -0.1227
  C  C169  1  0.363400  0.048710  0.102660  1.0  0.137
  C  C170  1  0.244600  0.014270  0.025910  1.0  0.2809
  C  C171  1  0.248000  0.062500  0.749050  1.0  0.1454
  C  C172  1  0.417300  0.121020  0.718140  1.0  0.2493
  C  C173  1  0.440200  0.213400  0.227600  1.0  0.1842
  C  C174  1  0.421500  0.296200  0.276200  1.0  0.3133
  C  C175  1  0.571000  0.089810  0.041590  1.0  0.1489
  C  C176  1  0.596800  0.118560  0.984380  1.0  -0.1153
  C  C177  1  0.726800  0.148250  0.974170  1.0  -0.1511
  C  C178  1  0.832400  0.149200  0.020500  1.0  0.1368
  C  C179  1  0.802400  0.121820  0.078020  1.0  -0.1747
  C  C180  1  0.672800  0.092140  0.088340  1.0  -0.13
  C  C181  1  0.170300  0.130970  0.837840  1.0  0.0925
  C  C182  1  0.169900  0.192970  0.858310  1.0  -0.1574
  C  C183  1  0.101500  0.207660  0.913230  1.0  -0.1825
  C  C184  1  0.030300  0.161070  0.946920  1.0  0.1027
  C  C185  1  0.026000  0.099830  0.924450  1.0  -0.1506
  C  C186  1  0.097500  0.084860  0.870310  1.0  -0.1572
  C  C187  1  0.061200  0.196420  0.054280  1.0  0.1565
  C  C188  1  0.011300  0.233370  0.103400  1.0  -0.166
  C  C189  1  0.099900  0.250200  0.152190  1.0  -0.1325
  C  C190  1  0.242500  0.231870  0.151220  1.0  0.1306
  C  C191  1  0.295800  0.198360  0.101380  1.0  -0.1727
  C  C192  1  0.206400  0.179930  0.053270  1.0  -0.1687
  C  C193  1  0.864600  0.954230  0.060600  1.0  0.668
  C  C194  1  0.900500  0.599580  0.269460  1.0  0.6685
  C  C195  1  0.716800  0.924720  0.056030  1.0  -0.1405
  C  C196  1  0.620900  0.927600  0.105300  1.0  -0.0502
  C  C197  1  0.483600  0.901750  0.100000  1.0  -0.1056
  C  C198  1  0.440300  0.872980  0.044700  1.0  0.0628
  C  C199  1  0.535900  0.872100  0.994900  1.0  -0.1135
  C  C200  1  0.672000  0.897300  0.001100  1.0  -0.0283
  C  C201  1  0.954400  0.647570  0.223610  1.0  -0.104
  C  C202  1  0.859000  0.680100  0.185150  1.0  -0.0373
  C  C203  1  0.906700  0.723370  0.141950  1.0  -0.1332
  C  C204  1  0.054400  0.735780  0.134650  1.0  0.0655
  C  C205  1  0.148800  0.704600  0.174700  1.0  -0.0974
  C  C206  1  0.100800  0.662000  0.219030  1.0  -0.0426
  C  C207  1  0.105900  0.778770  0.084490  1.0  0.0102
  C  C208  1  0.026500  0.787700  0.030340  1.0  -0.0836
  C  C209  1  0.078900  0.823100  0.981100  1.0  -0.0834
  C  C210  1  0.212300  0.851300  0.986000  1.0  -0.1078
  C  C211  1  0.295300  0.843740  0.039430  1.0  0.0285
  C  C212  1  0.239900  0.808010  0.088050  1.0  -0.1217
  C  C213  1  0.863400  0.451290  0.897340  1.0  0.1366
  C  C214  1  0.744600  0.485730  0.974090  1.0  0.2804
  C  C215  1  0.748000  0.437500  0.250950  1.0  0.1464
  C  C216  1  0.917300  0.378980  0.281860  1.0  0.2492
  C  C217  1  0.940200  0.286600  0.772400  1.0  0.1836
  C  C218  1  0.921500  0.203800  0.723800  1.0  0.3135
  C  C219  1  0.071000  0.410190  0.958410  1.0  0.1497
  C  C220  1  0.096800  0.381440  0.015620  1.0  -0.1151
  C  C221  1  0.226800  0.351750  0.025830  1.0  -0.1507
  C  C222  1  0.332400  0.350800  0.979500  1.0  0.1363
  C  C223  1  0.302400  0.378180  0.921980  1.0  -0.1737
  C  C224  1  0.172800  0.407860  0.911660  1.0  -0.1292
  C  C225  1  0.670300  0.369030  0.162160  1.0  0.0924
  C  C226  1  0.669900  0.307030  0.141690  1.0  -0.1557
  C  C227  1  0.601500  0.292340  0.086770  1.0  -0.1823
  C  C228  1  0.530300  0.338930  0.053080  1.0  0.1035
  C  C229  1  0.526000  0.400170  0.075550  1.0  -0.1517
  C  C230  1  0.597500  0.415140  0.129690  1.0  -0.155
  C  C231  1  0.561200  0.303580  0.945720  1.0  0.1567
  C  C232  1  0.511300  0.266630  0.896600  1.0  -0.1652
  C  C233  1  0.599900  0.249800  0.847810  1.0  -0.1332
  C  C234  1  0.742500  0.268130  0.848780  1.0  0.1309
  C  C235  1  0.795800  0.301640  0.898620  1.0  -0.1736
  C  C236  1  0.706400  0.320070  0.946730  1.0  -0.1675
  C  C237  1  0.364600  0.545770  0.939400  1.0  0.668
  C  C238  1  0.400500  0.900420  0.730540  1.0  0.6691
  C  C239  1  0.216800  0.575280  0.943970  1.0  -0.1404
  C  C240  1  0.120900  0.572400  0.894700  1.0  -0.051
  C  C241  1  0.983600  0.598250  0.900000  1.0  -0.1052
  C  C242  1  0.940300  0.627020  0.955300  1.0  0.0631
  C  C243  1  0.035900  0.627900  0.005100  1.0  -0.1129
  C  C244  1  0.172000  0.602700  0.998900  1.0  -0.0276
  C  C245  1  0.454400  0.852430  0.776390  1.0  -0.1032
  C  C246  1  0.359000  0.819900  0.814850  1.0  -0.0367
  C  C247  1  0.406700  0.776630  0.858050  1.0  -0.133
  C  C248  1  0.554400  0.764220  0.865350  1.0  0.0654
  C  C249  1  0.648800  0.795400  0.825300  1.0  -0.0973
  C  C250  1  0.600800  0.838000  0.780970  1.0  -0.0425
  C  C251  1  0.605900  0.721230  0.915510  1.0  0.0105
  C  C252  1  0.526500  0.712300  0.969660  1.0  -0.0838
  C  C253  1  0.578900  0.676900  0.018900  1.0  -0.0843
  C  C254  1  0.712300  0.648700  0.014000  1.0  -0.1059
  C  C255  1  0.795300  0.656260  0.960570  1.0  0.029
  C  C256  1  0.739900  0.691990  0.911950  1.0  -0.1223
  C  C257  1  0.636600  0.548710  0.397340  1.0  0.1374
  C  C258  1  0.755400  0.514270  0.474090  1.0  0.2809
  C  C259  1  0.752000  0.562500  0.750950  1.0  0.1445
  C  C260  1  0.582700  0.621020  0.781860  1.0  0.25
  C  C261  1  0.559800  0.713400  0.272400  1.0  0.1844
  C  C262  1  0.578500  0.796200  0.223800  1.0  0.314
  C  C263  1  0.429000  0.589810  0.458410  1.0  0.15
  C  C264  1  0.403200  0.618560  0.515620  1.0  -0.1166
  C  C265  1  0.273200  0.648250  0.525830  1.0  -0.1499
  C  C266  1  0.167600  0.649200  0.479500  1.0  0.1364
  C  C267  1  0.197600  0.621820  0.421980  1.0  -0.1734
  C  C268  1  0.327200  0.592140  0.411660  1.0  -0.1286
  C  C269  1  0.829700  0.630970  0.662160  1.0  0.0922
  C  C270  1  0.830100  0.692970  0.641690  1.0  -0.1561
  C  C271  1  0.898500  0.707660  0.586770  1.0  -0.1815
  C  C272  1  0.969700  0.661070  0.553080  1.0  0.1031
  C  C273  1  0.974000  0.599830  0.575550  1.0  -0.1513
  C  C274  1  0.902500  0.584860  0.629690  1.0  -0.1567
  C  C275  1  0.938800  0.696420  0.445720  1.0  0.1566
  C  C276  1  0.988700  0.733370  0.396600  1.0  -0.1656
  C  C277  1  0.900100  0.750200  0.347810  1.0  -0.1339
  C  C278  1  0.757500  0.731870  0.348780  1.0  0.1305
  C  C279  1  0.704200  0.698360  0.398620  1.0  -0.1715
  C  C280  1  0.793600  0.679930  0.446730  1.0  -0.1685
  C  C281  1  0.135400  0.454230  0.439400  1.0  0.6655
  C  C282  1  0.099500  0.099580  0.230540  1.0  0.6672
  C  C283  1  0.283200  0.424720  0.443970  1.0  -0.1411
  C  C284  1  0.379100  0.427600  0.394700  1.0  -0.051
  C  C285  1  0.516400  0.401750  0.400000  1.0  -0.1059
  C  C286  1  0.559700  0.372980  0.455300  1.0  0.062
  C  C287  1  0.464100  0.372100  0.505100  1.0  -0.1116
  C  C288  1  0.328000  0.397300  0.498900  1.0  -0.0273
  C  C289  1  0.045600  0.147570  0.276390  1.0  -0.1037
  C  C290  1  0.141000  0.180100  0.314850  1.0  -0.037
  C  C291  1  0.093300  0.223370  0.358050  1.0  -0.1347
  C  C292  1  0.945600  0.235780  0.365350  1.0  0.0663
  C  C293  1  0.851200  0.204600  0.325300  1.0  -0.0982
  C  C294  1  0.899200  0.162000  0.280970  1.0  -0.0429
  C  C295  1  0.894100  0.278770  0.415510  1.0  0.0102
  C  C296  1  0.973500  0.287700  0.469660  1.0  -0.0857
  C  C297  1  0.921100  0.323100  0.518900  1.0  -0.0824
  C  C298  1  0.787700  0.351300  0.514000  1.0  -0.1069
  C  C299  1  0.704700  0.343740  0.460570  1.0  0.0298
  C  C300  1  0.760100  0.308010  0.411950  1.0  -0.1224
  N  N301  1  0.260700  0.978960  0.588310  1.0  -0.4128
  N  N302  1  0.062400  0.942210  0.550210  1.0  0.1327
  N  N303  1  0.137900  0.963990  0.499940  1.0  -0.3649
  N  N304  1  0.148300  0.935550  0.206840  1.0  -0.4174
  N  N305  1  0.248100  0.885600  0.283530  1.0  0.1212
  N  N306  1  0.138500  0.846500  0.264310  1.0  -0.385
  N  N307  1  0.002300  0.757100  0.775600  1.0  -0.4024
  N  N308  1  0.165900  0.752370  0.701530  1.0  0.1423
  N  N309  1  0.180800  0.697800  0.733300  1.0  -0.3701
  N  N310  1  0.532400  0.823710  0.506510  1.0  -0.1985
  N  N311  1  0.239300  0.021040  0.088310  1.0  -0.4132
  N  N312  1  0.437600  0.057790  0.050210  1.0  0.1332
  N  N313  1  0.362100  0.036010  0.999940  1.0  -0.365
  N  N314  1  0.351700  0.064450  0.706840  1.0  -0.417
  N  N315  1  0.251900  0.114400  0.783530  1.0  0.1207
  N  N316  1  0.361500  0.153500  0.764310  1.0  -0.3857
  N  N317  1  0.497700  0.242900  0.275600  1.0  -0.4017
  N  N318  1  0.334100  0.247630  0.201530  1.0  0.1421
  N  N319  1  0.319200  0.302200  0.233300  1.0  -0.3702
  N  N320  1  0.967600  0.176290  0.006510  1.0  -0.1984
  N  N321  1  0.739300  0.478960  0.911690  1.0  -0.4128
  N  N322  1  0.937600  0.442210  0.949790  1.0  0.1339
  N  N323  1  0.862100  0.463990  0.000060  1.0  -0.3676
  N  N324  1  0.851700  0.435550  0.293160  1.0  -0.4183
  N  N325  1  0.751900  0.385600  0.216470  1.0  0.1215
  N  N326  1  0.861500  0.346500  0.235690  1.0  -0.3855
  N  N327  1  0.997700  0.257100  0.724400  1.0  -0.4031
  N  N328  1  0.834100  0.252370  0.798470  1.0  0.1418
  N  N329  1  0.819200  0.197800  0.766700  1.0  -0.3703
  N  N330  1  0.467600  0.323710  0.993490  1.0  -0.1987
  N  N331  1  0.760700  0.521040  0.411690  1.0  -0.4127
  N  N332  1  0.562400  0.557790  0.449790  1.0  0.1336
  N  N333  1  0.637900  0.536010  0.500060  1.0  -0.3696
  N  N334  1  0.648300  0.564450  0.793160  1.0  -0.4184
  N  N335  1  0.748100  0.614400  0.716470  1.0  0.1212
  N  N336  1  0.638500  0.653500  0.735690  1.0  -0.3858
  N  N337  1  0.502300  0.742900  0.224400  1.0  -0.4033
  N  N338  1  0.665900  0.747630  0.298470  1.0  0.1426
  N  N339  1  0.680800  0.802200  0.266700  1.0  -0.3704
  N  N340  1  0.032400  0.676290  0.493490  1.0  -0.1983
  O  O341  1  0.592700  0.038590  0.617520  1.0  -0.6064
  O  O342  1  0.570300  0.029700  0.514440  1.0  -0.535
  O  O343  1  0.504000  0.425410  0.805200  1.0  -0.6169
  O  O344  1  0.728200  0.414970  0.770380  1.0  -0.5822
  O  O345  1  0.907300  0.961410  0.117520  1.0  -0.6072
  O  O346  1  0.929700  0.970300  0.014440  1.0  -0.5346
  O  O347  1  0.996000  0.574590  0.305200  1.0  -0.6163
  O  O348  1  0.771800  0.585030  0.270380  1.0  -0.583
  O  O349  1  0.407300  0.538590  0.882480  1.0  -0.6065
  O  O350  1  0.429700  0.529700  0.985560  1.0  -0.5346
  O  O351  1  0.496000  0.925410  0.694800  1.0  -0.6157
  O  O352  1  0.271800  0.914970  0.729620  1.0  -0.5823
  O  O353  1  0.092700  0.461410  0.382480  1.0  -0.6061
  O  O354  1  0.070300  0.470300  0.485560  1.0  -0.5347
  O  O355  1  0.004000  0.074590  0.194800  1.0  -0.6165
  O  O356  1  0.228200  0.085030  0.229620  1.0  -0.5818
