# generated using pymatgen
data_CeH5C15NO6
_symmetry_space_group_name_H-M   'P 1'
_cell_length_a   23.71400000
_cell_length_b   23.71400000
_cell_length_c   16.57500000
_cell_angle_alpha   90.00000000
_cell_angle_beta   90.00000000
_cell_angle_gamma   90.00000000
_symmetry_Int_Tables_number   1
_chemical_formula_structural   CeH5C15NO6
_chemical_formula_sum   'Ce8 H40 C120 N8 O48'
_cell_volume   9321.01416870
_cell_formula_units_Z   8
loop_
 _symmetry_equiv_pos_site_id
 _symmetry_equiv_pos_as_xyz
  1  'x, y, z'
loop_
 _atom_site_type_symbol
 _atom_site_label
 _atom_site_symmetry_multiplicity
 _atom_site_fract_x
 _atom_site_fract_y
 _atom_site_fract_z
 _atom_site_occupancy
 _atom_site_charge
  Ce  Ce1  1  0.370540  0.645580  0.089400  1.0  1.8154
  Ce  Ce2  1  0.129460  0.854420  0.089400  1.0  1.8152
  Ce  Ce3  1  0.354420  0.870540  0.589400  1.0  1.8149
  Ce  Ce4  1  0.145580  0.629460  0.589400  1.0  1.815
  Ce  Ce5  1  0.629460  0.354420  0.910600  1.0  1.815
  Ce  Ce6  1  0.870540  0.145580  0.910600  1.0  1.8152
  Ce  Ce7  1  0.645580  0.129460  0.410600  1.0  1.8148
  Ce  Ce8  1  0.854420  0.370540  0.410600  1.0  1.8147
  H  H9  1  0.264500  0.617100  0.838000  1.0  0.1095
  H  H10  1  0.214600  0.468500  0.742300  1.0  0.0981
  H  H11  1  0.302300  0.471300  0.953800  1.0  0.1212
  H  H12  1  0.389000  0.293700  0.855400  1.0  0.0939
  H  H13  1  0.384400  0.192700  0.861100  1.0  0.1127
  H  H14  1  0.235500  0.882900  0.838000  1.0  0.1087
  H  H15  1  0.285400  0.031500  0.742300  1.0  0.0981
  H  H16  1  0.197700  0.028700  0.953800  1.0  0.1229
  H  H17  1  0.111000  0.206300  0.855400  1.0  0.0947
  H  H18  1  0.115600  0.307300  0.861100  1.0  0.113
  H  H19  1  0.382900  0.764500  0.338000  1.0  0.108
  H  H20  1  0.531500  0.714600  0.242300  1.0  0.099
  H  H21  1  0.528700  0.802300  0.453800  1.0  0.1216
  H  H22  1  0.706300  0.889000  0.355400  1.0  0.0936
  H  H23  1  0.807300  0.884400  0.361100  1.0  0.1121
  H  H24  1  0.117100  0.735500  0.338000  1.0  0.1083
  H  H25  1  0.968500  0.785400  0.242300  1.0  0.0995
  H  H26  1  0.971300  0.697700  0.453800  1.0  0.1222
  H  H27  1  0.793700  0.611000  0.355400  1.0  0.0947
  H  H28  1  0.692700  0.615600  0.361100  1.0  0.1138
  H  H29  1  0.735500  0.382900  0.162000  1.0  0.1086
  H  H30  1  0.785400  0.531500  0.257700  1.0  0.098
  H  H31  1  0.697700  0.528700  0.046200  1.0  0.1206
  H  H32  1  0.611000  0.706300  0.144600  1.0  0.0942
  H  H33  1  0.615600  0.807300  0.138900  1.0  0.1137
  H  H34  1  0.764500  0.117100  0.162000  1.0  0.1096
  H  H35  1  0.714600  0.968500  0.257700  1.0  0.0987
  H  H36  1  0.802300  0.971300  0.046200  1.0  0.1228
  H  H37  1  0.889000  0.793700  0.144600  1.0  0.0958
  H  H38  1  0.884400  0.692700  0.138900  1.0  0.1127
  H  H39  1  0.617100  0.235500  0.662000  1.0  0.1081
  H  H40  1  0.468500  0.285400  0.757700  1.0  0.0995
  H  H41  1  0.471300  0.197700  0.546200  1.0  0.1214
  H  H42  1  0.293700  0.111000  0.644600  1.0  0.0933
  H  H43  1  0.192700  0.115600  0.638900  1.0  0.1124
  H  H44  1  0.882900  0.264500  0.662000  1.0  0.108
  H  H45  1  0.031500  0.214600  0.757700  1.0  0.0993
  H  H46  1  0.028700  0.302300  0.546200  1.0  0.1212
  H  H47  1  0.206300  0.389000  0.644600  1.0  0.0958
  H  H48  1  0.307300  0.384400  0.638900  1.0  0.1141
  C  C49  1  0.315800  0.582600  0.969700  1.0  0.5861
  C  C50  1  0.286400  0.549700  0.904400  1.0  -0.1102
  C  C51  1  0.262900  0.577100  0.840800  1.0  0.0105
  C  C52  1  0.208100  0.575200  0.710300  1.0  0.6371
  C  C53  1  0.236000  0.546100  0.778400  1.0  -0.1433
  C  C54  1  0.233700  0.489200  0.783100  1.0  -0.1445
  C  C55  1  0.259500  0.460000  0.848400  1.0  0.1402
  C  C56  1  0.285500  0.490200  0.909400  1.0  -0.0673
  C  C57  1  0.202000  0.373100  0.856800  1.0  0.4806
  C  C58  1  0.201300  0.310600  0.857000  1.0  -0.1403
  C  C59  1  0.251300  0.280100  0.856700  1.0  0.0764
  C  C60  1  0.303700  0.307200  0.855400  1.0  -0.1416
  C  C61  1  0.308500  0.369500  0.850400  1.0  0.4844
  C  C62  1  0.353400  0.275200  0.856300  1.0  -0.0404
  C  C63  1  0.351000  0.214600  0.858600  1.0  -0.0662
  C  C64  1  0.184200  0.917400  0.969700  1.0  0.5853
  C  C65  1  0.213600  0.950300  0.904400  1.0  -0.1103
  C  C66  1  0.237100  0.922900  0.840800  1.0  0.0094
  C  C67  1  0.291900  0.924800  0.710300  1.0  0.6366
  C  C68  1  0.264000  0.953900  0.778400  1.0  -0.1439
  C  C69  1  0.266300  0.010800  0.783100  1.0  -0.1448
  C  C70  1  0.240500  0.040000  0.848400  1.0  0.14
  C  C71  1  0.214500  0.009800  0.909400  1.0  -0.0689
  C  C72  1  0.298000  0.126900  0.856800  1.0  0.4833
  C  C73  1  0.298700  0.189400  0.857000  1.0  -0.1322
  C  C74  1  0.248700  0.219900  0.856700  1.0  0.0743
  C  C75  1  0.196300  0.192800  0.855400  1.0  -0.1432
  C  C76  1  0.191500  0.130500  0.850400  1.0  0.4856
  C  C77  1  0.146600  0.224800  0.856300  1.0  -0.0427
  C  C78  1  0.149000  0.285400  0.858600  1.0  -0.0804
  C  C79  1  0.417400  0.815800  0.469700  1.0  0.5851
  C  C80  1  0.450300  0.786400  0.404400  1.0  -0.1101
  C  C81  1  0.422900  0.762900  0.340800  1.0  0.01
  C  C82  1  0.424800  0.708100  0.210300  1.0  0.6327
  C  C83  1  0.453900  0.736000  0.278400  1.0  -0.1435
  C  C84  1  0.510800  0.733700  0.283100  1.0  -0.1439
  C  C85  1  0.540000  0.759500  0.348400  1.0  0.1389
  C  C86  1  0.509800  0.785500  0.409400  1.0  -0.068
  C  C87  1  0.626900  0.702000  0.356800  1.0  0.4635
  C  C88  1  0.689400  0.701300  0.357000  1.0  -0.1303
  C  C89  1  0.719900  0.751300  0.356700  1.0  0.0744
  C  C90  1  0.692800  0.803700  0.355400  1.0  -0.1309
  C  C91  1  0.630500  0.808500  0.350400  1.0  0.4822
  C  C92  1  0.724800  0.853400  0.356300  1.0  -0.0486
  C  C93  1  0.785400  0.851000  0.358600  1.0  -0.0761
  C  C94  1  0.082600  0.684200  0.469700  1.0  0.5863
  C  C95  1  0.049700  0.713600  0.404400  1.0  -0.11
  C  C96  1  0.077100  0.737100  0.340800  1.0  0.0104
  C  C97  1  0.075200  0.791900  0.210300  1.0  0.6316
  C  C98  1  0.046100  0.764000  0.278400  1.0  -0.1425
  C  C99  1  0.989200  0.766300  0.283100  1.0  -0.1436
  C  C100  1  0.960000  0.740500  0.348400  1.0  0.1392
  C  C101  1  0.990200  0.714500  0.409400  1.0  -0.068
  C  C102  1  0.873100  0.798000  0.356800  1.0  0.4652
  C  C103  1  0.810600  0.798700  0.357000  1.0  -0.1324
  C  C104  1  0.780100  0.748700  0.356700  1.0  0.075
  C  C105  1  0.807200  0.696300  0.355400  1.0  -0.1308
  C  C106  1  0.869500  0.691500  0.350400  1.0  0.4821
  C  C107  1  0.775200  0.646600  0.356300  1.0  -0.0449
  C  C108  1  0.714600  0.649000  0.358600  1.0  -0.0721
  C  C109  1  0.684200  0.417400  0.030300  1.0  0.5849
  C  C110  1  0.713600  0.450300  0.095600  1.0  -0.1104
  C  C111  1  0.737100  0.422900  0.159200  1.0  0.009
  C  C112  1  0.791900  0.424800  0.289700  1.0  0.6403
  C  C113  1  0.764000  0.453900  0.221600  1.0  -0.1434
  C  C114  1  0.766300  0.510800  0.216900  1.0  -0.1454
  C  C115  1  0.740500  0.540000  0.151600  1.0  0.1402
  C  C116  1  0.714500  0.509800  0.090600  1.0  -0.0683
  C  C117  1  0.798000  0.626900  0.143200  1.0  0.4799
  C  C118  1  0.798700  0.689400  0.143000  1.0  -0.1429
  C  C119  1  0.748700  0.719900  0.143300  1.0  0.0727
  C  C120  1  0.696300  0.692800  0.144600  1.0  -0.1428
  C  C121  1  0.691500  0.630500  0.149600  1.0  0.4873
  C  C122  1  0.646600  0.724800  0.143700  1.0  -0.0414
  C  C123  1  0.649000  0.785400  0.141400  1.0  -0.0661
  C  C124  1  0.815800  0.082600  0.030300  1.0  0.5853
  C  C125  1  0.786400  0.049700  0.095600  1.0  -0.11
  C  C126  1  0.762900  0.077100  0.159200  1.0  0.0106
  C  C127  1  0.708100  0.075200  0.289700  1.0  0.6382
  C  C128  1  0.736000  0.046100  0.221600  1.0  -0.1431
  C  C129  1  0.733700  0.989200  0.216900  1.0  -0.1459
  C  C130  1  0.759500  0.960000  0.151600  1.0  0.1405
  C  C131  1  0.785500  0.990200  0.090600  1.0  -0.0676
  C  C132  1  0.702000  0.873100  0.143200  1.0  0.4819
  C  C133  1  0.701300  0.810600  0.143000  1.0  -0.1376
  C  C134  1  0.751300  0.780100  0.143300  1.0  0.0702
  C  C135  1  0.803700  0.807200  0.144600  1.0  -0.1414
  C  C136  1  0.808500  0.869500  0.149600  1.0  0.4843
  C  C137  1  0.853400  0.775200  0.143700  1.0  -0.0397
  C  C138  1  0.851000  0.714600  0.141400  1.0  -0.0831
  C  C139  1  0.582600  0.184200  0.530300  1.0  0.5847
  C  C140  1  0.549700  0.213600  0.595600  1.0  -0.1098
  C  C141  1  0.577100  0.237100  0.659200  1.0  0.0104
  C  C142  1  0.575200  0.291900  0.789700  1.0  0.6337
  C  C143  1  0.546100  0.264000  0.721600  1.0  -0.1428
  C  C144  1  0.489200  0.266300  0.716900  1.0  -0.1448
  C  C145  1  0.460000  0.240500  0.651600  1.0  0.1394
  C  C146  1  0.490200  0.214500  0.590600  1.0  -0.0675
  C  C147  1  0.373100  0.298000  0.643200  1.0  0.4662
  C  C148  1  0.310600  0.298700  0.643000  1.0  -0.1353
  C  C149  1  0.280100  0.248700  0.643300  1.0  0.0701
  C  C150  1  0.307200  0.196300  0.644600  1.0  -0.1331
  C  C151  1  0.369500  0.191500  0.649600  1.0  0.4823
  C  C152  1  0.275200  0.146600  0.643700  1.0  -0.0483
  C  C153  1  0.214600  0.149000  0.641400  1.0  -0.0742
  C  C154  1  0.917400  0.315800  0.530300  1.0  0.5856
  C  C155  1  0.950300  0.286400  0.595600  1.0  -0.1106
  C  C156  1  0.922900  0.262900  0.659200  1.0  0.0101
  C  C157  1  0.924800  0.208100  0.789700  1.0  0.6339
  C  C158  1  0.953900  0.236000  0.721600  1.0  -0.1424
  C  C159  1  0.010800  0.233700  0.716900  1.0  -0.1446
  C  C160  1  0.040000  0.259500  0.651600  1.0  0.1394
  C  C161  1  0.009800  0.285500  0.590600  1.0  -0.0673
  C  C162  1  0.126900  0.202000  0.643200  1.0  0.4614
  C  C163  1  0.189400  0.201300  0.643000  1.0  -0.1389
  C  C164  1  0.219900  0.251300  0.643300  1.0  0.0703
  C  C165  1  0.192800  0.303700  0.644600  1.0  -0.1309
  C  C166  1  0.130500  0.308500  0.649600  1.0  0.4844
  C  C167  1  0.224800  0.353400  0.643700  1.0  -0.0444
  C  C168  1  0.285400  0.351000  0.641400  1.0  -0.076
  N  N169  1  0.257000  0.398700  0.853500  1.0  -0.2873
  N  N170  1  0.243000  0.101300  0.853500  1.0  -0.287
  N  N171  1  0.601300  0.757000  0.353500  1.0  -0.2879
  N  N172  1  0.898700  0.743000  0.353500  1.0  -0.2875
  N  N173  1  0.743000  0.601300  0.146500  1.0  -0.2838
  N  N174  1  0.757000  0.898700  0.146500  1.0  -0.285
  N  N175  1  0.398700  0.243000  0.646500  1.0  -0.2847
  N  N176  1  0.101300  0.257000  0.646500  1.0  -0.2845
  O  O177  1  0.336900  0.557100  0.028900  1.0  -0.6983
  O  O178  1  0.317900  0.636700  0.964400  1.0  -0.6667
  O  O179  1  0.202700  0.628200  0.711300  1.0  -0.674
  O  O180  1  0.190900  0.546900  0.649900  1.0  -0.6665
  O  O181  1  0.159900  0.403000  0.860600  1.0  -0.4516
  O  O182  1  0.352100  0.393600  0.839900  1.0  -0.4571
  O  O183  1  0.163100  0.942900  0.028900  1.0  -0.6944
  O  O184  1  0.182100  0.863300  0.964400  1.0  -0.6667
  O  O185  1  0.297300  0.871800  0.711300  1.0  -0.6712
  O  O186  1  0.309100  0.953100  0.649900  1.0  -0.6671
  O  O187  1  0.340100  0.097000  0.860600  1.0  -0.4445
  O  O188  1  0.147900  0.106400  0.839900  1.0  -0.4554
  O  O189  1  0.442900  0.836900  0.528900  1.0  -0.7
  O  O190  1  0.363300  0.817900  0.464400  1.0  -0.6675
  O  O191  1  0.371800  0.702700  0.211300  1.0  -0.6702
  O  O192  1  0.453100  0.690900  0.149900  1.0  -0.6671
  O  O193  1  0.597000  0.659900  0.360600  1.0  -0.4503
  O  O194  1  0.606400  0.852100  0.339900  1.0  -0.4583
  O  O195  1  0.057100  0.663100  0.528900  1.0  -0.7019
  O  O196  1  0.136700  0.682100  0.464400  1.0  -0.6683
  O  O197  1  0.128200  0.797300  0.211300  1.0  -0.6699
  O  O198  1  0.046900  0.809100  0.149900  1.0  -0.6667
  O  O199  1  0.903000  0.840100  0.360600  1.0  -0.4404
  O  O200  1  0.893600  0.647900  0.339900  1.0  -0.4544
  O  O201  1  0.663100  0.442900  0.971100  1.0  -0.7018
  O  O202  1  0.682100  0.363300  0.035600  1.0  -0.6668
  O  O203  1  0.797300  0.371800  0.288700  1.0  -0.6716
  O  O204  1  0.809100  0.453100  0.350100  1.0  -0.6694
  O  O205  1  0.840100  0.597000  0.139400  1.0  -0.4524
  O  O206  1  0.647900  0.606400  0.160100  1.0  -0.457
  O  O207  1  0.836900  0.057100  0.971100  1.0  -0.6959
  O  O208  1  0.817900  0.136700  0.035600  1.0  -0.6669
  O  O209  1  0.702700  0.128200  0.288700  1.0  -0.674
  O  O210  1  0.690900  0.046900  0.350100  1.0  -0.6699
  O  O211  1  0.659900  0.903000  0.139400  1.0  -0.4404
  O  O212  1  0.852100  0.893600  0.160100  1.0  -0.4559
  O  O213  1  0.557100  0.163100  0.471100  1.0  -0.7043
  O  O214  1  0.636700  0.182100  0.535600  1.0  -0.6686
  O  O215  1  0.628200  0.297300  0.788700  1.0  -0.6695
  O  O216  1  0.546900  0.309100  0.850100  1.0  -0.6694
  O  O217  1  0.403000  0.340100  0.639400  1.0  -0.4475
  O  O218  1  0.393600  0.147900  0.660100  1.0  -0.458
  O  O219  1  0.942900  0.336900  0.471100  1.0  -0.7031
  O  O220  1  0.863300  0.317900  0.535600  1.0  -0.6673
  O  O221  1  0.871800  0.202700  0.788700  1.0  -0.6704
  O  O222  1  0.953100  0.190900  0.850100  1.0  -0.6704
  O  O223  1  0.097000  0.159900  0.639400  1.0  -0.4384
  O  O224  1  0.106400  0.352100  0.660100  1.0  -0.456
