# generated using pymatgen
data_ZnH11C11NO6
_symmetry_space_group_name_H-M   'P 1'
_cell_length_a   9.44690000
_cell_length_b   11.51760000
_cell_length_c   16.24560000
_cell_angle_alpha   90.00000000
_cell_angle_beta   90.00000000
_cell_angle_gamma   97.02700000
_symmetry_Int_Tables_number   1
_chemical_formula_structural   ZnH11C11NO6
_chemical_formula_sum   'Zn4 H44 C44 N4 O24'
_cell_volume   1754.33528258
_cell_formula_units_Z   4
loop_
 _symmetry_equiv_pos_site_id
 _symmetry_equiv_pos_as_xyz
  1  'x, y, z'
loop_
 _atom_site_type_symbol
 _atom_site_label
 _atom_site_symmetry_multiplicity
 _atom_site_fract_x
 _atom_site_fract_y
 _atom_site_fract_z
 _atom_site_occupancy
 _atom_site_charge
  Zn  Zn1  1  0.363520  0.546890  0.920280  1.0  1.0938
  Zn  Zn2  1  0.136480  0.953110  0.420280  1.0  1.095
  Zn  Zn3  1  0.636480  0.453110  0.079720  1.0  1.0947
  Zn  Zn4  1  0.863520  0.046890  0.579720  1.0  1.0936
  H  H5  1  0.935700  0.168400  0.248200  1.0  0.1067
  H  H6  1  0.058600  0.389500  0.064300  1.0  0.105
  H  H7  1  0.346800  0.221300  0.180700  1.0  0.1079
  H  H8  1  0.564300  0.331600  0.748200  1.0  0.1068
  H  H9  1  0.441400  0.110500  0.564300  1.0  0.1046
  H  H10  1  0.153200  0.278700  0.680700  1.0  0.108
  H  H11  1  0.064300  0.831600  0.751800  1.0  0.1072
  H  H12  1  0.941400  0.610500  0.935700  1.0  0.1049
  H  H13  1  0.653200  0.778700  0.819300  1.0  0.1075
  H  H14  1  0.435700  0.668400  0.251800  1.0  0.1067
  H  H15  1  0.558600  0.889500  0.435700  1.0  0.1052
  H  H16  1  0.846800  0.721300  0.319300  1.0  0.1077
  H  H17  1  0.669200  0.290600  0.305100  1.0  0.2021
  H  H18  1  0.711000  0.335100  0.385600  1.0  0.1905
  H  H19  1  0.547600  0.429100  0.342200  1.0  0.087
  H  H20  1  0.487400  0.350900  0.416300  1.0  0.1083
  H  H21  1  0.449200  0.311600  0.325700  1.0  0.1059
  H  H22  1  0.736700  0.156400  0.382800  1.0  0.1086
  H  H23  1  0.578500  0.125500  0.353500  1.0  0.1025
  H  H24  1  0.610900  0.173400  0.442700  1.0  0.1047
  H  H25  1  0.830800  0.209400  0.805100  1.0  0.202
  H  H26  1  0.789000  0.164900  0.885600  1.0  0.1952
  H  H27  1  0.952400  0.070900  0.842200  1.0  0.0864
  H  H28  1  0.012600  0.149100  0.916300  1.0  0.1065
  H  H29  1  0.050800  0.188400  0.825700  1.0  0.1036
  H  H30  1  0.763300  0.343600  0.882800  1.0  0.1104
  H  H31  1  0.921500  0.374500  0.853500  1.0  0.1016
  H  H32  1  0.889100  0.326600  0.942700  1.0  0.1051
  H  H33  1  0.330800  0.709400  0.694900  1.0  0.1995
  H  H34  1  0.289000  0.664900  0.614400  1.0  0.1928
  H  H35  1  0.452400  0.570900  0.657800  1.0  0.0862
  H  H36  1  0.512600  0.649100  0.583700  1.0  0.1075
  H  H37  1  0.550800  0.688400  0.674300  1.0  0.1043
  H  H38  1  0.263300  0.843600  0.617200  1.0  0.1101
  H  H39  1  0.421500  0.874500  0.646500  1.0  0.0998
  H  H40  1  0.389100  0.826600  0.557300  1.0  0.1075
  H  H41  1  0.169200  0.790600  0.194900  1.0  0.1993
  H  H42  1  0.211000  0.835100  0.114400  1.0  0.1914
  H  H43  1  0.047600  0.929100  0.157800  1.0  0.0868
  H  H44  1  0.987400  0.850900  0.083700  1.0  0.1085
  H  H45  1  0.949200  0.811600  0.174300  1.0  0.1059
  H  H46  1  0.236700  0.656400  0.117200  1.0  0.1084
  H  H47  1  0.078500  0.625500  0.146500  1.0  0.1015
  H  H48  1  0.110900  0.673400  0.057300  1.0  0.1074
  C  C49  1  0.007200  0.205600  0.214750  1.0  0.0159
  C  C50  1  0.146600  0.182500  0.224910  1.0  -0.1617
  C  C51  1  0.973700  0.283400  0.155220  1.0  -0.15
  C  C52  1  0.824500  0.313100  0.147350  1.0  0.6757
  C  C53  1  0.220500  0.315600  0.114480  1.0  -0.1462
  C  C54  1  0.081000  0.337700  0.104880  1.0  -0.014
  C  C55  1  0.185000  0.102300  0.292530  1.0  0.6756
  C  C56  1  0.253200  0.237200  0.174390  1.0  -0.0068
  C  C57  1  0.336200  0.379100  0.062810  1.0  0.7332
  C  C58  1  0.492800  0.294400  0.714750  1.0  0.0161
  C  C59  1  0.353400  0.317500  0.724910  1.0  -0.1621
  C  C60  1  0.526300  0.216600  0.655220  1.0  -0.1501
  C  C61  1  0.675500  0.186900  0.647350  1.0  0.6769
  C  C62  1  0.279500  0.184400  0.614480  1.0  -0.1471
  C  C63  1  0.419000  0.162300  0.604880  1.0  -0.0131
  C  C64  1  0.315000  0.397700  0.792530  1.0  0.6769
  C  C65  1  0.246800  0.262800  0.674390  1.0  -0.0059
  C  C66  1  0.163800  0.120900  0.562810  1.0  0.7324
  C  C67  1  0.992800  0.794400  0.785250  1.0  0.0158
  C  C68  1  0.853400  0.817500  0.775090  1.0  -0.1621
  C  C69  1  0.026300  0.716600  0.844780  1.0  -0.15
  C  C70  1  0.175500  0.686900  0.852650  1.0  0.6767
  C  C71  1  0.779500  0.684400  0.885520  1.0  -0.1475
  C  C72  1  0.919000  0.662300  0.895120  1.0  -0.0122
  C  C73  1  0.815000  0.897700  0.707470  1.0  0.6777
  C  C74  1  0.746800  0.762800  0.825610  1.0  -0.0059
  C  C75  1  0.663800  0.620900  0.937190  1.0  0.7315
  C  C76  1  0.507200  0.705600  0.285250  1.0  0.0154
  C  C77  1  0.646600  0.682500  0.275090  1.0  -0.1625
  C  C78  1  0.473700  0.783400  0.344780  1.0  -0.15
  C  C79  1  0.324500  0.813100  0.352650  1.0  0.6757
  C  C80  1  0.720500  0.815600  0.385520  1.0  -0.147
  C  C81  1  0.581000  0.837700  0.395120  1.0  -0.0133
  C  C82  1  0.685000  0.602300  0.207470  1.0  0.6764
  C  C83  1  0.753200  0.737200  0.325610  1.0  -0.0068
  C  C84  1  0.836200  0.879100  0.437190  1.0  0.7332
  C  C85  1  0.522200  0.350200  0.360800  1.0  -0.1679
  C  C86  1  0.641900  0.177900  0.386400  1.0  -0.1922
  C  C87  1  0.977800  0.149800  0.860800  1.0  -0.1642
  C  C88  1  0.858100  0.322100  0.886400  1.0  -0.1919
  C  C89  1  0.477800  0.649800  0.639200  1.0  -0.1663
  C  C90  1  0.358100  0.822100  0.613600  1.0  -0.1918
  C  C91  1  0.022200  0.850200  0.139200  1.0  -0.1694
  C  C92  1  0.141900  0.677900  0.113600  1.0  -0.1929
  N  N93  1  0.641500  0.290700  0.358100  1.0  -0.0628
  N  N94  1  0.858500  0.209300  0.858100  1.0  -0.0614
  N  N95  1  0.358500  0.709300  0.641900  1.0  -0.0614
  N  N96  1  0.141500  0.790700  0.141900  1.0  -0.0634
  O  O97  1  0.301850  0.460170  0.020200  1.0  -0.6083
  O  O98  1  0.458290  0.347470  0.067620  1.0  -0.6166
  O  O99  1  0.309800  0.094600  0.307610  1.0  -0.5494
  O  O100  1  0.081400  0.050860  0.332760  1.0  -0.5981
  O  O101  1  0.738000  0.287600  0.203100  1.0  -0.6439
  O  O102  1  0.796640  0.364180  0.081560  1.0  -0.607
  O  O103  1  0.198150  0.039830  0.520200  1.0  -0.6071
  O  O104  1  0.041710  0.152530  0.567620  1.0  -0.6182
  O  O105  1  0.190200  0.405400  0.807610  1.0  -0.5505
  O  O106  1  0.418600  0.449140  0.832760  1.0  -0.597
  O  O107  1  0.762000  0.212400  0.703100  1.0  -0.6436
  O  O108  1  0.703360  0.135820  0.581560  1.0  -0.6064
  O  O109  1  0.698150  0.539830  0.979800  1.0  -0.6085
  O  O110  1  0.541710  0.652530  0.932380  1.0  -0.619
  O  O111  1  0.690200  0.905400  0.692390  1.0  -0.5504
  O  O112  1  0.918600  0.949140  0.667240  1.0  -0.5969
  O  O113  1  0.262000  0.712400  0.796900  1.0  -0.6443
  O  O114  1  0.203360  0.635820  0.918440  1.0  -0.6069
  O  O115  1  0.801850  0.960170  0.479800  1.0  -0.6096
  O  O116  1  0.958290  0.847470  0.432380  1.0  -0.6165
  O  O117  1  0.809800  0.594600  0.192390  1.0  -0.5495
  O  O118  1  0.581400  0.550860  0.167240  1.0  -0.5982
  O  O119  1  0.238000  0.787600  0.296900  1.0  -0.6443
  O  O120  1  0.296640  0.864180  0.418440  1.0  -0.6075
