# generated using pymatgen
data_ZnH11C11NO6
_symmetry_space_group_name_H-M   'P 1'
_cell_length_a   9.45500000
_cell_length_b   11.03470000
_cell_length_c   16.00740000
_cell_angle_alpha   90.00000000
_cell_angle_beta   90.00000000
_cell_angle_gamma   98.46600000
_symmetry_Int_Tables_number   1
_chemical_formula_structural   ZnH11C11NO6
_chemical_formula_sum   'Zn4 H44 C44 N4 O24'
_cell_volume   1651.90305488
_cell_formula_units_Z   4
loop_
 _symmetry_equiv_pos_site_id
 _symmetry_equiv_pos_as_xyz
  1  'x, y, z'
loop_
 _atom_site_type_symbol
 _atom_site_label
 _atom_site_symmetry_multiplicity
 _atom_site_fract_x
 _atom_site_fract_y
 _atom_site_fract_z
 _atom_site_occupancy
 _atom_site_charge
  Zn  Zn1  1  0.868870  0.068710  0.920050  1.0  1.0501
  Zn  Zn2  1  0.631130  0.431290  0.420050  1.0  1.049
  Zn  Zn3  1  0.131130  0.931290  0.079950  1.0  1.0491
  Zn  Zn4  1  0.368870  0.568710  0.579950  1.0  1.0501
  H  H5  1  0.554000  0.861000  0.047000  1.0  0.1082
  H  H6  1  0.415000  0.604000  0.223000  1.0  0.1185
  H  H7  1  0.838000  0.677000  0.158000  1.0  0.1108
  H  H8  1  0.946000  0.639000  0.547000  1.0  0.1079
  H  H9  1  0.085000  0.896000  0.723000  1.0  0.1189
  H  H10  1  0.662000  0.823000  0.658000  1.0  0.1106
  H  H11  1  0.446000  0.139000  0.953000  1.0  0.1082
  H  H12  1  0.585000  0.396000  0.777000  1.0  0.1188
  H  H13  1  0.162000  0.323000  0.842000  1.0  0.1105
  H  H14  1  0.054000  0.361000  0.453000  1.0  0.1088
  H  H15  1  0.915000  0.104000  0.277000  1.0  0.1189
  H  H16  1  0.338000  0.177000  0.342000  1.0  0.111
  H  H17  1  0.915400  0.404700  0.583800  1.0  0.1191
  H  H18  1  0.985400  0.424400  0.672400  1.0  0.1032
  H  H19  1  0.829300  0.452000  0.657600  1.0  0.1099
  H  H20  1  0.633300  0.281200  0.644800  1.0  0.1276
  H  H21  1  0.667600  0.146400  0.642900  1.0  0.1155
  H  H22  1  0.709900  0.233900  0.567000  1.0  0.1216
  H  H23  1  0.911000  0.225000  0.655000  1.0  0.1555
  H  H24  1  0.820000  0.264000  0.730000  1.0  0.1685
  H  H25  1  0.584600  0.095300  0.083800  1.0  0.12
  H  H26  1  0.514600  0.075600  0.172400  1.0  0.1024
  H  H27  1  0.670700  0.048000  0.157600  1.0  0.1106
  H  H28  1  0.866700  0.218800  0.144800  1.0  0.1289
  H  H29  1  0.832400  0.353600  0.142900  1.0  0.1172
  H  H30  1  0.790100  0.266100  0.067000  1.0  0.1214
  H  H31  1  0.589000  0.275000  0.155000  1.0  0.1581
  H  H32  1  0.680000  0.236000  0.230000  1.0  0.1696
  H  H33  1  0.084600  0.595300  0.416200  1.0  0.1184
  H  H34  1  0.014600  0.575600  0.327600  1.0  0.1034
  H  H35  1  0.170700  0.548000  0.342400  1.0  0.11
  H  H36  1  0.366700  0.718800  0.355200  1.0  0.1289
  H  H37  1  0.332400  0.853600  0.357100  1.0  0.1163
  H  H38  1  0.290100  0.766100  0.433000  1.0  0.1213
  H  H39  1  0.089000  0.775000  0.345000  1.0  0.1582
  H  H40  1  0.180000  0.736000  0.270000  1.0  0.175
  H  H41  1  0.415400  0.904700  0.916200  1.0  0.1183
  H  H42  1  0.485400  0.924400  0.827600  1.0  0.1042
  H  H43  1  0.329300  0.952000  0.842400  1.0  0.1103
  H  H44  1  0.133300  0.781200  0.855200  1.0  0.1282
  H  H45  1  0.167600  0.646400  0.857100  1.0  0.1156
  H  H46  1  0.209900  0.733900  0.933000  1.0  0.1218
  H  H47  1  0.411000  0.725000  0.845000  1.0  0.1553
  H  H48  1  0.320000  0.764000  0.770000  1.0  0.1723
  C  C49  1  0.830400  0.855400  0.044300  1.0  0.7264
  C  C50  1  0.313300  0.766300  0.123290  1.0  0.6671
  C  C51  1  0.671800  0.541100  0.265200  1.0  0.6584
  C  C52  1  0.713900  0.779800  0.093300  1.0  -0.1348
  C  C53  1  0.573100  0.801800  0.083770  1.0  -0.0251
  C  C54  1  0.463900  0.738600  0.131270  1.0  -0.108
  C  C55  1  0.496300  0.652500  0.189170  1.0  -0.0889
  C  C56  1  0.636000  0.629300  0.199100  1.0  -0.1169
  C  C57  1  0.745200  0.692800  0.150340  1.0  0.0085
  C  C58  1  0.669600  0.644600  0.544300  1.0  0.7265
  C  C59  1  0.186700  0.733700  0.623290  1.0  0.6697
  C  C60  1  0.828200  0.958900  0.765200  1.0  0.6586
  C  C61  1  0.786100  0.720200  0.593300  1.0  -0.1349
  C  C62  1  0.926900  0.698200  0.583770  1.0  -0.0226
  C  C63  1  0.036100  0.761400  0.631270  1.0  -0.1074
  C  C64  1  0.003700  0.847500  0.689170  1.0  -0.088
  C  C65  1  0.864000  0.870700  0.699100  1.0  -0.1173
  C  C66  1  0.754800  0.807200  0.650340  1.0  0.007
  C  C67  1  0.169600  0.144600  0.955700  1.0  0.7253
  C  C68  1  0.686700  0.233700  0.876710  1.0  0.6698
  C  C69  1  0.328200  0.458900  0.734800  1.0  0.6589
  C  C70  1  0.286100  0.220200  0.906700  1.0  -0.1363
  C  C71  1  0.426900  0.198200  0.916230  1.0  -0.0246
  C  C72  1  0.536100  0.261400  0.868730  1.0  -0.1075
  C  C73  1  0.503700  0.347500  0.810830  1.0  -0.0879
  C  C74  1  0.364000  0.370700  0.800900  1.0  -0.1172
  C  C75  1  0.254800  0.307200  0.849660  1.0  0.0066
  C  C76  1  0.330400  0.355400  0.455700  1.0  0.7262
  C  C77  1  0.813300  0.266300  0.376710  1.0  0.6673
  C  C78  1  0.171800  0.041100  0.234800  1.0  0.659
  C  C79  1  0.213900  0.279800  0.406700  1.0  -0.1365
  C  C80  1  0.073100  0.301800  0.416230  1.0  -0.0262
  C  C81  1  0.963900  0.238600  0.368730  1.0  -0.1076
  C  C82  1  0.996300  0.152500  0.310830  1.0  -0.089
  C  C83  1  0.136000  0.129300  0.300900  1.0  -0.1168
  C  C84  1  0.245200  0.192800  0.349660  1.0  0.0081
  C  C85  1  0.897700  0.399400  0.642800  1.0  -0.1985
  C  C86  1  0.700700  0.229500  0.626700  1.0  -0.2031
  C  C87  1  0.602300  0.100600  0.142800  1.0  -0.199
  C  C88  1  0.799300  0.270500  0.126700  1.0  -0.2037
  C  C89  1  0.102300  0.600600  0.357200  1.0  -0.1987
  C  C90  1  0.299300  0.770500  0.373300  1.0  -0.2032
  C  C91  1  0.397700  0.899400  0.857200  1.0  -0.1987
  C  C92  1  0.200700  0.729500  0.873300  1.0  -0.2025
  N  N93  1  0.840300  0.270700  0.665400  1.0  -0.0438
  N  N94  1  0.659700  0.229300  0.165400  1.0  -0.0427
  N  N95  1  0.159700  0.729300  0.334600  1.0  -0.0425
  N  N96  1  0.340300  0.770700  0.834600  1.0  -0.0433
  O  O97  1  0.797000  0.944600  0.004980  1.0  -0.6116
  O  O98  1  0.954300  0.825300  0.047460  1.0  -0.6148
  O  O99  1  0.294400  0.845200  0.067880  1.0  -0.5879
  O  O100  1  0.217700  0.714700  0.169750  1.0  -0.5867
  O  O101  1  0.576700  0.513700  0.321570  1.0  -0.598
  O  O102  1  0.786800  0.502200  0.262500  1.0  -0.5577
  O  O103  1  0.703000  0.555400  0.504980  1.0  -0.6111
  O  O104  1  0.545700  0.674700  0.547460  1.0  -0.6165
  O  O105  1  0.205600  0.654800  0.567880  1.0  -0.5876
  O  O106  1  0.282300  0.785300  0.669750  1.0  -0.5846
  O  O107  1  0.923300  0.986300  0.821570  1.0  -0.597
  O  O108  1  0.713200  0.997800  0.762500  1.0  -0.5579
  O  O109  1  0.203000  0.055400  0.995020  1.0  -0.6133
  O  O110  1  0.045700  0.174700  0.952540  1.0  -0.6174
  O  O111  1  0.705600  0.154800  0.932120  1.0  -0.5874
  O  O112  1  0.782300  0.285300  0.830250  1.0  -0.5855
  O  O113  1  0.423300  0.486300  0.678430  1.0  -0.5963
  O  O114  1  0.213200  0.497800  0.737500  1.0  -0.5573
  O  O115  1  0.297000  0.444600  0.495020  1.0  -0.6135
  O  O116  1  0.454300  0.325300  0.452540  1.0  -0.6151
  O  O117  1  0.794400  0.345200  0.432120  1.0  -0.5872
  O  O118  1  0.717700  0.214700  0.330250  1.0  -0.5871
  O  O119  1  0.076700  0.013700  0.178430  1.0  -0.5975
  O  O120  1  0.286800  0.002200  0.237500  1.0  -0.5575
