# generated using pymatgen
data_ZnH11C11NO6
_symmetry_space_group_name_H-M   'P 1'
_cell_length_a   9.48010000
_cell_length_b   11.55100000
_cell_length_c   16.30270000
_cell_angle_alpha   90.00000000
_cell_angle_beta   90.00000000
_cell_angle_gamma   97.13800000
_symmetry_Int_Tables_number   1
_chemical_formula_structural   ZnH11C11NO6
_chemical_formula_sum   'Zn4 H44 C44 N4 O24'
_cell_volume   1771.38529329
_cell_formula_units_Z   4
loop_
 _symmetry_equiv_pos_site_id
 _symmetry_equiv_pos_as_xyz
  1  'x, y, z'
loop_
 _atom_site_type_symbol
 _atom_site_label
 _atom_site_symmetry_multiplicity
 _atom_site_fract_x
 _atom_site_fract_y
 _atom_site_fract_z
 _atom_site_occupancy
 _atom_site_charge
  Zn  Zn1  1  0.363730  0.547090  0.920280  1.0  1.089
  Zn  Zn2  1  0.136270  0.952910  0.420280  1.0  1.09
  Zn  Zn3  1  0.636270  0.452910  0.079720  1.0  1.0893
  Zn  Zn4  1  0.863730  0.047090  0.579720  1.0  1.0884
  H  H5  1  0.063500  0.831700  0.751800  1.0  0.1015
  H  H6  1  0.654000  0.779000  0.819400  1.0  0.1015
  H  H7  1  0.941300  0.610300  0.935000  1.0  0.1019
  H  H8  1  0.436500  0.668300  0.251800  1.0  0.1008
  H  H9  1  0.846000  0.721000  0.319400  1.0  0.1029
  H  H10  1  0.558700  0.889700  0.435000  1.0  0.1022
  H  H11  1  0.936500  0.168300  0.248200  1.0  0.1007
  H  H12  1  0.346000  0.221000  0.180600  1.0  0.1029
  H  H13  1  0.058700  0.389700  0.065000  1.0  0.1021
  H  H14  1  0.563500  0.331700  0.748200  1.0  0.1009
  H  H15  1  0.154000  0.279000  0.680600  1.0  0.102
  H  H16  1  0.441300  0.110300  0.565000  1.0  0.1016
  H  H17  1  0.282100  0.661700  0.605400  1.0  0.1929
  H  H18  1  0.307300  0.697800  0.690000  1.0  0.2756
  H  H19  1  0.514500  0.650500  0.584500  1.0  0.1126
  H  H20  1  0.459000  0.571400  0.658700  1.0  0.1051
  H  H21  1  0.545000  0.694300  0.674500  1.0  0.1137
  H  H22  1  0.422300  0.869600  0.650800  1.0  0.1104
  H  H23  1  0.267700  0.851400  0.614800  1.0  0.1012
  H  H24  1  0.397300  0.830500  0.559300  1.0  0.1023
  H  H25  1  0.217900  0.838300  0.105400  1.0  0.1917
  H  H26  1  0.192700  0.802200  0.190000  1.0  0.2783
  H  H27  1  0.985500  0.849500  0.084500  1.0  0.1117
  H  H28  1  0.041000  0.928600  0.158700  1.0  0.105
  H  H29  1  0.955000  0.805700  0.174500  1.0  0.1141
  H  H30  1  0.077700  0.630400  0.150800  1.0  0.111
  H  H31  1  0.232300  0.648600  0.114800  1.0  0.0998
  H  H32  1  0.102700  0.669500  0.059300  1.0  0.1026
  H  H33  1  0.717900  0.338300  0.394600  1.0  0.1901
  H  H34  1  0.692700  0.302200  0.310000  1.0  0.2805
  H  H35  1  0.485500  0.349500  0.415500  1.0  0.1125
  H  H36  1  0.541000  0.428600  0.341300  1.0  0.1047
  H  H37  1  0.455000  0.305700  0.325500  1.0  0.1156
  H  H38  1  0.577700  0.130400  0.349200  1.0  0.1109
  H  H39  1  0.732300  0.148600  0.385200  1.0  0.0999
  H  H40  1  0.602700  0.169500  0.440700  1.0  0.1012
  H  H41  1  0.782100  0.161700  0.894600  1.0  0.1942
  H  H42  1  0.807300  0.197800  0.810000  1.0  0.2771
  H  H43  1  0.014500  0.150500  0.915500  1.0  0.1115
  H  H44  1  0.959000  0.071400  0.841300  1.0  0.1046
  H  H45  1  0.045000  0.194300  0.825500  1.0  0.1144
  H  H46  1  0.922300  0.369600  0.849200  1.0  0.1106
  H  H47  1  0.767700  0.351400  0.885200  1.0  0.1011
  H  H48  1  0.897300  0.330500  0.940700  1.0  0.1012
  C  C49  1  0.175900  0.687000  0.852700  1.0  0.6725
  C  C50  1  0.815600  0.897700  0.707770  1.0  0.6698
  C  C51  1  0.663900  0.621600  0.937240  1.0  0.6946
  C  C52  1  0.026500  0.717100  0.844990  1.0  -0.1426
  C  C53  1  0.992300  0.794800  0.785340  1.0  0.0201
  C  C54  1  0.853600  0.817900  0.775120  1.0  -0.1669
  C  C55  1  0.747300  0.763200  0.825620  1.0  -0.0077
  C  C56  1  0.780000  0.684900  0.885440  1.0  -0.1497
  C  C57  1  0.919300  0.662400  0.894930  1.0  -0.0083
  C  C58  1  0.324100  0.813000  0.352700  1.0  0.6725
  C  C59  1  0.684400  0.602300  0.207770  1.0  0.6677
  C  C60  1  0.836100  0.878400  0.437240  1.0  0.6955
  C  C61  1  0.473500  0.782900  0.344990  1.0  -0.1426
  C  C62  1  0.507700  0.705200  0.285340  1.0  0.0201
  C  C63  1  0.646400  0.682100  0.275120  1.0  -0.1674
  C  C64  1  0.752700  0.736800  0.325620  1.0  -0.0083
  C  C65  1  0.720000  0.815100  0.385440  1.0  -0.1496
  C  C66  1  0.580700  0.837600  0.394930  1.0  -0.0096
  C  C67  1  0.824100  0.313000  0.147300  1.0  0.6724
  C  C68  1  0.184400  0.102300  0.292230  1.0  0.6673
  C  C69  1  0.336100  0.378400  0.062760  1.0  0.6956
  C  C70  1  0.973500  0.282900  0.155010  1.0  -0.1427
  C  C71  1  0.007700  0.205200  0.214660  1.0  0.0209
  C  C72  1  0.146400  0.182100  0.224880  1.0  -0.1668
  C  C73  1  0.252700  0.236800  0.174380  1.0  -0.0085
  C  C74  1  0.220000  0.315100  0.114560  1.0  -0.149
  C  C75  1  0.080700  0.337600  0.105070  1.0  -0.0097
  C  C76  1  0.675900  0.187000  0.647300  1.0  0.6727
  C  C77  1  0.315600  0.397700  0.792230  1.0  0.6692
  C  C78  1  0.163900  0.121600  0.562760  1.0  0.6957
  C  C79  1  0.526500  0.217100  0.655010  1.0  -0.1428
  C  C80  1  0.492300  0.294800  0.714660  1.0  0.0208
  C  C81  1  0.353600  0.317900  0.724880  1.0  -0.1668
  C  C82  1  0.247300  0.263200  0.674380  1.0  -0.0082
  C  C83  1  0.280000  0.184900  0.614560  1.0  -0.1495
  C  C84  1  0.419300  0.162400  0.605070  1.0  -0.0084
  C  C85  1  0.477100  0.650300  0.639200  1.0  -0.1809
  C  C86  1  0.359100  0.823800  0.613900  1.0  -0.2057
  C  C87  1  0.022900  0.849700  0.139200  1.0  -0.1842
  C  C88  1  0.140900  0.676200  0.113900  1.0  -0.2063
  C  C89  1  0.522900  0.349700  0.360800  1.0  -0.1826
  C  C90  1  0.640900  0.176200  0.386100  1.0  -0.2064
  C  C91  1  0.977100  0.150300  0.860800  1.0  -0.1791
  C  C92  1  0.859100  0.323800  0.886100  1.0  -0.2058
  N  N93  1  0.344300  0.703200  0.639100  1.0  -0.0642
  N  N94  1  0.155700  0.796800  0.139100  1.0  -0.0673
  N  N95  1  0.655700  0.296800  0.360900  1.0  -0.0672
  N  N96  1  0.844300  0.203200  0.860900  1.0  -0.0641
  O  O97  1  0.203550  0.636280  0.918660  1.0  -0.5955
  O  O98  1  0.262790  0.712780  0.797150  1.0  -0.6334
  O  O99  1  0.919200  0.949440  0.667400  1.0  -0.6007
  O  O100  1  0.690700  0.906400  0.692970  1.0  -0.5704
  O  O101  1  0.542000  0.653170  0.932640  1.0  -0.6224
  O  O102  1  0.698340  0.540020  0.980240  1.0  -0.6139
  O  O103  1  0.296450  0.863720  0.418660  1.0  -0.5954
  O  O104  1  0.237210  0.787220  0.297150  1.0  -0.6347
  O  O105  1  0.580800  0.550560  0.167400  1.0  -0.6019
  O  O106  1  0.809300  0.593600  0.192970  1.0  -0.5709
  O  O107  1  0.958000  0.846830  0.432640  1.0  -0.6212
  O  O108  1  0.801660  0.959980  0.480240  1.0  -0.614
  O  O109  1  0.796450  0.363720  0.081340  1.0  -0.5955
  O  O110  1  0.737210  0.287220  0.202850  1.0  -0.6345
  O  O111  1  0.080800  0.050560  0.332600  1.0  -0.6016
  O  O112  1  0.309300  0.093600  0.307030  1.0  -0.5712
  O  O113  1  0.458000  0.346830  0.067360  1.0  -0.6214
  O  O114  1  0.301660  0.459980  0.019760  1.0  -0.6122
  O  O115  1  0.703550  0.136280  0.581340  1.0  -0.5952
  O  O116  1  0.762790  0.212780  0.702850  1.0  -0.6327
  O  O117  1  0.419200  0.449440  0.832600  1.0  -0.6007
  O  O118  1  0.190700  0.406400  0.807030  1.0  -0.5707
  O  O119  1  0.042000  0.153170  0.567360  1.0  -0.6218
  O  O120  1  0.198340  0.040020  0.519760  1.0  -0.6121
