# generated using pymatgen
data_ZnH3(C3O2)3
_symmetry_space_group_name_H-M   'P 1'
_cell_length_a   9.42990000
_cell_length_b   16.49000000
_cell_length_c   11.28030000
_cell_angle_alpha   90.00000000
_cell_angle_beta   97.73100000
_cell_angle_gamma   90.00000000
_symmetry_Int_Tables_number   1
_chemical_formula_structural   ZnH3(C3O2)3
_chemical_formula_sum   'Zn4 H12 C36 O24'
_cell_volume   1738.13237898
_cell_formula_units_Z   4
loop_
 _symmetry_equiv_pos_site_id
 _symmetry_equiv_pos_as_xyz
  1  'x, y, z'
loop_
 _atom_site_type_symbol
 _atom_site_label
 _atom_site_symmetry_multiplicity
 _atom_site_fract_x
 _atom_site_fract_y
 _atom_site_fract_z
 _atom_site_occupancy
 _atom_site_charge
  Zn  Zn1  1  0.366630  0.077540  0.049120  1.0  1.1106
  Zn  Zn2  1  0.133370  0.577540  0.450880  1.0  1.1104
  Zn  Zn3  1  0.633370  0.922460  0.950880  1.0  1.1106
  Zn  Zn4  1  0.866630  0.422460  0.549120  1.0  1.1107
  H  H5  1  0.569000  0.249200  0.833000  1.0  0.1226
  H  H6  1  0.445500  0.436600  0.616100  1.0  0.1189
  H  H7  1  0.156500  0.318100  0.783100  1.0  0.1219
  H  H8  1  0.931000  0.749200  0.667000  1.0  0.1229
  H  H9  1  0.054500  0.936600  0.883900  1.0  0.118
  H  H10  1  0.343500  0.818100  0.716900  1.0  0.122
  H  H11  1  0.431000  0.750800  0.167000  1.0  0.1232
  H  H12  1  0.554500  0.563400  0.383900  1.0  0.1181
  H  H13  1  0.843500  0.681900  0.216900  1.0  0.1219
  H  H14  1  0.069000  0.250800  0.333000  1.0  0.1225
  H  H15  1  0.945500  0.063400  0.116100  1.0  0.1187
  H  H16  1  0.656500  0.181900  0.283100  1.0  0.1218
  C  C17  1  0.319310  0.204500  0.899440  1.0  0.6938
  C  C18  1  0.357230  0.273210  0.820680  1.0  -0.1434
  C  C19  1  0.497380  0.283450  0.797200  1.0  0.046
  C  C20  1  0.531140  0.344590  0.720430  1.0  -0.1509
  C  C21  1  0.423490  0.395580  0.667190  1.0  0.0569
  C  C22  1  0.282560  0.385610  0.689890  1.0  -0.1587
  C  C23  1  0.250100  0.324610  0.767140  1.0  0.0421
  C  C24  1  0.680850  0.353120  0.690430  1.0  0.6862
  C  C25  1  0.166610  0.438200  0.626520  1.0  0.7438
  C  C26  1  0.180690  0.704500  0.600560  1.0  0.6929
  C  C27  1  0.142770  0.773210  0.679320  1.0  -0.1436
  C  C28  1  0.002620  0.783450  0.702800  1.0  0.0447
  C  C29  1  0.968860  0.844590  0.779570  1.0  -0.1509
  C  C30  1  0.076510  0.895580  0.832810  1.0  0.0562
  C  C31  1  0.217440  0.885610  0.810110  1.0  -0.1588
  C  C32  1  0.249900  0.824610  0.732860  1.0  0.043
  C  C33  1  0.819150  0.853120  0.809570  1.0  0.6868
  C  C34  1  0.333390  0.938200  0.873480  1.0  0.7451
  C  C35  1  0.680690  0.795500  0.100560  1.0  0.6927
  C  C36  1  0.642770  0.726790  0.179320  1.0  -0.1429
  C  C37  1  0.502620  0.716550  0.202800  1.0  0.0447
  C  C38  1  0.468860  0.655410  0.279570  1.0  -0.151
  C  C39  1  0.576510  0.604420  0.332810  1.0  0.057
  C  C40  1  0.717440  0.614390  0.310110  1.0  -0.159
  C  C41  1  0.749900  0.675390  0.232860  1.0  0.0429
  C  C42  1  0.319150  0.646880  0.309570  1.0  0.6867
  C  C43  1  0.833390  0.561800  0.373480  1.0  0.7455
  C  C44  1  0.819310  0.295500  0.399440  1.0  0.6936
  C  C45  1  0.857230  0.226790  0.320680  1.0  -0.1437
  C  C46  1  0.997380  0.216550  0.297200  1.0  0.0458
  C  C47  1  0.031140  0.155410  0.220430  1.0  -0.151
  C  C48  1  0.923490  0.104420  0.167190  1.0  0.0573
  C  C49  1  0.782560  0.114390  0.189890  1.0  -0.1592
  C  C50  1  0.750100  0.175390  0.267140  1.0  0.0419
  C  C51  1  0.180850  0.146880  0.190430  1.0  0.6862
  C  C52  1  0.666667  0.061800  0.126520  1.0  0.7435
  O  O53  1  0.707820  0.420330  0.642090  1.0  -0.5816
  O  O54  1  0.426110  0.163070  0.949590  1.0  -0.5691
  O  O55  1  0.193570  0.191280  0.910020  1.0  -0.4846
  O  O56  1  0.768760  0.297170  0.712630  1.0  -0.4361
  O  O57  1  0.045060  0.435980  0.661620  1.0  -0.613
  O  O58  1  0.199790  0.479920  0.541180  1.0  -0.6073
  O  O59  1  0.792180  0.920330  0.857910  1.0  -0.581
  O  O60  1  0.073890  0.663070  0.550410  1.0  -0.5685
  O  O61  1  0.306430  0.691280  0.589980  1.0  -0.48
  O  O62  1  0.731240  0.797170  0.787370  1.0  -0.438
  O  O63  1  0.454940  0.935980  0.838380  1.0  -0.612
  O  O64  1  0.300210  0.979920  0.958820  1.0  -0.6086
  O  O65  1  0.292180  0.579670  0.357910  1.0  -0.58
  O  O66  1  0.573890  0.836930  0.050410  1.0  -0.5688
  O  O67  1  0.806430  0.808720  0.089980  1.0  -0.4801
  O  O68  1  0.231240  0.702830  0.287370  1.0  -0.4369
  O  O69  1  0.954940  0.564020  0.338380  1.0  -0.6115
  O  O70  1  0.800210  0.520080  0.458820  1.0  -0.6092
  O  O71  1  0.207820  0.079670  0.142090  1.0  -0.5802
  O  O72  1  0.926110  0.336930  0.449590  1.0  -0.5697
  O  O73  1  0.693570  0.308720  0.410020  1.0  -0.4844
  O  O74  1  0.268760  0.202830  0.212630  1.0  -0.436
  O  O75  1  0.545060  0.064020  0.161620  1.0  -0.6133
  O  O76  1  0.699790  0.020080  0.041180  1.0  -0.6071
