# generated using pymatgen
data_GdHC5(NO2)2
_symmetry_space_group_name_H-M   'P 1'
_cell_length_a   16.14020000
_cell_length_b   16.36390000
_cell_length_c   16.36390000
_cell_angle_alpha   75.92390000
_cell_angle_beta   60.45120000
_cell_angle_gamma   60.45120000
_symmetry_Int_Tables_number   1
_chemical_formula_structural   GdHC5(NO2)2
_chemical_formula_sum   'Gd16 H16 C80 N32 O64'
_cell_volume   3270.82362032
_cell_formula_units_Z   16
loop_
 _symmetry_equiv_pos_site_id
 _symmetry_equiv_pos_as_xyz
  1  'x, y, z'
loop_
 _atom_site_type_symbol
 _atom_site_label
 _atom_site_symmetry_multiplicity
 _atom_site_fract_x
 _atom_site_fract_y
 _atom_site_fract_z
 _atom_site_occupancy
 _atom_site_charge
  Gd  Gd1  1  0.292760  0.469910  0.622070  1.0  2.173
  Gd  Gd2  1  0.351840  0.021500  0.614800  1.0  2.1709
  Gd  Gd3  1  0.884740  0.030090  0.877930  1.0  2.1732
  Gd  Gd4  1  0.488140  0.478500  0.885200  1.0  2.1704
  Gd  Gd5  1  0.914830  0.377930  0.969910  1.0  2.1698
  Gd  Gd6  1  0.966640  0.385200  0.521500  1.0  2.1687
  Gd  Gd7  1  0.762670  0.122070  0.530090  1.0  2.1678
  Gd  Gd8  1  0.373340  0.114800  0.978500  1.0  2.1695
  Gd  Gd9  1  0.707240  0.530090  0.377930  1.0  2.1736
  Gd  Gd10  1  0.648160  0.978500  0.385200  1.0  2.1708
  Gd  Gd11  1  0.115260  0.969910  0.122070  1.0  2.173
  Gd  Gd12  1  0.511860  0.521500  0.114800  1.0  2.1708
  Gd  Gd13  1  0.085170  0.622070  0.030090  1.0  2.1707
  Gd  Gd14  1  0.033360  0.614800  0.478500  1.0  2.1688
  Gd  Gd15  1  0.237330  0.877930  0.469910  1.0  2.1673
  Gd  Gd16  1  0.626660  0.885200  0.021500  1.0  2.1707
  H  H17  1  0.410000  0.228000  0.604000  1.0  0.2237
  H  H18  1  0.445000  0.260000  0.742000  1.0  0.0513
  H  H19  1  0.742000  0.272000  0.896000  1.0  0.2265
  H  H20  1  0.947000  0.240000  0.758000  1.0  0.0517
  H  H21  1  0.014000  0.396000  0.728000  1.0  0.2266
  H  H22  1  0.187000  0.258000  0.760000  1.0  0.0522
  H  H23  1  0.638000  0.104000  0.772000  1.0  0.2231
  H  H24  1  0.705000  0.242000  0.740000  1.0  0.0524
  H  H25  1  0.590000  0.772000  0.396000  1.0  0.2237
  H  H26  1  0.555000  0.740000  0.258000  1.0  0.0518
  H  H27  1  0.258000  0.728000  0.104000  1.0  0.2258
  H  H28  1  0.053000  0.760000  0.242000  1.0  0.0524
  H  H29  1  0.986000  0.604000  0.272000  1.0  0.2261
  H  H30  1  0.813000  0.742000  0.240000  1.0  0.0515
  H  H31  1  0.362000  0.896000  0.228000  1.0  0.2223
  H  H32  1  0.295000  0.758000  0.260000  1.0  0.0518
  C  C33  1  0.150500  0.430600  0.547000  1.0  0.6979
  C  C34  1  0.227800  0.337500  0.558300  1.0  0.0103
  C  C35  1  0.249700  0.245200  0.549200  1.0  0.0255
  C  C36  1  0.196500  0.204600  0.531000  1.0  0.7367
  C  C37  1  0.360500  0.240900  0.587900  1.0  0.2918
  C  C38  1  0.110700  0.450100  0.824100  1.0  0.7399
  C  C39  1  0.203400  0.371200  0.831000  1.0  -0.0231
  C  C40  1  0.215400  0.299300  0.897700  1.0  -0.0212
  C  C41  1  0.143100  0.278300  0.987700  1.0  0.7285
  C  C42  1  0.369600  0.278700  0.785700  1.0  0.1879
  C  C43  1  0.628100  0.069400  0.953000  1.0  0.7006
  C  C44  1  0.623600  0.162500  0.941700  1.0  0.0089
  C  C45  1  0.544100  0.254800  0.950800  1.0  0.0248
  C  C46  1  0.432100  0.295400  0.969000  1.0  0.7324
  C  C47  1  0.689300  0.259100  0.912100  1.0  0.2949
  C  C48  1  0.884900  0.049900  0.675900  1.0  0.7396
  C  C49  1  0.905600  0.128800  0.669000  1.0  -0.023
  C  C50  1  0.912400  0.200700  0.602300  1.0  -0.0218
  C  C51  1  0.909100  0.221700  0.512300  1.0  0.7435
  C  C52  1  0.934000  0.221300  0.714300  1.0  0.1876
  C  C53  1  0.697500  0.453000  0.930600  1.0  0.6996
  C  C54  1  0.786100  0.441700  0.837500  1.0  0.0098
  C  C55  1  0.798900  0.450800  0.745200  1.0  0.0244
  C  C56  1  0.727500  0.469000  0.704600  1.0  0.7324
  C  C57  1  0.948400  0.412100  0.740900  1.0  0.293
  C  C58  1  0.934800  0.175900  0.950100  1.0  0.7402
  C  C59  1  0.034400  0.169000  0.871200  1.0  -0.0242
  C  C60  1  0.113100  0.102300  0.799300  1.0  -0.0213
  C  C61  1  0.130800  0.012300  0.778300  1.0  0.7279
  C  C62  1  0.155300  0.214300  0.778700  1.0  0.1893
  C  C63  1  0.581100  0.047000  0.569400  1.0  0.6977
  C  C64  1  0.565300  0.058300  0.662500  1.0  0.0104
  C  C65  1  0.494900  0.049200  0.754800  1.0  0.0235
  C  C66  1  0.401100  0.031000  0.795400  1.0  0.7309
  C  C67  1  0.601400  0.087900  0.759100  1.0  0.294
  C  C68  1  0.560800  0.324100  0.549900  1.0  0.7511
  C  C69  1  0.574600  0.331000  0.628800  1.0  -0.0248
  C  C70  1  0.514700  0.397700  0.700700  1.0  -0.022
  C  C71  1  0.421400  0.487700  0.721700  1.0  0.7298
  C  C72  1  0.648300  0.285700  0.721300  1.0  0.1901
  C  C73  1  0.849500  0.569400  0.453000  1.0  0.6988
  C  C74  1  0.772200  0.662500  0.441700  1.0  0.0098
  C  C75  1  0.750300  0.754800  0.450800  1.0  0.026
  C  C76  1  0.803500  0.795400  0.469000  1.0  0.7364
  C  C77  1  0.639500  0.759100  0.412100  1.0  0.2916
  C  C78  1  0.889300  0.549900  0.175900  1.0  0.7394
  C  C79  1  0.796600  0.628800  0.169000  1.0  -0.0244
  C  C80  1  0.784600  0.700700  0.102300  1.0  -0.0221
  C  C81  1  0.856900  0.721700  0.012300  1.0  0.7315
  C  C82  1  0.630400  0.721300  0.214300  1.0  0.1878
  C  C83  1  0.371900  0.930600  0.047000  1.0  0.6988
  C  C84  1  0.376400  0.837500  0.058300  1.0  0.0102
  C  C85  1  0.455900  0.745200  0.049200  1.0  0.0258
  C  C86  1  0.567900  0.704600  0.031000  1.0  0.7328
  C  C87  1  0.310700  0.740900  0.087900  1.0  0.2953
  C  C88  1  0.115100  0.950100  0.324100  1.0  0.7386
  C  C89  1  0.094400  0.871200  0.331000  1.0  -0.0219
  C  C90  1  0.087600  0.799300  0.397700  1.0  -0.0212
  C  C91  1  0.090900  0.778300  0.487700  1.0  0.739
  C  C92  1  0.066000  0.778700  0.285700  1.0  0.1887
  C  C93  1  0.302500  0.547000  0.069400  1.0  0.6971
  C  C94  1  0.213900  0.558300  0.162500  1.0  0.0106
  C  C95  1  0.201100  0.549200  0.254800  1.0  0.0234
  C  C96  1  0.272500  0.531000  0.295400  1.0  0.7294
  C  C97  1  0.051600  0.587900  0.259100  1.0  0.2926
  C  C98  1  0.065200  0.824100  0.049900  1.0  0.7378
  C  C99  1  0.965600  0.831000  0.128800  1.0  -0.0233
  C  C100  1  0.886900  0.897700  0.200700  1.0  -0.0223
  C  C101  1  0.869200  0.987700  0.221700  1.0  0.7297
  C  C102  1  0.844700  0.785700  0.221300  1.0  0.1889
  C  C103  1  0.418900  0.953000  0.430600  1.0  0.6985
  C  C104  1  0.434700  0.941700  0.337500  1.0  0.0074
  C  C105  1  0.505100  0.950800  0.245200  1.0  0.0243
  C  C106  1  0.598900  0.969000  0.204600  1.0  0.7326
  C  C107  1  0.398600  0.912100  0.240900  1.0  0.293
  C  C108  1  0.439200  0.675900  0.450100  1.0  0.7514
  C  C109  1  0.425400  0.669000  0.371200  1.0  -0.0251
  C  C110  1  0.485300  0.602300  0.299300  1.0  -0.0214
  C  C111  1  0.578600  0.512300  0.278300  1.0  0.7271
  C  C112  1  0.351700  0.714300  0.278700  1.0  0.1899
  N  N113  1  0.299000  0.332100  0.585500  1.0  -0.5045
  N  N114  1  0.333900  0.184100  0.568500  1.0  -0.6009
  N  N115  1  0.302700  0.357600  0.760000  1.0  -0.5444
  N  N116  1  0.323000  0.241200  0.866200  1.0  -0.5338
  N  N117  1  0.716600  0.167900  0.914500  1.0  -0.5018
  N  N118  1  0.586500  0.315900  0.931500  1.0  -0.6013
  N  N119  1  0.920300  0.142400  0.740000  1.0  -0.5424
  N  N120  1  0.930400  0.258800  0.633800  1.0  -0.5324
  N  N121  1  0.884500  0.414500  0.832100  1.0  -0.5033
  N  N122  1  0.902400  0.431500  0.684100  1.0  -0.602
  N  N123  1  0.062700  0.240000  0.857600  1.0  -0.543
  N  N124  1  0.189200  0.133800  0.741200  1.0  -0.5366
  N  N125  1  0.631100  0.085500  0.667900  1.0  -0.5022
  N  N126  1  0.518000  0.068500  0.815900  1.0  -0.6
  N  N127  1  0.660300  0.260000  0.642400  1.0  -0.5436
  N  N128  1  0.564200  0.366200  0.758800  1.0  -0.5338
  N  N129  1  0.701000  0.667900  0.414500  1.0  -0.5043
  N  N130  1  0.666100  0.815900  0.431500  1.0  -0.6019
  N  N131  1  0.697300  0.642400  0.240000  1.0  -0.5418
  N  N132  1  0.677000  0.758800  0.133800  1.0  -0.5337
  N  N133  1  0.283400  0.832100  0.085500  1.0  -0.5046
  N  N134  1  0.413500  0.684100  0.068500  1.0  -0.6001
  N  N135  1  0.079700  0.857600  0.260000  1.0  -0.5449
  N  N136  1  0.069600  0.741200  0.366200  1.0  -0.5336
  N  N137  1  0.115500  0.585500  0.167900  1.0  -0.5013
  N  N138  1  0.097600  0.568500  0.315900  1.0  -0.6013
  N  N139  1  0.937300  0.760000  0.142400  1.0  -0.5451
  N  N140  1  0.810800  0.866200  0.258800  1.0  -0.5358
  N  N141  1  0.368900  0.914500  0.332100  1.0  -0.5045
  N  N142  1  0.482000  0.931500  0.184100  1.0  -0.6035
  N  N143  1  0.339700  0.740000  0.357600  1.0  -0.5435
  N  N144  1  0.435800  0.633800  0.241200  1.0  -0.5351
  O  O145  1  0.149900  0.500400  0.571000  1.0  -0.7146
  O  O146  1  0.087900  0.445200  0.513600  1.0  -0.778
  O  O147  1  0.127800  0.253600  0.503200  1.0  -0.7269
  O  O148  1  0.228800  0.116800  0.544200  1.0  -0.6824
  O  O149  1  0.020100  0.454900  0.873300  1.0  -0.7286
  O  O150  1  0.128800  0.513600  0.763800  1.0  -0.698
  O  O151  1  0.043500  0.323300  0.021500  1.0  -0.7637
  O  O152  1  0.186800  0.210600  0.034800  1.0  -0.7258
  O  O153  1  0.721300  0.999600  0.929000  1.0  -0.7146
  O  O154  1  0.546700  0.054800  0.986400  1.0  -0.7757
  O  O155  1  0.384600  0.246400  0.996800  1.0  -0.7226
  O  O156  1  0.389800  0.383200  0.955800  1.0  -0.6815
  O  O157  1  0.848300  0.045100  0.626700  1.0  -0.7284
  O  O158  1  0.906200  0.986400  0.736200  1.0  -0.698
  O  O159  1  0.888300  0.176700  0.478500  1.0  -0.7703
  O  O160  1  0.932200  0.289400  0.465200  1.0  -0.7215
  O  O161  1  0.720900  0.429000  0.000400  1.0  -0.7218
  O  O162  1  0.601500  0.486400  0.945200  1.0  -0.7742
  O  O163  1  0.631000  0.496800  0.753600  1.0  -0.7235
  O  O164  1  0.773000  0.455800  0.616800  1.0  -0.6811
  O  O165  1  0.893400  0.126700  0.954900  1.0  -0.7255
  O  O166  1  0.892600  0.236200  0.013600  1.0  -0.7001
  O  O167  1  0.065000  0.978500  0.823300  1.0  -0.762
  O  O168  1  0.221600  0.965200  0.710600  1.0  -0.7207
  O  O169  1  0.650300  0.071000  0.499600  1.0  -0.7146
  O  O170  1  0.533100  0.013600  0.554800  1.0  -0.7762
  O  O171  1  0.381400  0.003200  0.746400  1.0  -0.723
  O  O172  1  0.345600  0.044200  0.883200  1.0  -0.6788
  O  O173  1  0.475000  0.373300  0.545100  1.0  -0.7309
  O  O174  1  0.642400  0.263800  0.486400  1.0  -0.6986
  O  O175  1  0.366800  0.521500  0.676700  1.0  -0.765
  O  O176  1  0.397400  0.534800  0.789400  1.0  -0.7218
  O  O177  1  0.850100  0.499600  0.429000  1.0  -0.7146
  O  O178  1  0.912100  0.554800  0.486400  1.0  -0.7775
  O  O179  1  0.872200  0.746400  0.496800  1.0  -0.7257
  O  O180  1  0.771200  0.883200  0.455800  1.0  -0.6831
  O  O181  1  0.979900  0.545100  0.126700  1.0  -0.7272
  O  O182  1  0.871200  0.486400  0.236200  1.0  -0.6969
  O  O183  1  0.956500  0.676700  0.978500  1.0  -0.7645
  O  O184  1  0.813200  0.789400  0.965200  1.0  -0.7232
  O  O185  1  0.278700  0.000400  0.071000  1.0  -0.7134
  O  O186  1  0.453300  0.945200  0.013600  1.0  -0.7758
  O  O187  1  0.615400  0.753600  0.003200  1.0  -0.7248
  O  O188  1  0.610200  0.616800  0.044200  1.0  -0.6815
  O  O189  1  0.151700  0.954900  0.373300  1.0  -0.7297
  O  O190  1  0.093800  0.013600  0.263800  1.0  -0.7001
  O  O191  1  0.111700  0.823300  0.521500  1.0  -0.7698
  O  O192  1  0.067800  0.710600  0.534800  1.0  -0.7229
  O  O193  1  0.279100  0.571000  0.999600  1.0  -0.7195
  O  O194  1  0.398500  0.513600  0.054800  1.0  -0.7752
  O  O195  1  0.369000  0.503200  0.246400  1.0  -0.7236
  O  O196  1  0.227000  0.544200  0.383200  1.0  -0.682
  O  O197  1  0.106600  0.873300  0.045100  1.0  -0.7273
  O  O198  1  0.107400  0.763800  0.986400  1.0  -0.6999
  O  O199  1  0.935000  0.021500  0.176700  1.0  -0.7624
  O  O200  1  0.778400  0.034800  0.289400  1.0  -0.7202
  O  O201  1  0.349700  0.929000  0.500400  1.0  -0.7146
  O  O202  1  0.466900  0.986400  0.445200  1.0  -0.7756
  O  O203  1  0.618600  0.996800  0.253600  1.0  -0.7242
  O  O204  1  0.654400  0.955800  0.116800  1.0  -0.6786
  O  O205  1  0.525000  0.626700  0.454900  1.0  -0.7303
  O  O206  1  0.357600  0.736200  0.513600  1.0  -0.6992
  O  O207  1  0.633200  0.478500  0.323300  1.0  -0.7624
  O  O208  1  0.602600  0.465200  0.210600  1.0  -0.7231
