# generated using pymatgen
data_CdH6C9O4
_symmetry_space_group_name_H-M   'P 1'
_cell_length_a   7.69100000
_cell_length_b   10.21470000
_cell_length_c   15.81540000
_cell_angle_alpha   90.00000000
_cell_angle_beta   90.00000000
_cell_angle_gamma   90.00000000
_symmetry_Int_Tables_number   1
_chemical_formula_structural   CdH6C9O4
_chemical_formula_sum   'Cd4 H24 C36 O16'
_cell_volume   1242.47771503
_cell_formula_units_Z   4
loop_
 _symmetry_equiv_pos_site_id
 _symmetry_equiv_pos_as_xyz
  1  'x, y, z'
loop_
 _atom_site_type_symbol
 _atom_site_label
 _atom_site_symmetry_multiplicity
 _atom_site_fract_x
 _atom_site_fract_y
 _atom_site_fract_z
 _atom_site_occupancy
 _atom_site_charge
  Cd  Cd1  1  0.967220  0.290830  0.788480  1.0  1.1447
  Cd  Cd2  1  0.032780  0.790830  0.211520  1.0  1.1515
  Cd  Cd3  1  0.467220  0.290830  0.711520  1.0  1.1511
  Cd  Cd4  1  0.532780  0.790830  0.288480  1.0  1.1519
  H  H5  1  0.203300  0.031100  0.003500  1.0  0.1057
  H  H6  1  0.517800  0.019500  0.801300  1.0  0.0982
  H  H7  1  0.657400  0.836800  0.014800  1.0  0.1012
  H  H8  1  0.844100  0.819600  0.900200  1.0  0.1293
  H  H9  1  0.848300  0.946000  0.844100  1.0  0.1294
  H  H10  1  0.752100  0.820300  0.811700  1.0  0.131
  H  H11  1  0.796700  0.531100  0.996500  1.0  0.1059
  H  H12  1  0.482200  0.519500  0.198700  1.0  0.0973
  H  H13  1  0.342600  0.336800  0.985200  1.0  0.101
  H  H14  1  0.155900  0.319600  0.099800  1.0  0.1281
  H  H15  1  0.151700  0.446000  0.155900  1.0  0.13
  H  H16  1  0.247900  0.320300  0.188300  1.0  0.133
  H  H17  1  0.703300  0.031100  0.496500  1.0  0.1059
  H  H18  1  0.017800  0.019500  0.698700  1.0  0.0974
  H  H19  1  0.157400  0.836800  0.485200  1.0  0.1011
  H  H20  1  0.344100  0.819600  0.599800  1.0  0.1285
  H  H21  1  0.348300  0.946000  0.655900  1.0  0.1296
  H  H22  1  0.252100  0.820300  0.688300  1.0  0.1323
  H  H23  1  0.296700  0.531100  0.503500  1.0  0.1058
  H  H24  1  0.982200  0.519500  0.301300  1.0  0.0984
  H  H25  1  0.842600  0.336800  0.514800  1.0  0.1011
  H  H26  1  0.655900  0.319600  0.400200  1.0  0.1293
  H  H27  1  0.651700  0.446000  0.344100  1.0  0.1299
  H  H28  1  0.747900  0.320300  0.311700  1.0  0.1316
  C  C29  1  0.389300  0.895900  0.114700  1.0  0.7322
  C  C30  1  0.426300  0.930700  0.024300  1.0  -0.1388
  C  C31  1  0.307100  0.004800  0.978500  1.0  -1e-04
  C  C32  1  0.343300  0.039300  0.895300  1.0  -0.1477
  C  C33  1  0.495000  0.996300  0.857000  1.0  -0.0867
  C  C34  1  0.615100  0.918100  0.901300  1.0  0.1087
  C  C35  1  0.578800  0.887500  0.984400  1.0  -0.0788
  C  C36  1  0.779600  0.871900  0.860700  1.0  -0.3567
  C  C37  1  0.219400  0.123700  0.847900  1.0  0.675
  C  C38  1  0.610700  0.395900  0.885300  1.0  0.7337
  C  C39  1  0.573700  0.430700  0.975700  1.0  -0.1392
  C  C40  1  0.692900  0.504800  0.021500  1.0  -1e-04
  C  C41  1  0.656700  0.539300  0.104700  1.0  -0.1465
  C  C42  1  0.505000  0.496300  0.143000  1.0  -0.0871
  C  C43  1  0.384900  0.418100  0.098700  1.0  0.1094
  C  C44  1  0.421200  0.387500  0.015600  1.0  -0.0793
  C  C45  1  0.220400  0.371900  0.139300  1.0  -0.3545
  C  C46  1  0.780600  0.623700  0.152100  1.0  0.6738
  C  C47  1  0.889300  0.895900  0.385300  1.0  0.7344
  C  C48  1  0.926300  0.930700  0.475700  1.0  -0.139
  C  C49  1  0.807100  0.004800  0.521500  1.0  0.0006
  C  C50  1  0.843300  0.039300  0.604700  1.0  -0.1477
  C  C51  1  0.995000  0.996300  0.643000  1.0  -0.086
  C  C52  1  0.115100  0.918100  0.598700  1.0  0.1093
  C  C53  1  0.078800  0.887500  0.515600  1.0  -0.0787
  C  C54  1  0.279600  0.871900  0.639300  1.0  -0.3556
  C  C55  1  0.719400  0.123700  0.652100  1.0  0.675
  C  C56  1  0.110700  0.395900  0.614700  1.0  0.7327
  C  C57  1  0.073700  0.430700  0.524300  1.0  -0.1392
  C  C58  1  0.192900  0.504800  0.478500  1.0  -0.0003
  C  C59  1  0.156700  0.539300  0.395300  1.0  -0.1463
  C  C60  1  0.005000  0.496300  0.357000  1.0  -0.0874
  C  C61  1  0.884900  0.418100  0.401300  1.0  0.1089
  C  C62  1  0.921200  0.387500  0.484400  1.0  -0.0799
  C  C63  1  0.720400  0.371900  0.360700  1.0  -0.3552
  C  C64  1  0.280600  0.623700  0.347900  1.0  0.6739
  O  O65  1  0.238400  0.895600  0.139500  1.0  -0.6486
  O  O66  1  0.523800  0.871500  0.160400  1.0  -0.6478
  O  O67  1  0.075200  0.151400  0.883200  1.0  -0.5892
  O  O68  1  0.250900  0.165600  0.774500  1.0  -0.6683
  O  O69  1  0.761600  0.395600  0.860500  1.0  -0.6485
  O  O70  1  0.476200  0.371500  0.839600  1.0  -0.6488
  O  O71  1  0.924800  0.651400  0.116800  1.0  -0.5887
  O  O72  1  0.749100  0.665600  0.225500  1.0  -0.6686
  O  O73  1  0.738400  0.895600  0.360500  1.0  -0.6478
  O  O74  1  0.023800  0.871500  0.339600  1.0  -0.6492
  O  O75  1  0.575200  0.151400  0.616800  1.0  -0.5888
  O  O76  1  0.750900  0.165600  0.725500  1.0  -0.669
  O  O77  1  0.261600  0.395600  0.639500  1.0  -0.6493
  O  O78  1  0.976200  0.371500  0.660400  1.0  -0.6474
  O  O79  1  0.424800  0.651400  0.383200  1.0  -0.5891
  O  O80  1  0.249100  0.665600  0.274500  1.0  -0.6676
