# generated using pymatgen
data_CdH6C9O4
_symmetry_space_group_name_H-M   'P 1'
_cell_length_a   7.33900000
_cell_length_b   11.24700000
_cell_length_c   15.84580000
_cell_angle_alpha   90.00000000
_cell_angle_beta   90.00000000
_cell_angle_gamma   90.00000000
_symmetry_Int_Tables_number   1
_chemical_formula_structural   CdH6C9O4
_chemical_formula_sum   'Cd4 H24 C36 O16'
_cell_volume   1307.93979277
_cell_formula_units_Z   4
loop_
 _symmetry_equiv_pos_site_id
 _symmetry_equiv_pos_as_xyz
  1  'x, y, z'
loop_
 _atom_site_type_symbol
 _atom_site_label
 _atom_site_symmetry_multiplicity
 _atom_site_fract_x
 _atom_site_fract_y
 _atom_site_fract_z
 _atom_site_occupancy
 _atom_site_charge
  Cd  Cd1  1  0.469900  0.489300  0.221700  1.0  1.0971
  Cd  Cd2  1  0.530100  0.989300  0.778300  1.0  1.0971
  Cd  Cd3  1  0.969900  0.489300  0.278300  1.0  1.0971
  Cd  Cd4  1  0.030100  0.989300  0.721700  1.0  1.0971
  H  H5  1  0.351700  0.435300  0.490300  1.0  0.1012
  H  H6  1  0.462000  0.240400  0.695300  1.0  0.0953
  H  H7  1  0.811900  0.245200  0.500700  1.0  0.113
  H  H8  1  0.184800  0.347300  0.691800  1.0  0.127
  H  H9  1  0.098700  0.363500  0.602000  1.0  0.1349
  H  H10  1  0.203800  0.469000  0.644500  1.0  0.1289
  H  H11  1  0.648300  0.935300  0.509700  1.0  0.1014
  H  H12  1  0.538000  0.740400  0.304700  1.0  0.0957
  H  H13  1  0.188100  0.745200  0.499300  1.0  0.1138
  H  H14  1  0.815200  0.847300  0.308200  1.0  0.1269
  H  H15  1  0.901300  0.863500  0.398000  1.0  0.1351
  H  H16  1  0.796200  0.969000  0.355500  1.0  0.1297
  H  H17  1  0.851700  0.435300  0.009700  1.0  0.1001
  H  H18  1  0.962000  0.240400  0.804700  1.0  0.0957
  H  H19  1  0.311900  0.245200  0.999300  1.0  0.1134
  H  H20  1  0.684800  0.347300  0.808200  1.0  0.127
  H  H21  1  0.598700  0.363500  0.898000  1.0  0.1352
  H  H22  1  0.703800  0.469000  0.855500  1.0  0.1292
  H  H23  1  0.148300  0.935300  0.990300  1.0  0.1022
  H  H24  1  0.038000  0.740400  0.195300  1.0  0.0956
  H  H25  1  0.688100  0.745200  0.000700  1.0  0.1137
  H  H26  1  0.315200  0.847300  0.191800  1.0  0.1273
  H  H27  1  0.401300  0.863500  0.102000  1.0  0.1347
  H  H28  1  0.296200  0.969000  0.144500  1.0  0.1294
  C  C29  1  0.646000  0.400200  0.398300  1.0  0.7213
  C  C30  1  0.588000  0.352100  0.482200  1.0  -0.1412
  C  C31  1  0.428000  0.383500  0.519300  1.0  -0.09
  C  C32  1  0.371000  0.342800  0.598600  1.0  0.1109
  C  C33  1  0.492000  0.266400  0.641400  1.0  -0.0769
  C  C34  1  0.651000  0.229600  0.607300  1.0  -0.1428
  C  C35  1  0.704000  0.270900  0.525300  1.0  -0.0282
  C  C36  1  0.200000  0.384000  0.637600  1.0  -0.3604
  C  C37  1  0.783000  0.142100  0.648800  1.0  0.6762
  C  C38  1  0.354000  0.900200  0.601700  1.0  0.7222
  C  C39  1  0.412000  0.852100  0.517800  1.0  -0.1398
  C  C40  1  0.572000  0.883500  0.480700  1.0  -0.0887
  C  C41  1  0.629000  0.842800  0.401400  1.0  0.1107
  C  C42  1  0.508000  0.766400  0.358600  1.0  -0.0763
  C  C43  1  0.349000  0.729600  0.392700  1.0  -0.1434
  C  C44  1  0.296000  0.770900  0.474700  1.0  -0.0288
  C  C45  1  0.800000  0.884000  0.362400  1.0  -0.3614
  C  C46  1  0.217000  0.642100  0.351200  1.0  0.6766
  C  C47  1  0.146000  0.400200  0.101700  1.0  0.7215
  C  C48  1  0.088000  0.352100  0.017800  1.0  -0.1409
  C  C49  1  0.928000  0.383500  0.980700  1.0  -0.0891
  C  C50  1  0.871000  0.342800  0.901400  1.0  0.1105
  C  C51  1  0.992000  0.266400  0.858600  1.0  -0.0773
  C  C52  1  0.151000  0.229600  0.892700  1.0  -0.1428
  C  C53  1  0.204000  0.270900  0.974700  1.0  -0.0287
  C  C54  1  0.700000  0.384000  0.862400  1.0  -0.3582
  C  C55  1  0.283000  0.142100  0.851200  1.0  0.6759
  C  C56  1  0.854000  0.900200  0.898300  1.0  0.7228
  C  C57  1  0.912000  0.852100  0.982200  1.0  -0.1403
  C  C58  1  0.072000  0.883500  0.019300  1.0  -0.0899
  C  C59  1  0.129000  0.842800  0.098600  1.0  0.111
  C  C60  1  0.008000  0.766400  0.141400  1.0  -0.0753
  C  C61  1  0.849000  0.729600  0.107300  1.0  -0.1436
  C  C62  1  0.796000  0.770900  0.025300  1.0  -0.0278
  C  C63  1  0.300000  0.884000  0.137600  1.0  -0.3623
  C  C64  1  0.717000  0.642100  0.148800  1.0  0.6765
  O  O65  1  0.520900  0.455000  0.358800  1.0  -0.6526
  O  O66  1  0.808500  0.393000  0.378000  1.0  -0.6094
  O  O67  1  0.742000  0.112400  0.725200  1.0  -0.6793
  O  O68  1  0.918500  0.105600  0.614000  1.0  -0.5292
  O  O69  1  0.479100  0.955000  0.641200  1.0  -0.6535
  O  O70  1  0.191500  0.893000  0.622000  1.0  -0.608
  O  O71  1  0.258000  0.612400  0.274800  1.0  -0.6801
  O  O72  1  0.081500  0.605600  0.386000  1.0  -0.5244
  O  O73  1  0.020900  0.455000  0.141200  1.0  -0.6524
  O  O74  1  0.308500  0.393000  0.122000  1.0  -0.609
  O  O75  1  0.242000  0.112400  0.774800  1.0  -0.6801
  O  O76  1  0.418500  0.105600  0.886000  1.0  -0.5286
  O  O77  1  0.979100  0.955000  0.858800  1.0  -0.654
  O  O78  1  0.691500  0.893000  0.878000  1.0  -0.6084
  O  O79  1  0.758000  0.612400  0.225200  1.0  -0.6795
  O  O80  1  0.581500  0.605600  0.114000  1.0  -0.5289
