# generated using pymatgen
data_YH3C7NO4
_symmetry_space_group_name_H-M   'P 1'
_cell_length_a   21.81540000
_cell_length_b   21.81540000
_cell_length_c   16.19670000
_cell_angle_alpha   90.00000000
_cell_angle_beta   90.00000000
_cell_angle_gamma   90.00000000
_symmetry_Int_Tables_number   1
_chemical_formula_structural   YH3C7NO4
_chemical_formula_sum   'Y16 H48 C112 N16 O64'
_cell_volume   7708.19866146
_cell_formula_units_Z   16
loop_
 _symmetry_equiv_pos_site_id
 _symmetry_equiv_pos_as_xyz
  1  'x, y, z'
loop_
 _atom_site_type_symbol
 _atom_site_label
 _atom_site_symmetry_multiplicity
 _atom_site_fract_x
 _atom_site_fract_y
 _atom_site_fract_z
 _atom_site_occupancy
 _atom_site_charge
  Y  Y1  1  0.335020  0.367590  0.873770  1.0  2.0077
  Y  Y2  1  0.835020  0.867590  0.373770  1.0  2.0077
  Y  Y3  1  0.164980  0.632410  0.373770  1.0  2.008
  Y  Y4  1  0.664980  0.132410  0.873770  1.0  2.008
  Y  Y5  1  0.382410  0.585020  0.123770  1.0  2.0061
  Y  Y6  1  0.882410  0.085020  0.623770  1.0  2.0061
  Y  Y7  1  0.117590  0.414980  0.623770  1.0  2.0084
  Y  Y8  1  0.617590  0.914980  0.123770  1.0  2.0084
  Y  Y9  1  0.664980  0.632410  0.126230  1.0  2.0066
  Y  Y10  1  0.164980  0.132410  0.626230  1.0  2.0066
  Y  Y11  1  0.835020  0.367590  0.626230  1.0  2.0054
  Y  Y12  1  0.335020  0.867590  0.126230  1.0  2.0054
  Y  Y13  1  0.617590  0.414980  0.876230  1.0  2.0068
  Y  Y14  1  0.117590  0.914980  0.376230  1.0  2.0068
  Y  Y15  1  0.882410  0.585020  0.376230  1.0  2.0041
  Y  Y16  1  0.382410  0.085020  0.876230  1.0  2.0041
  H  H17  1  0.490400  0.479400  0.665900  1.0  0.1184
  H  H18  1  0.418700  0.510600  0.568700  1.0  0.0932
  H  H19  1  0.316300  0.480000  0.580000  1.0  0.1166
  H  H20  1  0.990400  0.979400  0.165900  1.0  0.1184
  H  H21  1  0.918700  0.010600  0.068700  1.0  0.0932
  H  H22  1  0.816300  0.980000  0.080000  1.0  0.1166
  H  H23  1  0.009600  0.520600  0.165900  1.0  0.1198
  H  H24  1  0.081300  0.489400  0.068700  1.0  0.0929
  H  H25  1  0.183700  0.520000  0.080000  1.0  0.1166
  H  H26  1  0.509600  0.020600  0.665900  1.0  0.1198
  H  H27  1  0.581300  0.989400  0.568700  1.0  0.0929
  H  H28  1  0.683700  0.020000  0.580000  1.0  0.1166
  H  H29  1  0.270600  0.740400  0.915900  1.0  0.1191
  H  H30  1  0.239400  0.668700  0.818700  1.0  0.0921
  H  H31  1  0.270000  0.566300  0.830000  1.0  0.1167
  H  H32  1  0.770600  0.240400  0.415900  1.0  0.1191
  H  H33  1  0.739400  0.168700  0.318700  1.0  0.0921
  H  H34  1  0.770000  0.066300  0.330000  1.0  0.1167
  H  H35  1  0.229400  0.259600  0.415900  1.0  0.12
  H  H36  1  0.260600  0.331300  0.318700  1.0  0.0928
  H  H37  1  0.230000  0.433700  0.330000  1.0  0.1169
  H  H38  1  0.729400  0.759600  0.915900  1.0  0.12
  H  H39  1  0.760600  0.831300  0.818700  1.0  0.0928
  H  H40  1  0.730000  0.933700  0.830000  1.0  0.1169
  H  H41  1  0.509600  0.520600  0.334100  1.0  0.1201
  H  H42  1  0.581300  0.489400  0.431300  1.0  0.0936
  H  H43  1  0.683700  0.520000  0.420000  1.0  0.1172
  H  H44  1  0.009600  0.020600  0.834100  1.0  0.1201
  H  H45  1  0.081300  0.989400  0.931300  1.0  0.0936
  H  H46  1  0.183700  0.020000  0.920000  1.0  0.1172
  H  H47  1  0.990400  0.479400  0.834100  1.0  0.118
  H  H48  1  0.918700  0.510600  0.931300  1.0  0.0935
  H  H49  1  0.816300  0.480000  0.920000  1.0  0.1172
  H  H50  1  0.490400  0.979400  0.334100  1.0  0.118
  H  H51  1  0.418700  0.010600  0.431300  1.0  0.0935
  H  H52  1  0.316300  0.980000  0.420000  1.0  0.1172
  H  H53  1  0.729400  0.259600  0.084100  1.0  0.1198
  H  H54  1  0.760600  0.331300  0.181300  1.0  0.0929
  H  H55  1  0.730000  0.433700  0.170000  1.0  0.1167
  H  H56  1  0.229400  0.759600  0.584100  1.0  0.1198
  H  H57  1  0.260600  0.831300  0.681300  1.0  0.0929
  H  H58  1  0.230000  0.933700  0.670000  1.0  0.1167
  H  H59  1  0.770600  0.740400  0.584100  1.0  0.1191
  H  H60  1  0.739400  0.668700  0.681300  1.0  0.0925
  H  H61  1  0.770000  0.566300  0.670000  1.0  0.1177
  H  H62  1  0.270600  0.240400  0.084100  1.0  0.1191
  H  H63  1  0.239400  0.168700  0.181300  1.0  0.0925
  H  H64  1  0.270000  0.066300  0.170000  1.0  0.1177
  C  C65  1  0.427200  0.435000  0.738800  1.0  0.0949
  C  C66  1  0.449200  0.469200  0.671200  1.0  -0.134
  C  C67  1  0.406400  0.486800  0.613300  1.0  -0.0976
  C  C68  1  0.345000  0.469700  0.620200  1.0  -0.1377
  C  C69  1  0.329200  0.437000  0.688900  1.0  0.0845
  C  C70  1  0.264600  0.416200  0.704500  1.0  0.6559
  C  C71  1  0.467500  0.412300  0.807700  1.0  0.6955
  C  C72  1  0.927200  0.935000  0.238800  1.0  0.0949
  C  C73  1  0.949200  0.969200  0.171200  1.0  -0.134
  C  C74  1  0.906400  0.986800  0.113300  1.0  -0.0976
  C  C75  1  0.845000  0.969700  0.120200  1.0  -0.1377
  C  C76  1  0.829200  0.937000  0.188900  1.0  0.0845
  C  C77  1  0.764600  0.916200  0.204500  1.0  0.6559
  C  C78  1  0.967500  0.912300  0.307700  1.0  0.6955
  C  C79  1  0.072800  0.565000  0.238800  1.0  0.0941
  C  C80  1  0.050800  0.530800  0.171200  1.0  -0.135
  C  C81  1  0.093600  0.513200  0.113300  1.0  -0.0959
  C  C82  1  0.155000  0.530300  0.120200  1.0  -0.1386
  C  C83  1  0.170800  0.563000  0.188900  1.0  0.0843
  C  C84  1  0.235400  0.583800  0.204500  1.0  0.6559
  C  C85  1  0.032500  0.587700  0.307700  1.0  0.6944
  C  C86  1  0.572800  0.065000  0.738800  1.0  0.0941
  C  C87  1  0.550800  0.030800  0.671200  1.0  -0.135
  C  C88  1  0.593600  0.013200  0.613300  1.0  -0.0959
  C  C89  1  0.655000  0.030300  0.620200  1.0  -0.1386
  C  C90  1  0.670800  0.063000  0.688900  1.0  0.0843
  C  C91  1  0.735400  0.083800  0.704500  1.0  0.6559
  C  C92  1  0.532500  0.087700  0.807700  1.0  0.6944
  C  C93  1  0.315000  0.677200  0.988800  1.0  0.0945
  C  C94  1  0.280800  0.699200  0.921200  1.0  -0.1357
  C  C95  1  0.263200  0.656400  0.863300  1.0  -0.0951
  C  C96  1  0.280300  0.595000  0.870200  1.0  -0.1381
  C  C97  1  0.313000  0.579200  0.938900  1.0  0.0855
  C  C98  1  0.333800  0.514600  0.954500  1.0  0.6558
  C  C99  1  0.337700  0.717500  0.057700  1.0  0.6947
  C  C100  1  0.815000  0.177200  0.488800  1.0  0.0945
  C  C101  1  0.780800  0.199200  0.421200  1.0  -0.1357
  C  C102  1  0.763200  0.156400  0.363300  1.0  -0.0951
  C  C103  1  0.780300  0.095000  0.370200  1.0  -0.1381
  C  C104  1  0.813000  0.079200  0.438900  1.0  0.0855
  C  C105  1  0.833800  0.014600  0.454500  1.0  0.6558
  C  C106  1  0.837700  0.217500  0.557700  1.0  0.6947
  C  C107  1  0.185000  0.322800  0.488800  1.0  0.0945
  C  C108  1  0.219200  0.300800  0.421200  1.0  -0.1354
  C  C109  1  0.236800  0.343600  0.363300  1.0  -0.0962
  C  C110  1  0.219700  0.405000  0.370200  1.0  -0.1396
  C  C111  1  0.187000  0.420800  0.438900  1.0  0.0852
  C  C112  1  0.166200  0.485400  0.454500  1.0  0.6546
  C  C113  1  0.162300  0.282500  0.557700  1.0  0.6953
  C  C114  1  0.685000  0.822800  0.988800  1.0  0.0945
  C  C115  1  0.719200  0.800800  0.921200  1.0  -0.1354
  C  C116  1  0.736800  0.843600  0.863300  1.0  -0.0962
  C  C117  1  0.719700  0.905000  0.870200  1.0  -0.1396
  C  C118  1  0.687000  0.920800  0.938900  1.0  0.0852
  C  C119  1  0.666200  0.985400  0.954500  1.0  0.6546
  C  C120  1  0.662300  0.782500  0.057700  1.0  0.6953
  C  C121  1  0.572800  0.565000  0.261200  1.0  0.0948
  C  C122  1  0.550800  0.530800  0.328800  1.0  -0.134
  C  C123  1  0.593600  0.513200  0.386700  1.0  -0.0969
  C  C124  1  0.655000  0.530300  0.379800  1.0  -0.1382
  C  C125  1  0.670800  0.563000  0.311100  1.0  0.0838
  C  C126  1  0.735400  0.583800  0.295500  1.0  0.6554
  C  C127  1  0.532500  0.587700  0.192300  1.0  0.6954
  C  C128  1  0.072800  0.065000  0.761200  1.0  0.0948
  C  C129  1  0.050800  0.030800  0.828800  1.0  -0.134
  C  C130  1  0.093600  0.013200  0.886700  1.0  -0.0969
  C  C131  1  0.155000  0.030300  0.879800  1.0  -0.1382
  C  C132  1  0.170800  0.063000  0.811100  1.0  0.0838
  C  C133  1  0.235400  0.083800  0.795500  1.0  0.6554
  C  C134  1  0.032500  0.087700  0.692300  1.0  0.6954
  C  C135  1  0.927200  0.435000  0.761200  1.0  0.0957
  C  C136  1  0.949200  0.469200  0.828800  1.0  -0.1332
  C  C137  1  0.906400  0.486800  0.886700  1.0  -0.0971
  C  C138  1  0.845000  0.469700  0.879800  1.0  -0.1386
  C  C139  1  0.829200  0.437000  0.811100  1.0  0.0842
  C  C140  1  0.764600  0.416200  0.795500  1.0  0.656
  C  C141  1  0.967500  0.412300  0.692300  1.0  0.6939
  C  C142  1  0.427200  0.935000  0.261200  1.0  0.0957
  C  C143  1  0.449200  0.969200  0.328800  1.0  -0.1332
  C  C144  1  0.406400  0.986800  0.386700  1.0  -0.0971
  C  C145  1  0.345000  0.969700  0.379800  1.0  -0.1386
  C  C146  1  0.329200  0.937000  0.311100  1.0  0.0842
  C  C147  1  0.264600  0.916200  0.295500  1.0  0.656
  C  C148  1  0.467500  0.912300  0.192300  1.0  0.6939
  C  C149  1  0.685000  0.322800  0.011200  1.0  0.0949
  C  C150  1  0.719200  0.300800  0.078800  1.0  -0.1348
  C  C151  1  0.736800  0.343600  0.136700  1.0  -0.0958
  C  C152  1  0.719700  0.405000  0.129800  1.0  -0.1388
  C  C153  1  0.687000  0.420800  0.061100  1.0  0.085
  C  C154  1  0.666200  0.485400  0.045500  1.0  0.6546
  C  C155  1  0.662300  0.282500  0.942300  1.0  0.694
  C  C156  1  0.185000  0.822800  0.511200  1.0  0.0949
  C  C157  1  0.219200  0.800800  0.578800  1.0  -0.1348
  C  C158  1  0.236800  0.843600  0.636700  1.0  -0.0958
  C  C159  1  0.219700  0.905000  0.629800  1.0  -0.1388
  C  C160  1  0.187000  0.920800  0.561100  1.0  0.085
  C  C161  1  0.166200  0.985400  0.545500  1.0  0.6546
  C  C162  1  0.162300  0.782500  0.442300  1.0  0.694
  C  C163  1  0.815000  0.677200  0.511200  1.0  0.0954
  C  C164  1  0.780800  0.699200  0.578800  1.0  -0.1351
  C  C165  1  0.763200  0.656400  0.636700  1.0  -0.0966
  C  C166  1  0.780300  0.595000  0.629800  1.0  -0.1399
  C  C167  1  0.813000  0.579200  0.561100  1.0  0.0852
  C  C168  1  0.833800  0.514600  0.545500  1.0  0.6553
  C  C169  1  0.837700  0.717500  0.442300  1.0  0.6946
  C  C170  1  0.315000  0.177200  0.011200  1.0  0.0954
  C  C171  1  0.280800  0.199200  0.078800  1.0  -0.1351
  C  C172  1  0.263200  0.156400  0.136700  1.0  -0.0966
  C  C173  1  0.280300  0.095000  0.129800  1.0  -0.1399
  C  C174  1  0.313000  0.079200  0.061100  1.0  0.0852
  C  C175  1  0.333800  0.014600  0.045500  1.0  0.6553
  C  C176  1  0.337700  0.217500  0.942300  1.0  0.6946
  N  N177  1  0.368600  0.420200  0.747400  1.0  -0.5185
  N  N178  1  0.868600  0.920200  0.247400  1.0  -0.5185
  N  N179  1  0.131400  0.579800  0.247400  1.0  -0.5188
  N  N180  1  0.631400  0.079800  0.747400  1.0  -0.5188
  N  N181  1  0.329800  0.618600  0.997400  1.0  -0.5134
  N  N182  1  0.829800  0.118600  0.497400  1.0  -0.5134
  N  N183  1  0.170200  0.381400  0.497400  1.0  -0.5158
  N  N184  1  0.670200  0.881400  0.997400  1.0  -0.5158
  N  N185  1  0.631400  0.579800  0.252600  1.0  -0.5207
  N  N186  1  0.131400  0.079800  0.752600  1.0  -0.5207
  N  N187  1  0.868600  0.420200  0.752600  1.0  -0.5226
  N  N188  1  0.368600  0.920200  0.252600  1.0  -0.5226
  N  N189  1  0.670200  0.381400  0.002600  1.0  -0.5178
  N  N190  1  0.170200  0.881400  0.502600  1.0  -0.5178
  N  N191  1  0.829800  0.618600  0.502600  1.0  -0.5162
  N  N192  1  0.329800  0.118600  0.002600  1.0  -0.5162
  O  O193  1  0.254700  0.389400  0.774500  1.0  -0.7524
  O  O194  1  0.223800  0.427500  0.653800  1.0  -0.7405
  O  O195  1  0.524100  0.419900  0.804100  1.0  -0.7974
  O  O196  1  0.441900  0.385700  0.867200  1.0  -0.6914
  O  O197  1  0.754700  0.889400  0.274500  1.0  -0.7524
  O  O198  1  0.723800  0.927500  0.153800  1.0  -0.7405
  O  O199  1  0.024100  0.919900  0.304100  1.0  -0.7974
  O  O200  1  0.941900  0.885700  0.367200  1.0  -0.6914
  O  O201  1  0.245300  0.610600  0.274500  1.0  -0.7534
  O  O202  1  0.276200  0.572500  0.153800  1.0  -0.7418
  O  O203  1  0.975900  0.580100  0.304100  1.0  -0.7986
  O  O204  1  0.058100  0.614300  0.367200  1.0  -0.6932
  O  O205  1  0.745300  0.110600  0.774500  1.0  -0.7534
  O  O206  1  0.776200  0.072500  0.653800  1.0  -0.7418
  O  O207  1  0.475900  0.080100  0.804100  1.0  -0.7986
  O  O208  1  0.558100  0.114300  0.867200  1.0  -0.6932
  O  O209  1  0.360600  0.504700  0.024500  1.0  -0.7524
  O  O210  1  0.322500  0.473800  0.903800  1.0  -0.737
  O  O211  1  0.330100  0.774100  0.054100  1.0  -0.7925
  O  O212  1  0.364300  0.691900  0.117200  1.0  -0.6908
  O  O213  1  0.860600  0.004700  0.524500  1.0  -0.7524
  O  O214  1  0.822500  0.973800  0.403800  1.0  -0.737
  O  O215  1  0.830100  0.274100  0.554100  1.0  -0.7925
  O  O216  1  0.864300  0.191900  0.617200  1.0  -0.6908
  O  O217  1  0.139400  0.495300  0.524500  1.0  -0.7547
  O  O218  1  0.177500  0.526200  0.403800  1.0  -0.7355
  O  O219  1  0.169900  0.225900  0.554100  1.0  -0.7912
  O  O220  1  0.135700  0.308100  0.617200  1.0  -0.6898
  O  O221  1  0.639400  0.995300  0.024500  1.0  -0.7547
  O  O222  1  0.677500  0.026200  0.903800  1.0  -0.7355
  O  O223  1  0.669900  0.725900  0.054100  1.0  -0.7912
  O  O224  1  0.635700  0.808100  0.117200  1.0  -0.6898
  O  O225  1  0.745300  0.610600  0.225500  1.0  -0.7512
  O  O226  1  0.776200  0.572500  0.346200  1.0  -0.7428
  O  O227  1  0.475900  0.580100  0.195900  1.0  -0.798
  O  O228  1  0.558100  0.614300  0.132800  1.0  -0.6927
  O  O229  1  0.245300  0.110600  0.725500  1.0  -0.7512
  O  O230  1  0.276200  0.072500  0.846200  1.0  -0.7428
  O  O231  1  0.975900  0.080100  0.695900  1.0  -0.798
  O  O232  1  0.058100  0.114300  0.632800  1.0  -0.6927
  O  O233  1  0.754700  0.389400  0.725500  1.0  -0.7513
  O  O234  1  0.723800  0.427500  0.846200  1.0  -0.742
  O  O235  1  0.024100  0.419900  0.695900  1.0  -0.7971
  O  O236  1  0.941900  0.385700  0.632800  1.0  -0.6921
  O  O237  1  0.254700  0.889400  0.225500  1.0  -0.7513
  O  O238  1  0.223800  0.927500  0.346200  1.0  -0.742
  O  O239  1  0.524100  0.919900  0.195900  1.0  -0.7971
  O  O240  1  0.441900  0.885700  0.132800  1.0  -0.6921
  O  O241  1  0.639400  0.495300  0.975500  1.0  -0.7546
  O  O242  1  0.677500  0.526200  0.096200  1.0  -0.7363
  O  O243  1  0.669900  0.225900  0.945900  1.0  -0.7907
  O  O244  1  0.635700  0.308100  0.882800  1.0  -0.6903
  O  O245  1  0.139400  0.995300  0.475500  1.0  -0.7546
  O  O246  1  0.177500  0.026200  0.596200  1.0  -0.7363
  O  O247  1  0.169900  0.725900  0.445900  1.0  -0.7907
  O  O248  1  0.135700  0.808100  0.382800  1.0  -0.6903
  O  O249  1  0.860600  0.504700  0.475500  1.0  -0.7508
  O  O250  1  0.822500  0.473800  0.596200  1.0  -0.7383
  O  O251  1  0.830100  0.774100  0.445900  1.0  -0.7918
  O  O252  1  0.864300  0.691900  0.382800  1.0  -0.6898
  O  O253  1  0.360600  0.004700  0.975500  1.0  -0.7508
  O  O254  1  0.322500  0.973800  0.096200  1.0  -0.7383
  O  O255  1  0.330100  0.274100  0.945900  1.0  -0.7918
  O  O256  1  0.364300  0.191900  0.882800  1.0  -0.6898
