# generated using pymatgen
data_TmH3C7NO4
_symmetry_space_group_name_H-M   'P 1'
_cell_length_a   21.75100000
_cell_length_b   21.75100000
_cell_length_c   16.14380000
_cell_angle_alpha   90.00000000
_cell_angle_beta   90.00000000
_cell_angle_gamma   90.00000000
_symmetry_Int_Tables_number   1
_chemical_formula_structural   TmH3C7NO4
_chemical_formula_sum   'Tm16 H48 C112 N16 O64'
_cell_volume   7637.72865894
_cell_formula_units_Z   16
loop_
 _symmetry_equiv_pos_site_id
 _symmetry_equiv_pos_as_xyz
  1  'x, y, z'
loop_
 _atom_site_type_symbol
 _atom_site_label
 _atom_site_symmetry_multiplicity
 _atom_site_fract_x
 _atom_site_fract_y
 _atom_site_fract_z
 _atom_site_occupancy
 _atom_site_charge
  Tm  Tm1  1  0.117950  0.085660  0.123960  1.0  2.014
  Tm  Tm2  1  0.617950  0.585660  0.623960  1.0  2.014
  Tm  Tm3  1  0.382050  0.914340  0.623960  1.0  2.0147
  Tm  Tm4  1  0.882050  0.414340  0.123960  1.0  2.0147
  Tm  Tm5  1  0.664340  0.367950  0.373960  1.0  2.0135
  Tm  Tm6  1  0.164340  0.867950  0.873960  1.0  2.0135
  Tm  Tm7  1  0.835660  0.632050  0.873960  1.0  2.0151
  Tm  Tm8  1  0.335660  0.132050  0.373960  1.0  2.0151
  Tm  Tm9  1  0.882050  0.914340  0.876040  1.0  2.016
  Tm  Tm10  1  0.382050  0.414340  0.376040  1.0  2.016
  Tm  Tm11  1  0.617950  0.085660  0.376040  1.0  2.0156
  Tm  Tm12  1  0.117950  0.585660  0.876040  1.0  2.0156
  Tm  Tm13  1  0.335660  0.632050  0.626040  1.0  2.0166
  Tm  Tm14  1  0.835660  0.132050  0.126040  1.0  2.0166
  Tm  Tm15  1  0.164340  0.367950  0.126040  1.0  2.0152
  Tm  Tm16  1  0.664340  0.867950  0.626040  1.0  2.0152
  H  H17  1  0.319100  0.020100  0.080000  1.0  0.1154
  H  H18  1  0.421400  0.990500  0.071100  1.0  0.0904
  H  H19  1  0.489900  0.019700  0.169900  1.0  0.1124
  H  H20  1  0.819100  0.520100  0.580000  1.0  0.1154
  H  H21  1  0.921400  0.490500  0.571100  1.0  0.0904
  H  H22  1  0.989900  0.519700  0.669900  1.0  0.1124
  H  H23  1  0.180900  0.979900  0.580000  1.0  0.1155
  H  H24  1  0.078600  0.009500  0.571100  1.0  0.0902
  H  H25  1  0.010100  0.980300  0.669900  1.0  0.1132
  H  H26  1  0.680900  0.479900  0.080000  1.0  0.1155
  H  H27  1  0.578600  0.509500  0.071100  1.0  0.0902
  H  H28  1  0.510100  0.480300  0.169900  1.0  0.1132
  H  H29  1  0.729900  0.569100  0.330000  1.0  0.1161
  H  H30  1  0.759500  0.671400  0.321100  1.0  0.0907
  H  H31  1  0.730300  0.739900  0.419900  1.0  0.1128
  H  H32  1  0.229900  0.069100  0.830000  1.0  0.1161
  H  H33  1  0.259500  0.171400  0.821100  1.0  0.0907
  H  H34  1  0.230300  0.239900  0.919900  1.0  0.1128
  H  H35  1  0.770100  0.430900  0.830000  1.0  0.1161
  H  H36  1  0.740500  0.328600  0.821100  1.0  0.0896
  H  H37  1  0.769700  0.260100  0.919900  1.0  0.1126
  H  H38  1  0.270100  0.930900  0.330000  1.0  0.1161
  H  H39  1  0.240500  0.828600  0.321100  1.0  0.0896
  H  H40  1  0.269700  0.760100  0.419900  1.0  0.1126
  H  H41  1  0.680900  0.979900  0.920000  1.0  0.116
  H  H42  1  0.578600  0.009500  0.928900  1.0  0.091
  H  H43  1  0.510100  0.980300  0.830100  1.0  0.1132
  H  H44  1  0.180900  0.479900  0.420000  1.0  0.116
  H  H45  1  0.078600  0.509500  0.428900  1.0  0.091
  H  H46  1  0.010100  0.480300  0.330100  1.0  0.1132
  H  H47  1  0.819100  0.020100  0.420000  1.0  0.1159
  H  H48  1  0.921400  0.990500  0.428900  1.0  0.0908
  H  H49  1  0.989900  0.019700  0.330100  1.0  0.1125
  H  H50  1  0.319100  0.520100  0.920000  1.0  0.1159
  H  H51  1  0.421400  0.490500  0.928900  1.0  0.0908
  H  H52  1  0.489900  0.519700  0.830100  1.0  0.1125
  H  H53  1  0.270100  0.430900  0.670000  1.0  0.1162
  H  H54  1  0.240500  0.328600  0.678900  1.0  0.0904
  H  H55  1  0.269700  0.260100  0.580100  1.0  0.1127
  H  H56  1  0.770100  0.930900  0.170000  1.0  0.1162
  H  H57  1  0.740500  0.828600  0.178900  1.0  0.0904
  H  H58  1  0.769700  0.760100  0.080100  1.0  0.1127
  H  H59  1  0.229900  0.569100  0.170000  1.0  0.1162
  H  H60  1  0.259500  0.671400  0.178900  1.0  0.0908
  H  H61  1  0.230300  0.739900  0.080100  1.0  0.1124
  H  H62  1  0.729900  0.069100  0.670000  1.0  0.1162
  H  H63  1  0.759500  0.171400  0.678900  1.0  0.0908
  H  H64  1  0.730300  0.239900  0.580100  1.0  0.1124
  C  C65  1  0.264200  0.084600  0.205100  1.0  0.6759
  C  C66  1  0.329300  0.063400  0.188600  1.0  0.0824
  C  C67  1  0.347000  0.030800  0.121200  1.0  -0.1403
  C  C68  1  0.408100  0.014000  0.115900  1.0  -0.119
  C  C69  1  0.448600  0.030800  0.173900  1.0  -0.1448
  C  C70  1  0.427600  0.064600  0.239100  1.0  0.1064
  C  C71  1  0.468700  0.089400  0.307400  1.0  0.6735
  C  C72  1  0.764200  0.584600  0.705100  1.0  0.6759
  C  C73  1  0.829300  0.563400  0.688600  1.0  0.0824
  C  C74  1  0.847000  0.530800  0.621200  1.0  -0.1403
  C  C75  1  0.908100  0.514000  0.615900  1.0  -0.119
  C  C76  1  0.948600  0.530800  0.673900  1.0  -0.1448
  C  C77  1  0.927600  0.564600  0.739100  1.0  0.1064
  C  C78  1  0.968700  0.589400  0.807400  1.0  0.6735
  C  C79  1  0.235800  0.915400  0.705100  1.0  0.6772
  C  C80  1  0.170700  0.936600  0.688600  1.0  0.0826
  C  C81  1  0.153000  0.969200  0.621200  1.0  -0.1411
  C  C82  1  0.091900  0.986000  0.615900  1.0  -0.1197
  C  C83  1  0.051400  0.969200  0.673900  1.0  -0.1458
  C  C84  1  0.072400  0.935400  0.739100  1.0  0.1065
  C  C85  1  0.031300  0.910600  0.807400  1.0  0.6741
  C  C86  1  0.735800  0.415400  0.205100  1.0  0.6772
  C  C87  1  0.670700  0.436600  0.188600  1.0  0.0826
  C  C88  1  0.653000  0.469200  0.121200  1.0  -0.1411
  C  C89  1  0.591900  0.486000  0.115900  1.0  -0.1197
  C  C90  1  0.551400  0.469200  0.173900  1.0  -0.1458
  C  C91  1  0.572400  0.435400  0.239100  1.0  0.1065
  C  C92  1  0.531300  0.410600  0.307400  1.0  0.6741
  C  C93  1  0.665400  0.514200  0.455100  1.0  0.676
  C  C94  1  0.686600  0.579300  0.438600  1.0  0.0825
  C  C95  1  0.719200  0.597000  0.371200  1.0  -0.1421
  C  C96  1  0.736000  0.658100  0.365900  1.0  -0.1184
  C  C97  1  0.719200  0.698600  0.423900  1.0  -0.151
  C  C98  1  0.685400  0.677600  0.489100  1.0  0.1056
  C  C99  1  0.660600  0.718700  0.557400  1.0  0.6737
  C  C100  1  0.165400  0.014200  0.955100  1.0  0.676
  C  C101  1  0.186600  0.079300  0.938600  1.0  0.0825
  C  C102  1  0.219200  0.097000  0.871200  1.0  -0.1421
  C  C103  1  0.236000  0.158100  0.865900  1.0  -0.1184
  C  C104  1  0.219200  0.198600  0.923900  1.0  -0.151
  C  C105  1  0.185400  0.177600  0.989100  1.0  0.1056
  C  C106  1  0.160600  0.218700  0.057400  1.0  0.6737
  C  C107  1  0.834600  0.485800  0.955100  1.0  0.6766
  C  C108  1  0.813400  0.420700  0.938600  1.0  0.0815
  C  C109  1  0.780800  0.403000  0.871200  1.0  -0.1425
  C  C110  1  0.764000  0.341900  0.865900  1.0  -0.1178
  C  C111  1  0.780800  0.301400  0.923900  1.0  -0.1507
  C  C112  1  0.814600  0.322400  0.989100  1.0  0.1059
  C  C113  1  0.839400  0.281300  0.057400  1.0  0.6732
  C  C114  1  0.334600  0.985800  0.455100  1.0  0.6766
  C  C115  1  0.313400  0.920700  0.438600  1.0  0.0815
  C  C116  1  0.280800  0.903000  0.371200  1.0  -0.1425
  C  C117  1  0.264000  0.841900  0.365900  1.0  -0.1178
  C  C118  1  0.280800  0.801400  0.423900  1.0  -0.1507
  C  C119  1  0.314600  0.822400  0.489100  1.0  0.1059
  C  C120  1  0.339400  0.781300  0.557400  1.0  0.6732
  C  C121  1  0.735800  0.915400  0.794900  1.0  0.6772
  C  C122  1  0.670700  0.936600  0.811400  1.0  0.0827
  C  C123  1  0.653000  0.969200  0.878800  1.0  -0.1398
  C  C124  1  0.591900  0.986000  0.884100  1.0  -0.1207
  C  C125  1  0.551400  0.969200  0.826100  1.0  -0.1463
  C  C126  1  0.572400  0.935400  0.760900  1.0  0.1063
  C  C127  1  0.531300  0.910600  0.692600  1.0  0.6743
  C  C128  1  0.235800  0.415400  0.294900  1.0  0.6772
  C  C129  1  0.170700  0.436600  0.311400  1.0  0.0827
  C  C130  1  0.153000  0.469200  0.378800  1.0  -0.1398
  C  C131  1  0.091900  0.486000  0.384100  1.0  -0.1207
  C  C132  1  0.051400  0.469200  0.326100  1.0  -0.1463
  C  C133  1  0.072400  0.435400  0.260900  1.0  0.1063
  C  C134  1  0.031300  0.410600  0.192600  1.0  0.6743
  C  C135  1  0.764200  0.084600  0.294900  1.0  0.6761
  C  C136  1  0.829300  0.063400  0.311400  1.0  0.0827
  C  C137  1  0.847000  0.030800  0.378800  1.0  -0.1396
  C  C138  1  0.908100  0.014000  0.384100  1.0  -0.1183
  C  C139  1  0.948600  0.030800  0.326100  1.0  -0.1461
  C  C140  1  0.927600  0.064600  0.260900  1.0  0.1063
  C  C141  1  0.968700  0.089400  0.192600  1.0  0.6743
  C  C142  1  0.264200  0.584600  0.794900  1.0  0.6761
  C  C143  1  0.329300  0.563400  0.811400  1.0  0.0827
  C  C144  1  0.347000  0.530800  0.878800  1.0  -0.1396
  C  C145  1  0.408100  0.514000  0.884100  1.0  -0.1183
  C  C146  1  0.448600  0.530800  0.826100  1.0  -0.1461
  C  C147  1  0.427600  0.564600  0.760900  1.0  0.1063
  C  C148  1  0.468700  0.589400  0.692600  1.0  0.6743
  C  C149  1  0.334600  0.485800  0.544900  1.0  0.6767
  C  C150  1  0.313400  0.420700  0.561400  1.0  0.0817
  C  C151  1  0.280800  0.403000  0.628800  1.0  -0.1424
  C  C152  1  0.264000  0.341900  0.634100  1.0  -0.1183
  C  C153  1  0.280800  0.301400  0.576100  1.0  -0.1516
  C  C154  1  0.314600  0.322400  0.510900  1.0  0.1057
  C  C155  1  0.339400  0.281300  0.442600  1.0  0.6717
  C  C156  1  0.834600  0.985800  0.044900  1.0  0.6767
  C  C157  1  0.813400  0.920700  0.061400  1.0  0.0817
  C  C158  1  0.780800  0.903000  0.128800  1.0  -0.1424
  C  C159  1  0.764000  0.841900  0.134100  1.0  -0.1183
  C  C160  1  0.780800  0.801400  0.076100  1.0  -0.1516
  C  C161  1  0.814600  0.822400  0.010900  1.0  0.1057
  C  C162  1  0.839400  0.781300  0.942600  1.0  0.6717
  C  C163  1  0.165400  0.514200  0.044900  1.0  0.6761
  C  C164  1  0.186600  0.579300  0.061400  1.0  0.0826
  C  C165  1  0.219200  0.597000  0.128800  1.0  -0.1403
  C  C166  1  0.236000  0.658100  0.134100  1.0  -0.1175
  C  C167  1  0.219200  0.698600  0.076100  1.0  -0.1513
  C  C168  1  0.185400  0.677600  0.010900  1.0  0.1054
  C  C169  1  0.160600  0.718700  0.942600  1.0  0.6763
  C  C170  1  0.665400  0.014200  0.544900  1.0  0.6761
  C  C171  1  0.686600  0.079300  0.561400  1.0  0.0826
  C  C172  1  0.719200  0.097000  0.628800  1.0  -0.1403
  C  C173  1  0.736000  0.158100  0.634100  1.0  -0.1175
  C  C174  1  0.719200  0.198600  0.576100  1.0  -0.1513
  C  C175  1  0.685400  0.177600  0.510900  1.0  0.1054
  C  C176  1  0.660600  0.218700  0.442600  1.0  0.6763
  N  N177  1  0.368800  0.079900  0.247700  1.0  -0.4637
  N  N178  1  0.868800  0.579900  0.747700  1.0  -0.4637
  N  N179  1  0.131200  0.920100  0.747700  1.0  -0.4634
  N  N180  1  0.631200  0.420100  0.247700  1.0  -0.4634
  N  N181  1  0.670100  0.618800  0.497700  1.0  -0.4634
  N  N182  1  0.170100  0.118800  0.997700  1.0  -0.4634
  N  N183  1  0.829900  0.381200  0.997700  1.0  -0.4605
  N  N184  1  0.329900  0.881200  0.497700  1.0  -0.4605
  N  N185  1  0.631200  0.920100  0.752300  1.0  -0.4639
  N  N186  1  0.131200  0.420100  0.252300  1.0  -0.4639
  N  N187  1  0.868800  0.079900  0.252300  1.0  -0.4653
  N  N188  1  0.368800  0.579900  0.752300  1.0  -0.4653
  N  N189  1  0.329900  0.381200  0.502300  1.0  -0.4609
  N  N190  1  0.829900  0.881200  0.002300  1.0  -0.4609
  N  N191  1  0.170100  0.618800  0.002300  1.0  -0.4645
  N  N192  1  0.670100  0.118800  0.502300  1.0  -0.4645
  O  O193  1  0.223800  0.073400  0.153600  1.0  -0.7433
  O  O194  1  0.255500  0.111200  0.274400  1.0  -0.7455
  O  O195  1  0.440300  0.115900  0.367700  1.0  -0.7222
  O  O196  1  0.524800  0.082200  0.302700  1.0  -0.7964
  O  O197  1  0.723800  0.573400  0.653600  1.0  -0.7433
  O  O198  1  0.755500  0.611200  0.774400  1.0  -0.7455
  O  O199  1  0.940300  0.615900  0.867700  1.0  -0.7222
  O  O200  1  0.024800  0.582200  0.802700  1.0  -0.7964
  O  O201  1  0.276200  0.926600  0.653600  1.0  -0.7422
  O  O202  1  0.244500  0.888800  0.774400  1.0  -0.7439
  O  O203  1  0.059700  0.884100  0.867700  1.0  -0.7219
  O  O204  1  0.975200  0.917800  0.802700  1.0  -0.7964
  O  O205  1  0.776200  0.426600  0.153600  1.0  -0.7422
  O  O206  1  0.744500  0.388800  0.274400  1.0  -0.7439
  O  O207  1  0.559700  0.384100  0.367700  1.0  -0.7219
  O  O208  1  0.475200  0.417800  0.302700  1.0  -0.7964
  O  O209  1  0.676600  0.473800  0.403600  1.0  -0.7406
  O  O210  1  0.638800  0.505500  0.524400  1.0  -0.7447
  O  O211  1  0.634100  0.690300  0.617700  1.0  -0.7212
  O  O212  1  0.667800  0.774800  0.552700  1.0  -0.789
  O  O213  1  0.176600  0.973800  0.903600  1.0  -0.7406
  O  O214  1  0.138800  0.005500  0.024400  1.0  -0.7447
  O  O215  1  0.134100  0.190300  0.117700  1.0  -0.7212
  O  O216  1  0.167800  0.274800  0.052700  1.0  -0.789
  O  O217  1  0.823400  0.526200  0.903600  1.0  -0.7396
  O  O218  1  0.861200  0.494500  0.024400  1.0  -0.7453
  O  O219  1  0.865900  0.309700  0.117700  1.0  -0.7199
  O  O220  1  0.832200  0.225200  0.052700  1.0  -0.789
  O  O221  1  0.323400  0.026200  0.403600  1.0  -0.7396
  O  O222  1  0.361200  0.994500  0.524400  1.0  -0.7453
  O  O223  1  0.365900  0.809700  0.617700  1.0  -0.7199
  O  O224  1  0.332200  0.725200  0.552700  1.0  -0.789
  O  O225  1  0.776200  0.926600  0.846400  1.0  -0.7427
  O  O226  1  0.744500  0.888800  0.725600  1.0  -0.7446
  O  O227  1  0.559700  0.884100  0.632300  1.0  -0.7229
  O  O228  1  0.475200  0.917800  0.697300  1.0  -0.7962
  O  O229  1  0.276200  0.426600  0.346400  1.0  -0.7427
  O  O230  1  0.244500  0.388800  0.225600  1.0  -0.7446
  O  O231  1  0.059700  0.384100  0.132300  1.0  -0.7229
  O  O232  1  0.975200  0.417800  0.197300  1.0  -0.7962
  O  O233  1  0.723800  0.073400  0.346400  1.0  -0.7439
  O  O234  1  0.755500  0.111200  0.225600  1.0  -0.7478
  O  O235  1  0.940300  0.115900  0.132300  1.0  -0.7245
  O  O236  1  0.024800  0.082200  0.197300  1.0  -0.7961
  O  O237  1  0.223800  0.573400  0.846400  1.0  -0.7439
  O  O238  1  0.255500  0.611200  0.725600  1.0  -0.7478
  O  O239  1  0.440300  0.615900  0.632300  1.0  -0.7245
  O  O240  1  0.524800  0.582200  0.697300  1.0  -0.7961
  O  O241  1  0.323400  0.526200  0.596400  1.0  -0.7394
  O  O242  1  0.361200  0.494500  0.475600  1.0  -0.7463
  O  O243  1  0.365900  0.309700  0.382300  1.0  -0.7212
  O  O244  1  0.332200  0.225200  0.447300  1.0  -0.7886
  O  O245  1  0.823400  0.026200  0.096400  1.0  -0.7394
  O  O246  1  0.861200  0.994500  0.975600  1.0  -0.7463
  O  O247  1  0.865900  0.809700  0.882300  1.0  -0.7212
  O  O248  1  0.832200  0.725200  0.947300  1.0  -0.7886
  O  O249  1  0.176600  0.473800  0.096400  1.0  -0.7406
  O  O250  1  0.138800  0.505500  0.975600  1.0  -0.7461
  O  O251  1  0.134100  0.690300  0.882300  1.0  -0.7216
  O  O252  1  0.167800  0.774800  0.947300  1.0  -0.7889
  O  O253  1  0.676600  0.973800  0.596400  1.0  -0.7406
  O  O254  1  0.638800  0.005500  0.475600  1.0  -0.7461
  O  O255  1  0.634100  0.190300  0.382300  1.0  -0.7216
  O  O256  1  0.667800  0.274800  0.447300  1.0  -0.7889
