# generated using pymatgen
data_LaH3C7NO4
_symmetry_space_group_name_H-M   'P 1'
_cell_length_a   21.92850000
_cell_length_b   21.92850000
_cell_length_c   16.72650000
_cell_angle_alpha   90.00000000
_cell_angle_beta   90.00000000
_cell_angle_gamma   90.00000000
_symmetry_Int_Tables_number   1
_chemical_formula_structural   LaH3C7NO4
_chemical_formula_sum   'La16 H48 C112 N16 O64'
_cell_volume   8043.08994105
_cell_formula_units_Z   16
loop_
 _symmetry_equiv_pos_site_id
 _symmetry_equiv_pos_as_xyz
  1  'x, y, z'
loop_
 _atom_site_type_symbol
 _atom_site_label
 _atom_site_symmetry_multiplicity
 _atom_site_fract_x
 _atom_site_fract_y
 _atom_site_fract_z
 _atom_site_occupancy
 _atom_site_charge
  La  La1  1  0.322150  0.358020  0.863560  1.0  1.9962
  La  La2  1  0.822150  0.858020  0.363560  1.0  1.9962
  La  La3  1  0.177850  0.641980  0.363560  1.0  1.9965
  La  La4  1  0.677850  0.141980  0.863560  1.0  1.9965
  La  La5  1  0.391980  0.572150  0.113560  1.0  1.9965
  La  La6  1  0.891980  0.072150  0.613560  1.0  1.9965
  La  La7  1  0.108020  0.427850  0.613560  1.0  1.9959
  La  La8  1  0.608020  0.927850  0.113560  1.0  1.9959
  La  La9  1  0.677850  0.641980  0.136440  1.0  1.9957
  La  La10  1  0.177850  0.141980  0.636440  1.0  1.9957
  La  La11  1  0.822150  0.358020  0.636440  1.0  1.9946
  La  La12  1  0.322150  0.858020  0.136440  1.0  1.9946
  La  La13  1  0.608020  0.427850  0.886440  1.0  1.9948
  La  La14  1  0.108020  0.927850  0.386440  1.0  1.9948
  La  La15  1  0.891980  0.572150  0.386440  1.0  1.9951
  La  La16  1  0.391980  0.072150  0.886440  1.0  1.9951
  H  H17  1  0.485300  0.477500  0.666400  1.0  0.1056
  H  H18  1  0.419700  0.507900  0.565300  1.0  0.1044
  H  H19  1  0.317000  0.478800  0.572400  1.0  0.1063
  H  H20  1  0.985300  0.977500  0.166400  1.0  0.1056
  H  H21  1  0.919700  0.007900  0.065300  1.0  0.1044
  H  H22  1  0.817000  0.978800  0.072400  1.0  0.1063
  H  H23  1  0.014700  0.522500  0.166400  1.0  0.1061
  H  H24  1  0.080300  0.492100  0.065300  1.0  0.1044
  H  H25  1  0.183000  0.521200  0.072400  1.0  0.1061
  H  H26  1  0.514700  0.022500  0.666400  1.0  0.1061
  H  H27  1  0.580300  0.992100  0.565300  1.0  0.1044
  H  H28  1  0.683000  0.021200  0.572400  1.0  0.1061
  H  H29  1  0.272500  0.735300  0.916400  1.0  0.1055
  H  H30  1  0.242100  0.669700  0.815300  1.0  0.1036
  H  H31  1  0.271200  0.567000  0.822400  1.0  0.1065
  H  H32  1  0.772500  0.235300  0.416400  1.0  0.1055
  H  H33  1  0.742100  0.169700  0.315300  1.0  0.1036
  H  H34  1  0.771200  0.067000  0.322400  1.0  0.1065
  H  H35  1  0.227500  0.264700  0.416400  1.0  0.1058
  H  H36  1  0.257900  0.330300  0.315300  1.0  0.1045
  H  H37  1  0.228800  0.433000  0.322400  1.0  0.1067
  H  H38  1  0.727500  0.764700  0.916400  1.0  0.1058
  H  H39  1  0.757900  0.830300  0.815300  1.0  0.1045
  H  H40  1  0.728800  0.933000  0.822400  1.0  0.1067
  H  H41  1  0.514700  0.522500  0.333600  1.0  0.1061
  H  H42  1  0.580300  0.492100  0.434700  1.0  0.1051
  H  H43  1  0.683000  0.521200  0.427600  1.0  0.1065
  H  H44  1  0.014700  0.022500  0.833600  1.0  0.1061
  H  H45  1  0.080300  0.992100  0.934700  1.0  0.1051
  H  H46  1  0.183000  0.021200  0.927600  1.0  0.1065
  H  H47  1  0.985300  0.477500  0.833600  1.0  0.1054
  H  H48  1  0.919700  0.507900  0.934700  1.0  0.1051
  H  H49  1  0.817000  0.478800  0.927600  1.0  0.1066
  H  H50  1  0.485300  0.977500  0.333600  1.0  0.1054
  H  H51  1  0.419700  0.007900  0.434700  1.0  0.1051
  H  H52  1  0.317000  0.978800  0.427600  1.0  0.1066
  H  H53  1  0.727500  0.264700  0.083600  1.0  0.1059
  H  H54  1  0.757900  0.330300  0.184700  1.0  0.1043
  H  H55  1  0.728800  0.433000  0.177600  1.0  0.1067
  H  H56  1  0.227500  0.764700  0.583600  1.0  0.1059
  H  H57  1  0.257900  0.830300  0.684700  1.0  0.1043
  H  H58  1  0.228800  0.933000  0.677600  1.0  0.1067
  H  H59  1  0.772500  0.735300  0.583600  1.0  0.1057
  H  H60  1  0.742100  0.669700  0.684700  1.0  0.1042
  H  H61  1  0.771200  0.567000  0.677600  1.0  0.1072
  H  H62  1  0.272500  0.235300  0.083600  1.0  0.1057
  H  H63  1  0.242100  0.169700  0.184700  1.0  0.1042
  H  H64  1  0.271200  0.067000  0.177600  1.0  0.1072
  C  C65  1  0.421600  0.433300  0.731000  1.0  0.0999
  C  C66  1  0.444200  0.467000  0.668200  1.0  -0.1357
  C  C67  1  0.405400  0.485000  0.608100  1.0  -0.1182
  C  C68  1  0.344300  0.468100  0.612700  1.0  -0.1381
  C  C69  1  0.325200  0.435300  0.677900  1.0  0.0893
  C  C70  1  0.260000  0.417100  0.690600  1.0  0.6709
  C  C71  1  0.459600  0.412700  0.800100  1.0  0.7111
  C  C72  1  0.921600  0.933300  0.231000  1.0  0.0999
  C  C73  1  0.944200  0.967000  0.168200  1.0  -0.1357
  C  C74  1  0.905400  0.985000  0.108100  1.0  -0.1182
  C  C75  1  0.844300  0.968100  0.112700  1.0  -0.1381
  C  C76  1  0.825200  0.935300  0.177900  1.0  0.0893
  C  C77  1  0.760000  0.917100  0.190600  1.0  0.6709
  C  C78  1  0.959600  0.912700  0.300100  1.0  0.7111
  C  C79  1  0.078400  0.566700  0.231000  1.0  0.0995
  C  C80  1  0.055800  0.533000  0.168200  1.0  -0.1361
  C  C81  1  0.094600  0.515000  0.108100  1.0  -0.1178
  C  C82  1  0.155700  0.531900  0.112700  1.0  -0.1389
  C  C83  1  0.174800  0.564700  0.177900  1.0  0.0891
  C  C84  1  0.240000  0.582900  0.190600  1.0  0.6712
  C  C85  1  0.040400  0.587300  0.300100  1.0  0.7086
  C  C86  1  0.578400  0.066700  0.731000  1.0  0.0995
  C  C87  1  0.555800  0.033000  0.668200  1.0  -0.1361
  C  C88  1  0.594600  0.015000  0.608100  1.0  -0.1178
  C  C89  1  0.655700  0.031900  0.612700  1.0  -0.1389
  C  C90  1  0.674800  0.064700  0.677900  1.0  0.0891
  C  C91  1  0.740000  0.082900  0.690600  1.0  0.6712
  C  C92  1  0.540400  0.087300  0.800100  1.0  0.7086
  C  C93  1  0.316700  0.671600  0.981000  1.0  0.0984
  C  C94  1  0.283000  0.694200  0.918200  1.0  -0.1379
  C  C95  1  0.265000  0.655400  0.858100  1.0  -0.1168
  C  C96  1  0.281900  0.594300  0.862700  1.0  -0.1392
  C  C97  1  0.314700  0.575200  0.927900  1.0  0.0906
  C  C98  1  0.332900  0.510000  0.940600  1.0  0.6723
  C  C99  1  0.337300  0.709600  0.050100  1.0  0.7088
  C  C100  1  0.816700  0.171600  0.481000  1.0  0.0984
  C  C101  1  0.783000  0.194200  0.418200  1.0  -0.1379
  C  C102  1  0.765000  0.155400  0.358100  1.0  -0.1168
  C  C103  1  0.781900  0.094300  0.362700  1.0  -0.1392
  C  C104  1  0.814700  0.075200  0.427900  1.0  0.0906
  C  C105  1  0.832900  0.010000  0.440600  1.0  0.6723
  C  C106  1  0.837300  0.209600  0.550100  1.0  0.7088
  C  C107  1  0.183300  0.328400  0.481000  1.0  0.0986
  C  C108  1  0.217000  0.305800  0.418200  1.0  -0.1394
  C  C109  1  0.235000  0.344600  0.358100  1.0  -0.1177
  C  C110  1  0.218100  0.405700  0.362700  1.0  -0.1407
  C  C111  1  0.185300  0.424800  0.427900  1.0  0.0902
  C  C112  1  0.167100  0.490000  0.440600  1.0  0.6702
  C  C113  1  0.162700  0.290400  0.550100  1.0  0.7092
  C  C114  1  0.683300  0.828400  0.981000  1.0  0.0986
  C  C115  1  0.717000  0.805800  0.918200  1.0  -0.1394
  C  C116  1  0.735000  0.844600  0.858100  1.0  -0.1177
  C  C117  1  0.718100  0.905700  0.862700  1.0  -0.1407
  C  C118  1  0.685300  0.924800  0.927900  1.0  0.0902
  C  C119  1  0.667100  0.990000  0.940600  1.0  0.6702
  C  C120  1  0.662700  0.790400  0.050100  1.0  0.7092
  C  C121  1  0.578400  0.566700  0.269000  1.0  0.0998
  C  C122  1  0.555800  0.533000  0.331800  1.0  -0.1356
  C  C123  1  0.594600  0.515000  0.391900  1.0  -0.1195
  C  C124  1  0.655700  0.531900  0.387300  1.0  -0.1377
  C  C125  1  0.674800  0.564700  0.322100  1.0  0.0893
  C  C126  1  0.740000  0.582900  0.309400  1.0  0.6716
  C  C127  1  0.540400  0.587300  0.199900  1.0  0.7093
  C  C128  1  0.078400  0.066700  0.769000  1.0  0.0998
  C  C129  1  0.055800  0.033000  0.831800  1.0  -0.1356
  C  C130  1  0.094600  0.015000  0.891900  1.0  -0.1195
  C  C131  1  0.155700  0.031900  0.887300  1.0  -0.1377
  C  C132  1  0.174800  0.064700  0.822100  1.0  0.0893
  C  C133  1  0.240000  0.082900  0.809400  1.0  0.6716
  C  C134  1  0.040400  0.087300  0.699900  1.0  0.7093
  C  C135  1  0.921600  0.433300  0.769000  1.0  0.0998
  C  C136  1  0.944200  0.467000  0.831800  1.0  -0.1351
  C  C137  1  0.905400  0.485000  0.891900  1.0  -0.1185
  C  C138  1  0.844300  0.468100  0.887300  1.0  -0.138
  C  C139  1  0.825200  0.435300  0.822100  1.0  0.0895
  C  C140  1  0.760000  0.417100  0.809400  1.0  0.6713
  C  C141  1  0.959600  0.412700  0.699900  1.0  0.7097
  C  C142  1  0.421600  0.933300  0.269000  1.0  0.0998
  C  C143  1  0.444200  0.967000  0.331800  1.0  -0.1351
  C  C144  1  0.405400  0.985000  0.391900  1.0  -0.1185
  C  C145  1  0.344300  0.968100  0.387300  1.0  -0.138
  C  C146  1  0.325200  0.935300  0.322100  1.0  0.0895
  C  C147  1  0.260000  0.917100  0.309400  1.0  0.6713
  C  C148  1  0.459600  0.912700  0.199900  1.0  0.7097
  C  C149  1  0.683300  0.328400  0.019000  1.0  0.0983
  C  C150  1  0.717000  0.305800  0.081800  1.0  -0.1388
  C  C151  1  0.735000  0.344600  0.141900  1.0  -0.1179
  C  C152  1  0.718100  0.405700  0.137300  1.0  -0.1397
  C  C153  1  0.685300  0.424800  0.072100  1.0  0.0906
  C  C154  1  0.667100  0.490000  0.059400  1.0  0.6709
  C  C155  1  0.662700  0.290400  0.949900  1.0  0.7087
  C  C156  1  0.183300  0.828400  0.519000  1.0  0.0983
  C  C157  1  0.217000  0.805800  0.581800  1.0  -0.1388
  C  C158  1  0.235000  0.844600  0.641900  1.0  -0.1179
  C  C159  1  0.218100  0.905700  0.637300  1.0  -0.1397
  C  C160  1  0.185300  0.924800  0.572100  1.0  0.0906
  C  C161  1  0.167100  0.990000  0.559400  1.0  0.6709
  C  C162  1  0.162700  0.790400  0.449900  1.0  0.7087
  C  C163  1  0.816700  0.671600  0.519000  1.0  0.0986
  C  C164  1  0.783000  0.694200  0.581800  1.0  -0.1373
  C  C165  1  0.765000  0.655400  0.641900  1.0  -0.1192
  C  C166  1  0.781900  0.594300  0.637300  1.0  -0.1402
  C  C167  1  0.814700  0.575200  0.572100  1.0  0.0906
  C  C168  1  0.832900  0.510000  0.559400  1.0  0.6724
  C  C169  1  0.837300  0.709600  0.449900  1.0  0.7087
  C  C170  1  0.316700  0.171600  0.019000  1.0  0.0986
  C  C171  1  0.283000  0.194200  0.081800  1.0  -0.1373
  C  C172  1  0.265000  0.155400  0.141900  1.0  -0.1192
  C  C173  1  0.281900  0.094300  0.137300  1.0  -0.1402
  C  C174  1  0.314700  0.075200  0.072100  1.0  0.0906
  C  C175  1  0.332900  0.010000  0.059400  1.0  0.6724
  C  C176  1  0.337300  0.209600  0.949900  1.0  0.7087
  N  N177  1  0.362900  0.417200  0.736000  1.0  -0.5366
  N  N178  1  0.862900  0.917200  0.236000  1.0  -0.5366
  N  N179  1  0.137100  0.582800  0.236000  1.0  -0.538
  N  N180  1  0.637100  0.082800  0.736000  1.0  -0.538
  N  N181  1  0.332800  0.612900  0.986000  1.0  -0.532
  N  N182  1  0.832800  0.112900  0.486000  1.0  -0.532
  N  N183  1  0.167200  0.387100  0.486000  1.0  -0.5349
  N  N184  1  0.667200  0.887100  0.986000  1.0  -0.5349
  N  N185  1  0.637100  0.582800  0.264000  1.0  -0.5366
  N  N186  1  0.137100  0.082800  0.764000  1.0  -0.5366
  N  N187  1  0.862900  0.417200  0.764000  1.0  -0.5382
  N  N188  1  0.362900  0.917200  0.264000  1.0  -0.5382
  N  N189  1  0.667200  0.387100  0.014000  1.0  -0.5342
  N  N190  1  0.167200  0.887100  0.514000  1.0  -0.5342
  N  N191  1  0.832800  0.612900  0.514000  1.0  -0.533
  N  N192  1  0.332800  0.112900  0.014000  1.0  -0.533
  O  O193  1  0.248500  0.389000  0.755500  1.0  -0.753
  O  O194  1  0.221300  0.431400  0.640100  1.0  -0.6601
  O  O195  1  0.515300  0.424200  0.798700  1.0  -0.8286
  O  O196  1  0.433400  0.385000  0.856700  1.0  -0.7163
  O  O197  1  0.748500  0.889000  0.255500  1.0  -0.753
  O  O198  1  0.721300  0.931400  0.140100  1.0  -0.6601
  O  O199  1  0.015300  0.924200  0.298700  1.0  -0.8286
  O  O200  1  0.933400  0.885000  0.356700  1.0  -0.7163
  O  O201  1  0.251500  0.611000  0.255500  1.0  -0.7538
  O  O202  1  0.278700  0.568600  0.140100  1.0  -0.6609
  O  O203  1  0.984700  0.575800  0.298700  1.0  -0.8289
  O  O204  1  0.066600  0.615000  0.356700  1.0  -0.7184
  O  O205  1  0.751500  0.111000  0.755500  1.0  -0.7538
  O  O206  1  0.778700  0.068600  0.640100  1.0  -0.6609
  O  O207  1  0.484700  0.075800  0.798700  1.0  -0.8289
  O  O208  1  0.566600  0.115000  0.856700  1.0  -0.7184
  O  O209  1  0.361000  0.498500  0.005500  1.0  -0.7552
  O  O210  1  0.318600  0.471300  0.890100  1.0  -0.657
  O  O211  1  0.325800  0.765300  0.048700  1.0  -0.8162
  O  O212  1  0.365000  0.683400  0.106700  1.0  -0.7162
  O  O213  1  0.861000  0.998500  0.505500  1.0  -0.7552
  O  O214  1  0.818600  0.971300  0.390100  1.0  -0.657
  O  O215  1  0.825800  0.265300  0.548700  1.0  -0.8162
  O  O216  1  0.865000  0.183400  0.606700  1.0  -0.7162
  O  O217  1  0.139000  0.501500  0.505500  1.0  -0.7545
  O  O218  1  0.181400  0.528700  0.390100  1.0  -0.6572
  O  O219  1  0.174200  0.234700  0.548700  1.0  -0.8134
  O  O220  1  0.135000  0.316600  0.606700  1.0  -0.7149
  O  O221  1  0.639000  0.001500  0.005500  1.0  -0.7545
  O  O222  1  0.681400  0.028700  0.890100  1.0  -0.6572
  O  O223  1  0.674200  0.734700  0.048700  1.0  -0.8134
  O  O224  1  0.635000  0.816600  0.106700  1.0  -0.7149
  O  O225  1  0.751500  0.611000  0.244500  1.0  -0.7542
  O  O226  1  0.778700  0.568600  0.359900  1.0  -0.6614
  O  O227  1  0.484700  0.575800  0.201300  1.0  -0.8289
  O  O228  1  0.566600  0.615000  0.143300  1.0  -0.7192
  O  O229  1  0.251500  0.111000  0.744500  1.0  -0.7542
  O  O230  1  0.278700  0.068600  0.859900  1.0  -0.6614
  O  O231  1  0.984700  0.075800  0.701300  1.0  -0.8289
  O  O232  1  0.066600  0.115000  0.643300  1.0  -0.7192
  O  O233  1  0.748500  0.389000  0.744500  1.0  -0.7546
  O  O234  1  0.721300  0.431400  0.859900  1.0  -0.6603
  O  O235  1  0.015300  0.424200  0.701300  1.0  -0.8287
  O  O236  1  0.933400  0.385000  0.643300  1.0  -0.7177
  O  O237  1  0.248500  0.889000  0.244500  1.0  -0.7546
  O  O238  1  0.221300  0.931400  0.359900  1.0  -0.6603
  O  O239  1  0.515300  0.924200  0.201300  1.0  -0.8287
  O  O240  1  0.433400  0.885000  0.143300  1.0  -0.7177
  O  O241  1  0.639000  0.501500  0.994500  1.0  -0.757
  O  O242  1  0.681400  0.528700  0.109900  1.0  -0.6566
  O  O243  1  0.674200  0.234700  0.951300  1.0  -0.8132
  O  O244  1  0.635000  0.316600  0.893300  1.0  -0.7165
  O  O245  1  0.139000  0.001500  0.494500  1.0  -0.757
  O  O246  1  0.181400  0.028700  0.609900  1.0  -0.6566
  O  O247  1  0.174200  0.734700  0.451300  1.0  -0.8132
  O  O248  1  0.135000  0.816600  0.393300  1.0  -0.7165
  O  O249  1  0.861000  0.498500  0.494500  1.0  -0.756
  O  O250  1  0.818600  0.471300  0.609900  1.0  -0.6578
  O  O251  1  0.825800  0.765300  0.451300  1.0  -0.8162
  O  O252  1  0.865000  0.683400  0.393300  1.0  -0.7162
  O  O253  1  0.361000  0.998500  0.994500  1.0  -0.756
  O  O254  1  0.318600  0.971300  0.109900  1.0  -0.6578
  O  O255  1  0.325800  0.265300  0.951300  1.0  -0.8162
  O  O256  1  0.365000  0.183400  0.893300  1.0  -0.7162
