# generated using pymatgen
data_PrH3C7NO4
_symmetry_space_group_name_H-M   'P 1'
_cell_length_a   21.93140000
_cell_length_b   21.93140000
_cell_length_c   16.70590000
_cell_angle_alpha   90.00000000
_cell_angle_beta   90.00000000
_cell_angle_gamma   90.00000000
_symmetry_Int_Tables_number   1
_chemical_formula_structural   PrH3C7NO4
_chemical_formula_sum   'Pr16 H48 C112 N16 O64'
_cell_volume   8035.30912874
_cell_formula_units_Z   16
loop_
 _symmetry_equiv_pos_site_id
 _symmetry_equiv_pos_as_xyz
  1  'x, y, z'
loop_
 _atom_site_type_symbol
 _atom_site_label
 _atom_site_symmetry_multiplicity
 _atom_site_fract_x
 _atom_site_fract_y
 _atom_site_fract_z
 _atom_site_occupancy
 _atom_site_charge
  Pr  Pr1  1  0.609500  0.574560  0.615640  1.0  1.9826
  Pr  Pr2  1  0.109500  0.074560  0.115640  1.0  1.9826
  Pr  Pr3  1  0.890500  0.425440  0.115640  1.0  1.9835
  Pr  Pr4  1  0.390500  0.925440  0.615640  1.0  1.9835
  Pr  Pr5  1  0.175440  0.859500  0.865640  1.0  1.9829
  Pr  Pr6  1  0.675440  0.359500  0.365640  1.0  1.9829
  Pr  Pr7  1  0.324560  0.140500  0.365640  1.0  1.9831
  Pr  Pr8  1  0.824560  0.640500  0.865640  1.0  1.9831
  Pr  Pr9  1  0.390500  0.425440  0.384360  1.0  1.9835
  Pr  Pr10  1  0.890500  0.925440  0.884360  1.0  1.9835
  Pr  Pr11  1  0.109500  0.574560  0.884360  1.0  1.9822
  Pr  Pr12  1  0.609500  0.074560  0.384360  1.0  1.9822
  Pr  Pr13  1  0.824560  0.140500  0.134360  1.0  1.983
  Pr  Pr14  1  0.324560  0.640500  0.634360  1.0  1.983
  Pr  Pr15  1  0.675440  0.859500  0.634360  1.0  1.9822
  Pr  Pr16  1  0.175440  0.359500  0.134360  1.0  1.9822
  H  H17  1  0.727800  0.736100  0.419000  1.0  0.1132
  H  H18  1  0.756800  0.668400  0.316700  1.0  0.1007
  H  H19  1  0.728200  0.566800  0.325500  1.0  0.11
  H  H20  1  0.227800  0.236100  0.919000  1.0  0.1132
  H  H21  1  0.256800  0.168400  0.816700  1.0  0.1007
  H  H22  1  0.228200  0.066800  0.825500  1.0  0.11
  H  H23  1  0.772200  0.263900  0.919000  1.0  0.1128
  H  H24  1  0.743200  0.331600  0.816700  1.0  0.1
  H  H25  1  0.771800  0.433200  0.825500  1.0  0.1102
  H  H26  1  0.272200  0.763900  0.419000  1.0  0.1128
  H  H27  1  0.243200  0.831600  0.316700  1.0  0.1
  H  H28  1  0.271800  0.933200  0.325500  1.0  0.1102
  H  H29  1  0.013900  0.977800  0.669000  1.0  0.1127
  H  H30  1  0.081600  0.006800  0.566700  1.0  0.1004
  H  H31  1  0.183200  0.978200  0.575500  1.0  0.1092
  H  H32  1  0.513900  0.477800  0.169000  1.0  0.1127
  H  H33  1  0.581600  0.506800  0.066700  1.0  0.1004
  H  H34  1  0.683200  0.478200  0.075500  1.0  0.1092
  H  H35  1  0.486100  0.022200  0.169000  1.0  0.1114
  H  H36  1  0.418400  0.993200  0.066700  1.0  0.1011
  H  H37  1  0.316800  0.021800  0.075500  1.0  0.1094
  H  H38  1  0.986100  0.522200  0.669000  1.0  0.1114
  H  H39  1  0.918400  0.493200  0.566700  1.0  0.1011
  H  H40  1  0.816800  0.521800  0.575500  1.0  0.1094
  H  H41  1  0.272200  0.263900  0.581000  1.0  0.1128
  H  H42  1  0.243200  0.331600  0.683300  1.0  0.1011
  H  H43  1  0.271800  0.433200  0.674500  1.0  0.1104
  H  H44  1  0.772200  0.763900  0.081000  1.0  0.1128
  H  H45  1  0.743200  0.831600  0.183300  1.0  0.1011
  H  H46  1  0.771800  0.933200  0.174500  1.0  0.1104
  H  H47  1  0.227800  0.736100  0.081000  1.0  0.1128
  H  H48  1  0.256800  0.668400  0.183300  1.0  0.101
  H  H49  1  0.228200  0.566800  0.174500  1.0  0.1105
  H  H50  1  0.727800  0.236100  0.581000  1.0  0.1128
  H  H51  1  0.756800  0.168400  0.683300  1.0  0.101
  H  H52  1  0.728200  0.066800  0.674500  1.0  0.1105
  H  H53  1  0.986100  0.022200  0.331000  1.0  0.1114
  H  H54  1  0.918400  0.993200  0.433300  1.0  0.1018
  H  H55  1  0.816800  0.021800  0.424500  1.0  0.1098
  H  H56  1  0.486100  0.522200  0.831000  1.0  0.1114
  H  H57  1  0.418400  0.493200  0.933300  1.0  0.1018
  H  H58  1  0.316800  0.521800  0.924500  1.0  0.1098
  H  H59  1  0.513900  0.977800  0.831000  1.0  0.1125
  H  H60  1  0.581600  0.006800  0.933300  1.0  0.1019
  H  H61  1  0.683200  0.978200  0.924500  1.0  0.1098
  H  H62  1  0.013900  0.477800  0.331000  1.0  0.1125
  H  H63  1  0.081600  0.506800  0.433300  1.0  0.1019
  H  H64  1  0.183200  0.478200  0.424500  1.0  0.1098
  C  C65  1  0.683100  0.671700  0.483800  1.0  0.1212
  C  C66  1  0.717000  0.695200  0.420900  1.0  -0.113
  C  C67  1  0.734300  0.654600  0.360300  1.0  -0.0949
  C  C68  1  0.717900  0.594300  0.365700  1.0  -0.1215
  C  C69  1  0.686100  0.575500  0.431700  1.0  0.0833
  C  C70  1  0.667500  0.510300  0.445600  1.0  0.7044
  C  C71  1  0.663300  0.711000  0.552300  1.0  0.7019
  C  C72  1  0.183100  0.171700  0.983800  1.0  0.1212
  C  C73  1  0.217000  0.195200  0.920900  1.0  -0.113
  C  C74  1  0.234300  0.154600  0.860300  1.0  -0.0949
  C  C75  1  0.217900  0.094300  0.865700  1.0  -0.1215
  C  C76  1  0.186100  0.075500  0.931700  1.0  0.0833
  C  C77  1  0.167500  0.010300  0.945600  1.0  0.7044
  C  C78  1  0.163300  0.211000  0.052300  1.0  0.7019
  C  C79  1  0.816900  0.328300  0.983800  1.0  0.121
  C  C80  1  0.783000  0.304800  0.920900  1.0  -0.113
  C  C81  1  0.765700  0.345400  0.860300  1.0  -0.0948
  C  C82  1  0.782100  0.405700  0.865700  1.0  -0.1219
  C  C83  1  0.813900  0.424500  0.931700  1.0  0.0821
  C  C84  1  0.832500  0.489700  0.945600  1.0  0.7049
  C  C85  1  0.836700  0.289000  0.052300  1.0  0.7029
  C  C86  1  0.316900  0.828300  0.483800  1.0  0.121
  C  C87  1  0.283000  0.804800  0.420900  1.0  -0.113
  C  C88  1  0.265700  0.845400  0.360300  1.0  -0.0948
  C  C89  1  0.282100  0.905700  0.365700  1.0  -0.1219
  C  C90  1  0.313900  0.924500  0.431700  1.0  0.0821
  C  C91  1  0.332500  0.989700  0.445600  1.0  0.7049
  C  C92  1  0.336700  0.789000  0.552300  1.0  0.7029
  C  C93  1  0.078300  0.933100  0.733800  1.0  0.121
  C  C94  1  0.054800  0.967000  0.670900  1.0  -0.1115
  C  C95  1  0.095400  0.984300  0.610300  1.0  -0.0937
  C  C96  1  0.155700  0.967900  0.615700  1.0  -0.1213
  C  C97  1  0.174500  0.936100  0.681700  1.0  0.082
  C  C98  1  0.239700  0.917500  0.695600  1.0  0.705
  C  C99  1  0.039000  0.913300  0.802300  1.0  0.7037
  C  C100  1  0.578300  0.433100  0.233800  1.0  0.121
  C  C101  1  0.554800  0.467000  0.170900  1.0  -0.1115
  C  C102  1  0.595400  0.484300  0.110300  1.0  -0.0937
  C  C103  1  0.655700  0.467900  0.115700  1.0  -0.1213
  C  C104  1  0.674500  0.436100  0.181700  1.0  0.082
  C  C105  1  0.739700  0.417500  0.195600  1.0  0.705
  C  C106  1  0.539000  0.413300  0.302300  1.0  0.7037
  C  C107  1  0.421700  0.066900  0.233800  1.0  0.1211
  C  C108  1  0.445200  0.033000  0.170900  1.0  -0.11
  C  C109  1  0.404600  0.015700  0.110300  1.0  -0.0948
  C  C110  1  0.344300  0.032100  0.115700  1.0  -0.1213
  C  C111  1  0.325500  0.063900  0.181700  1.0  0.0827
  C  C112  1  0.260300  0.082500  0.195600  1.0  0.7044
  C  C113  1  0.461000  0.086700  0.302300  1.0  0.7043
  C  C114  1  0.921700  0.566900  0.733800  1.0  0.1211
  C  C115  1  0.945200  0.533000  0.670900  1.0  -0.11
  C  C116  1  0.904600  0.515700  0.610300  1.0  -0.0948
  C  C117  1  0.844300  0.532100  0.615700  1.0  -0.1213
  C  C118  1  0.825500  0.563900  0.681700  1.0  0.0827
  C  C119  1  0.760300  0.582500  0.695600  1.0  0.7044
  C  C120  1  0.961000  0.586700  0.802300  1.0  0.7043
  C  C121  1  0.316900  0.328300  0.516200  1.0  0.121
  C  C122  1  0.283000  0.304800  0.579100  1.0  -0.112
  C  C123  1  0.265700  0.345400  0.639700  1.0  -0.0957
  C  C124  1  0.282100  0.405700  0.634300  1.0  -0.1222
  C  C125  1  0.313900  0.424500  0.568300  1.0  0.0819
  C  C126  1  0.332500  0.489700  0.554400  1.0  0.7051
  C  C127  1  0.336700  0.289000  0.447700  1.0  0.7003
  C  C128  1  0.816900  0.828300  0.016200  1.0  0.121
  C  C129  1  0.783000  0.804800  0.079100  1.0  -0.112
  C  C130  1  0.765700  0.845400  0.139700  1.0  -0.0957
  C  C131  1  0.782100  0.905700  0.134300  1.0  -0.1222
  C  C132  1  0.813900  0.924500  0.068300  1.0  0.0819
  C  C133  1  0.832500  0.989700  0.054400  1.0  0.7051
  C  C134  1  0.836700  0.789000  0.947700  1.0  0.7003
  C  C135  1  0.183100  0.671700  0.016200  1.0  0.1211
  C  C136  1  0.217000  0.695200  0.079100  1.0  -0.1121
  C  C137  1  0.234300  0.654600  0.139700  1.0  -0.0952
  C  C138  1  0.217900  0.594300  0.134300  1.0  -0.1201
  C  C139  1  0.186100  0.575500  0.068300  1.0  0.0832
  C  C140  1  0.167500  0.510300  0.054400  1.0  0.7041
  C  C141  1  0.163300  0.711000  0.947700  1.0  0.7013
  C  C142  1  0.683100  0.171700  0.516200  1.0  0.1211
  C  C143  1  0.717000  0.195200  0.579100  1.0  -0.1121
  C  C144  1  0.734300  0.154600  0.639700  1.0  -0.0952
  C  C145  1  0.717900  0.094300  0.634300  1.0  -0.1201
  C  C146  1  0.686100  0.075500  0.568300  1.0  0.0832
  C  C147  1  0.667500  0.010300  0.554400  1.0  0.7041
  C  C148  1  0.663300  0.211000  0.447700  1.0  0.7013
  C  C149  1  0.921700  0.066900  0.266200  1.0  0.1216
  C  C150  1  0.945200  0.033000  0.329100  1.0  -0.1088
  C  C151  1  0.904600  0.015700  0.389700  1.0  -0.0947
  C  C152  1  0.844300  0.032100  0.384300  1.0  -0.1207
  C  C153  1  0.825500  0.063900  0.318300  1.0  0.0826
  C  C154  1  0.760300  0.082500  0.304400  1.0  0.7048
  C  C155  1  0.961000  0.086700  0.197700  1.0  0.7028
  C  C156  1  0.421700  0.566900  0.766200  1.0  0.1216
  C  C157  1  0.445200  0.533000  0.829100  1.0  -0.1088
  C  C158  1  0.404600  0.515700  0.889700  1.0  -0.0947
  C  C159  1  0.344300  0.532100  0.884300  1.0  -0.1207
  C  C160  1  0.325500  0.563900  0.818300  1.0  0.0826
  C  C161  1  0.260300  0.582500  0.804400  1.0  0.7048
  C  C162  1  0.461000  0.586700  0.697700  1.0  0.7028
  C  C163  1  0.578300  0.933100  0.766200  1.0  0.1207
  C  C164  1  0.554800  0.967000  0.829100  1.0  -0.1106
  C  C165  1  0.595400  0.984300  0.889700  1.0  -0.0955
  C  C166  1  0.655700  0.967900  0.884300  1.0  -0.1205
  C  C167  1  0.674500  0.936100  0.818300  1.0  0.0818
  C  C168  1  0.739700  0.917500  0.804400  1.0  0.7049
  C  C169  1  0.539000  0.913300  0.697700  1.0  0.7025
  C  C170  1  0.078300  0.433100  0.266200  1.0  0.1207
  C  C171  1  0.054800  0.467000  0.329100  1.0  -0.1106
  C  C172  1  0.095400  0.484300  0.389700  1.0  -0.0955
  C  C173  1  0.155700  0.467900  0.384300  1.0  -0.1205
  C  C174  1  0.174500  0.436100  0.318300  1.0  0.0818
  C  C175  1  0.239700  0.417500  0.304400  1.0  0.7049
  C  C176  1  0.039000  0.413300  0.197700  1.0  0.7025
  N  N177  1  0.667900  0.613800  0.489300  1.0  -0.5337
  N  N178  1  0.167900  0.113800  0.989300  1.0  -0.5337
  N  N179  1  0.832100  0.386200  0.989300  1.0  -0.5331
  N  N180  1  0.332100  0.886200  0.489300  1.0  -0.5331
  N  N181  1  0.136200  0.917900  0.739300  1.0  -0.5375
  N  N182  1  0.636200  0.417900  0.239300  1.0  -0.5375
  N  N183  1  0.363800  0.082100  0.239300  1.0  -0.5394
  N  N184  1  0.863800  0.582100  0.739300  1.0  -0.5394
  N  N185  1  0.332100  0.386200  0.510700  1.0  -0.5338
  N  N186  1  0.832100  0.886200  0.010700  1.0  -0.5338
  N  N187  1  0.167900  0.613800  0.010700  1.0  -0.5349
  N  N188  1  0.667900  0.113800  0.510700  1.0  -0.5349
  N  N189  1  0.863800  0.082100  0.260700  1.0  -0.5391
  N  N190  1  0.363800  0.582100  0.760700  1.0  -0.5391
  N  N191  1  0.636200  0.917900  0.760700  1.0  -0.5387
  N  N192  1  0.136200  0.417900  0.260700  1.0  -0.5387
  O  O193  1  0.640700  0.499100  0.510800  1.0  -0.7474
  O  O194  1  0.636400  0.684300  0.609100  1.0  -0.7451
  O  O195  1  0.673400  0.766700  0.549700  1.0  -0.8199
  O  O196  1  0.680900  0.471700  0.394000  1.0  -0.7341
  O  O197  1  0.140700  0.999100  0.010800  1.0  -0.7474
  O  O198  1  0.136400  0.184300  0.109100  1.0  -0.7451
  O  O199  1  0.173400  0.266700  0.049700  1.0  -0.8199
  O  O200  1  0.180900  0.971700  0.894000  1.0  -0.7341
  O  O201  1  0.859300  0.500900  0.010800  1.0  -0.7498
  O  O202  1  0.863600  0.315700  0.109100  1.0  -0.7465
  O  O203  1  0.826600  0.233300  0.049700  1.0  -0.8206
  O  O204  1  0.819100  0.528300  0.894000  1.0  -0.7351
  O  O205  1  0.359300  0.000900  0.510800  1.0  -0.7498
  O  O206  1  0.363600  0.815700  0.609100  1.0  -0.7465
  O  O207  1  0.326600  0.733300  0.549700  1.0  -0.8206
  O  O208  1  0.319100  0.028300  0.394000  1.0  -0.7351
  O  O209  1  0.250900  0.890700  0.760800  1.0  -0.7474
  O  O210  1  0.065700  0.886400  0.859100  1.0  -0.7434
  O  O211  1  0.983300  0.923400  0.799700  1.0  -0.8323
  O  O212  1  0.278300  0.930900  0.644000  1.0  -0.7369
  O  O213  1  0.750900  0.390700  0.260800  1.0  -0.7474
  O  O214  1  0.565700  0.386400  0.359100  1.0  -0.7434
  O  O215  1  0.483300  0.423400  0.299700  1.0  -0.8323
  O  O216  1  0.778300  0.430900  0.144000  1.0  -0.7369
  O  O217  1  0.249100  0.109300  0.260800  1.0  -0.7484
  O  O218  1  0.434300  0.113600  0.359100  1.0  -0.7431
  O  O219  1  0.516700  0.076600  0.299700  1.0  -0.8318
  O  O220  1  0.221700  0.069100  0.144000  1.0  -0.7369
  O  O221  1  0.749100  0.609300  0.760800  1.0  -0.7484
  O  O222  1  0.934300  0.613600  0.859100  1.0  -0.7431
  O  O223  1  0.016700  0.576600  0.799700  1.0  -0.8318
  O  O224  1  0.721700  0.569100  0.644000  1.0  -0.7369
  O  O225  1  0.359300  0.500900  0.489200  1.0  -0.7477
  O  O226  1  0.363600  0.315700  0.390900  1.0  -0.7445
  O  O227  1  0.326600  0.233300  0.450300  1.0  -0.8202
  O  O228  1  0.319100  0.528300  0.606000  1.0  -0.7337
  O  O229  1  0.859300  0.000900  0.989200  1.0  -0.7477
  O  O230  1  0.863600  0.815700  0.890900  1.0  -0.7445
  O  O231  1  0.826600  0.733300  0.950300  1.0  -0.8202
  O  O232  1  0.819100  0.028300  0.106000  1.0  -0.7337
  O  O233  1  0.140700  0.499100  0.989200  1.0  -0.7467
  O  O234  1  0.136400  0.684300  0.890900  1.0  -0.745
  O  O235  1  0.173400  0.766700  0.950300  1.0  -0.8201
  O  O236  1  0.180900  0.471700  0.106000  1.0  -0.7338
  O  O237  1  0.640700  0.999100  0.489200  1.0  -0.7467
  O  O238  1  0.636400  0.184300  0.390900  1.0  -0.745
  O  O239  1  0.673400  0.266700  0.450300  1.0  -0.8201
  O  O240  1  0.680900  0.971700  0.606000  1.0  -0.7338
  O  O241  1  0.749100  0.109300  0.239200  1.0  -0.7476
  O  O242  1  0.934300  0.113600  0.140900  1.0  -0.7423
  O  O243  1  0.016700  0.076600  0.200300  1.0  -0.8318
  O  O244  1  0.721700  0.069100  0.356000  1.0  -0.7363
  O  O245  1  0.249100  0.609300  0.739200  1.0  -0.7476
  O  O246  1  0.434300  0.613600  0.640900  1.0  -0.7423
  O  O247  1  0.516700  0.576600  0.700300  1.0  -0.8318
  O  O248  1  0.221700  0.569100  0.856000  1.0  -0.7363
  O  O249  1  0.750900  0.890700  0.739200  1.0  -0.7451
  O  O250  1  0.565700  0.886400  0.640900  1.0  -0.7426
  O  O251  1  0.483300  0.923400  0.700300  1.0  -0.8323
  O  O252  1  0.778300  0.930900  0.856000  1.0  -0.737
  O  O253  1  0.250900  0.390700  0.239200  1.0  -0.7451
  O  O254  1  0.065700  0.386400  0.140900  1.0  -0.7426
  O  O255  1  0.983300  0.423400  0.200300  1.0  -0.8323
  O  O256  1  0.278300  0.430900  0.356000  1.0  -0.737
