# generated using pymatgen
data_EuH3C7NO4
_symmetry_space_group_name_H-M   'P 1'
_cell_length_a   21.77770000
_cell_length_b   21.77770000
_cell_length_c   16.41670000
_cell_angle_alpha   90.00000000
_cell_angle_beta   90.00000000
_cell_angle_gamma   90.00000000
_symmetry_Int_Tables_number   1
_chemical_formula_structural   EuH3C7NO4
_chemical_formula_sum   'Eu16 H48 C112 N16 O64'
_cell_volume   7785.91904278
_cell_formula_units_Z   16
loop_
 _symmetry_equiv_pos_site_id
 _symmetry_equiv_pos_as_xyz
  1  'x, y, z'
loop_
 _atom_site_type_symbol
 _atom_site_label
 _atom_site_symmetry_multiplicity
 _atom_site_fract_x
 _atom_site_fract_y
 _atom_site_fract_z
 _atom_site_occupancy
 _atom_site_charge
  Eu  Eu1  1  0.829080  0.635870  0.368740  1.0  2.0309
  Eu  Eu2  1  0.329080  0.135870  0.868740  1.0  2.0309
  Eu  Eu3  1  0.670920  0.364130  0.868740  1.0  2.0301
  Eu  Eu4  1  0.170920  0.864130  0.368740  1.0  2.0301
  Eu  Eu5  1  0.114130  0.079080  0.618740  1.0  2.0297
  Eu  Eu6  1  0.614130  0.579080  0.118740  1.0  2.0297
  Eu  Eu7  1  0.385870  0.920920  0.118740  1.0  2.0306
  Eu  Eu8  1  0.885870  0.420920  0.618740  1.0  2.0306
  Eu  Eu9  1  0.170920  0.364130  0.631260  1.0  2.0296
  Eu  Eu10  1  0.670920  0.864130  0.131260  1.0  2.0296
  Eu  Eu11  1  0.329080  0.635870  0.131260  1.0  2.0303
  Eu  Eu12  1  0.829080  0.135870  0.631260  1.0  2.0303
  Eu  Eu13  1  0.885870  0.920920  0.381260  1.0  2.0304
  Eu  Eu14  1  0.385870  0.420920  0.881260  1.0  2.0304
  Eu  Eu15  1  0.614130  0.079080  0.881260  1.0  2.0289
  Eu  Eu16  1  0.114130  0.579080  0.381260  1.0  2.0289
  H  H17  1  0.818800  0.521600  0.075800  1.0  0.1059
  H  H18  1  0.920200  0.490000  0.067200  1.0  0.1018
  H  H19  1  0.987700  0.518500  0.168900  1.0  0.1097
  H  H20  1  0.318800  0.021600  0.575800  1.0  0.1059
  H  H21  1  0.420200  0.990000  0.567200  1.0  0.1018
  H  H22  1  0.487700  0.018500  0.668900  1.0  0.1097
  H  H23  1  0.681200  0.478400  0.575800  1.0  0.1059
  H  H24  1  0.579800  0.510000  0.567200  1.0  0.1007
  H  H25  1  0.512300  0.481500  0.668900  1.0  0.11
  H  H26  1  0.181200  0.978400  0.075800  1.0  0.1059
  H  H27  1  0.079800  0.010000  0.067200  1.0  0.1007
  H  H28  1  0.012300  0.981500  0.168900  1.0  0.11
  H  H29  1  0.228400  0.068800  0.325800  1.0  0.1068
  H  H30  1  0.260000  0.170200  0.317200  1.0  0.1015
  H  H31  1  0.231500  0.237700  0.418900  1.0  0.1103
  H  H32  1  0.728400  0.568800  0.825800  1.0  0.1068
  H  H33  1  0.760000  0.670200  0.817200  1.0  0.1015
  H  H34  1  0.731500  0.737700  0.918900  1.0  0.1103
  H  H35  1  0.271600  0.931200  0.825800  1.0  0.1065
  H  H36  1  0.240000  0.829800  0.817200  1.0  0.1005
  H  H37  1  0.268500  0.762300  0.918900  1.0  0.1096
  H  H38  1  0.771600  0.431200  0.325800  1.0  0.1065
  H  H39  1  0.740000  0.329800  0.317200  1.0  0.1005
  H  H40  1  0.768500  0.262300  0.418900  1.0  0.1096
  H  H41  1  0.181200  0.478400  0.924200  1.0  0.1063
  H  H42  1  0.079800  0.510000  0.932800  1.0  0.1016
  H  H43  1  0.012300  0.481500  0.831100  1.0  0.1099
  H  H44  1  0.681200  0.978400  0.424200  1.0  0.1063
  H  H45  1  0.579800  0.010000  0.432800  1.0  0.1016
  H  H46  1  0.512300  0.981500  0.331100  1.0  0.1099
  H  H47  1  0.318800  0.521600  0.424200  1.0  0.1064
  H  H48  1  0.420200  0.490000  0.432800  1.0  0.102
  H  H49  1  0.487700  0.518500  0.331100  1.0  0.1101
  H  H50  1  0.818800  0.021600  0.924200  1.0  0.1064
  H  H51  1  0.920200  0.990000  0.932800  1.0  0.102
  H  H52  1  0.987700  0.018500  0.831100  1.0  0.1101
  H  H53  1  0.771600  0.931200  0.674200  1.0  0.1068
  H  H54  1  0.740000  0.829800  0.682800  1.0  0.101
  H  H55  1  0.768500  0.762300  0.581100  1.0  0.1098
  H  H56  1  0.271600  0.431200  0.174200  1.0  0.1068
  H  H57  1  0.240000  0.329800  0.182800  1.0  0.101
  H  H58  1  0.268500  0.262300  0.081100  1.0  0.1098
  H  H59  1  0.728400  0.068800  0.174200  1.0  0.1071
  H  H60  1  0.760000  0.170200  0.182800  1.0  0.1014
  H  H61  1  0.731500  0.237700  0.081100  1.0  0.1102
  H  H62  1  0.228400  0.568800  0.674200  1.0  0.1071
  H  H63  1  0.260000  0.670200  0.682800  1.0  0.1014
  H  H64  1  0.231500  0.737700  0.581100  1.0  0.1102
  C  C65  1  0.761300  0.581900  0.199000  1.0  0.6769
  C  C66  1  0.827200  0.563600  0.184600  1.0  0.0854
  C  C67  1  0.846400  0.531200  0.117100  1.0  -0.1372
  C  C68  1  0.906700  0.513100  0.111400  1.0  -0.1147
  C  C69  1  0.946500  0.529700  0.171900  1.0  -0.1224
  C  C70  1  0.925600  0.562800  0.236800  1.0  0.0916
  C  C71  1  0.964000  0.582000  0.306400  1.0  0.6704
  C  C72  1  0.261300  0.081900  0.699000  1.0  0.6769
  C  C73  1  0.327200  0.063600  0.684600  1.0  0.0854
  C  C74  1  0.346400  0.031200  0.617100  1.0  -0.1372
  C  C75  1  0.406700  0.013100  0.611400  1.0  -0.1147
  C  C76  1  0.446500  0.029700  0.671900  1.0  -0.1224
  C  C77  1  0.425600  0.062800  0.736800  1.0  0.0916
  C  C78  1  0.464000  0.082000  0.806400  1.0  0.6704
  C  C79  1  0.738700  0.418100  0.699000  1.0  0.6751
  C  C80  1  0.672800  0.436400  0.684600  1.0  0.0856
  C  C81  1  0.653600  0.468800  0.617100  1.0  -0.1382
  C  C82  1  0.593300  0.486900  0.611400  1.0  -0.1147
  C  C83  1  0.553500  0.470300  0.671900  1.0  -0.1248
  C  C84  1  0.574400  0.437200  0.736800  1.0  0.091
  C  C85  1  0.536000  0.418000  0.806400  1.0  0.6681
  C  C86  1  0.238700  0.918100  0.199000  1.0  0.6751
  C  C87  1  0.172800  0.936400  0.184600  1.0  0.0856
  C  C88  1  0.153600  0.968800  0.117100  1.0  -0.1382
  C  C89  1  0.093300  0.986900  0.111400  1.0  -0.1147
  C  C90  1  0.053500  0.970300  0.171900  1.0  -0.1248
  C  C91  1  0.074400  0.937200  0.236800  1.0  0.091
  C  C92  1  0.036000  0.918000  0.306400  1.0  0.6681
  C  C93  1  0.168100  0.011300  0.449000  1.0  0.6749
  C  C94  1  0.186400  0.077200  0.434600  1.0  0.087
  C  C95  1  0.218800  0.096400  0.367100  1.0  -0.1389
  C  C96  1  0.236900  0.156700  0.361400  1.0  -0.1151
  C  C97  1  0.220300  0.196500  0.421900  1.0  -0.1266
  C  C98  1  0.187200  0.175600  0.486800  1.0  0.0897
  C  C99  1  0.168000  0.214000  0.556400  1.0  0.6674
  C  C100  1  0.668100  0.511300  0.949000  1.0  0.6749
  C  C101  1  0.686400  0.577200  0.934600  1.0  0.087
  C  C102  1  0.718800  0.596400  0.867100  1.0  -0.1389
  C  C103  1  0.736900  0.656700  0.861400  1.0  -0.1151
  C  C104  1  0.720300  0.696500  0.921900  1.0  -0.1266
  C  C105  1  0.687200  0.675600  0.986800  1.0  0.0897
  C  C106  1  0.668000  0.714000  0.056400  1.0  0.6674
  C  C107  1  0.331900  0.988700  0.949000  1.0  0.6754
  C  C108  1  0.313600  0.922800  0.934600  1.0  0.0862
  C  C109  1  0.281200  0.903600  0.867100  1.0  -0.1385
  C  C110  1  0.263100  0.843300  0.861400  1.0  -0.1141
  C  C111  1  0.279700  0.803500  0.921900  1.0  -0.1282
  C  C112  1  0.312800  0.824400  0.986800  1.0  0.0906
  C  C113  1  0.332000  0.786000  0.056400  1.0  0.6705
  C  C114  1  0.831900  0.488700  0.449000  1.0  0.6754
  C  C115  1  0.813600  0.422800  0.434600  1.0  0.0862
  C  C116  1  0.781200  0.403600  0.367100  1.0  -0.1385
  C  C117  1  0.763100  0.343300  0.361400  1.0  -0.1141
  C  C118  1  0.779700  0.303500  0.421900  1.0  -0.1282
  C  C119  1  0.812800  0.324400  0.486800  1.0  0.0906
  C  C120  1  0.832000  0.286000  0.556400  1.0  0.6705
  C  C121  1  0.238700  0.418100  0.801000  1.0  0.676
  C  C122  1  0.172800  0.436400  0.815400  1.0  0.0854
  C  C123  1  0.153600  0.468800  0.882900  1.0  -0.136
  C  C124  1  0.093300  0.486900  0.888600  1.0  -0.1169
  C  C125  1  0.053500  0.470300  0.828100  1.0  -0.1246
  C  C126  1  0.074400  0.437200  0.763200  1.0  0.0904
  C  C127  1  0.036000  0.418000  0.693600  1.0  0.6696
  C  C128  1  0.738700  0.918100  0.301000  1.0  0.676
  C  C129  1  0.672800  0.936400  0.315400  1.0  0.0854
  C  C130  1  0.653600  0.968800  0.382900  1.0  -0.136
  C  C131  1  0.593300  0.986900  0.388600  1.0  -0.1169
  C  C132  1  0.553500  0.970300  0.328100  1.0  -0.1246
  C  C133  1  0.574400  0.937200  0.263200  1.0  0.0904
  C  C134  1  0.536000  0.918000  0.193600  1.0  0.6696
  C  C135  1  0.261300  0.581900  0.301000  1.0  0.6778
  C  C136  1  0.327200  0.563600  0.315400  1.0  0.0853
  C  C137  1  0.346400  0.531200  0.382900  1.0  -0.1362
  C  C138  1  0.406700  0.513100  0.388600  1.0  -0.1152
  C  C139  1  0.446500  0.529700  0.328100  1.0  -0.1223
  C  C140  1  0.425600  0.562800  0.263200  1.0  0.0924
  C  C141  1  0.464000  0.582000  0.193600  1.0  0.6706
  C  C142  1  0.761300  0.081900  0.801000  1.0  0.6778
  C  C143  1  0.827200  0.063600  0.815400  1.0  0.0853
  C  C144  1  0.846400  0.031200  0.882900  1.0  -0.1362
  C  C145  1  0.906700  0.013100  0.888600  1.0  -0.1152
  C  C146  1  0.946500  0.029700  0.828100  1.0  -0.1223
  C  C147  1  0.925600  0.062800  0.763200  1.0  0.0924
  C  C148  1  0.964000  0.082000  0.693600  1.0  0.6706
  C  C149  1  0.831900  0.988700  0.551000  1.0  0.6765
  C  C150  1  0.813600  0.922800  0.565400  1.0  0.0858
  C  C151  1  0.781200  0.903600  0.632900  1.0  -0.1384
  C  C152  1  0.763100  0.843300  0.638600  1.0  -0.1164
  C  C153  1  0.779700  0.803500  0.578100  1.0  -0.1281
  C  C154  1  0.812800  0.824400  0.513200  1.0  0.0903
  C  C155  1  0.832000  0.786000  0.443600  1.0  0.6701
  C  C156  1  0.331900  0.488700  0.051000  1.0  0.6765
  C  C157  1  0.313600  0.422800  0.065400  1.0  0.0858
  C  C158  1  0.281200  0.403600  0.132900  1.0  -0.1384
  C  C159  1  0.263100  0.343300  0.138600  1.0  -0.1164
  C  C160  1  0.279700  0.303500  0.078100  1.0  -0.1281
  C  C161  1  0.312800  0.324400  0.013200  1.0  0.0903
  C  C162  1  0.332000  0.286000  0.943600  1.0  0.6701
  C  C163  1  0.668100  0.011300  0.051000  1.0  0.6755
  C  C164  1  0.686400  0.077200  0.065400  1.0  0.0868
  C  C165  1  0.718800  0.096400  0.132900  1.0  -0.1367
  C  C166  1  0.736900  0.156700  0.138600  1.0  -0.1155
  C  C167  1  0.720300  0.196500  0.078100  1.0  -0.1261
  C  C168  1  0.687200  0.175600  0.013200  1.0  0.0898
  C  C169  1  0.668000  0.214000  0.943600  1.0  0.6688
  C  C170  1  0.168100  0.511300  0.551000  1.0  0.6755
  C  C171  1  0.186400  0.577200  0.565400  1.0  0.0868
  C  C172  1  0.218800  0.596400  0.632900  1.0  -0.1367
  C  C173  1  0.236900  0.656700  0.638600  1.0  -0.1155
  C  C174  1  0.220300  0.696500  0.578100  1.0  -0.1261
  C  C175  1  0.187200  0.675600  0.513200  1.0  0.0898
  C  C176  1  0.168000  0.714000  0.443600  1.0  0.6688
  N  N177  1  0.865900  0.579600  0.243200  1.0  -0.5272
  N  N178  1  0.365900  0.079600  0.743200  1.0  -0.5272
  N  N179  1  0.634100  0.420400  0.743200  1.0  -0.5259
  N  N180  1  0.134100  0.920400  0.243200  1.0  -0.5259
  N  N181  1  0.170400  0.115900  0.493200  1.0  -0.5239
  N  N182  1  0.670400  0.615900  0.993200  1.0  -0.5239
  N  N183  1  0.329600  0.884100  0.993200  1.0  -0.523
  N  N184  1  0.829600  0.384100  0.493200  1.0  -0.523
  N  N185  1  0.134100  0.420400  0.756800  1.0  -0.5275
  N  N186  1  0.634100  0.920400  0.256800  1.0  -0.5275
  N  N187  1  0.365900  0.579600  0.256800  1.0  -0.529
  N  N188  1  0.865900  0.079600  0.756800  1.0  -0.529
  N  N189  1  0.829600  0.884100  0.506800  1.0  -0.5243
  N  N190  1  0.329600  0.384100  0.006800  1.0  -0.5243
  N  N191  1  0.670400  0.115900  0.006800  1.0  -0.5257
  N  N192  1  0.170400  0.615900  0.506800  1.0  -0.5257
  O  O193  1  0.751700  0.610100  0.266600  1.0  -0.7766
  O  O194  1  0.722400  0.569400  0.148000  1.0  -0.7001
  O  O195  1  0.936100  0.610100  0.366200  1.0  -0.7113
  O  O196  1  0.019700  0.571800  0.305400  1.0  -0.7811
  O  O197  1  0.251700  0.110100  0.766600  1.0  -0.7766
  O  O198  1  0.222400  0.069400  0.648000  1.0  -0.7001
  O  O199  1  0.436100  0.110100  0.866200  1.0  -0.7113
  O  O200  1  0.519700  0.071800  0.805400  1.0  -0.7811
  O  O201  1  0.748300  0.389900  0.766600  1.0  -0.7749
  O  O202  1  0.777600  0.430600  0.648000  1.0  -0.7002
  O  O203  1  0.563900  0.389900  0.866200  1.0  -0.7104
  O  O204  1  0.480300  0.428200  0.805400  1.0  -0.7844
  O  O205  1  0.248300  0.889900  0.266600  1.0  -0.7749
  O  O206  1  0.277600  0.930600  0.148000  1.0  -0.7002
  O  O207  1  0.063900  0.889900  0.366200  1.0  -0.7104
  O  O208  1  0.980300  0.928200  0.305400  1.0  -0.7844
  O  O209  1  0.139900  0.001700  0.516600  1.0  -0.7765
  O  O210  1  0.180600  0.972400  0.398000  1.0  -0.6976
  O  O211  1  0.139900  0.186100  0.616200  1.0  -0.7085
  O  O212  1  0.178200  0.269700  0.555400  1.0  -0.7736
  O  O213  1  0.639900  0.501700  0.016600  1.0  -0.7765
  O  O214  1  0.680600  0.472400  0.898000  1.0  -0.6976
  O  O215  1  0.639900  0.686100  0.116200  1.0  -0.7085
  O  O216  1  0.678200  0.769700  0.055400  1.0  -0.7736
  O  O217  1  0.360100  0.998300  0.016600  1.0  -0.7783
  O  O218  1  0.319400  0.027600  0.898000  1.0  -0.6981
  O  O219  1  0.360100  0.813900  0.116200  1.0  -0.7066
  O  O220  1  0.321800  0.730300  0.055400  1.0  -0.7748
  O  O221  1  0.860100  0.498300  0.516600  1.0  -0.7783
  O  O222  1  0.819400  0.527600  0.398000  1.0  -0.6981
  O  O223  1  0.860100  0.313900  0.616200  1.0  -0.7066
  O  O224  1  0.821800  0.230300  0.555400  1.0  -0.7748
  O  O225  1  0.248300  0.389900  0.733400  1.0  -0.7748
  O  O226  1  0.277600  0.430600  0.852000  1.0  -0.7013
  O  O227  1  0.063900  0.389900  0.633800  1.0  -0.7132
  O  O228  1  0.980300  0.428200  0.694600  1.0  -0.7849
  O  O229  1  0.748300  0.889900  0.233400  1.0  -0.7748
  O  O230  1  0.777600  0.930600  0.352000  1.0  -0.7013
  O  O231  1  0.563900  0.889900  0.133800  1.0  -0.7132
  O  O232  1  0.480300  0.928200  0.194600  1.0  -0.7849
  O  O233  1  0.251700  0.610100  0.233400  1.0  -0.7788
  O  O234  1  0.222400  0.569400  0.352000  1.0  -0.7004
  O  O235  1  0.436100  0.610100  0.133800  1.0  -0.7143
  O  O236  1  0.519700  0.571800  0.194600  1.0  -0.7818
  O  O237  1  0.751700  0.110100  0.733400  1.0  -0.7788
  O  O238  1  0.722400  0.069400  0.852000  1.0  -0.7004
  O  O239  1  0.936100  0.110100  0.633800  1.0  -0.7143
  O  O240  1  0.019700  0.071800  0.694600  1.0  -0.7818
  O  O241  1  0.860100  0.998300  0.483400  1.0  -0.7791
  O  O242  1  0.819400  0.027600  0.602000  1.0  -0.699
  O  O243  1  0.860100  0.813900  0.383800  1.0  -0.7101
  O  O244  1  0.821800  0.730300  0.444600  1.0  -0.7756
  O  O245  1  0.360100  0.498300  0.983400  1.0  -0.7791
  O  O246  1  0.319400  0.527600  0.102000  1.0  -0.699
  O  O247  1  0.360100  0.313900  0.883800  1.0  -0.7101
  O  O248  1  0.321800  0.230300  0.944600  1.0  -0.7756
  O  O249  1  0.639900  0.001700  0.983400  1.0  -0.7771
  O  O250  1  0.680600  0.972400  0.102000  1.0  -0.6981
  O  O251  1  0.639900  0.186100  0.883800  1.0  -0.7109
  O  O252  1  0.678200  0.269700  0.944600  1.0  -0.7743
  O  O253  1  0.139900  0.501700  0.483400  1.0  -0.7771
  O  O254  1  0.180600  0.472400  0.602000  1.0  -0.6981
  O  O255  1  0.139900  0.686100  0.383800  1.0  -0.7109
  O  O256  1  0.178200  0.769700  0.444600  1.0  -0.7743
