# generated using pymatgen
data_SmH3C7NO4
_symmetry_space_group_name_H-M   'P 1'
_cell_length_a   21.68500000
_cell_length_b   21.68500000
_cell_length_c   16.47000000
_cell_angle_alpha   90.00000000
_cell_angle_beta   90.00000000
_cell_angle_gamma   90.00000000
_symmetry_Int_Tables_number   1
_chemical_formula_structural   SmH3C7NO4
_chemical_formula_sum   'Sm16 H48 C112 N16 O64'
_cell_volume   7744.84003575
_cell_formula_units_Z   16
loop_
 _symmetry_equiv_pos_site_id
 _symmetry_equiv_pos_as_xyz
  1  'x, y, z'
loop_
 _atom_site_type_symbol
 _atom_site_label
 _atom_site_symmetry_multiplicity
 _atom_site_fract_x
 _atom_site_fract_y
 _atom_site_fract_z
 _atom_site_occupancy
 _atom_site_charge
  Sm  Sm1  1  0.827260  0.636800  0.367470  1.0  2.1029
  Sm  Sm2  1  0.327260  0.136800  0.867470  1.0  2.1029
  Sm  Sm3  1  0.672740  0.363200  0.867470  1.0  2.1025
  Sm  Sm4  1  0.172740  0.863200  0.367470  1.0  2.1025
  Sm  Sm5  1  0.113200  0.077260  0.617470  1.0  2.1023
  Sm  Sm6  1  0.613200  0.577260  0.117470  1.0  2.1023
  Sm  Sm7  1  0.386800  0.922740  0.117470  1.0  2.1023
  Sm  Sm8  1  0.886800  0.422740  0.617470  1.0  2.1023
  Sm  Sm9  1  0.172740  0.363200  0.632530  1.0  2.1017
  Sm  Sm10  1  0.672740  0.863200  0.132530  1.0  2.1017
  Sm  Sm11  1  0.327260  0.636800  0.132530  1.0  2.1023
  Sm  Sm12  1  0.827260  0.136800  0.632530  1.0  2.1023
  Sm  Sm13  1  0.886800  0.922740  0.382530  1.0  2.102
  Sm  Sm14  1  0.386800  0.422740  0.882530  1.0  2.102
  Sm  Sm15  1  0.613200  0.077260  0.882530  1.0  2.1015
  Sm  Sm16  1  0.113200  0.577260  0.382530  1.0  2.1015
  H  H17  1  0.819300  0.521500  0.074200  1.0  0.1136
  H  H18  1  0.920800  0.490400  0.068000  1.0  0.0949
  H  H19  1  0.988400  0.517700  0.170100  1.0  0.11
  H  H20  1  0.319300  0.021500  0.574200  1.0  0.1136
  H  H21  1  0.420800  0.990400  0.568000  1.0  0.0949
  H  H22  1  0.488400  0.017700  0.670100  1.0  0.11
  H  H23  1  0.680700  0.478500  0.574200  1.0  0.1143
  H  H24  1  0.579200  0.509600  0.568000  1.0  0.0938
  H  H25  1  0.511600  0.482300  0.670100  1.0  0.1108
  H  H26  1  0.180700  0.978500  0.074200  1.0  0.1143
  H  H27  1  0.079200  0.009600  0.068000  1.0  0.0938
  H  H28  1  0.011600  0.982300  0.170100  1.0  0.1108
  H  H29  1  0.228500  0.069300  0.324200  1.0  0.1144
  H  H30  1  0.259600  0.170800  0.318000  1.0  0.0944
  H  H31  1  0.232300  0.238400  0.420100  1.0  0.1116
  H  H32  1  0.728500  0.569300  0.824200  1.0  0.1144
  H  H33  1  0.759600  0.670800  0.818000  1.0  0.0944
  H  H34  1  0.732300  0.738400  0.920100  1.0  0.1116
  H  H35  1  0.271500  0.930700  0.824200  1.0  0.1144
  H  H36  1  0.240400  0.829200  0.818000  1.0  0.0935
  H  H37  1  0.267700  0.761600  0.920100  1.0  0.1111
  H  H38  1  0.771500  0.430700  0.324200  1.0  0.1144
  H  H39  1  0.740400  0.329200  0.318000  1.0  0.0935
  H  H40  1  0.767700  0.261600  0.420100  1.0  0.1111
  H  H41  1  0.180700  0.478500  0.925800  1.0  0.1146
  H  H42  1  0.079200  0.509600  0.932000  1.0  0.0946
  H  H43  1  0.011600  0.482300  0.829900  1.0  0.1107
  H  H44  1  0.680700  0.978500  0.425800  1.0  0.1146
  H  H45  1  0.579200  0.009600  0.432000  1.0  0.0946
  H  H46  1  0.511600  0.982300  0.329900  1.0  0.1107
  H  H47  1  0.319300  0.521500  0.425800  1.0  0.1139
  H  H48  1  0.420800  0.490400  0.432000  1.0  0.0954
  H  H49  1  0.488400  0.517700  0.329900  1.0  0.1099
  H  H50  1  0.819300  0.021500  0.925800  1.0  0.1139
  H  H51  1  0.920800  0.990400  0.932000  1.0  0.0954
  H  H52  1  0.988400  0.017700  0.829900  1.0  0.1099
  H  H53  1  0.771500  0.930700  0.675800  1.0  0.1145
  H  H54  1  0.740400  0.829200  0.682000  1.0  0.0943
  H  H55  1  0.767700  0.761600  0.579900  1.0  0.1112
  H  H56  1  0.271500  0.430700  0.175800  1.0  0.1145
  H  H57  1  0.240400  0.329200  0.182000  1.0  0.0943
  H  H58  1  0.267700  0.261600  0.079900  1.0  0.1112
  H  H59  1  0.728500  0.069300  0.175800  1.0  0.1145
  H  H60  1  0.759600  0.170800  0.182000  1.0  0.0943
  H  H61  1  0.732300  0.238400  0.079900  1.0  0.1114
  H  H62  1  0.228500  0.569300  0.675800  1.0  0.1145
  H  H63  1  0.259600  0.670800  0.682000  1.0  0.0943
  H  H64  1  0.232300  0.738400  0.579900  1.0  0.1114
  C  C65  1  0.761300  0.582900  0.198200  1.0  0.6574
  C  C66  1  0.825800  0.562800  0.182500  1.0  0.0688
  C  C67  1  0.846200  0.531100  0.116200  1.0  -0.1308
  C  C68  1  0.907000  0.513400  0.112100  1.0  -0.1
  C  C69  1  0.947200  0.529500  0.172100  1.0  -0.1372
  C  C70  1  0.924500  0.563700  0.235400  1.0  0.0763
  C  C71  1  0.963000  0.582600  0.306700  1.0  0.6641
  C  C72  1  0.261300  0.082900  0.698200  1.0  0.6574
  C  C73  1  0.325800  0.062800  0.682500  1.0  0.0688
  C  C74  1  0.346200  0.031100  0.616200  1.0  -0.1308
  C  C75  1  0.407000  0.013400  0.612100  1.0  -0.1
  C  C76  1  0.447200  0.029500  0.672100  1.0  -0.1372
  C  C77  1  0.424500  0.063700  0.735400  1.0  0.0763
  C  C78  1  0.463000  0.082600  0.806700  1.0  0.6641
  C  C79  1  0.738700  0.417100  0.698200  1.0  0.6579
  C  C80  1  0.674200  0.437200  0.682500  1.0  0.0688
  C  C81  1  0.653800  0.468900  0.616200  1.0  -0.1313
  C  C82  1  0.593000  0.486600  0.612100  1.0  -0.1007
  C  C83  1  0.552800  0.470500  0.672100  1.0  -0.138
  C  C84  1  0.575500  0.436300  0.735400  1.0  0.0775
  C  C85  1  0.537000  0.417400  0.806700  1.0  0.6619
  C  C86  1  0.238700  0.917100  0.198200  1.0  0.6579
  C  C87  1  0.174200  0.937200  0.182500  1.0  0.0688
  C  C88  1  0.153800  0.968900  0.116200  1.0  -0.1313
  C  C89  1  0.093000  0.986600  0.112100  1.0  -0.1007
  C  C90  1  0.052800  0.970500  0.172100  1.0  -0.138
  C  C91  1  0.075500  0.936300  0.235400  1.0  0.0775
  C  C92  1  0.037000  0.917400  0.306700  1.0  0.6619
  C  C93  1  0.167100  0.011300  0.448200  1.0  0.6591
  C  C94  1  0.187200  0.075800  0.432500  1.0  0.0692
  C  C95  1  0.218900  0.096200  0.366200  1.0  -0.1324
  C  C96  1  0.236600  0.157000  0.362100  1.0  -0.1002
  C  C97  1  0.220500  0.197200  0.422100  1.0  -0.14
  C  C98  1  0.186300  0.174500  0.485400  1.0  0.0762
  C  C99  1  0.167400  0.213000  0.556700  1.0  0.6606
  C  C100  1  0.667100  0.511300  0.948200  1.0  0.6591
  C  C101  1  0.687200  0.575800  0.932500  1.0  0.0692
  C  C102  1  0.718900  0.596200  0.866200  1.0  -0.1324
  C  C103  1  0.736600  0.657000  0.862100  1.0  -0.1002
  C  C104  1  0.720500  0.697200  0.922100  1.0  -0.14
  C  C105  1  0.686300  0.674500  0.985400  1.0  0.0762
  C  C106  1  0.667400  0.713000  0.056700  1.0  0.6606
  C  C107  1  0.332900  0.988700  0.948200  1.0  0.6598
  C  C108  1  0.312800  0.924200  0.932500  1.0  0.069
  C  C109  1  0.281100  0.903800  0.866200  1.0  -0.1325
  C  C110  1  0.263400  0.843000  0.862100  1.0  -0.1004
  C  C111  1  0.279500  0.802800  0.922100  1.0  -0.1405
  C  C112  1  0.313700  0.825500  0.985400  1.0  0.0768
  C  C113  1  0.332600  0.787000  0.056700  1.0  0.6637
  C  C114  1  0.832900  0.488700  0.448200  1.0  0.6598
  C  C115  1  0.812800  0.424200  0.432500  1.0  0.069
  C  C116  1  0.781100  0.403800  0.366200  1.0  -0.1325
  C  C117  1  0.763400  0.343000  0.362100  1.0  -0.1004
  C  C118  1  0.779500  0.302800  0.422100  1.0  -0.1405
  C  C119  1  0.813700  0.325500  0.485400  1.0  0.0768
  C  C120  1  0.832600  0.287000  0.556700  1.0  0.6637
  C  C121  1  0.238700  0.417100  0.801800  1.0  0.6581
  C  C122  1  0.174200  0.437200  0.817500  1.0  0.0689
  C  C123  1  0.153800  0.468900  0.883800  1.0  -0.1292
  C  C124  1  0.093000  0.486600  0.887900  1.0  -0.1022
  C  C125  1  0.052800  0.470500  0.827900  1.0  -0.1379
  C  C126  1  0.075500  0.436300  0.764600  1.0  0.0768
  C  C127  1  0.037000  0.417400  0.693300  1.0  0.6617
  C  C128  1  0.738700  0.917100  0.301800  1.0  0.6581
  C  C129  1  0.674200  0.937200  0.317500  1.0  0.0689
  C  C130  1  0.653800  0.968900  0.383800  1.0  -0.1292
  C  C131  1  0.593000  0.986600  0.387900  1.0  -0.1022
  C  C132  1  0.552800  0.970500  0.327900  1.0  -0.1379
  C  C133  1  0.575500  0.936300  0.264600  1.0  0.0768
  C  C134  1  0.537000  0.917400  0.193300  1.0  0.6617
  C  C135  1  0.261300  0.582900  0.301800  1.0  0.6579
  C  C136  1  0.325800  0.562800  0.317500  1.0  0.0686
  C  C137  1  0.346200  0.531100  0.383800  1.0  -0.1299
  C  C138  1  0.407000  0.513400  0.387900  1.0  -0.1011
  C  C139  1  0.447200  0.529500  0.327900  1.0  -0.1367
  C  C140  1  0.424500  0.563700  0.264600  1.0  0.0767
  C  C141  1  0.463000  0.582600  0.193300  1.0  0.6624
  C  C142  1  0.761300  0.082900  0.801800  1.0  0.6579
  C  C143  1  0.825800  0.062800  0.817500  1.0  0.0686
  C  C144  1  0.846200  0.031100  0.883800  1.0  -0.1299
  C  C145  1  0.907000  0.013400  0.887900  1.0  -0.1011
  C  C146  1  0.947200  0.029500  0.827900  1.0  -0.1367
  C  C147  1  0.924500  0.063700  0.764600  1.0  0.0767
  C  C148  1  0.963000  0.082600  0.693300  1.0  0.6624
  C  C149  1  0.832900  0.988700  0.551800  1.0  0.6599
  C  C150  1  0.812800  0.924200  0.567500  1.0  0.0691
  C  C151  1  0.781100  0.903800  0.633800  1.0  -0.1323
  C  C152  1  0.763400  0.843000  0.637900  1.0  -0.1021
  C  C153  1  0.779500  0.802800  0.577900  1.0  -0.1401
  C  C154  1  0.813700  0.825500  0.514600  1.0  0.0763
  C  C155  1  0.832600  0.787000  0.443300  1.0  0.661
  C  C156  1  0.332900  0.488700  0.051800  1.0  0.6599
  C  C157  1  0.312800  0.424200  0.067500  1.0  0.0691
  C  C158  1  0.281100  0.403800  0.133800  1.0  -0.1323
  C  C159  1  0.263400  0.343000  0.137900  1.0  -0.1021
  C  C160  1  0.279500  0.302800  0.077900  1.0  -0.1401
  C  C161  1  0.313700  0.325500  0.014600  1.0  0.0763
  C  C162  1  0.332600  0.287000  0.943300  1.0  0.661
  C  C163  1  0.667100  0.011300  0.051800  1.0  0.6593
  C  C164  1  0.687200  0.075800  0.067500  1.0  0.0691
  C  C165  1  0.718900  0.096200  0.133800  1.0  -0.1303
  C  C166  1  0.736600  0.157000  0.137900  1.0  -0.1011
  C  C167  1  0.720500  0.197200  0.077900  1.0  -0.1394
  C  C168  1  0.686300  0.174500  0.014600  1.0  0.0766
  C  C169  1  0.667400  0.213000  0.943300  1.0  0.6604
  C  C170  1  0.167100  0.511300  0.551800  1.0  0.6593
  C  C171  1  0.187200  0.575800  0.567500  1.0  0.0691
  C  C172  1  0.218900  0.596200  0.633800  1.0  -0.1303
  C  C173  1  0.236600  0.657000  0.637900  1.0  -0.1011
  C  C174  1  0.220500  0.697200  0.577900  1.0  -0.1394
  C  C175  1  0.186300  0.674500  0.514600  1.0  0.0766
  C  C176  1  0.167400  0.713000  0.443300  1.0  0.6604
  N  N177  1  0.864600  0.579800  0.242100  1.0  -0.5461
  N  N178  1  0.364600  0.079800  0.742100  1.0  -0.5461
  N  N179  1  0.635400  0.420200  0.742100  1.0  -0.5442
  N  N180  1  0.135400  0.920200  0.242100  1.0  -0.5442
  N  N181  1  0.170200  0.114600  0.492100  1.0  -0.5425
  N  N182  1  0.670200  0.614600  0.992100  1.0  -0.5425
  N  N183  1  0.329800  0.885400  0.992100  1.0  -0.5423
  N  N184  1  0.829800  0.385400  0.492100  1.0  -0.5423
  N  N185  1  0.135400  0.420200  0.757900  1.0  -0.5463
  N  N186  1  0.635400  0.920200  0.257900  1.0  -0.5463
  N  N187  1  0.364600  0.579800  0.257900  1.0  -0.5484
  N  N188  1  0.864600  0.079800  0.757900  1.0  -0.5484
  N  N189  1  0.829800  0.885400  0.507900  1.0  -0.5438
  N  N190  1  0.329800  0.385400  0.007900  1.0  -0.5438
  N  N191  1  0.670200  0.114600  0.007900  1.0  -0.5443
  N  N192  1  0.170200  0.614600  0.507900  1.0  -0.5443
  O  O193  1  0.750200  0.610900  0.264600  1.0  -0.7522
  O  O194  1  0.721600  0.568600  0.145600  1.0  -0.7348
  O  O195  1  0.934800  0.611000  0.365500  1.0  -0.7232
  O  O196  1  0.018600  0.570800  0.305100  1.0  -0.7639
  O  O197  1  0.250200  0.110900  0.764600  1.0  -0.7522
  O  O198  1  0.221600  0.068600  0.645600  1.0  -0.7348
  O  O199  1  0.434800  0.111000  0.865500  1.0  -0.7232
  O  O200  1  0.518600  0.070800  0.805100  1.0  -0.7639
  O  O201  1  0.749800  0.389100  0.764600  1.0  -0.7517
  O  O202  1  0.778400  0.431400  0.645600  1.0  -0.7355
  O  O203  1  0.565200  0.389000  0.865500  1.0  -0.7231
  O  O204  1  0.481400  0.429200  0.805100  1.0  -0.7671
  O  O205  1  0.249800  0.889100  0.264600  1.0  -0.7517
  O  O206  1  0.278400  0.931400  0.145600  1.0  -0.7355
  O  O207  1  0.065200  0.889000  0.365500  1.0  -0.7231
  O  O208  1  0.981400  0.929200  0.305100  1.0  -0.7671
  O  O209  1  0.139100  0.000200  0.514600  1.0  -0.7513
  O  O210  1  0.181400  0.971600  0.395600  1.0  -0.7334
  O  O211  1  0.139000  0.184800  0.615500  1.0  -0.7207
  O  O212  1  0.179200  0.268600  0.555100  1.0  -0.7588
  O  O213  1  0.639100  0.500200  0.014600  1.0  -0.7513
  O  O214  1  0.681400  0.471600  0.895600  1.0  -0.7334
  O  O215  1  0.639000  0.684800  0.115500  1.0  -0.7207
  O  O216  1  0.679200  0.768600  0.055100  1.0  -0.7588
  O  O217  1  0.360900  0.999800  0.014600  1.0  -0.7565
  O  O218  1  0.318600  0.028400  0.895600  1.0  -0.7341
  O  O219  1  0.361000  0.815200  0.115500  1.0  -0.7197
  O  O220  1  0.320800  0.731400  0.055100  1.0  -0.7577
  O  O221  1  0.860900  0.499800  0.514600  1.0  -0.7565
  O  O222  1  0.818600  0.528400  0.395600  1.0  -0.7341
  O  O223  1  0.861000  0.315200  0.615500  1.0  -0.7197
  O  O224  1  0.820800  0.231400  0.555100  1.0  -0.7577
  O  O225  1  0.249800  0.389100  0.735400  1.0  -0.751
  O  O226  1  0.278400  0.431400  0.854400  1.0  -0.7368
  O  O227  1  0.065200  0.389000  0.634500  1.0  -0.7245
  O  O228  1  0.981400  0.429200  0.694900  1.0  -0.7667
  O  O229  1  0.749800  0.889100  0.235400  1.0  -0.751
  O  O230  1  0.778400  0.931400  0.354400  1.0  -0.7368
  O  O231  1  0.565200  0.889000  0.134500  1.0  -0.7245
  O  O232  1  0.481400  0.929200  0.194900  1.0  -0.7667
  O  O233  1  0.250200  0.610900  0.235400  1.0  -0.7537
  O  O234  1  0.221600  0.568600  0.354400  1.0  -0.7359
  O  O235  1  0.434800  0.611000  0.134500  1.0  -0.7252
  O  O236  1  0.518600  0.570800  0.194900  1.0  -0.7635
  O  O237  1  0.750200  0.110900  0.735400  1.0  -0.7537
  O  O238  1  0.721600  0.068600  0.854400  1.0  -0.7359
  O  O239  1  0.934800  0.111000  0.634500  1.0  -0.7252
  O  O240  1  0.018600  0.070800  0.694900  1.0  -0.7635
  O  O241  1  0.860900  0.999800  0.485400  1.0  -0.7553
  O  O242  1  0.818600  0.028400  0.604400  1.0  -0.7351
  O  O243  1  0.861000  0.815200  0.384500  1.0  -0.7221
  O  O244  1  0.820800  0.731400  0.444900  1.0  -0.7573
  O  O245  1  0.360900  0.499800  0.985400  1.0  -0.7553
  O  O246  1  0.318600  0.528400  0.104400  1.0  -0.7351
  O  O247  1  0.361000  0.315200  0.884500  1.0  -0.7221
  O  O248  1  0.320800  0.231400  0.944900  1.0  -0.7573
  O  O249  1  0.639100  0.000200  0.985400  1.0  -0.7532
  O  O250  1  0.681400  0.971600  0.104400  1.0  -0.7344
  O  O251  1  0.639000  0.184800  0.884500  1.0  -0.7227
  O  O252  1  0.679200  0.268600  0.944900  1.0  -0.7586
  O  O253  1  0.139100  0.500200  0.485400  1.0  -0.7532
  O  O254  1  0.181400  0.471600  0.604400  1.0  -0.7344
  O  O255  1  0.139000  0.684800  0.384500  1.0  -0.7227
  O  O256  1  0.179200  0.768600  0.444900  1.0  -0.7586
