# generated using pymatgen
data_La5H64C16S12(NO6)8
_symmetry_space_group_name_H-M   'P 1'
_cell_length_a   10.14720000
_cell_length_b   18.95150000
_cell_length_c   21.10760000
_cell_angle_alpha   115.38100000
_cell_angle_beta   101.68100000
_cell_angle_gamma   94.84360000
_symmetry_Int_Tables_number   1
_chemical_formula_structural   La5H64C16S12(NO6)8
_chemical_formula_sum   'La10 H128 C32 S24 N16 O96'
_cell_volume   3523.45796172
_cell_formula_units_Z   2
loop_
 _symmetry_equiv_pos_site_id
 _symmetry_equiv_pos_as_xyz
  1  'x, y, z'
loop_
 _atom_site_type_symbol
 _atom_site_label
 _atom_site_symmetry_multiplicity
 _atom_site_fract_x
 _atom_site_fract_y
 _atom_site_fract_z
 _atom_site_occupancy
 _atom_site_charge
  La  La1  1  0.123990  0.108660  0.938400  1.0  2.2115
  La  La2  1  0.056690  0.063150  0.614460  1.0  2.1971
  La  La3  1  0.314410  0.829740  0.938400  1.0  2.2119
  La  La4  1  0.057770  0.551310  0.614460  1.0  2.1979
  La  La5  1  0.876010  0.891340  0.061600  1.0  2.2114
  La  La6  1  0.943310  0.936850  0.385540  1.0  2.1972
  La  La7  1  0.685590  0.170260  0.061600  1.0  2.2115
  La  La8  1  0.942230  0.448690  0.385540  1.0  2.1971
  La  La9  1  0.031350  0.281350  0.562700  1.0  2.18
  La  La10  1  0.968650  0.718650  0.437300  1.0  2.1805
  H  H11  1  0.419200  0.523400  0.413600  1.0  0.1235
  H  H12  1  0.308800  0.448100  0.354200  1.0  0.1232
  H  H13  1  0.428300  0.481700  0.331800  1.0  0.1162
  H  H14  1  0.525300  0.310400  0.340800  1.0  0.1276
  H  H15  1  0.493200  0.348800  0.287600  1.0  0.1195
  H  H16  1  0.373700  0.315200  0.310000  1.0  0.1221
  H  H17  1  0.575400  0.444900  0.404000  1.0  0.2187
  H  H18  1  0.464500  0.413700  0.424800  1.0  0.291
  H  H19  1  0.736200  0.033200  0.860200  1.0  0.1247
  H  H20  1  0.609400  0.972400  0.797400  1.0  0.1013
  H  H21  1  0.757600  0.954800  0.797400  1.0  0.1292
  H  H22  1  0.768800  0.942000  0.900400  1.0  0.1741
  H  H23  1  0.624000  0.827000  0.860200  1.0  0.1229
  H  H24  1  0.688000  0.825000  0.797400  1.0  0.1008
  H  H25  1  0.539800  0.842600  0.797400  1.0  0.1287
  H  H26  1  0.631600  0.958400  0.900400  1.0  0.1926
  H  H27  1  0.831000  0.259400  0.741600  1.0  0.117
  H  H28  1  0.937100  0.338500  0.768800  1.0  0.1188
  H  H29  1  0.841100  0.333200  0.817200  1.0  0.1172
  H  H30  1  0.153900  0.327800  0.912000  1.0  0.1307
  H  H31  1  0.041000  0.380400  0.924800  1.0  0.1232
  H  H32  1  0.137100  0.385800  0.876600  1.0  0.112
  H  H33  1  0.952000  0.253600  0.841600  1.0  0.193
  H  H34  1  0.041000  0.258500  0.796800  1.0  0.1798
  H  H35  1  0.065500  0.441600  0.102800  1.0  0.1176
  H  H36  1  0.183900  0.392800  0.092800  1.0  0.1068
  H  H37  1  0.192000  0.463400  0.170000  1.0  0.1146
  H  H38  1  0.102800  0.298300  0.192200  1.0  0.1287
  H  H39  1  0.224500  0.372000  0.229400  1.0  0.1076
  H  H40  1  0.216300  0.301300  0.152200  1.0  0.1004
  H  H41  1  0.028400  0.389700  0.171200  1.0  0.1193
  H  H42  1  0.020900  0.324500  0.100000  1.0  0.1788
  H  H43  1  0.691400  0.103000  0.264800  1.0  0.1301
  H  H44  1  0.776800  0.185200  0.328400  1.0  0.1173
  H  H45  1  0.807000  0.105100  0.328400  1.0  0.1091
  H  H46  1  0.877500  0.076500  0.227000  1.0  0.243
  H  H47  1  0.073400  0.161800  0.264800  1.0  0.1319
  H  H48  1  0.051600  0.143200  0.328400  1.0  0.1185
  H  H49  1  0.021400  0.223300  0.328400  1.0  0.1114
  H  H50  1  0.849500  0.150500  0.227000  1.0  0.2438
  H  H51  1  0.494400  0.890200  0.413600  1.0  0.1219
  H  H52  1  0.545400  0.906100  0.354200  1.0  0.1251
  H  H53  1  0.403500  0.850100  0.331800  1.0  0.1182
  H  H54  1  0.315500  0.030400  0.340800  1.0  0.1278
  H  H55  1  0.294400  0.938800  0.287600  1.0  0.1196
  H  H56  1  0.436300  0.994800  0.310000  1.0  0.1206
  H  H57  1  0.328600  0.959100  0.404000  1.0  0.2347
  H  H58  1  0.460300  0.011100  0.424800  1.0  0.2879
  H  H59  1  0.410600  0.482200  0.741600  1.0  0.1167
  H  H60  1  0.331700  0.430300  0.768800  1.0  0.1218
  H  H61  1  0.476100  0.484000  0.817200  1.0  0.1191
  H  H62  1  0.258100  0.584200  0.912000  1.0  0.1346
  H  H63  1  0.383800  0.544400  0.924800  1.0  0.1217
  H  H64  1  0.239500  0.490800  0.876600  1.0  0.113
  H  H65  1  0.389600  0.588000  0.841600  1.0  0.1963
  H  H66  1  0.255800  0.538300  0.796800  1.0  0.1755
  H  H67  1  0.537300  0.661200  0.102800  1.0  0.1165
  H  H68  1  0.408900  0.700000  0.092800  1.0  0.1015
  H  H69  1  0.478000  0.706600  0.170000  1.0  0.1144
  H  H70  1  0.589400  0.893900  0.192200  1.0  0.128
  H  H71  1  0.504900  0.857400  0.229400  1.0  0.1098
  H  H72  1  0.435900  0.850900  0.152200  1.0  0.1003
  H  H73  1  0.642800  0.781500  0.171200  1.0  0.1111
  H  H74  1  0.579100  0.775500  0.100000  1.0  0.1806
  H  H75  1  0.580800  0.476600  0.586400  1.0  0.1224
  H  H76  1  0.691200  0.551900  0.645800  1.0  0.1257
  H  H77  1  0.571700  0.518300  0.668200  1.0  0.116
  H  H78  1  0.474700  0.689600  0.659200  1.0  0.1272
  H  H79  1  0.506800  0.651200  0.712400  1.0  0.119
  H  H80  1  0.626300  0.684800  0.690000  1.0  0.122
  H  H81  1  0.424600  0.555100  0.596000  1.0  0.2257
  H  H82  1  0.535500  0.586300  0.575200  1.0  0.2921
  H  H83  1  0.263800  0.966800  0.139800  1.0  0.1247
  H  H84  1  0.390600  0.027600  0.202600  1.0  0.1053
  H  H85  1  0.242400  0.045200  0.202600  1.0  0.1275
  H  H86  1  0.231200  0.058000  0.099600  1.0  0.1814
  H  H87  1  0.376000  0.173000  0.139800  1.0  0.1231
  H  H88  1  0.312000  0.175000  0.202600  1.0  0.1014
  H  H89  1  0.460200  0.157400  0.202600  1.0  0.1313
  H  H90  1  0.368400  0.041600  0.099600  1.0  0.1929
  H  H91  1  0.169000  0.740600  0.258400  1.0  0.117
  H  H92  1  0.062900  0.661500  0.231200  1.0  0.1193
  H  H93  1  0.158900  0.666800  0.182800  1.0  0.1169
  H  H94  1  0.846100  0.672200  0.088000  1.0  0.1304
  H  H95  1  0.959000  0.619600  0.075200  1.0  0.1231
  H  H96  1  0.862900  0.614200  0.123400  1.0  0.1139
  H  H97  1  0.048000  0.746400  0.158400  1.0  0.1947
  H  H98  1  0.959000  0.741500  0.203200  1.0  0.1804
  H  H99  1  0.934500  0.558400  0.897200  1.0  0.1156
  H  H100  1  0.816100  0.607200  0.907200  1.0  0.1061
  H  H101  1  0.808000  0.536600  0.830000  1.0  0.115
  H  H102  1  0.897200  0.701700  0.807800  1.0  0.1271
  H  H103  1  0.775500  0.628000  0.770600  1.0  0.1072
  H  H104  1  0.783700  0.698700  0.847800  1.0  0.1002
  H  H105  1  0.971600  0.610300  0.828800  1.0  0.1221
  H  H106  1  0.979100  0.675500  0.900000  1.0  0.1804
  H  H107  1  0.308600  0.897000  0.735200  1.0  0.1319
  H  H108  1  0.223200  0.814800  0.671600  1.0  0.1188
  H  H109  1  0.193000  0.894900  0.671600  1.0  0.1103
  H  H110  1  0.122500  0.923500  0.773000  1.0  0.245
  H  H111  1  0.926600  0.838200  0.735200  1.0  0.132
  H  H112  1  0.948400  0.856800  0.671600  1.0  0.1175
  H  H113  1  0.978600  0.776700  0.671600  1.0  0.1103
  H  H114  1  0.150500  0.849500  0.773000  1.0  0.242
  H  H115  1  0.505600  0.109800  0.586400  1.0  0.1219
  H  H116  1  0.454600  0.093900  0.645800  1.0  0.1242
  H  H117  1  0.596500  0.149900  0.668200  1.0  0.117
  H  H118  1  0.684500  0.969600  0.659200  1.0  0.1266
  H  H119  1  0.705600  0.061200  0.712400  1.0  0.1203
  H  H120  1  0.563700  0.005200  0.690000  1.0  0.1217
  H  H121  1  0.671400  0.040900  0.596000  1.0  0.2363
  H  H122  1  0.539700  0.988900  0.575200  1.0  0.2899
  H  H123  1  0.589400  0.517800  0.258400  1.0  0.115
  H  H124  1  0.668300  0.569700  0.231200  1.0  0.1196
  H  H125  1  0.523900  0.516000  0.182800  1.0  0.1179
  H  H126  1  0.741900  0.415800  0.088000  1.0  0.134
  H  H127  1  0.616200  0.455600  0.075200  1.0  0.1202
  H  H128  1  0.760500  0.509200  0.123400  1.0  0.1126
  H  H129  1  0.610400  0.412000  0.158400  1.0  0.1936
  H  H130  1  0.744200  0.461700  0.203200  1.0  0.179
  H  H131  1  0.462700  0.338800  0.897200  1.0  0.1207
  H  H132  1  0.591100  0.300000  0.907200  1.0  0.1038
  H  H133  1  0.522000  0.293400  0.830000  1.0  0.1143
  H  H134  1  0.410600  0.106100  0.807800  1.0  0.1287
  H  H135  1  0.495100  0.142600  0.770600  1.0  0.1097
  H  H136  1  0.564100  0.149100  0.847800  1.0  0.1007
  H  H137  1  0.357200  0.218500  0.828800  1.0  0.1127
  H  H138  1  0.420900  0.224500  0.900000  1.0  0.1802
  C  C139  1  0.403920  0.473020  0.370240  1.0  -0.166
  C  C140  1  0.467780  0.341880  0.326560  1.0  -0.1623
  C  C141  1  0.698010  0.977510  0.827820  1.0  -0.153
  C  C142  1  0.629810  0.850310  0.827820  1.0  -0.1556
  C  C143  1  0.892200  0.303900  0.784000  1.0  -0.1809
  C  C144  1  0.089200  0.350700  0.890200  1.0  -0.1619
  C  C145  1  0.131500  0.420400  0.126000  1.0  -0.1786
  C  C146  1  0.163700  0.332600  0.183400  1.0  -0.1507
  C  C147  1  0.780300  0.130500  0.298000  1.0  -0.1404
  C  C148  1  0.017700  0.167500  0.298000  1.0  -0.137
  C  C149  1  0.466320  0.897220  0.370240  1.0  -0.1679
  C  C150  1  0.358780  0.984680  0.326560  1.0  -0.1638
  C  C151  1  0.391800  0.480100  0.784000  1.0  -0.1822
  C  C152  1  0.301000  0.539500  0.890200  1.0  -0.1632
  C  C153  1  0.494500  0.705600  0.126000  1.0  -0.1777
  C  C154  1  0.519700  0.850800  0.183400  1.0  -0.1493
  C  C155  1  0.596080  0.526980  0.629760  1.0  -0.1676
  C  C156  1  0.532220  0.658120  0.673440  1.0  -0.1635
  C  C157  1  0.301990  0.022490  0.172180  1.0  -0.1526
  C  C158  1  0.370190  0.149690  0.172180  1.0  -0.1555
  C  C159  1  0.107800  0.696100  0.216000  1.0  -0.1791
  C  C160  1  0.910800  0.649300  0.109800  1.0  -0.1636
  C  C161  1  0.868500  0.579600  0.874000  1.0  -0.1805
  C  C162  1  0.836300  0.667400  0.816600  1.0  -0.1515
  C  C163  1  0.219700  0.869500  0.702000  1.0  -0.1383
  C  C164  1  0.982300  0.832500  0.702000  1.0  -0.1389
  C  C165  1  0.533680  0.102780  0.629760  1.0  -0.1662
  C  C166  1  0.641220  0.015320  0.673440  1.0  -0.1657
  C  C167  1  0.608200  0.519900  0.216000  1.0  -0.1806
  C  C168  1  0.699000  0.460500  0.109800  1.0  -0.1638
  C  C169  1  0.505500  0.294400  0.874000  1.0  -0.1764
  C  C170  1  0.480300  0.149200  0.816600  1.0  -0.15
  S  S171  1  0.162220  0.102040  0.466420  1.0  1.668
  S  S172  1  0.386410  0.023700  0.928880  1.0  1.6692
  S  S173  1  0.766090  0.091770  0.496600  1.0  1.6044
  S  S174  1  0.211400  0.247260  0.687520  1.0  1.6509
  S  S175  1  0.075810  0.090570  0.776120  1.0  1.6492
  S  S176  1  0.408490  0.272600  0.048040  1.0  1.2054
  S  S177  1  0.804200  0.364380  0.466420  1.0  1.6704
  S  S178  1  0.042470  0.905180  0.928880  1.0  1.6684
  S  S179  1  0.230510  0.404830  0.496600  1.0  1.6056
  S  S180  1  0.976120  0.440260  0.687520  1.0  1.6524
  S  S181  1  0.200310  0.685550  0.776120  1.0  1.6485
  S  S182  1  0.139550  0.775440  0.048040  1.0  1.2073
  S  S183  1  0.837780  0.897960  0.533580  1.0  1.6703
  S  S184  1  0.613590  0.976300  0.071120  1.0  1.6691
  S  S185  1  0.233910  0.908230  0.503400  1.0  1.6046
  S  S186  1  0.788600  0.752740  0.312480  1.0  1.6524
  S  S187  1  0.924190  0.909430  0.223880  1.0  1.649
  S  S188  1  0.591510  0.727400  0.951960  1.0  1.2057
  S  S189  1  0.195800  0.635620  0.533580  1.0  1.6702
  S  S190  1  0.957530  0.094820  0.071120  1.0  1.669
  S  S191  1  0.769490  0.595170  0.503400  1.0  1.6052
  S  S192  1  0.023880  0.559740  0.312480  1.0  1.6527
  S  S193  1  0.799690  0.314450  0.223880  1.0  1.6489
  S  S194  1  0.860450  0.224560  0.951960  1.0  1.2064
  N  N195  1  0.486550  0.420650  0.388060  1.0  -0.0362
  N  N196  1  0.685540  0.935540  0.871080  1.0  -0.038
  N  N197  1  0.994980  0.286880  0.828560  1.0  -0.0449
  N  N198  1  0.079500  0.362800  0.141800  1.0  -0.078
  N  N199  1  0.878200  0.128200  0.256400  1.0  -0.0144
  N  N200  1  0.401510  0.967410  0.388060  1.0  -0.0336
  N  N201  1  0.333580  0.541680  0.828560  1.0  -0.0447
  N  N202  1  0.562300  0.779000  0.141800  1.0  -0.0769
  N  N203  1  0.513450  0.579350  0.611940  1.0  -0.0369
  N  N204  1  0.314460  0.064460  0.128920  1.0  -0.038
  N  N205  1  0.005020  0.713120  0.171440  1.0  -0.0418
  N  N206  1  0.920500  0.637200  0.858200  1.0  -0.0763
  N  N207  1  0.121800  0.871800  0.743600  1.0  -0.0134
  N  N208  1  0.598490  0.032590  0.611940  1.0  -0.0364
  N  N209  1  0.666420  0.458320  0.171440  1.0  -0.0449
  N  N210  1  0.437700  0.221000  0.858200  1.0  -0.0795
  O  O211  1  0.232600  0.297400  0.764640  1.0  -0.6225
  O  O212  1  0.823640  0.078340  0.560320  1.0  -0.7728
  O  O213  1  0.081870  0.070170  0.504200  1.0  -0.91
  O  O214  1  0.295840  0.033840  0.870460  1.0  -0.7802
  O  O215  1  0.785860  0.028560  0.430220  1.0  -0.7008
  O  O216  1  0.336590  0.063590  0.993800  1.0  -0.7748
  O  O217  1  0.134550  0.181750  0.480700  1.0  -0.7801
  O  O218  1  0.155770  0.159970  0.845040  1.0  -0.8006
  O  O219  1  0.529400  0.060500  0.942880  1.0  -0.7282
  O  O220  1  0.059770  0.215970  0.650380  1.0  -0.9579
  O  O221  1  0.272000  0.175900  0.674700  1.0  -0.7775
  O  O222  1  0.619400  0.091500  0.489040  1.0  -0.6083
  O  O223  1  0.380220  0.938320  0.906840  1.0  -0.7611
  O  O224  1  0.837330  0.169430  0.508880  1.0  -0.7873
  O  O225  1  0.105420  0.047020  0.388340  1.0  -0.7654
  O  O226  1  0.165480  0.053080  0.729480  1.0  -0.7692
  O  O227  1  0.009820  0.034920  0.797300  1.0  -0.7477
  O  O228  1  0.306800  0.104900  0.490320  1.0  -0.6121
  O  O229  1  0.258880  0.291180  0.651220  1.0  -0.7174
  O  O230  1  0.975740  0.117440  0.733760  1.0  -0.7764
  O  O231  1  0.279580  0.227880  0.017960  1.0  -0.6729
  O  O232  1  0.522000  0.245900  0.013600  1.0  -0.7453
  O  O233  1  0.471800  0.240700  0.103400  1.0  -0.7915
  O  O234  1  0.412000  0.353900  0.074400  1.0  -0.5695
  O  O235  1  0.032040  0.467240  0.764640  1.0  -0.6245
  O  O236  1  0.236680  0.481980  0.560320  1.0  -0.7707
  O  O237  1  0.922330  0.434030  0.504200  1.0  -0.9083
  O  O238  1  0.074620  0.836620  0.870460  1.0  -0.78
  O  O239  1  0.144360  0.401660  0.430220  1.0  -0.7008
  O  O240  1  0.157210  0.930210  0.993800  1.0  -0.7753
  O  O241  1  0.846150  0.298950  0.480700  1.0  -0.7824
  O  O242  1  0.189270  0.685070  0.845040  1.0  -0.8043
  O  O243  1  0.913480  0.882380  0.942880  1.0  -0.7297
  O  O244  1  0.090610  0.434410  0.650380  1.0  -0.9594
  O  O245  1  0.902700  0.498800  0.674700  1.0  -0.7761
  O  O246  1  0.369640  0.397540  0.489040  1.0  -0.6116
  O  O247  1  0.026620  0.968520  0.906840  1.0  -0.7644
  O  O248  1  0.171550  0.339450  0.508880  1.0  -0.7868
  O  O249  1  0.782920  0.341320  0.388340  1.0  -0.7678
  O  O250  1  0.064000  0.676400  0.729480  1.0  -0.7628
  O  O251  1  0.287480  0.762380  0.797300  1.0  -0.7448
  O  O252  1  0.683520  0.385420  0.490320  1.0  -0.6126
  O  O253  1  0.892340  0.360040  0.651220  1.0  -0.7132
  O  O254  1  0.258020  0.616320  0.733760  1.0  -0.7775
  O  O255  1  0.238380  0.790080  0.017960  1.0  -0.673
  O  O256  1  0.991600  0.767700  0.013600  1.0  -0.7413
  O  O257  1  0.131600  0.862700  0.103400  1.0  -0.7926
  O  O258  1  0.162400  0.720500  0.074400  1.0  -0.571
  O  O259  1  0.767400  0.702600  0.235360  1.0  -0.6243
  O  O260  1  0.176360  0.921660  0.439680  1.0  -0.7712
  O  O261  1  0.918130  0.929830  0.495800  1.0  -0.9093
  O  O262  1  0.704160  0.966160  0.129540  1.0  -0.7814
  O  O263  1  0.214140  0.971440  0.569780  1.0  -0.6999
  O  O264  1  0.663410  0.936410  0.006200  1.0  -0.7752
  O  O265  1  0.865450  0.818250  0.519300  1.0  -0.7821
  O  O266  1  0.844230  0.840030  0.154960  1.0  -0.8025
  O  O267  1  0.470600  0.939500  0.057120  1.0  -0.7264
  O  O268  1  0.940230  0.784030  0.349620  1.0  -0.9579
  O  O269  1  0.728000  0.824100  0.325300  1.0  -0.7767
  O  O270  1  0.380600  0.908500  0.510960  1.0  -0.6113
  O  O271  1  0.619780  0.061680  0.093160  1.0  -0.7615
  O  O272  1  0.162670  0.830570  0.491120  1.0  -0.7873
  O  O273  1  0.894580  0.952980  0.611660  1.0  -0.7649
  O  O274  1  0.834520  0.946920  0.270520  1.0  -0.7665
  O  O275  1  0.990180  0.965080  0.202700  1.0  -0.7479
  O  O276  1  0.693200  0.895100  0.509680  1.0  -0.6129
  O  O277  1  0.741120  0.708820  0.348780  1.0  -0.7182
  O  O278  1  0.024260  0.882560  0.266240  1.0  -0.7773
  O  O279  1  0.720420  0.772120  0.982040  1.0  -0.6732
  O  O280  1  0.478000  0.754100  0.986400  1.0  -0.7446
  O  O281  1  0.528200  0.759300  0.896600  1.0  -0.7921
  O  O282  1  0.588000  0.646100  0.925600  1.0  -0.5694
  O  O283  1  0.967960  0.532760  0.235360  1.0  -0.623
  O  O284  1  0.763320  0.518020  0.439680  1.0  -0.7702
  O  O285  1  0.077670  0.565970  0.495800  1.0  -0.9074
  O  O286  1  0.925380  0.163380  0.129540  1.0  -0.7793
  O  O287  1  0.855640  0.598340  0.569780  1.0  -0.7024
  O  O288  1  0.842790  0.069790  0.006200  1.0  -0.7743
  O  O289  1  0.153850  0.701050  0.519300  1.0  -0.7816
  O  O290  1  0.810730  0.314930  0.154960  1.0  -0.8028
  O  O291  1  0.086520  0.117620  0.057120  1.0  -0.7294
  O  O292  1  0.909390  0.565590  0.349620  1.0  -0.9589
  O  O293  1  0.097300  0.501200  0.325300  1.0  -0.7764
  O  O294  1  0.630360  0.602460  0.510960  1.0  -0.6115
  O  O295  1  0.973380  0.031480  0.093160  1.0  -0.7641
  O  O296  1  0.828450  0.660550  0.491120  1.0  -0.7878
  O  O297  1  0.217080  0.658680  0.611660  1.0  -0.7671
  O  O298  1  0.936000  0.323600  0.270520  1.0  -0.7624
  O  O299  1  0.712520  0.237620  0.202700  1.0  -0.7459
  O  O300  1  0.316480  0.614580  0.509680  1.0  -0.6127
  O  O301  1  0.107660  0.639960  0.348780  1.0  -0.7141
  O  O302  1  0.741980  0.383680  0.266240  1.0  -0.7764
  O  O303  1  0.761620  0.209920  0.982040  1.0  -0.6729
  O  O304  1  0.008400  0.232300  0.986400  1.0  -0.7417
  O  O305  1  0.868400  0.137300  0.896600  1.0  -0.7929
  O  O306  1  0.837600  0.279500  0.925600  1.0  -0.57
