# generated using pymatgen
data_Ce5H64C16S12(NO6)8
_symmetry_space_group_name_H-M   'P 1'
_cell_length_a   10.15200000
_cell_length_b   18.87930000
_cell_length_c   20.90030000
_cell_angle_alpha   115.56400000
_cell_angle_beta   101.85400000
_cell_angle_gamma   94.75660000
_symmetry_Int_Tables_number   1
_chemical_formula_structural   Ce5H64C16S12(NO6)8
_chemical_formula_sum   'Ce10 H128 C32 S24 N16 O96'
_cell_volume   3469.17086663
_cell_formula_units_Z   2
loop_
 _symmetry_equiv_pos_site_id
 _symmetry_equiv_pos_as_xyz
  1  'x, y, z'
loop_
 _atom_site_type_symbol
 _atom_site_label
 _atom_site_symmetry_multiplicity
 _atom_site_fract_x
 _atom_site_fract_y
 _atom_site_fract_z
 _atom_site_occupancy
 _atom_site_charge
  Ce  Ce1  1  0.128240  0.108740  0.939260  1.0  2.2804
  Ce  Ce2  1  0.056480  0.063730  0.614780  1.0  2.2936
  Ce  Ce3  1  0.311020  0.830520  0.939260  1.0  2.2803
  Ce  Ce4  1  0.058300  0.551050  0.614780  1.0  2.2938
  Ce  Ce5  1  0.871760  0.891260  0.060740  1.0  2.2797
  Ce  Ce6  1  0.943520  0.936270  0.385220  1.0  2.2935
  Ce  Ce7  1  0.688980  0.169480  0.060740  1.0  2.2809
  Ce  Ce8  1  0.941700  0.448950  0.385220  1.0  2.2935
  Ce  Ce9  1  0.030620  0.280620  0.561240  1.0  2.268
  Ce  Ce10  1  0.969380  0.719380  0.438760  1.0  2.2684
  H  H11  1  0.417700  0.525000  0.412800  1.0  0.1165
  H  H12  1  0.307100  0.449600  0.353400  1.0  0.1155
  H  H13  1  0.426800  0.483400  0.331200  1.0  0.1211
  H  H14  1  0.527600  0.311100  0.337600  1.0  0.1187
  H  H15  1  0.495700  0.349600  0.284400  1.0  0.1144
  H  H16  1  0.376000  0.315800  0.306600  1.0  0.112
  H  H17  1  0.576500  0.446100  0.402800  1.0  0.2165
  H  H18  1  0.465700  0.414900  0.423600  1.0  0.2011
  H  H19  1  0.738700  0.033700  0.860200  1.0  0.1177
  H  H20  1  0.612000  0.973000  0.797400  1.0  0.1108
  H  H21  1  0.760300  0.955400  0.797400  1.0  0.1171
  H  H22  1  0.769200  0.942400  0.901200  1.0  0.149
  H  H23  1  0.621500  0.826500  0.860200  1.0  0.1155
  H  H24  1  0.685400  0.824400  0.797400  1.0  0.1091
  H  H25  1  0.537100  0.842000  0.797400  1.0  0.1169
  H  H26  1  0.632000  0.958800  0.901200  1.0  0.1708
  H  H27  1  0.830100  0.264900  0.743400  1.0  0.1161
  H  H28  1  0.936100  0.343900  0.770600  1.0  0.1051
  H  H29  1  0.840100  0.338600  0.819000  1.0  0.1125
  H  H30  1  0.154300  0.324100  0.910000  1.0  0.1017
  H  H31  1  0.041600  0.376800  0.922800  1.0  0.1188
  H  H32  1  0.137600  0.382200  0.874600  1.0  0.1157
  H  H33  1  0.950600  0.254000  0.836800  1.0  0.1517
  H  H34  1  0.039500  0.258800  0.791800  1.0  0.1537
  H  H35  1  0.079300  0.449100  0.101800  1.0  0.0948
  H  H36  1  0.197600  0.400300  0.091800  1.0  0.1174
  H  H37  1  0.205800  0.470900  0.169000  1.0  0.1111
  H  H38  1  0.095300  0.300000  0.188800  1.0  0.1146
  H  H39  1  0.217100  0.373800  0.226200  1.0  0.1023
  H  H40  1  0.209000  0.303200  0.149000  1.0  0.1128
  H  H41  1  0.027500  0.400300  0.172600  1.0  0.1366
  H  H42  1  0.019900  0.335100  0.101400  1.0  0.1462
  H  H43  1  0.692500  0.103700  0.265200  1.0  0.1182
  H  H44  1  0.777900  0.186000  0.329000  1.0  0.1061
  H  H45  1  0.808100  0.105900  0.329000  1.0  0.1044
  H  H46  1  0.877700  0.076700  0.227400  1.0  0.1748
  H  H47  1  0.072700  0.161500  0.265200  1.0  0.1184
  H  H48  1  0.051100  0.143000  0.329000  1.0  0.1063
  H  H49  1  0.020900  0.223100  0.329000  1.0  0.1052
  H  H50  1  0.849700  0.150700  0.227400  1.0  0.1785
  H  H51  1  0.495100  0.887800  0.412800  1.0  0.115
  H  H52  1  0.546300  0.903800  0.353400  1.0  0.1181
  H  H53  1  0.404400  0.847800  0.331200  1.0  0.1218
  H  H54  1  0.310000  0.026500  0.337600  1.0  0.1191
  H  H55  1  0.288700  0.934800  0.284400  1.0  0.1154
  H  H56  1  0.430600  0.990800  0.306600  1.0  0.1116
  H  H57  1  0.326300  0.956700  0.402800  1.0  0.2344
  H  H58  1  0.457900  0.008700  0.423600  1.0  0.2002
  H  H59  1  0.413300  0.478500  0.743400  1.0  0.1151
  H  H60  1  0.334500  0.426700  0.770600  1.0  0.1085
  H  H61  1  0.478900  0.480400  0.819000  1.0  0.1134
  H  H62  1  0.255700  0.585900  0.910000  1.0  0.1032
  H  H63  1  0.381200  0.546000  0.922800  1.0  0.1193
  H  H64  1  0.237000  0.492400  0.874600  1.0  0.1168
  H  H65  1  0.386200  0.582800  0.836800  1.0  0.1527
  H  H66  1  0.252300  0.533000  0.791800  1.0  0.1437
  H  H67  1  0.522500  0.652700  0.101800  1.0  0.0941
  H  H68  1  0.394200  0.691500  0.091800  1.0  0.1177
  H  H69  1  0.463200  0.698100  0.169000  1.0  0.1093
  H  H70  1  0.593500  0.888800  0.188800  1.0  0.1146
  H  H71  1  0.509100  0.852400  0.226200  1.0  0.1059
  H  H72  1  0.440000  0.845800  0.149000  1.0  0.1113
  H  H73  1  0.645100  0.772300  0.172600  1.0  0.1193
  H  H74  1  0.581500  0.766300  0.101400  1.0  0.1497
  H  H75  1  0.582300  0.475000  0.587200  1.0  0.1178
  H  H76  1  0.692900  0.550400  0.646600  1.0  0.1201
  H  H77  1  0.573200  0.516600  0.668800  1.0  0.1218
  H  H78  1  0.472400  0.688900  0.662400  1.0  0.1176
  H  H79  1  0.504300  0.650400  0.715600  1.0  0.1146
  H  H80  1  0.624000  0.684200  0.693400  1.0  0.1128
  H  H81  1  0.423500  0.553900  0.597200  1.0  0.2235
  H  H82  1  0.534300  0.585100  0.576400  1.0  0.2029
  H  H83  1  0.261300  0.966300  0.139800  1.0  0.1167
  H  H84  1  0.388000  0.027000  0.202600  1.0  0.113
  H  H85  1  0.239700  0.044600  0.202600  1.0  0.1182
  H  H86  1  0.230800  0.057600  0.098800  1.0  0.1587
  H  H87  1  0.378500  0.173500  0.139800  1.0  0.1153
  H  H88  1  0.314600  0.175600  0.202600  1.0  0.1079
  H  H89  1  0.462900  0.158000  0.202600  1.0  0.121
  H  H90  1  0.368000  0.041200  0.098800  1.0  0.1713
  H  H91  1  0.169900  0.735100  0.256600  1.0  0.1159
  H  H92  1  0.063900  0.656100  0.229400  1.0  0.1058
  H  H93  1  0.159900  0.661400  0.181000  1.0  0.1123
  H  H94  1  0.845700  0.675900  0.090000  1.0  0.1016
  H  H95  1  0.958400  0.623200  0.077200  1.0  0.1197
  H  H96  1  0.862400  0.617800  0.125400  1.0  0.1152
  H  H97  1  0.049400  0.746000  0.163200  1.0  0.1519
  H  H98  1  0.960500  0.741200  0.208200  1.0  0.1526
  H  H99  1  0.920700  0.550900  0.898200  1.0  0.0934
  H  H100  1  0.802400  0.599700  0.908200  1.0  0.1184
  H  H101  1  0.794200  0.529100  0.831000  1.0  0.1093
  H  H102  1  0.904700  0.700000  0.811200  1.0  0.1151
  H  H103  1  0.782900  0.626200  0.773800  1.0  0.105
  H  H104  1  0.791000  0.696800  0.851000  1.0  0.1139
  H  H105  1  0.972500  0.599700  0.827400  1.0  0.1359
  H  H106  1  0.980100  0.664900  0.898600  1.0  0.1467
  H  H107  1  0.307500  0.896300  0.734800  1.0  0.1203
  H  H108  1  0.222100  0.814000  0.671000  1.0  0.1064
  H  H109  1  0.191900  0.894100  0.671000  1.0  0.1049
  H  H110  1  0.122300  0.923300  0.772600  1.0  0.1767
  H  H111  1  0.927300  0.838500  0.734800  1.0  0.1179
  H  H112  1  0.948900  0.857000  0.671000  1.0  0.1057
  H  H113  1  0.979100  0.776900  0.671000  1.0  0.1043
  H  H114  1  0.150300  0.849300  0.772600  1.0  0.1783
  H  H115  1  0.504900  0.112200  0.587200  1.0  0.1149
  H  H116  1  0.453700  0.096200  0.646600  1.0  0.1163
  H  H117  1  0.595600  0.152200  0.668800  1.0  0.1212
  H  H118  1  0.690000  0.973500  0.662400  1.0  0.1169
  H  H119  1  0.711300  0.065200  0.715600  1.0  0.1153
  H  H120  1  0.569400  0.009200  0.693400  1.0  0.1111
  H  H121  1  0.673700  0.043300  0.597200  1.0  0.2351
  H  H122  1  0.542100  0.991300  0.576400  1.0  0.1999
  H  H123  1  0.586700  0.521500  0.256600  1.0  0.1142
  H  H124  1  0.665500  0.573300  0.229400  1.0  0.1057
  H  H125  1  0.521100  0.519600  0.181000  1.0  0.1142
  H  H126  1  0.744300  0.414100  0.090000  1.0  0.102
  H  H127  1  0.618800  0.454000  0.077200  1.0  0.1181
  H  H128  1  0.763000  0.507600  0.125400  1.0  0.1151
  H  H129  1  0.613800  0.417200  0.163200  1.0  0.1522
  H  H130  1  0.747700  0.467000  0.208200  1.0  0.141
  H  H131  1  0.477500  0.347300  0.898200  1.0  0.0973
  H  H132  1  0.605800  0.308500  0.908200  1.0  0.1199
  H  H133  1  0.536800  0.301900  0.831000  1.0  0.1098
  H  H134  1  0.406500  0.111200  0.811200  1.0  0.1165
  H  H135  1  0.490900  0.147600  0.773800  1.0  0.1066
  H  H136  1  0.560000  0.154200  0.851000  1.0  0.1124
  H  H137  1  0.354900  0.227700  0.827400  1.0  0.1281
  H  H138  1  0.418500  0.233700  0.898600  1.0  0.15
  C  C139  1  0.402300  0.474600  0.369400  1.0  -0.1825
  C  C140  1  0.470200  0.342700  0.323400  1.0  -0.1602
  C  C141  1  0.700600  0.978100  0.827800  1.0  -0.1719
  C  C142  1  0.627200  0.849700  0.827800  1.0  -0.1727
  C  C143  1  0.891300  0.309300  0.785800  1.0  -0.1814
  C  C144  1  0.089800  0.347100  0.888200  1.0  -0.1832
  C  C145  1  0.145300  0.427900  0.125000  1.0  -0.1726
  C  C146  1  0.156300  0.334400  0.180000  1.0  -0.1884
  C  C147  1  0.781400  0.131300  0.298600  1.0  -0.1622
  C  C148  1  0.017200  0.167300  0.298600  1.0  -0.1573
  C  C149  1  0.467100  0.894800  0.369400  1.0  -0.182
  C  C150  1  0.353200  0.980700  0.323400  1.0  -0.1629
  C  C151  1  0.394500  0.476500  0.785800  1.0  -0.1785
  C  C152  1  0.298400  0.541100  0.888200  1.0  -0.1852
  C  C153  1  0.479700  0.697100  0.125000  1.0  -0.1737
  C  C154  1  0.523700  0.845600  0.180000  1.0  -0.1868
  C  C155  1  0.597700  0.525400  0.630600  1.0  -0.1833
  C  C156  1  0.529800  0.657300  0.676600  1.0  -0.1614
  C  C157  1  0.299400  0.021900  0.172200  1.0  -0.172
  C  C158  1  0.372800  0.150300  0.172200  1.0  -0.1732
  C  C159  1  0.108700  0.690700  0.214200  1.0  -0.1759
  C  C160  1  0.910200  0.652900  0.111800  1.0  -0.185
  C  C161  1  0.854700  0.572100  0.875000  1.0  -0.1741
  C  C162  1  0.843700  0.665600  0.820000  1.0  -0.1872
  C  C163  1  0.218600  0.868700  0.701400  1.0  -0.1593
  C  C164  1  0.982800  0.832700  0.701400  1.0  -0.1597
  C  C165  1  0.532900  0.105200  0.630600  1.0  -0.1824
  C  C166  1  0.646800  0.019300  0.676600  1.0  -0.164
  C  C167  1  0.605500  0.523500  0.214200  1.0  -0.1827
  C  C168  1  0.701600  0.458900  0.111800  1.0  -0.1842
  C  C169  1  0.520300  0.302900  0.875000  1.0  -0.1704
  C  C170  1  0.476300  0.154400  0.820000  1.0  -0.1894
  S  S171  1  0.160140  0.101310  0.465680  1.0  1.6682
  S  S172  1  0.385480  0.022930  0.929000  1.0  1.6464
  S  S173  1  0.767340  0.091540  0.495700  1.0  1.5926
  S  S174  1  0.211070  0.246910  0.686160  1.0  1.6332
  S  S175  1  0.077190  0.092860  0.777740  1.0  1.6388
  S  S176  1  0.405480  0.277980  0.048980  1.0  1.4616
  S  S177  1  0.805540  0.364370  0.465680  1.0  1.6675
  S  S178  1  0.043520  0.906070  0.929000  1.0  1.646
  S  S179  1  0.228360  0.404160  0.495700  1.0  1.5927
  S  S180  1  0.975090  0.439250  0.686160  1.0  1.6345
  S  S181  1  0.200550  0.684880  0.777740  1.0  1.6379
  S  S182  1  0.143500  0.771000  0.048980  1.0  1.4603
  S  S183  1  0.839860  0.898690  0.534320  1.0  1.6666
  S  S184  1  0.614520  0.977070  0.071000  1.0  1.6467
  S  S185  1  0.232660  0.908460  0.504300  1.0  1.5927
  S  S186  1  0.788930  0.753090  0.313840  1.0  1.6333
  S  S187  1  0.922810  0.907140  0.222260  1.0  1.6386
  S  S188  1  0.594520  0.722020  0.951020  1.0  1.4617
  S  S189  1  0.194460  0.635630  0.534320  1.0  1.6671
  S  S190  1  0.956480  0.093930  0.071000  1.0  1.6465
  S  S191  1  0.771640  0.595840  0.504300  1.0  1.5914
  S  S192  1  0.024910  0.560750  0.313840  1.0  1.6343
  S  S193  1  0.799450  0.315120  0.222260  1.0  1.6384
  S  S194  1  0.856500  0.229000  0.951020  1.0  1.4618
  N  N195  1  0.487750  0.421850  0.386900  1.0  -0.0591
  N  N196  1  0.686000  0.936000  0.872000  1.0  -0.0523
  N  N197  1  0.993300  0.287100  0.823600  1.0  -0.071
  N  N198  1  0.078500  0.373400  0.143200  1.0  -0.0593
  N  N199  1  0.878400  0.128400  0.256800  1.0  -0.0249
  N  N200  1  0.399150  0.965050  0.386900  1.0  -0.057
  N  N201  1  0.330300  0.536500  0.823600  1.0  -0.0705
  N  N202  1  0.564700  0.769800  0.143200  1.0  -0.0582
  N  N203  1  0.512250  0.578150  0.613100  1.0  -0.0597
  N  N204  1  0.314000  0.064000  0.128000  1.0  -0.0531
  N  N205  1  0.006700  0.712900  0.176400  1.0  -0.0694
  N  N206  1  0.921500  0.626600  0.856800  1.0  -0.0589
  N  N207  1  0.121600  0.871600  0.743200  1.0  -0.0245
  N  N208  1  0.600850  0.034950  0.613100  1.0  -0.0586
  N  N209  1  0.669700  0.463500  0.176400  1.0  -0.0714
  N  N210  1  0.435300  0.230200  0.856800  1.0  -0.0598
  O  O211  1  0.233300  0.298000  0.763600  1.0  -0.5826
  O  O212  1  0.825740  0.079340  0.560880  1.0  -0.7791
  O  O213  1  0.081570  0.069670  0.504340  1.0  -0.8968
  O  O214  1  0.296060  0.033460  0.869720  1.0  -0.798
  O  O215  1  0.787800  0.027600  0.428600  1.0  -0.7734
  O  O216  1  0.336700  0.064100  0.994800  1.0  -0.8064
  O  O217  1  0.131510  0.180210  0.479220  1.0  -0.729
  O  O218  1  0.159950  0.162050  0.847500  1.0  -0.8292
  O  O219  1  0.528860  0.059260  0.943520  1.0  -0.7386
  O  O220  1  0.058950  0.216650  0.649500  1.0  -0.9714
  O  O221  1  0.270350  0.175150  0.673900  1.0  -0.7725
  O  O222  1  0.621010  0.091110  0.487820  1.0  -0.6191
  O  O223  1  0.376730  0.937230  0.906060  1.0  -0.7123
  O  O224  1  0.838220  0.169520  0.508240  1.0  -0.7824
  O  O225  1  0.102590  0.044890  0.386780  1.0  -0.7794
  O  O226  1  0.163910  0.052910  0.729620  1.0  -0.7856
  O  O227  1  0.008750  0.037750  0.799100  1.0  -0.8061
  O  O228  1  0.304840  0.104840  0.489880  1.0  -0.6171
  O  O229  1  0.257960  0.289860  0.648720  1.0  -0.7126
  O  O230  1  0.979770  0.120570  0.735140  1.0  -0.7656
  O  O231  1  0.274200  0.230100  0.027800  1.0  -0.6631
  O  O232  1  0.513700  0.237700  0.043400  1.0  -0.6597
  O  O233  1  0.433100  0.341200  0.122800  1.0  -0.5127
  O  O234  1  0.404900  0.329400  0.010800  1.0  -0.675
  O  O235  1  0.030300  0.465600  0.763600  1.0  -0.5853
  O  O236  1  0.235140  0.481540  0.560880  1.0  -0.7769
  O  O237  1  0.922770  0.434670  0.504340  1.0  -0.8946
  O  O238  1  0.073660  0.836260  0.869720  1.0  -0.7962
  O  O239  1  0.140800  0.401000  0.428600  1.0  -0.7736
  O  O240  1  0.158100  0.930700  0.994800  1.0  -0.8068
  O  O241  1  0.847710  0.299010  0.479220  1.0  -0.7308
  O  O242  1  0.187550  0.685450  0.847500  1.0  -0.8315
  O  O243  1  0.914660  0.884260  0.943520  1.0  -0.7393
  O  O244  1  0.090550  0.432850  0.649500  1.0  -0.9732
  O  O245  1  0.903550  0.498750  0.673900  1.0  -0.7743
  O  O246  1  0.366810  0.396710  0.487820  1.0  -0.6192
  O  O247  1  0.029330  0.968830  0.906060  1.0  -0.7146
  O  O248  1  0.170020  0.338720  0.508240  1.0  -0.7827
  O  O249  1  0.784190  0.341890  0.386780  1.0  -0.7804
  O  O250  1  0.065710  0.676710  0.729620  1.0  -0.7826
  O  O251  1  0.290350  0.761350  0.799100  1.0  -0.8034
  O  O252  1  0.685040  0.385040  0.489880  1.0  -0.6154
  O  O253  1  0.890760  0.358860  0.648720  1.0  -0.71
  O  O254  1  0.255370  0.614570  0.735140  1.0  -0.7661
  O  O255  1  0.253600  0.797700  0.027800  1.0  -0.6662
  O  O256  1  0.029700  0.805700  0.043400  1.0  -0.6565
  O  O257  1  0.189700  0.781600  0.122800  1.0  -0.5127
  O  O258  1  0.105900  0.681400  0.010800  1.0  -0.6723
  O  O259  1  0.766700  0.702000  0.236400  1.0  -0.583
  O  O260  1  0.174260  0.920660  0.439120  1.0  -0.7781
  O  O261  1  0.918430  0.930330  0.495660  1.0  -0.8958
  O  O262  1  0.703940  0.966540  0.130280  1.0  -0.7985
  O  O263  1  0.212200  0.972400  0.571400  1.0  -0.7726
  O  O264  1  0.663300  0.935900  0.005200  1.0  -0.8052
  O  O265  1  0.868490  0.819790  0.520780  1.0  -0.7305
  O  O266  1  0.840050  0.837950  0.152500  1.0  -0.8306
  O  O267  1  0.471140  0.940740  0.056480  1.0  -0.7373
  O  O268  1  0.941050  0.783350  0.350500  1.0  -0.973
  O  O269  1  0.729650  0.824850  0.326100  1.0  -0.7736
  O  O270  1  0.378990  0.908890  0.512180  1.0  -0.6191
  O  O271  1  0.623270  0.062770  0.093940  1.0  -0.713
  O  O272  1  0.161780  0.830480  0.491760  1.0  -0.783
  O  O273  1  0.897410  0.955110  0.613220  1.0  -0.7786
  O  O274  1  0.836090  0.947090  0.270380  1.0  -0.7824
  O  O275  1  0.991250  0.962250  0.200900  1.0  -0.806
  O  O276  1  0.695160  0.895160  0.510120  1.0  -0.6166
  O  O277  1  0.742040  0.710140  0.351280  1.0  -0.7144
  O  O278  1  0.020230  0.879430  0.264860  1.0  -0.7659
  O  O279  1  0.725800  0.769900  0.972200  1.0  -0.6649
  O  O280  1  0.486300  0.762300  0.956600  1.0  -0.6566
  O  O281  1  0.566900  0.658800  0.877200  1.0  -0.5106
  O  O282  1  0.595100  0.670600  0.989200  1.0  -0.6744
  O  O283  1  0.969700  0.534400  0.236400  1.0  -0.5852
  O  O284  1  0.764860  0.518460  0.439120  1.0  -0.7766
  O  O285  1  0.077230  0.565330  0.495660  1.0  -0.8946
  O  O286  1  0.926340  0.163740  0.130280  1.0  -0.7966
  O  O287  1  0.859200  0.599000  0.571400  1.0  -0.7735
  O  O288  1  0.841900  0.069300  0.005200  1.0  -0.8066
  O  O289  1  0.152290  0.700990  0.520780  1.0  -0.7304
  O  O290  1  0.812450  0.314550  0.152500  1.0  -0.8316
  O  O291  1  0.085340  0.115740  0.056480  1.0  -0.7402
  O  O292  1  0.909450  0.567150  0.350500  1.0  -0.9745
  O  O293  1  0.096450  0.501250  0.326100  1.0  -0.7736
  O  O294  1  0.633190  0.603290  0.512180  1.0  -0.6202
  O  O295  1  0.970670  0.031170  0.093940  1.0  -0.7149
  O  O296  1  0.829980  0.661280  0.491760  1.0  -0.7839
  O  O297  1  0.215810  0.658110  0.613220  1.0  -0.781
  O  O298  1  0.934290  0.323290  0.270380  1.0  -0.7833
  O  O299  1  0.709650  0.238650  0.200900  1.0  -0.8047
  O  O300  1  0.314960  0.614960  0.510120  1.0  -0.6141
  O  O301  1  0.109240  0.641140  0.351280  1.0  -0.7092
  O  O302  1  0.744630  0.385430  0.264860  1.0  -0.7655
  O  O303  1  0.746400  0.202300  0.972200  1.0  -0.6658
  O  O304  1  0.970300  0.194300  0.956600  1.0  -0.6597
  O  O305  1  0.810300  0.218400  0.877200  1.0  -0.5118
  O  O306  1  0.894100  0.318600  0.989200  1.0  -0.6745
