# generated using pymatgen
data_Pr2H5C14(NO4)3
_symmetry_space_group_name_H-M   'P 1'
_cell_length_a   9.61200000
_cell_length_b   22.86800000
_cell_length_c   10.15900000
_cell_angle_alpha   90.00000000
_cell_angle_beta   101.07000000
_cell_angle_gamma   90.00000000
_symmetry_Int_Tables_number   1
_chemical_formula_structural   Pr2H5C14(NO4)3
_chemical_formula_sum   'Pr8 H20 C56 N12 O48'
_cell_volume   2191.47242141
_cell_formula_units_Z   4
loop_
 _symmetry_equiv_pos_site_id
 _symmetry_equiv_pos_as_xyz
  1  'x, y, z'
loop_
 _atom_site_type_symbol
 _atom_site_label
 _atom_site_symmetry_multiplicity
 _atom_site_fract_x
 _atom_site_fract_y
 _atom_site_fract_z
 _atom_site_occupancy
 _atom_site_charge
  Pr  Pr1  1  0.255890  0.277990  0.037490  1.0  2.0646
  Pr  Pr2  1  0.720410  0.435490  0.850340  1.0  2.1825
  Pr  Pr3  1  0.744110  0.777990  0.462510  1.0  2.0646
  Pr  Pr4  1  0.279590  0.935490  0.649660  1.0  2.1824
  Pr  Pr5  1  0.744110  0.722010  0.962510  1.0  2.0644
  Pr  Pr6  1  0.279590  0.564510  0.149660  1.0  2.1813
  Pr  Pr7  1  0.255890  0.222010  0.537490  1.0  2.0644
  Pr  Pr8  1  0.720410  0.064510  0.350340  1.0  2.1809
  H  H9  1  0.528710  0.426330  0.309800  1.0  0.2993
  H  H10  1  0.722720  0.500570  0.308690  1.0  0.1164
  H  H11  1  0.885920  0.579640  0.342900  1.0  0.1172
  H  H12  1  0.972320  0.612190  0.563340  1.0  0.1227
  H  H13  1  0.899490  0.565300  0.741810  1.0  0.0846
  H  H14  1  0.471290  0.926330  0.190200  1.0  0.2984
  H  H15  1  0.277280  0.000570  0.191310  1.0  0.1163
  H  H16  1  0.114080  0.079640  0.157100  1.0  0.1176
  H  H17  1  0.027680  0.112190  0.936660  1.0  0.1226
  H  H18  1  0.100510  0.065300  0.758190  1.0  0.0851
  H  H19  1  0.471290  0.573670  0.690200  1.0  0.2989
  H  H20  1  0.277280  0.499430  0.691310  1.0  0.1162
  H  H21  1  0.114080  0.420360  0.657100  1.0  0.1182
  H  H22  1  0.027680  0.387810  0.436660  1.0  0.1218
  H  H23  1  0.100510  0.434700  0.258190  1.0  0.0851
  H  H24  1  0.528710  0.073670  0.809800  1.0  0.2993
  H  H25  1  0.722720  0.999430  0.808690  1.0  0.1163
  H  H26  1  0.885920  0.920360  0.842900  1.0  0.1173
  H  H27  1  0.972320  0.887810  0.063340  1.0  0.122
  H  H28  1  0.899490  0.934700  0.241810  1.0  0.0845
  C  C29  1  0.457300  0.371870  0.440200  1.0  -0.0815
  C  C30  1  0.498200  0.372770  0.578500  1.0  -0.015
  C  C31  1  0.617000  0.441530  0.501400  1.0  0.2569
  C  C32  1  0.719400  0.490030  0.507700  1.0  0.1658
  C  C33  1  0.759500  0.514740  0.396400  1.0  -0.1542
  C  C34  1  0.856200  0.561380  0.416800  1.0  -0.0857
  C  C35  1  0.907700  0.580400  0.547000  1.0  -0.1438
  C  C36  1  0.863200  0.552190  0.653100  1.0  0.1717
  C  C37  1  0.520300  0.478220  0.059500  1.0  0.5563
  C  C38  1  0.044900  0.480190  0.961700  1.0  0.6175
  C  C39  1  0.461800  0.340070  0.694600  1.0  0.6879
  C  C40  1  0.364600  0.333690  0.340400  1.0  0.7333
  C  C41  1  0.955100  0.350140  0.018800  1.0  0.589
  C  C42  1  0.941900  0.325560  0.873200  1.0  0.5726
  C  C43  1  0.542700  0.871870  0.059800  1.0  -0.0811
  C  C44  1  0.501800  0.872770  0.921500  1.0  -0.014
  C  C45  1  0.383000  0.941530  0.998600  1.0  0.2573
  C  C46  1  0.280600  0.990030  0.992300  1.0  0.1665
  C  C47  1  0.240500  0.014740  0.103600  1.0  -0.1522
  C  C48  1  0.143800  0.061380  0.083200  1.0  -0.0882
  C  C49  1  0.092300  0.080400  0.953000  1.0  -0.1452
  C  C50  1  0.136800  0.052190  0.846900  1.0  0.1719
  C  C51  1  0.479700  0.978220  0.440500  1.0  0.5572
  C  C52  1  0.955100  0.980190  0.538300  1.0  0.6166
  C  C53  1  0.538200  0.840070  0.805400  1.0  0.6865
  C  C54  1  0.635400  0.833690  0.159600  1.0  0.7344
  C  C55  1  0.044900  0.850140  0.481200  1.0  0.5871
  C  C56  1  0.058100  0.825560  0.626800  1.0  0.574
  C  C57  1  0.542700  0.628130  0.559800  1.0  -0.0799
  C  C58  1  0.501800  0.627230  0.421500  1.0  -0.0117
  C  C59  1  0.383000  0.558470  0.498600  1.0  0.2582
  C  C60  1  0.280600  0.509970  0.492300  1.0  0.166
  C  C61  1  0.240500  0.485260  0.603600  1.0  -0.1515
  C  C62  1  0.143800  0.438620  0.583200  1.0  -0.089
  C  C63  1  0.092300  0.419600  0.453000  1.0  -0.1467
  C  C64  1  0.136800  0.447810  0.346900  1.0  0.1719
  C  C65  1  0.479700  0.521780  0.940500  1.0  0.5564
  C  C66  1  0.955100  0.519810  0.038300  1.0  0.6166
  C  C67  1  0.538200  0.659930  0.305400  1.0  0.6868
  C  C68  1  0.635400  0.666310  0.659600  1.0  0.7323
  C  C69  1  0.044900  0.649860  0.981200  1.0  0.587
  C  C70  1  0.058100  0.674440  0.126800  1.0  0.5732
  C  C71  1  0.457300  0.128130  0.940200  1.0  -0.0807
  C  C72  1  0.498200  0.127230  0.078500  1.0  -0.0123
  C  C73  1  0.617000  0.058470  0.001400  1.0  0.2575
  C  C74  1  0.719400  0.009970  0.007700  1.0  0.1655
  C  C75  1  0.759500  0.985260  0.896400  1.0  -0.1542
  C  C76  1  0.856200  0.938620  0.916800  1.0  -0.0869
  C  C77  1  0.907700  0.919600  0.047000  1.0  -0.1463
  C  C78  1  0.863200  0.947810  0.153100  1.0  0.172
  C  C79  1  0.520300  0.021780  0.559500  1.0  0.5556
  C  C80  1  0.044900  0.019810  0.461700  1.0  0.6178
  C  C81  1  0.461800  0.159930  0.194600  1.0  0.6873
  C  C82  1  0.364600  0.166310  0.840400  1.0  0.7344
  C  C83  1  0.955100  0.149860  0.518800  1.0  0.588
  C  C84  1  0.941900  0.174440  0.373200  1.0  0.5738
  N  N85  1  0.597200  0.415920  0.613900  1.0  -0.4268
  N  N86  1  0.533600  0.416300  0.394200  1.0  -0.2291
  N  N87  1  0.771300  0.507270  0.635900  1.0  -0.4065
  N  N88  1  0.402800  0.915920  0.886100  1.0  -0.4267
  N  N89  1  0.466400  0.916300  0.105800  1.0  -0.2296
  N  N90  1  0.228700  0.007270  0.864100  1.0  -0.4081
  N  N91  1  0.402800  0.584080  0.386100  1.0  -0.4251
  N  N92  1  0.466400  0.583700  0.605800  1.0  -0.2292
  N  N93  1  0.228700  0.492730  0.364100  1.0  -0.4108
  N  N94  1  0.597200  0.084080  0.113900  1.0  -0.4243
  N  N95  1  0.533600  0.083700  0.894200  1.0  -0.2274
  N  N96  1  0.771300  0.992730  0.135900  1.0  -0.4088
  O  O97  1  0.068800  0.340650  0.098800  1.0  -0.6057
  O  O98  1  0.039100  0.291290  0.855200  1.0  -0.61
  O  O99  1  0.850300  0.378780  0.042700  1.0  -0.6153
  O  O100  1  0.839000  0.343030  0.786200  1.0  -0.594
  O  O101  1  0.596400  0.435690  0.044100  1.0  -0.5975
  O  O102  1  0.471100  0.489680  0.164200  1.0  -0.6178
  O  O103  1  0.379400  0.297460  0.680900  1.0  -0.7211
  O  O104  1  0.522100  0.360370  0.809100  1.0  -0.7297
  O  O105  1  0.283200  0.296760  0.379900  1.0  -0.7341
  O  O106  1  0.375600  0.340960  0.220500  1.0  -0.7005
  O  O107  1  0.178100  0.480270  0.006200  1.0  -0.6347
  O  O108  1  0.980400  0.451480  0.864800  1.0  -0.628
  O  O109  1  0.931200  0.840650  0.401200  1.0  -0.6048
  O  O110  1  0.960900  0.791290  0.644800  1.0  -0.6098
  O  O111  1  0.149700  0.878780  0.457300  1.0  -0.6194
  O  O112  1  0.161000  0.843030  0.713800  1.0  -0.596
  O  O113  1  0.403600  0.935690  0.455900  1.0  -0.5974
  O  O114  1  0.528900  0.989680  0.335800  1.0  -0.6174
  O  O115  1  0.620600  0.797460  0.819100  1.0  -0.724
  O  O116  1  0.477900  0.860370  0.690900  1.0  -0.7301
  O  O117  1  0.716800  0.796760  0.120100  1.0  -0.7345
  O  O118  1  0.624400  0.840960  0.279500  1.0  -0.7028
  O  O119  1  0.821900  0.980270  0.493800  1.0  -0.6326
  O  O120  1  0.019600  0.951480  0.635200  1.0  -0.6287
  O  O121  1  0.931200  0.659350  0.901200  1.0  -0.6038
  O  O122  1  0.960900  0.708710  0.144800  1.0  -0.6085
  O  O123  1  0.149700  0.621220  0.957300  1.0  -0.6203
  O  O124  1  0.161000  0.656970  0.213800  1.0  -0.5962
  O  O125  1  0.403600  0.564310  0.955900  1.0  -0.5988
  O  O126  1  0.528900  0.510320  0.835800  1.0  -0.6179
  O  O127  1  0.620600  0.702540  0.319100  1.0  -0.7234
  O  O128  1  0.477900  0.639630  0.190900  1.0  -0.7322
  O  O129  1  0.716800  0.703240  0.620100  1.0  -0.7314
  O  O130  1  0.624400  0.659040  0.779500  1.0  -0.7029
  O  O131  1  0.821900  0.519730  0.993800  1.0  -0.6328
  O  O132  1  0.019600  0.548520  0.135200  1.0  -0.6291
  O  O133  1  0.068800  0.159350  0.598800  1.0  -0.6062
  O  O134  1  0.039100  0.208710  0.355200  1.0  -0.6096
  O  O135  1  0.850300  0.121220  0.542700  1.0  -0.6182
  O  O136  1  0.839000  0.156970  0.286200  1.0  -0.5941
  O  O137  1  0.596400  0.064310  0.544100  1.0  -0.5988
  O  O138  1  0.471100  0.010320  0.664200  1.0  -0.6178
  O  O139  1  0.379400  0.202540  0.180900  1.0  -0.7207
  O  O140  1  0.522100  0.139630  0.309100  1.0  -0.7324
  O  O141  1  0.283200  0.203240  0.879900  1.0  -0.7306
  O  O142  1  0.375600  0.159040  0.720500  1.0  -0.7009
  O  O143  1  0.178100  0.019730  0.506200  1.0  -0.635
  O  O144  1  0.980400  0.048520  0.364800  1.0  -0.628
