# generated using pymatgen
data_Sm2H5C14(NO4)3
_symmetry_space_group_name_H-M   'P 1'
_cell_length_a   9.59000000
_cell_length_b   22.62100000
_cell_length_c   10.12900000
_cell_angle_alpha   90.00000000
_cell_angle_beta   101.61000000
_cell_angle_gamma   90.00000000
_symmetry_Int_Tables_number   1
_chemical_formula_structural   Sm2H5C14(NO4)3
_chemical_formula_sum   'Sm8 H20 C56 N12 O48'
_cell_volume   2152.38132581
_cell_formula_units_Z   4
loop_
 _symmetry_equiv_pos_site_id
 _symmetry_equiv_pos_as_xyz
  1  'x, y, z'
loop_
 _atom_site_type_symbol
 _atom_site_label
 _atom_site_symmetry_multiplicity
 _atom_site_fract_x
 _atom_site_fract_y
 _atom_site_fract_z
 _atom_site_occupancy
 _atom_site_charge
  Sm  Sm1  1  0.249470  0.277030  0.046940  1.0  2.1722
  Sm  Sm2  1  0.720180  0.434430  0.856430  1.0  2.2258
  Sm  Sm3  1  0.750530  0.777030  0.453060  1.0  2.1718
  Sm  Sm4  1  0.279820  0.934430  0.643570  1.0  2.2258
  Sm  Sm5  1  0.750530  0.722970  0.953060  1.0  2.1718
  Sm  Sm6  1  0.279820  0.565570  0.143570  1.0  2.2248
  Sm  Sm7  1  0.249470  0.222970  0.546940  1.0  2.1721
  Sm  Sm8  1  0.720180  0.065570  0.356430  1.0  2.2244
  H  H9  1  0.523240  0.422610  0.316650  1.0  0.2705
  H  H10  1  0.724380  0.498330  0.313180  1.0  0.1068
  H  H11  1  0.888900  0.577800  0.347780  1.0  0.112
  H  H12  1  0.974290  0.611560  0.567600  1.0  0.1068
  H  H13  1  0.904640  0.565030  0.746440  1.0  0.0711
  H  H14  1  0.476760  0.922610  0.183350  1.0  0.2698
  H  H15  1  0.275620  0.998330  0.186820  1.0  0.1065
  H  H16  1  0.111100  0.077800  0.152220  1.0  0.1118
  H  H17  1  0.025710  0.111560  0.932400  1.0  0.1067
  H  H18  1  0.095360  0.065030  0.753560  1.0  0.0719
  H  H19  1  0.476760  0.577390  0.683350  1.0  0.2697
  H  H20  1  0.275620  0.501670  0.686820  1.0  0.1065
  H  H21  1  0.111100  0.422200  0.652220  1.0  0.1121
  H  H22  1  0.025710  0.388440  0.432400  1.0  0.1066
  H  H23  1  0.095360  0.434970  0.253560  1.0  0.0718
  H  H24  1  0.523240  0.077390  0.816650  1.0  0.2701
  H  H25  1  0.724380  0.001670  0.813180  1.0  0.1067
  H  H26  1  0.888900  0.922200  0.847780  1.0  0.1122
  H  H27  1  0.974290  0.888440  0.067600  1.0  0.1066
  H  H28  1  0.904640  0.934970  0.246440  1.0  0.0712
  C  C29  1  0.457300  0.369660  0.446800  1.0  -0.103
  C  C30  1  0.499600  0.370890  0.586200  1.0  -0.0342
  C  C31  1  0.618700  0.439710  0.508000  1.0  0.2578
  C  C32  1  0.721300  0.488410  0.514300  1.0  0.1553
  C  C33  1  0.761600  0.512940  0.401100  1.0  -0.1586
  C  C34  1  0.858600  0.559700  0.421900  1.0  -0.1103
  C  C35  1  0.909800  0.579250  0.551600  1.0  -0.1328
  C  C36  1  0.866700  0.551520  0.657700  1.0  0.1588
  C  C37  1  0.360600  0.331640  0.348400  1.0  0.7382
  C  C38  1  0.462500  0.338910  0.703100  1.0  0.7217
  C  C39  1  0.519800  0.478700  0.061000  1.0  0.6111
  C  C40  1  0.044600  0.479830  0.962300  1.0  0.6201
  C  C41  1  0.952300  0.349230  0.027600  1.0  0.5587
  C  C42  1  0.937600  0.323760  0.882600  1.0  0.5635
  C  C43  1  0.542700  0.869660  0.053200  1.0  -0.1017
  C  C44  1  0.500400  0.870890  0.913800  1.0  -0.0323
  C  C45  1  0.381300  0.939710  0.992000  1.0  0.2585
  C  C46  1  0.278700  0.988410  0.985700  1.0  0.1554
  C  C47  1  0.238400  0.012940  0.098900  1.0  -0.1587
  C  C48  1  0.141400  0.059700  0.078100  1.0  -0.1101
  C  C49  1  0.090200  0.079250  0.948400  1.0  -0.1335
  C  C50  1  0.133300  0.051520  0.842300  1.0  0.1589
  C  C51  1  0.639400  0.831640  0.151600  1.0  0.7393
  C  C52  1  0.537500  0.838910  0.796900  1.0  0.7206
  C  C53  1  0.480200  0.978700  0.439000  1.0  0.6118
  C  C54  1  0.955400  0.979830  0.537700  1.0  0.6196
  C  C55  1  0.047700  0.849230  0.472400  1.0  0.5586
  C  C56  1  0.062400  0.823760  0.617400  1.0  0.565
  C  C57  1  0.542700  0.630340  0.553200  1.0  -0.1018
  C  C58  1  0.500400  0.629110  0.413800  1.0  -0.0304
  C  C59  1  0.381300  0.560290  0.492000  1.0  0.2593
  C  C60  1  0.278700  0.511590  0.485700  1.0  0.1546
  C  C61  1  0.238400  0.487060  0.598900  1.0  -0.158
  C  C62  1  0.141400  0.440300  0.578100  1.0  -0.1103
  C  C63  1  0.090200  0.420750  0.448400  1.0  -0.1351
  C  C64  1  0.133300  0.448480  0.342300  1.0  0.1593
  C  C65  1  0.639400  0.668360  0.651600  1.0  0.7375
  C  C66  1  0.537500  0.661090  0.296900  1.0  0.7208
  C  C67  1  0.480200  0.521300  0.939000  1.0  0.6107
  C  C68  1  0.955400  0.520170  0.037700  1.0  0.6191
  C  C69  1  0.047700  0.650770  0.972400  1.0  0.5588
  C  C70  1  0.062400  0.676240  0.117400  1.0  0.564
  C  C71  1  0.457300  0.130340  0.946800  1.0  -0.1027
  C  C72  1  0.499600  0.129110  0.086200  1.0  -0.0329
  C  C73  1  0.618700  0.060290  0.008000  1.0  0.2586
  C  C74  1  0.721300  0.011590  0.014300  1.0  0.1548
  C  C75  1  0.761600  0.987060  0.901100  1.0  -0.1584
  C  C76  1  0.858600  0.940300  0.921900  1.0  -0.1106
  C  C77  1  0.909800  0.920750  0.051600  1.0  -0.1352
  C  C78  1  0.866700  0.948480  0.157700  1.0  0.1591
  C  C79  1  0.360600  0.168360  0.848400  1.0  0.7393
  C  C80  1  0.462500  0.161090  0.203100  1.0  0.7212
  C  C81  1  0.519800  0.021300  0.561000  1.0  0.6099
  C  C82  1  0.044600  0.020170  0.462300  1.0  0.6204
  C  C83  1  0.952300  0.150770  0.527600  1.0  0.5583
  C  C84  1  0.937600  0.176240  0.382600  1.0  0.5644
  N  N85  1  0.598900  0.414690  0.620700  1.0  -0.3693
  N  N86  1  0.533900  0.413810  0.400800  1.0  -0.272
  N  N87  1  0.774200  0.506580  0.642200  1.0  -0.436
  N  N88  1  0.401100  0.914690  0.879300  1.0  -0.3709
  N  N89  1  0.466100  0.913810  0.099200  1.0  -0.2693
  N  N90  1  0.225800  0.006580  0.857800  1.0  -0.4382
  N  N91  1  0.401100  0.585310  0.379300  1.0  -0.3707
  N  N92  1  0.466100  0.586190  0.599200  1.0  -0.2682
  N  N93  1  0.225800  0.493420  0.357800  1.0  -0.4396
  N  N94  1  0.598900  0.085310  0.120700  1.0  -0.3686
  N  N95  1  0.533900  0.086190  0.900800  1.0  -0.2702
  N  N96  1  0.774200  0.993420  0.142200  1.0  -0.4371
  O  O97  1  0.065000  0.338340  0.109400  1.0  -0.6039
  O  O98  1  0.033300  0.288090  0.865700  1.0  -0.6158
  O  O99  1  0.833500  0.341150  0.795500  1.0  -0.6085
  O  O100  1  0.850500  0.380140  0.049400  1.0  -0.6372
  O  O101  1  0.523600  0.359580  0.817000  1.0  -0.7381
  O  O102  1  0.378000  0.296330  0.689600  1.0  -0.7277
  O  O103  1  0.278900  0.295130  0.388800  1.0  -0.7461
  O  O104  1  0.368200  0.339010  0.227400  1.0  -0.6668
  O  O105  1  0.598600  0.436300  0.049600  1.0  -0.618
  O  O106  1  0.468200  0.490650  0.163700  1.0  -0.5987
  O  O107  1  0.978600  0.449330  0.868200  1.0  -0.6341
  O  O108  1  0.177400  0.480990  0.004000  1.0  -0.6376
  O  O109  1  0.935000  0.838340  0.390600  1.0  -0.6044
  O  O110  1  0.966700  0.788090  0.634300  1.0  -0.6147
  O  O111  1  0.166500  0.841150  0.704500  1.0  -0.6096
  O  O112  1  0.149500  0.880140  0.450600  1.0  -0.6394
  O  O113  1  0.476400  0.859580  0.683000  1.0  -0.7367
  O  O114  1  0.622000  0.796330  0.810400  1.0  -0.7293
  O  O115  1  0.721100  0.795130  0.111200  1.0  -0.7461
  O  O116  1  0.631800  0.839010  0.272600  1.0  -0.6695
  O  O117  1  0.401400  0.936300  0.450400  1.0  -0.6178
  O  O118  1  0.531800  0.990650  0.336300  1.0  -0.597
  O  O119  1  0.021400  0.949330  0.631800  1.0  -0.6348
  O  O120  1  0.822600  0.980990  0.496000  1.0  -0.6376
  O  O121  1  0.935000  0.661660  0.890600  1.0  -0.6041
  O  O122  1  0.966700  0.711910  0.134300  1.0  -0.6132
  O  O123  1  0.166500  0.658850  0.204500  1.0  -0.6107
  O  O124  1  0.149500  0.619860  0.950600  1.0  -0.6395
  O  O125  1  0.476400  0.640420  0.183000  1.0  -0.7385
  O  O126  1  0.622000  0.703670  0.310400  1.0  -0.7298
  O  O127  1  0.721100  0.704870  0.611200  1.0  -0.7441
  O  O128  1  0.631800  0.660990  0.772600  1.0  -0.6688
  O  O129  1  0.401400  0.563700  0.950400  1.0  -0.6179
  O  O130  1  0.531800  0.509350  0.836300  1.0  -0.5974
  O  O131  1  0.021400  0.550670  0.131800  1.0  -0.6354
  O  O132  1  0.822600  0.519010  0.996000  1.0  -0.6377
  O  O133  1  0.065000  0.161660  0.609400  1.0  -0.6051
  O  O134  1  0.033300  0.211910  0.365700  1.0  -0.6154
  O  O135  1  0.833500  0.158850  0.295500  1.0  -0.608
  O  O136  1  0.850500  0.119860  0.549400  1.0  -0.6382
  O  O137  1  0.523600  0.140420  0.317000  1.0  -0.739
  O  O138  1  0.378000  0.203670  0.189600  1.0  -0.7285
  O  O139  1  0.278900  0.204870  0.888800  1.0  -0.7432
  O  O140  1  0.368200  0.160990  0.727400  1.0  -0.6667
  O  O141  1  0.598600  0.063700  0.549600  1.0  -0.6181
  O  O142  1  0.468200  0.009350  0.663700  1.0  -0.5985
  O  O143  1  0.978600  0.050670  0.368200  1.0  -0.6333
  O  O144  1  0.177400  0.019010  0.504000  1.0  -0.6378
