# generated using pymatgen
data_Ho2H5C14(NO4)3
_symmetry_space_group_name_H-M   'P 1'
_cell_length_a   9.42990000
_cell_length_b   22.32720000
_cell_length_c   10.08740000
_cell_angle_alpha   90.00000000
_cell_angle_beta   102.81700000
_cell_angle_gamma   90.00000000
_symmetry_Int_Tables_number   1
_chemical_formula_structural   Ho2H5C14(NO4)3
_chemical_formula_sum   'Ho8 H20 C56 N12 O48'
_cell_volume   2070.91576404
_cell_formula_units_Z   4
loop_
 _symmetry_equiv_pos_site_id
 _symmetry_equiv_pos_as_xyz
  1  'x, y, z'
loop_
 _atom_site_type_symbol
 _atom_site_label
 _atom_site_symmetry_multiplicity
 _atom_site_fract_x
 _atom_site_fract_y
 _atom_site_fract_z
 _atom_site_occupancy
 _atom_site_charge
  Ho  Ho1  1  0.248160  0.276300  0.051360  1.0  2.1214
  Ho  Ho2  1  0.717830  0.434110  0.861870  1.0  2.1405
  Ho  Ho3  1  0.751840  0.776300  0.448640  1.0  2.1215
  Ho  Ho4  1  0.282170  0.934110  0.638130  1.0  2.1398
  Ho  Ho5  1  0.751840  0.723700  0.948640  1.0  2.1214
  Ho  Ho6  1  0.282170  0.565890  0.138130  1.0  2.1385
  Ho  Ho7  1  0.248160  0.223700  0.551360  1.0  2.1212
  Ho  Ho8  1  0.717830  0.065890  0.361870  1.0  2.1391
  H  H9  1  0.510860  0.425730  0.325140  1.0  0.2556
  H  H10  1  0.726220  0.496870  0.320370  1.0  0.1009
  H  H11  1  0.893770  0.577080  0.354830  1.0  0.1029
  H  H12  1  0.978480  0.612590  0.573950  1.0  0.1118
  H  H13  1  0.909380  0.567410  0.751160  1.0  0.0574
  H  H14  1  0.489140  0.925730  0.174860  1.0  0.2568
  H  H15  1  0.273780  0.996870  0.179630  1.0  0.1006
  H  H16  1  0.106230  0.077080  0.145170  1.0  0.1029
  H  H17  1  0.021520  0.112590  0.926050  1.0  0.1114
  H  H18  1  0.090620  0.067410  0.748840  1.0  0.0574
  H  H19  1  0.489140  0.574270  0.674860  1.0  0.2571
  H  H20  1  0.273780  0.503130  0.679630  1.0  0.1006
  H  H21  1  0.106230  0.422920  0.645170  1.0  0.103
  H  H22  1  0.021520  0.387410  0.426050  1.0  0.111
  H  H23  1  0.090620  0.432590  0.248840  1.0  0.0575
  H  H24  1  0.510860  0.074270  0.825140  1.0  0.2561
  H  H25  1  0.726220  0.003130  0.820370  1.0  0.1009
  H  H26  1  0.893770  0.922920  0.854830  1.0  0.1028
  H  H27  1  0.978480  0.887410  0.073950  1.0  0.1116
  H  H28  1  0.909380  0.932590  0.251160  1.0  0.0578
  C  C29  1  0.454800  0.368510  0.452300  1.0  -0.1161
  C  C30  1  0.498100  0.370540  0.592800  1.0  -0.0092
  C  C31  1  0.619000  0.439760  0.514800  1.0  0.2644
  C  C32  1  0.722100  0.489060  0.519700  1.0  0.1734
  C  C33  1  0.763200  0.512200  0.406800  1.0  -0.1526
  C  C34  1  0.863100  0.559800  0.427600  1.0  -0.0803
  C  C35  1  0.914400  0.580400  0.557900  1.0  -0.1536
  C  C36  1  0.870800  0.553400  0.663800  1.0  0.1676
  C  C37  1  0.357000  0.329100  0.353700  1.0  0.7176
  C  C38  1  0.463100  0.338270  0.709200  1.0  0.7133
  C  C39  1  0.520300  0.479130  0.062000  1.0  0.61
  C  C40  1  0.044200  0.479670  0.962000  1.0  0.6174
  C  C41  1  0.952300  0.348870  0.030400  1.0  0.6467
  C  C42  1  0.934200  0.322790  0.885500  1.0  0.555
  C  C43  1  0.545200  0.868510  0.047700  1.0  -0.1168
  C  C44  1  0.501900  0.870540  0.907200  1.0  -0.0077
  C  C45  1  0.381000  0.939760  0.985200  1.0  0.2658
  C  C46  1  0.277900  0.989060  0.980300  1.0  0.1739
  C  C47  1  0.236800  0.012200  0.093200  1.0  -0.1531
  C  C48  1  0.136900  0.059800  0.072400  1.0  -0.0842
  C  C49  1  0.085600  0.080400  0.942100  1.0  -0.1551
  C  C50  1  0.129200  0.053400  0.836200  1.0  0.1673
  C  C51  1  0.643000  0.829100  0.146300  1.0  0.7184
  C  C52  1  0.536900  0.838270  0.790800  1.0  0.7119
  C  C53  1  0.479700  0.979130  0.438000  1.0  0.6103
  C  C54  1  0.955800  0.979670  0.538000  1.0  0.6175
  C  C55  1  0.047700  0.848870  0.469600  1.0  0.6463
  C  C56  1  0.065800  0.822790  0.614500  1.0  0.5585
  C  C57  1  0.545200  0.631490  0.547700  1.0  -0.1161
  C  C58  1  0.501900  0.629460  0.407200  1.0  -0.0077
  C  C59  1  0.381000  0.560240  0.485200  1.0  0.266
  C  C60  1  0.277900  0.510940  0.480300  1.0  0.1741
  C  C61  1  0.236800  0.487800  0.593200  1.0  -0.153
  C  C62  1  0.136900  0.440200  0.572400  1.0  -0.0842
  C  C63  1  0.085600  0.419600  0.442100  1.0  -0.1537
  C  C64  1  0.129200  0.446600  0.336200  1.0  0.1679
  C  C65  1  0.643000  0.670900  0.646300  1.0  0.7188
  C  C66  1  0.536900  0.661730  0.290800  1.0  0.7127
  C  C67  1  0.479700  0.520870  0.938000  1.0  0.6101
  C  C68  1  0.955800  0.520330  0.038000  1.0  0.617
  C  C69  1  0.047700  0.651130  0.969600  1.0  0.6464
  C  C70  1  0.065800  0.677210  0.114500  1.0  0.5576
  C  C71  1  0.454800  0.131490  0.952300  1.0  -0.115
  C  C72  1  0.498100  0.129460  0.092800  1.0  -0.0088
  C  C73  1  0.619000  0.060240  0.014800  1.0  0.2645
  C  C74  1  0.722100  0.010940  0.019700  1.0  0.1729
  C  C75  1  0.763200  0.987800  0.906800  1.0  -0.1534
  C  C76  1  0.863100  0.940200  0.927600  1.0  -0.0811
  C  C77  1  0.914400  0.919600  0.057900  1.0  -0.1535
  C  C78  1  0.870800  0.946600  0.163800  1.0  0.168
  C  C79  1  0.357000  0.170900  0.853700  1.0  0.7203
  C  C80  1  0.463100  0.161730  0.209200  1.0  0.7128
  C  C81  1  0.520300  0.020870  0.562000  1.0  0.6096
  C  C82  1  0.044200  0.020330  0.462000  1.0  0.6179
  C  C83  1  0.952300  0.151130  0.530400  1.0  0.6466
  C  C84  1  0.934200  0.177210  0.385500  1.0  0.5563
  N  N85  1  0.599400  0.415010  0.628800  1.0  -0.4008
  N  N86  1  0.533000  0.413110  0.406800  1.0  -0.2664
  N  N87  1  0.776000  0.507960  0.649300  1.0  -0.4553
  N  N88  1  0.400600  0.915010  0.871200  1.0  -0.4031
  N  N89  1  0.467000  0.913110  0.093200  1.0  -0.2635
  N  N90  1  0.224000  0.007960  0.850700  1.0  -0.4579
  N  N91  1  0.400600  0.584990  0.371200  1.0  -0.4025
  N  N92  1  0.467000  0.586890  0.593200  1.0  -0.2626
  N  N93  1  0.224000  0.492040  0.350700  1.0  -0.4581
  N  N94  1  0.599400  0.084990  0.128800  1.0  -0.3996
  N  N95  1  0.533000  0.086890  0.906800  1.0  -0.2645
  N  N96  1  0.776000  0.992040  0.149300  1.0  -0.4569
  O  O97  1  0.066800  0.336870  0.113000  1.0  -0.6066
  O  O98  1  0.030300  0.286090  0.869800  1.0  -0.6121
  O  O99  1  0.827600  0.341130  0.797500  1.0  -0.6038
  O  O100  1  0.849800  0.380770  0.051000  1.0  -0.6242
  O  O101  1  0.523400  0.360420  0.824600  1.0  -0.7079
  O  O102  1  0.379900  0.294850  0.696400  1.0  -0.7064
  O  O103  1  0.601700  0.436350  0.052600  1.0  -0.6239
  O  O104  1  0.274000  0.293050  0.395400  1.0  -0.7285
  O  O105  1  0.365900  0.335490  0.232800  1.0  -0.6517
  O  O106  1  0.468200  0.491630  0.163200  1.0  -0.6
  O  O107  1  0.974800  0.447470  0.870400  1.0  -0.625
  O  O108  1  0.180200  0.482000  0.001600  1.0  -0.6324
  O  O109  1  0.933200  0.836870  0.387000  1.0  -0.6064
  O  O110  1  0.969700  0.786090  0.630200  1.0  -0.611
  O  O111  1  0.172400  0.841130  0.702500  1.0  -0.605
  O  O112  1  0.150200  0.880770  0.449000  1.0  -0.6252
  O  O113  1  0.476600  0.860420  0.675400  1.0  -0.7064
  O  O114  1  0.620100  0.794850  0.803600  1.0  -0.7071
  O  O115  1  0.398300  0.936350  0.447400  1.0  -0.6239
  O  O116  1  0.726000  0.793050  0.104600  1.0  -0.7286
  O  O117  1  0.634100  0.835490  0.267200  1.0  -0.6542
  O  O118  1  0.531800  0.991630  0.336800  1.0  -0.5996
  O  O119  1  0.025200  0.947470  0.629600  1.0  -0.6251
  O  O120  1  0.819800  0.982000  0.498400  1.0  -0.6316
  O  O121  1  0.933200  0.663130  0.887000  1.0  -0.6058
  O  O122  1  0.969700  0.713910  0.130200  1.0  -0.6103
  O  O123  1  0.172400  0.658870  0.202500  1.0  -0.6062
  O  O124  1  0.150200  0.619230  0.949000  1.0  -0.6243
  O  O125  1  0.476600  0.639580  0.175400  1.0  -0.7062
  O  O126  1  0.620100  0.705150  0.303600  1.0  -0.7066
  O  O127  1  0.398300  0.563650  0.947400  1.0  -0.6231
  O  O128  1  0.726000  0.706950  0.604600  1.0  -0.7271
  O  O129  1  0.634100  0.664510  0.767200  1.0  -0.6543
  O  O130  1  0.531800  0.508370  0.836800  1.0  -0.6009
  O  O131  1  0.025200  0.552530  0.129600  1.0  -0.6245
  O  O132  1  0.819800  0.518000  0.998400  1.0  -0.6312
  O  O133  1  0.066800  0.163130  0.613000  1.0  -0.6074
  O  O134  1  0.030300  0.213910  0.369800  1.0  -0.6119
  O  O135  1  0.827600  0.158870  0.297500  1.0  -0.6043
  O  O136  1  0.849800  0.119230  0.551000  1.0  -0.6241
  O  O137  1  0.523400  0.139580  0.324600  1.0  -0.708
  O  O138  1  0.379900  0.205150  0.196400  1.0  -0.7067
  O  O139  1  0.601700  0.063650  0.552600  1.0  -0.6234
  O  O140  1  0.274000  0.206950  0.895400  1.0  -0.7268
  O  O141  1  0.365900  0.164510  0.732800  1.0  -0.6525
  O  O142  1  0.468200  0.008370  0.663200  1.0  -0.601
  O  O143  1  0.974800  0.052530  0.370400  1.0  -0.6232
  O  O144  1  0.180200  0.018000  0.501600  1.0  -0.6314
