# generated using pymatgen
data_Dy2H5C14(NO4)3
_symmetry_space_group_name_H-M   'P 1'
_cell_length_a   9.42800000
_cell_length_b   22.41500000
_cell_length_c   10.05100000
_cell_angle_alpha   90.00000000
_cell_angle_beta   102.12000000
_cell_angle_gamma   90.00000000
_symmetry_Int_Tables_number   1
_chemical_formula_structural   Dy2H5C14(NO4)3
_chemical_formula_sum   'Dy8 H20 C56 N12 O48'
_cell_volume   2076.71858778
_cell_formula_units_Z   4
loop_
 _symmetry_equiv_pos_site_id
 _symmetry_equiv_pos_as_xyz
  1  'x, y, z'
loop_
 _atom_site_type_symbol
 _atom_site_label
 _atom_site_symmetry_multiplicity
 _atom_site_fract_x
 _atom_site_fract_y
 _atom_site_fract_z
 _atom_site_occupancy
 _atom_site_charge
  Dy  Dy1  1  0.250500  0.277170  0.046630  1.0  2.2004
  Dy  Dy2  1  0.718330  0.434610  0.858310  1.0  2.2105
  Dy  Dy3  1  0.749500  0.777170  0.453370  1.0  2.2002
  Dy  Dy4  1  0.281670  0.934610  0.641690  1.0  2.2101
  Dy  Dy5  1  0.749500  0.722830  0.953370  1.0  2.1999
  Dy  Dy6  1  0.281670  0.565390  0.141690  1.0  2.2087
  Dy  Dy7  1  0.250500  0.222830  0.546630  1.0  2.2003
  Dy  Dy8  1  0.718330  0.065390  0.358310  1.0  2.2087
  H  H9  1  0.524060  0.426680  0.321410  1.0  0.2654
  H  H10  1  0.727570  0.499350  0.316080  1.0  0.1033
  H  H11  1  0.894640  0.579940  0.353090  1.0  0.1046
  H  H12  1  0.979650  0.614350  0.576030  1.0  0.105
  H  H13  1  0.906470  0.567000  0.755310  1.0  0.065
  H  H14  1  0.475940  0.926680  0.178590  1.0  0.2656
  H  H15  1  0.272430  0.999350  0.183920  1.0  0.1034
  H  H16  1  0.105360  0.079940  0.146910  1.0  0.1045
  H  H17  1  0.020350  0.114350  0.923970  1.0  0.1046
  H  H18  1  0.093530  0.067000  0.744690  1.0  0.065
  H  H19  1  0.475940  0.573320  0.678590  1.0  0.2657
  H  H20  1  0.272430  0.500650  0.683920  1.0  0.1034
  H  H21  1  0.105360  0.420060  0.646910  1.0  0.1048
  H  H22  1  0.020350  0.385650  0.423970  1.0  0.1041
  H  H23  1  0.093530  0.433000  0.244690  1.0  0.0649
  H  H24  1  0.524060  0.073320  0.821410  1.0  0.2656
  H  H25  1  0.727570  0.000650  0.816080  1.0  0.1034
  H  H26  1  0.894640  0.920060  0.853090  1.0  0.1049
  H  H27  1  0.979650  0.885650  0.076030  1.0  0.1039
  H  H28  1  0.906470  0.933000  0.255310  1.0  0.0653
  C  C29  1  0.456000  0.369280  0.448800  1.0  -0.0907
  C  C30  1  0.498000  0.370800  0.589400  1.0  -0.0098
  C  C31  1  0.619300  0.440170  0.511700  1.0  0.2536
  C  C32  1  0.723500  0.489520  0.518500  1.0  0.1579
  C  C33  1  0.764900  0.514210  0.405100  1.0  -0.1638
  C  C34  1  0.863300  0.561680  0.427200  1.0  -0.1145
  C  C35  1  0.914400  0.581590  0.558800  1.0  -0.1111
  C  C36  1  0.869300  0.553180  0.665400  1.0  0.153
  C  C37  1  0.357800  0.330230  0.349700  1.0  0.7073
  C  C38  1  0.461700  0.338260  0.706800  1.0  0.6888
  C  C39  1  0.520900  0.478580  0.062000  1.0  0.5811
  C  C40  1  0.045200  0.479760  0.962500  1.0  0.5999
  C  C41  1  0.953000  0.349320  0.026300  1.0  0.611
  C  C42  1  0.936800  0.324200  0.880100  1.0  0.5596
  C  C43  1  0.544000  0.869280  0.051200  1.0  -0.0915
  C  C44  1  0.502000  0.870800  0.910600  1.0  -0.0084
  C  C45  1  0.380700  0.940170  0.988300  1.0  0.255
  C  C46  1  0.276500  0.989520  0.981500  1.0  0.1586
  C  C47  1  0.235100  0.014210  0.094900  1.0  -0.1631
  C  C48  1  0.136700  0.061680  0.072800  1.0  -0.1152
  C  C49  1  0.085600  0.081590  0.941200  1.0  -0.1117
  C  C50  1  0.130700  0.053180  0.834600  1.0  0.1521
  C  C51  1  0.642200  0.830230  0.150300  1.0  0.7082
  C  C52  1  0.538300  0.838260  0.793200  1.0  0.6877
  C  C53  1  0.479100  0.978580  0.438000  1.0  0.581
  C  C54  1  0.954800  0.979760  0.537500  1.0  0.5997
  C  C55  1  0.047000  0.849320  0.473700  1.0  0.6093
  C  C56  1  0.063200  0.824200  0.619900  1.0  0.563
  C  C57  1  0.544000  0.630720  0.551200  1.0  -0.0916
  C  C58  1  0.502000  0.629200  0.410600  1.0  -0.0064
  C  C59  1  0.380700  0.559830  0.488300  1.0  0.2553
  C  C60  1  0.276500  0.510480  0.481500  1.0  0.158
  C  C61  1  0.235100  0.485790  0.594900  1.0  -0.1625
  C  C62  1  0.136700  0.438320  0.572800  1.0  -0.1164
  C  C63  1  0.085600  0.418410  0.441200  1.0  -0.1136
  C  C64  1  0.130700  0.446820  0.334600  1.0  0.1523
  C  C65  1  0.642200  0.669770  0.650300  1.0  0.7093
  C  C66  1  0.538300  0.661740  0.293200  1.0  0.6886
  C  C67  1  0.479100  0.521420  0.938000  1.0  0.5805
  C  C68  1  0.954800  0.520240  0.037500  1.0  0.5995
  C  C69  1  0.047000  0.650680  0.973700  1.0  0.6099
  C  C70  1  0.063200  0.675800  0.119900  1.0  0.5624
  C  C71  1  0.456000  0.130720  0.948800  1.0  -0.0907
  C  C72  1  0.498000  0.129200  0.089400  1.0  -0.0083
  C  C73  1  0.619300  0.059830  0.011700  1.0  0.2539
  C  C74  1  0.723500  0.010480  0.018500  1.0  0.1574
  C  C75  1  0.764900  0.985790  0.905100  1.0  -0.164
  C  C76  1  0.863300  0.938320  0.927200  1.0  -0.1159
  C  C77  1  0.914400  0.918410  0.058800  1.0  -0.1143
  C  C78  1  0.869300  0.946820  0.165400  1.0  0.1533
  C  C79  1  0.357800  0.169770  0.849700  1.0  0.7098
  C  C80  1  0.461700  0.161740  0.206800  1.0  0.6884
  C  C81  1  0.520900  0.021420  0.562000  1.0  0.5805
  C  C82  1  0.045200  0.020240  0.462500  1.0  0.6005
  C  C83  1  0.953000  0.150680  0.526300  1.0  0.6117
  C  C84  1  0.936800  0.175800  0.380100  1.0  0.5606
  N  N85  1  0.598300  0.415200  0.625400  1.0  -0.3911
  N  N86  1  0.534100  0.413690  0.402500  1.0  -0.2521
  N  N87  1  0.776600  0.507430  0.648300  1.0  -0.4513
  N  N88  1  0.401700  0.915200  0.874600  1.0  -0.3927
  N  N89  1  0.465900  0.913690  0.097500  1.0  -0.2497
  N  N90  1  0.223400  0.007430  0.851700  1.0  -0.4553
  N  N91  1  0.401700  0.584800  0.374600  1.0  -0.3925
  N  N92  1  0.465900  0.586310  0.597500  1.0  -0.2492
  N  N93  1  0.223400  0.492570  0.351700  1.0  -0.4553
  N  N94  1  0.598300  0.084800  0.125400  1.0  -0.39
  N  N95  1  0.534100  0.086310  0.902500  1.0  -0.251
  N  N96  1  0.776600  0.992570  0.148300  1.0  -0.4525
  O  O97  1  0.067700  0.337810  0.109400  1.0  -0.6157
  O  O98  1  0.034300  0.288000  0.863500  1.0  -0.6153
  O  O99  1  0.830300  0.342480  0.791300  1.0  -0.6115
  O  O100  1  0.849000  0.380650  0.048800  1.0  -0.6269
  O  O101  1  0.524200  0.359850  0.823100  1.0  -0.7054
  O  O102  1  0.377600  0.294580  0.693700  1.0  -0.7248
  O  O103  1  0.277100  0.293130  0.391400  1.0  -0.7422
  O  O104  1  0.365100  0.337410  0.227300  1.0  -0.6496
  O  O105  1  0.601300  0.436100  0.050900  1.0  -0.5968
  O  O106  1  0.469500  0.491490  0.165700  1.0  -0.6151
  O  O107  1  0.976900  0.447870  0.868700  1.0  -0.6315
  O  O108  1  0.180800  0.481710  0.004700  1.0  -0.6483
  O  O109  1  0.932300  0.837810  0.390600  1.0  -0.6158
  O  O110  1  0.965700  0.788000  0.636500  1.0  -0.6132
  O  O111  1  0.169700  0.842480  0.708700  1.0  -0.6137
  O  O112  1  0.151000  0.880650  0.451200  1.0  -0.6283
  O  O113  1  0.475800  0.859850  0.676900  1.0  -0.7031
  O  O114  1  0.622400  0.794580  0.806300  1.0  -0.7237
  O  O115  1  0.722900  0.793130  0.108600  1.0  -0.7424
  O  O116  1  0.634900  0.837410  0.272700  1.0  -0.6519
  O  O117  1  0.398700  0.936100  0.449100  1.0  -0.5969
  O  O118  1  0.530500  0.991490  0.334300  1.0  -0.6144
  O  O119  1  0.023100  0.947870  0.631300  1.0  -0.6312
  O  O120  1  0.819200  0.981710  0.495300  1.0  -0.6481
  O  O121  1  0.932300  0.662190  0.890600  1.0  -0.6153
  O  O122  1  0.965700  0.712000  0.136500  1.0  -0.6125
  O  O123  1  0.169700  0.657520  0.208700  1.0  -0.6144
  O  O124  1  0.151000  0.619350  0.951200  1.0  -0.6265
  O  O125  1  0.475800  0.640150  0.176900  1.0  -0.7041
  O  O126  1  0.622400  0.705420  0.306300  1.0  -0.7238
  O  O127  1  0.722900  0.706870  0.608600  1.0  -0.739
  O  O128  1  0.634900  0.662590  0.772700  1.0  -0.6529
  O  O129  1  0.398700  0.563900  0.949100  1.0  -0.5955
  O  O130  1  0.530500  0.508510  0.834300  1.0  -0.6149
  O  O131  1  0.023100  0.552130  0.131300  1.0  -0.6315
  O  O132  1  0.819200  0.518290  0.995300  1.0  -0.6475
  O  O133  1  0.067700  0.162190  0.609400  1.0  -0.6168
  O  O134  1  0.034300  0.212000  0.363500  1.0  -0.6151
  O  O135  1  0.830300  0.157520  0.291300  1.0  -0.6116
  O  O136  1  0.849000  0.119350  0.548800  1.0  -0.6264
  O  O137  1  0.524200  0.140150  0.323100  1.0  -0.7057
  O  O138  1  0.377600  0.205420  0.193700  1.0  -0.7257
  O  O139  1  0.277100  0.206870  0.891400  1.0  -0.7387
  O  O140  1  0.365100  0.162590  0.727300  1.0  -0.6509
  O  O141  1  0.601300  0.063900  0.550900  1.0  -0.5959
  O  O142  1  0.469500  0.008510  0.665700  1.0  -0.6153
  O  O143  1  0.976900  0.052130  0.368700  1.0  -0.6302
  O  O144  1  0.180800  0.018290  0.504700  1.0  -0.6477
