# generated using pymatgen
data_Er2H5C14(NO4)3
_symmetry_space_group_name_H-M   'P 1'
_cell_length_a   9.40560000
_cell_length_b   22.31520000
_cell_length_c   10.08200000
_cell_angle_alpha   90.00000000
_cell_angle_beta   102.96000000
_cell_angle_gamma   90.00000000
_symmetry_Int_Tables_number   1
_chemical_formula_structural   Er2H5C14(NO4)3
_chemical_formula_sum   'Er8 H20 C56 N12 O48'
_cell_volume   2062.18584373
_cell_formula_units_Z   4
loop_
 _symmetry_equiv_pos_site_id
 _symmetry_equiv_pos_as_xyz
  1  'x, y, z'
loop_
 _atom_site_type_symbol
 _atom_site_label
 _atom_site_symmetry_multiplicity
 _atom_site_fract_x
 _atom_site_fract_y
 _atom_site_fract_z
 _atom_site_occupancy
 _atom_site_charge
  Er  Er1  1  0.247870  0.276130  0.052560  1.0  1.5696
  Er  Er2  1  0.717570  0.433950  0.863110  1.0  1.327
  Er  Er3  1  0.752130  0.776130  0.447440  1.0  1.5696
  Er  Er4  1  0.282430  0.933950  0.636890  1.0  1.3274
  Er  Er5  1  0.752130  0.723870  0.947440  1.0  1.5688
  Er  Er6  1  0.282430  0.566050  0.136890  1.0  1.3204
  Er  Er7  1  0.247870  0.223870  0.552560  1.0  1.5689
  Er  Er8  1  0.717570  0.066050  0.363110  1.0  1.3198
  H  H9  1  0.518670  0.422170  0.322730  1.0  0.3104
  H  H10  1  0.729120  0.496060  0.321480  1.0  0.1389
  H  H11  1  0.893760  0.577350  0.354970  1.0  0.145
  H  H12  1  0.979280  0.612380  0.576010  1.0  0.1469
  H  H13  1  0.910800  0.567470  0.752390  1.0  0.0958
  H  H14  1  0.481330  0.922170  0.177270  1.0  0.3093
  H  H15  1  0.270880  0.996060  0.178520  1.0  0.1385
  H  H16  1  0.106240  0.077350  0.145030  1.0  0.145
  H  H17  1  0.020720  0.112380  0.923990  1.0  0.1463
  H  H18  1  0.089200  0.067470  0.747610  1.0  0.0969
  H  H19  1  0.481330  0.577830  0.677270  1.0  0.3093
  H  H20  1  0.270880  0.503940  0.678520  1.0  0.1386
  H  H21  1  0.106240  0.422650  0.645030  1.0  0.1451
  H  H22  1  0.020720  0.387620  0.423990  1.0  0.146
  H  H23  1  0.089200  0.432530  0.247610  1.0  0.097
  H  H24  1  0.518670  0.077830  0.822730  1.0  0.3097
  H  H25  1  0.729120  0.003940  0.821480  1.0  0.1389
  H  H26  1  0.893760  0.922650  0.854970  1.0  0.145
  H  H27  1  0.979280  0.887620  0.076010  1.0  0.1465
  H  H28  1  0.910800  0.932530  0.252390  1.0  0.0961
  C  C29  1  0.453700  0.368200  0.453400  1.0  -0.0935
  C  C30  1  0.499100  0.370500  0.594400  1.0  0.0363
  C  C31  1  0.618700  0.440000  0.516100  1.0  0.2963
  C  C32  1  0.722800  0.489200  0.521100  1.0  0.2115
  C  C33  1  0.765100  0.512000  0.407700  1.0  -0.0737
  C  C34  1  0.863600  0.559800  0.427700  1.0  -0.1012
  C  C35  1  0.914900  0.580200  0.559600  1.0  -0.0952
  C  C36  1  0.871700  0.553500  0.664900  1.0  0.2101
  C  C37  1  0.355800  0.328800  0.354700  1.0  0.7581
  C  C38  1  0.463300  0.338500  0.710400  1.0  0.7556
  C  C39  1  0.520600  0.479300  0.063400  1.0  0.656
  C  C40  1  0.044400  0.479600  0.961300  1.0  0.652
  C  C41  1  0.951800  0.348200  0.031100  1.0  0.6573
  C  C42  1  0.933300  0.322900  0.885700  1.0  0.6059
  C  C43  1  0.546300  0.868200  0.046600  1.0  -0.093
  C  C44  1  0.500900  0.870500  0.905600  1.0  0.0381
  C  C45  1  0.381300  0.940000  0.983900  1.0  0.2972
  C  C46  1  0.277200  0.989200  0.978900  1.0  0.2113
  C  C47  1  0.234900  0.012000  0.092300  1.0  -0.074
  C  C48  1  0.136400  0.059800  0.072300  1.0  -0.1039
  C  C49  1  0.085100  0.080200  0.940400  1.0  -0.0971
  C  C50  1  0.128300  0.053500  0.835100  1.0  0.211
  C  C51  1  0.644200  0.828800  0.145300  1.0  0.7592
  C  C52  1  0.536700  0.838500  0.789600  1.0  0.7551
  C  C53  1  0.479400  0.979300  0.436600  1.0  0.6562
  C  C54  1  0.955600  0.979600  0.538700  1.0  0.652
  C  C55  1  0.048200  0.848200  0.468900  1.0  0.6566
  C  C56  1  0.066700  0.822900  0.614300  1.0  0.6083
  C  C57  1  0.546300  0.631800  0.546600  1.0  -0.0913
  C  C58  1  0.500900  0.629500  0.405600  1.0  0.041
  C  C59  1  0.381300  0.560000  0.483900  1.0  0.2972
  C  C60  1  0.277200  0.510800  0.478900  1.0  0.211
  C  C61  1  0.234900  0.488000  0.592300  1.0  -0.0736
  C  C62  1  0.136400  0.440200  0.572300  1.0  -0.1042
  C  C63  1  0.085100  0.419800  0.440400  1.0  -0.0978
  C  C64  1  0.128300  0.446500  0.335100  1.0  0.2114
  C  C65  1  0.644200  0.671200  0.645300  1.0  0.7603
  C  C66  1  0.536700  0.661500  0.289600  1.0  0.7561
  C  C67  1  0.479400  0.520700  0.936600  1.0  0.6561
  C  C68  1  0.955600  0.520400  0.038700  1.0  0.6518
  C  C69  1  0.048200  0.651800  0.968900  1.0  0.6571
  C  C70  1  0.066700  0.677100  0.114300  1.0  0.6065
  C  C71  1  0.453700  0.131800  0.953400  1.0  -0.0908
  C  C72  1  0.499100  0.129500  0.094400  1.0  0.0385
  C  C73  1  0.618700  0.060000  0.016100  1.0  0.2959
  C  C74  1  0.722800  0.010800  0.021100  1.0  0.2108
  C  C75  1  0.765100  0.988000  0.907700  1.0  -0.0736
  C  C76  1  0.863600  0.940200  0.927700  1.0  -0.1023
  C  C77  1  0.914900  0.919800  0.059600  1.0  -0.0967
  C  C78  1  0.871700  0.946500  0.164900  1.0  0.2107
  C  C79  1  0.355800  0.171200  0.854700  1.0  0.7611
  C  C80  1  0.463300  0.161500  0.210400  1.0  0.7557
  C  C81  1  0.520600  0.020700  0.563400  1.0  0.6558
  C  C82  1  0.044400  0.020400  0.461300  1.0  0.6529
  C  C83  1  0.951800  0.151800  0.531100  1.0  0.6575
  C  C84  1  0.933300  0.177100  0.385700  1.0  0.6066
  N  N85  1  0.599800  0.415160  0.629700  1.0  -0.3308
  N  N86  1  0.532900  0.412620  0.407200  1.0  -0.2347
  N  N87  1  0.776600  0.508500  0.650500  1.0  -0.405
  N  N88  1  0.400200  0.915160  0.870300  1.0  -0.3339
  N  N89  1  0.467100  0.912620  0.092800  1.0  -0.232
  N  N90  1  0.223400  0.008500  0.849500  1.0  -0.4065
  N  N91  1  0.400200  0.584840  0.370300  1.0  -0.3348
  N  N92  1  0.467100  0.587380  0.592800  1.0  -0.231
  N  N93  1  0.223400  0.491500  0.349500  1.0  -0.4061
  N  N94  1  0.599800  0.084840  0.129700  1.0  -0.3311
  N  N95  1  0.532900  0.087380  0.907200  1.0  -0.2338
  N  N96  1  0.776600  0.991500  0.150500  1.0  -0.4055
  O  O97  1  0.066400  0.336520  0.114300  1.0  -0.5672
  O  O98  1  0.029400  0.285740  0.870800  1.0  -0.5687
  O  O99  1  0.827300  0.341050  0.798400  1.0  -0.5504
  O  O100  1  0.849900  0.380930  0.052200  1.0  -0.5781
  O  O101  1  0.523300  0.360420  0.826800  1.0  -0.6618
  O  O102  1  0.601900  0.436300  0.053900  1.0  -0.5905
  O  O103  1  0.380100  0.294780  0.697700  1.0  -0.6724
  O  O104  1  0.273100  0.292580  0.396600  1.0  -0.7023
  O  O105  1  0.364600  0.334890  0.233600  1.0  -0.6124
  O  O106  1  0.468900  0.492160  0.163000  1.0  -0.5507
  O  O107  1  0.974300  0.446710  0.870800  1.0  -0.5849
  O  O108  1  0.180900  0.482360  0.001000  1.0  -0.5961
  O  O109  1  0.933600  0.836520  0.385700  1.0  -0.5673
  O  O110  1  0.970600  0.785740  0.629200  1.0  -0.5685
  O  O111  1  0.172700  0.841050  0.701600  1.0  -0.5534
  O  O112  1  0.150100  0.880930  0.447800  1.0  -0.5796
  O  O113  1  0.476700  0.860420  0.673200  1.0  -0.6593
  O  O114  1  0.398100  0.936300  0.446100  1.0  -0.5902
  O  O115  1  0.619900  0.794780  0.802300  1.0  -0.6733
  O  O116  1  0.726900  0.792580  0.103400  1.0  -0.7027
  O  O117  1  0.635400  0.834890  0.266400  1.0  -0.6147
  O  O118  1  0.531100  0.992160  0.337000  1.0  -0.5498
  O  O119  1  0.025700  0.946710  0.629200  1.0  -0.5846
  O  O120  1  0.819100  0.982360  0.499000  1.0  -0.5957
  O  O121  1  0.933600  0.663480  0.885700  1.0  -0.5664
  O  O122  1  0.970600  0.714260  0.129200  1.0  -0.5676
  O  O123  1  0.172700  0.658950  0.201600  1.0  -0.5554
  O  O124  1  0.150100  0.619070  0.947800  1.0  -0.5794
  O  O125  1  0.476700  0.639580  0.173200  1.0  -0.659
  O  O126  1  0.398100  0.563700  0.946100  1.0  -0.5897
  O  O127  1  0.619900  0.705220  0.302300  1.0  -0.6724
  O  O128  1  0.726900  0.707420  0.603400  1.0  -0.7032
  O  O129  1  0.635400  0.665110  0.766400  1.0  -0.6145
  O  O130  1  0.531100  0.507840  0.837000  1.0  -0.5497
  O  O131  1  0.025700  0.553290  0.129200  1.0  -0.5839
  O  O132  1  0.819100  0.517640  0.999000  1.0  -0.5954
  O  O133  1  0.066400  0.163480  0.614300  1.0  -0.5678
  O  O134  1  0.029400  0.214260  0.370800  1.0  -0.5686
  O  O135  1  0.827300  0.158950  0.298400  1.0  -0.5523
  O  O136  1  0.849900  0.119070  0.552200  1.0  -0.5783
  O  O137  1  0.523300  0.139580  0.326800  1.0  -0.6615
  O  O138  1  0.601900  0.063700  0.553900  1.0  -0.5905
  O  O139  1  0.380100  0.205220  0.197700  1.0  -0.6722
  O  O140  1  0.273100  0.207420  0.896600  1.0  -0.7032
  O  O141  1  0.364600  0.165110  0.733600  1.0  -0.6134
  O  O142  1  0.468900  0.007840  0.663000  1.0  -0.5504
  O  O143  1  0.974300  0.053290  0.370800  1.0  -0.5827
  O  O144  1  0.180900  0.017640  0.501000  1.0  -0.5956
