# generated using pymatgen
data_Eu2H5C14(NO4)3
_symmetry_space_group_name_H-M   'P 1'
_cell_length_a   9.57400000
_cell_length_b   22.54700000
_cell_length_c   10.12200000
_cell_angle_alpha   90.00000000
_cell_angle_beta   102.04000000
_cell_angle_gamma   90.00000000
_symmetry_Int_Tables_number   1
_chemical_formula_structural   Eu2H5C14(NO4)3
_chemical_formula_sum   'Eu8 H20 C56 N12 O48'
_cell_volume   2136.92046513
_cell_formula_units_Z   4
loop_
 _symmetry_equiv_pos_site_id
 _symmetry_equiv_pos_as_xyz
  1  'x, y, z'
loop_
 _atom_site_type_symbol
 _atom_site_label
 _atom_site_symmetry_multiplicity
 _atom_site_fract_x
 _atom_site_fract_y
 _atom_site_fract_z
 _atom_site_occupancy
 _atom_site_charge
  Eu  Eu1  1  0.749150  0.722160  0.956840  1.0  2.0813
  Eu  Eu2  1  0.281880  0.564990  0.143760  1.0  2.0441
  Eu  Eu3  1  0.250850  0.222160  0.543160  1.0  2.0812
  Eu  Eu4  1  0.718120  0.064990  0.356240  1.0  2.0432
  Eu  Eu5  1  0.250850  0.277840  0.043160  1.0  2.0812
  Eu  Eu6  1  0.718120  0.435010  0.856240  1.0  2.047
  Eu  Eu7  1  0.749150  0.777840  0.456840  1.0  2.0812
  Eu  Eu8  1  0.281880  0.935010  0.643760  1.0  2.0476
  H  H9  1  0.475540  0.571610  0.679750  1.0  0.2941
  H  H10  1  0.273150  0.502140  0.687720  1.0  0.1142
  H  H11  1  0.108110  0.421610  0.650420  1.0  0.1157
  H  H12  1  0.029830  0.385760  0.428610  1.0  0.1207
  H  H13  1  0.097000  0.433360  0.251540  1.0  0.0868
  H  H14  1  0.524460  0.071610  0.820250  1.0  0.2956
  H  H15  1  0.726850  0.002140  0.812280  1.0  0.1142
  H  H16  1  0.891890  0.921610  0.849580  1.0  0.1151
  H  H17  1  0.970170  0.885760  0.071390  1.0  0.1209
  H  H18  1  0.903000  0.933360  0.248460  1.0  0.0863
  H  H19  1  0.524460  0.428390  0.320250  1.0  0.2958
  H  H20  1  0.726850  0.497860  0.312280  1.0  0.1146
  H  H21  1  0.891890  0.578390  0.349580  1.0  0.1147
  H  H22  1  0.970170  0.614240  0.571390  1.0  0.1211
  H  H23  1  0.903000  0.566640  0.748460  1.0  0.0859
  H  H24  1  0.475540  0.928390  0.179750  1.0  0.294
  H  H25  1  0.273150  0.997860  0.187720  1.0  0.1142
  H  H26  1  0.108110  0.078390  0.150420  1.0  0.1153
  H  H27  1  0.029830  0.114240  0.928610  1.0  0.121
  H  H28  1  0.097000  0.066640  0.751540  1.0  0.0868
  C  C29  1  0.047800  0.650270  0.975000  1.0  0.5952
  C  C30  1  0.062700  0.675650  0.122000  1.0  0.5798
  C  C31  1  0.043800  0.479860  0.961800  1.0  0.6151
  C  C32  1  0.478600  0.521440  0.938700  1.0  0.5988
  C  C33  1  0.539500  0.660890  0.297600  1.0  0.7228
  C  C34  1  0.640800  0.669100  0.654100  1.0  0.71
  C  C35  1  0.502300  0.628990  0.414200  1.0  -0.0054
  C  C36  1  0.544000  0.631030  0.554200  1.0  -0.0718
  C  C37  1  0.382200  0.560070  0.492500  1.0  0.2746
  C  C38  1  0.278500  0.511140  0.487300  1.0  0.2046
  C  C39  1  0.237300  0.487100  0.599500  1.0  -0.1438
  C  C40  1  0.140300  0.439500  0.577200  1.0  -0.0997
  C  C41  1  0.092100  0.419000  0.445400  1.0  -0.1458
  C  C42  1  0.134600  0.446800  0.340900  1.0  0.1621
  C  C43  1  0.952200  0.150270  0.525000  1.0  0.5956
  C  C44  1  0.937300  0.175650  0.378000  1.0  0.5802
  C  C45  1  0.956200  0.979860  0.538200  1.0  0.6138
  C  C46  1  0.521400  0.021440  0.561300  1.0  0.5982
  C  C47  1  0.460500  0.160890  0.202400  1.0  0.7239
  C  C48  1  0.359200  0.169100  0.845900  1.0  0.7114
  C  C49  1  0.497700  0.128990  0.085800  1.0  -0.007
  C  C50  1  0.456000  0.131030  0.945800  1.0  -0.0723
  C  C51  1  0.617800  0.060070  0.007500  1.0  0.2736
  C  C52  1  0.721500  0.011140  0.012700  1.0  0.2042
  C  C53  1  0.762700  0.987100  0.900500  1.0  -0.1455
  C  C54  1  0.859700  0.939500  0.922800  1.0  -0.0986
  C  C55  1  0.907900  0.919000  0.054600  1.0  -0.1444
  C  C56  1  0.865400  0.946800  0.159100  1.0  0.1613
  C  C57  1  0.952200  0.349730  0.025000  1.0  0.5966
  C  C58  1  0.937300  0.324350  0.878000  1.0  0.581
  C  C59  1  0.956200  0.520140  0.038200  1.0  0.6136
  C  C60  1  0.521400  0.478560  0.061300  1.0  0.5991
  C  C61  1  0.460500  0.339110  0.702400  1.0  0.7251
  C  C62  1  0.359200  0.330900  0.345900  1.0  0.709
  C  C63  1  0.497700  0.371010  0.585800  1.0  -0.0066
  C  C64  1  0.456000  0.368970  0.445800  1.0  -0.0731
  C  C65  1  0.617800  0.439930  0.507500  1.0  0.2741
  C  C66  1  0.721500  0.488860  0.512700  1.0  0.2043
  C  C67  1  0.762700  0.512900  0.400500  1.0  -0.1456
  C  C68  1  0.859700  0.560500  0.422800  1.0  -0.098
  C  C69  1  0.907900  0.581000  0.554600  1.0  -0.1421
  C  C70  1  0.865400  0.553200  0.659100  1.0  0.1609
  C  C71  1  0.047800  0.849730  0.475000  1.0  0.5953
  C  C72  1  0.062700  0.824350  0.622000  1.0  0.5825
  C  C73  1  0.043800  0.020140  0.461800  1.0  0.6155
  C  C74  1  0.478600  0.978560  0.438700  1.0  0.6
  C  C75  1  0.539500  0.839110  0.797600  1.0  0.7228
  C  C76  1  0.640800  0.830900  0.154100  1.0  0.7097
  C  C77  1  0.502300  0.871010  0.914200  1.0  -0.0051
  C  C78  1  0.544000  0.868970  0.054200  1.0  -0.0726
  C  C79  1  0.382200  0.939930  0.992500  1.0  0.2751
  C  C80  1  0.278500  0.988860  0.987300  1.0  0.2048
  C  C81  1  0.237300  0.012900  0.099500  1.0  -0.1445
  C  C82  1  0.140300  0.060500  0.077200  1.0  -0.0998
  C  C83  1  0.092100  0.081000  0.945400  1.0  -0.1439
  C  C84  1  0.134600  0.053200  0.840900  1.0  0.1619
  N  N85  1  0.227200  0.492210  0.358200  1.0  -0.4331
  N  N86  1  0.401800  0.584920  0.378600  1.0  -0.3881
  N  N87  1  0.465400  0.586580  0.600300  1.0  -0.3071
  N  N88  1  0.772800  0.992210  0.141800  1.0  -0.4308
  N  N89  1  0.598200  0.084920  0.121400  1.0  -0.3865
  N  N90  1  0.534600  0.086580  0.899700  1.0  -0.3098
  N  N91  1  0.772800  0.507790  0.641800  1.0  -0.4286
  N  N92  1  0.598200  0.415080  0.621400  1.0  -0.3875
  N  N93  1  0.534600  0.413420  0.399700  1.0  -0.3109
  N  N94  1  0.227200  0.007790  0.858200  1.0  -0.4319
  N  N95  1  0.401800  0.915080  0.878600  1.0  -0.3881
  N  N96  1  0.465400  0.913420  0.100300  1.0  -0.3081
  O  O97  1  0.932500  0.660830  0.894500  1.0  -0.6041
  O  O98  1  0.965300  0.710580  0.139100  1.0  -0.6047
  O  O99  1  0.167900  0.657970  0.209500  1.0  -0.5975
  O  O100  1  0.151100  0.620780  0.952700  1.0  -0.6147
  O  O101  1  0.399500  0.563900  0.951200  1.0  -0.6077
  O  O102  1  0.529900  0.509610  0.835400  1.0  -0.5943
  O  O103  1  0.178300  0.480980  0.003700  1.0  -0.6289
  O  O104  1  0.975700  0.448980  0.867400  1.0  -0.6281
  O  O105  1  0.478200  0.639900  0.181900  1.0  -0.7205
  O  O106  1  0.623800  0.704000  0.311700  1.0  -0.7186
  O  O107  1  0.720500  0.706210  0.613900  1.0  -0.7449
  O  O108  1  0.632900  0.661180  0.775400  1.0  -0.6682
  O  O109  1  0.067500  0.160830  0.605500  1.0  -0.6056
  O  O110  1  0.034700  0.210580  0.360900  1.0  -0.6068
  O  O111  1  0.832100  0.157970  0.290500  1.0  -0.596
  O  O112  1  0.848900  0.120780  0.547300  1.0  -0.6139
  O  O113  1  0.600500  0.063900  0.548800  1.0  -0.6082
  O  O114  1  0.470100  0.009610  0.664600  1.0  -0.5946
  O  O115  1  0.821700  0.980980  0.496300  1.0  -0.6285
  O  O116  1  0.024300  0.948980  0.632600  1.0  -0.6285
  O  O117  1  0.521800  0.139900  0.318100  1.0  -0.7206
  O  O118  1  0.376200  0.204000  0.188300  1.0  -0.7174
  O  O119  1  0.279500  0.206210  0.886100  1.0  -0.7445
  O  O120  1  0.367100  0.161180  0.724600  1.0  -0.6662
  O  O121  1  0.067500  0.339170  0.105500  1.0  -0.6042
  O  O122  1  0.034700  0.289420  0.860900  1.0  -0.6076
  O  O123  1  0.832100  0.342030  0.790500  1.0  -0.597
  O  O124  1  0.848900  0.379220  0.047300  1.0  -0.6127
  O  O125  1  0.600500  0.436100  0.048800  1.0  -0.6083
  O  O126  1  0.470100  0.490390  0.164600  1.0  -0.5949
  O  O127  1  0.821700  0.519020  0.996300  1.0  -0.6285
  O  O128  1  0.024300  0.551020  0.132600  1.0  -0.629
  O  O129  1  0.521800  0.360100  0.818100  1.0  -0.7197
  O  O130  1  0.376200  0.296000  0.688300  1.0  -0.716
  O  O131  1  0.279500  0.293790  0.386100  1.0  -0.7413
  O  O132  1  0.367100  0.338820  0.224600  1.0  -0.6657
  O  O133  1  0.932500  0.839170  0.394500  1.0  -0.6045
  O  O134  1  0.965300  0.789420  0.639100  1.0  -0.6061
  O  O135  1  0.167900  0.842030  0.709500  1.0  -0.5974
  O  O136  1  0.151100  0.879220  0.452700  1.0  -0.6152
  O  O137  1  0.399500  0.936100  0.451200  1.0  -0.6078
  O  O138  1  0.529900  0.990390  0.335400  1.0  -0.594
  O  O139  1  0.178300  0.019020  0.503700  1.0  -0.629
  O  O140  1  0.975700  0.051020  0.367400  1.0  -0.6269
  O  O141  1  0.478200  0.860100  0.681900  1.0  -0.7194
  O  O142  1  0.623800  0.796000  0.811700  1.0  -0.7176
  O  O143  1  0.720500  0.793790  0.113900  1.0  -0.7409
  O  O144  1  0.632900  0.838820  0.275400  1.0  -0.6676
