# generated using pymatgen
data_Tb2H5C14(NO4)3
_symmetry_space_group_name_H-M   'P 1'
_cell_length_a   9.49160000
_cell_length_b   22.41310000
_cell_length_c   10.10840000
_cell_angle_alpha   90.00000000
_cell_angle_beta   102.50000000
_cell_angle_gamma   90.00000000
_symmetry_Int_Tables_number   1
_chemical_formula_structural   Tb2H5C14(NO4)3
_chemical_formula_sum   'Tb8 H20 C56 N12 O48'
_cell_volume   2099.44880421
_cell_formula_units_Z   4
loop_
 _symmetry_equiv_pos_site_id
 _symmetry_equiv_pos_as_xyz
  1  'x, y, z'
loop_
 _atom_site_type_symbol
 _atom_site_label
 _atom_site_symmetry_multiplicity
 _atom_site_fract_x
 _atom_site_fract_y
 _atom_site_fract_z
 _atom_site_occupancy
 _atom_site_charge
  Tb  Tb1  1  0.718400  0.434340  0.859950  1.0  2.1849
  Tb  Tb2  1  0.248690  0.276560  0.049490  1.0  2.1699
  Tb  Tb3  1  0.281600  0.934340  0.640050  1.0  2.1849
  Tb  Tb4  1  0.751310  0.776560  0.450510  1.0  2.1702
  Tb  Tb5  1  0.281600  0.565660  0.140050  1.0  2.1836
  Tb  Tb6  1  0.751310  0.723440  0.950510  1.0  2.1701
  Tb  Tb7  1  0.718400  0.065660  0.359950  1.0  2.1831
  Tb  Tb8  1  0.248690  0.223440  0.549490  1.0  2.1697
  H  H9  1  0.527230  0.422560  0.321180  1.0  0.2733
  H  H10  1  0.727470  0.497150  0.319080  1.0  0.0971
  H  H11  1  0.892270  0.576870  0.354010  1.0  0.0992
  H  H12  1  0.976020  0.611980  0.572680  1.0  0.1089
  H  H13  1  0.907320  0.566010  0.748950  1.0  0.0588
  H  H14  1  0.472770  0.922560  0.178820  1.0  0.2733
  H  H15  1  0.272530  0.997150  0.180920  1.0  0.0963
  H  H16  1  0.107730  0.076870  0.145990  1.0  0.0993
  H  H17  1  0.023980  0.111980  0.927320  1.0  0.1082
  H  H18  1  0.092680  0.066010  0.751050  1.0  0.0593
  H  H19  1  0.472770  0.577440  0.678820  1.0  0.273
  H  H20  1  0.272530  0.502850  0.680920  1.0  0.0961
  H  H21  1  0.107730  0.423130  0.645990  1.0  0.0994
  H  H22  1  0.023980  0.388020  0.427320  1.0  0.1081
  H  H23  1  0.092680  0.433990  0.251050  1.0  0.0592
  H  H24  1  0.527230  0.077440  0.821180  1.0  0.2725
  H  H25  1  0.727470  0.002850  0.819080  1.0  0.0969
  H  H26  1  0.892270  0.923130  0.854010  1.0  0.0992
  H  H27  1  0.976020  0.888020  0.072680  1.0  0.1088
  H  H28  1  0.907320  0.933990  0.248950  1.0  0.0589
  C  C29  1  0.455000  0.369060  0.450700  1.0  -0.1119
  C  C30  1  0.499000  0.371050  0.590100  1.0  -0.008
  C  C31  1  0.618400  0.439770  0.511900  1.0  0.2527
  C  C32  1  0.721500  0.488780  0.517400  1.0  0.1585
  C  C33  1  0.763500  0.512300  0.405500  1.0  -0.1305
  C  C34  1  0.861700  0.559500  0.426500  1.0  -0.0798
  C  C35  1  0.912500  0.579900  0.556500  1.0  -0.1292
  C  C36  1  0.869000  0.552500  0.661500  1.0  0.1644
  C  C37  1  0.357200  0.330210  0.352000  1.0  0.7206
  C  C38  1  0.462000  0.338720  0.706800  1.0  0.6975
  C  C39  1  0.520200  0.478950  0.061700  1.0  0.5918
  C  C40  1  0.044200  0.479990  0.962000  1.0  0.611
  C  C41  1  0.952600  0.348850  0.029200  1.0  0.6307
  C  C42  1  0.935100  0.323190  0.884400  1.0  0.5519
  C  C43  1  0.545000  0.869060  0.049300  1.0  -0.1113
  C  C44  1  0.501000  0.871050  0.909900  1.0  -0.0072
  C  C45  1  0.381600  0.939770  0.988100  1.0  0.2539
  C  C46  1  0.278500  0.988780  0.982600  1.0  0.1581
  C  C47  1  0.236500  0.012300  0.094500  1.0  -0.1307
  C  C48  1  0.138300  0.059500  0.073500  1.0  -0.0834
  C  C49  1  0.087500  0.079900  0.943500  1.0  -0.1307
  C  C50  1  0.131000  0.052500  0.838500  1.0  0.1643
  C  C51  1  0.642800  0.830210  0.148000  1.0  0.7222
  C  C52  1  0.538000  0.838720  0.793200  1.0  0.6966
  C  C53  1  0.479800  0.978950  0.438300  1.0  0.5922
  C  C54  1  0.955800  0.979990  0.538000  1.0  0.6113
  C  C55  1  0.047400  0.848850  0.470800  1.0  0.6296
  C  C56  1  0.064900  0.823190  0.615600  1.0  0.5543
  C  C57  1  0.545000  0.630940  0.549300  1.0  -0.1087
  C  C58  1  0.501000  0.628950  0.409900  1.0  -0.0066
  C  C59  1  0.381600  0.560230  0.488100  1.0  0.2533
  C  C60  1  0.278500  0.511220  0.482600  1.0  0.1581
  C  C61  1  0.236500  0.487700  0.594500  1.0  -0.1306
  C  C62  1  0.138300  0.440500  0.573500  1.0  -0.0848
  C  C63  1  0.087500  0.420100  0.443500  1.0  -0.1296
  C  C64  1  0.131000  0.447500  0.338500  1.0  0.1647
  C  C65  1  0.642800  0.669790  0.648000  1.0  0.7236
  C  C66  1  0.538000  0.661280  0.293200  1.0  0.697
  C  C67  1  0.479800  0.521050  0.938300  1.0  0.5915
  C  C68  1  0.955800  0.520010  0.038000  1.0  0.6109
  C  C69  1  0.047400  0.651150  0.970800  1.0  0.629
  C  C70  1  0.064900  0.676810  0.115600  1.0  0.5521
  C  C71  1  0.455000  0.130940  0.950700  1.0  -0.1092
  C  C72  1  0.499000  0.128950  0.090100  1.0  -0.0077
  C  C73  1  0.618400  0.060230  0.011900  1.0  0.2523
  C  C74  1  0.721500  0.011220  0.017400  1.0  0.1587
  C  C75  1  0.763500  0.987700  0.905500  1.0  -0.131
  C  C76  1  0.861700  0.940500  0.926500  1.0  -0.0819
  C  C77  1  0.912500  0.920100  0.056500  1.0  -0.1293
  C  C78  1  0.869000  0.947500  0.161500  1.0  0.1648
  C  C79  1  0.357200  0.169790  0.852000  1.0  0.7244
  C  C80  1  0.462000  0.161280  0.206800  1.0  0.6968
  C  C81  1  0.520200  0.021050  0.561700  1.0  0.5911
  C  C82  1  0.044200  0.020010  0.462000  1.0  0.6117
  C  C83  1  0.952600  0.151150  0.529200  1.0  0.6292
  C  C84  1  0.935100  0.176810  0.384400  1.0  0.5523
  N  N85  1  0.599500  0.415050  0.626100  1.0  -0.4404
  N  N86  1  0.532700  0.413330  0.404700  1.0  -0.2533
  N  N87  1  0.775000  0.507840  0.646100  1.0  -0.4406
  N  N88  1  0.400500  0.915050  0.873900  1.0  -0.4425
  N  N89  1  0.467300  0.913330  0.095300  1.0  -0.2527
  N  N90  1  0.225000  0.007840  0.853900  1.0  -0.4415
  N  N91  1  0.400500  0.584950  0.373900  1.0  -0.4432
  N  N92  1  0.467300  0.586670  0.595300  1.0  -0.2513
  N  N93  1  0.225000  0.492160  0.353900  1.0  -0.4422
  N  N94  1  0.599500  0.084950  0.126100  1.0  -0.4403
  N  N95  1  0.532700  0.086670  0.904700  1.0  -0.2521
  N  N96  1  0.775000  0.992160  0.146100  1.0  -0.4417
  O  O97  1  0.066400  0.337490  0.111300  1.0  -0.6049
  O  O98  1  0.031200  0.286880  0.868300  1.0  -0.6144
  O  O99  1  0.829500  0.341060  0.796600  1.0  -0.617
  O  O100  1  0.850700  0.380600  0.050400  1.0  -0.6258
  O  O101  1  0.523000  0.360480  0.821800  1.0  -0.728
  O  O102  1  0.379400  0.295520  0.693500  1.0  -0.7104
  O  O103  1  0.275600  0.294070  0.392800  1.0  -0.7254
  O  O104  1  0.366300  0.336680  0.231000  1.0  -0.6609
  O  O105  1  0.601700  0.436460  0.052100  1.0  -0.6204
  O  O106  1  0.469000  0.491370  0.163400  1.0  -0.5991
  O  O107  1  0.976000  0.448010  0.869700  1.0  -0.6311
  O  O108  1  0.178500  0.481890  0.002000  1.0  -0.6352
  O  O109  1  0.933600  0.837490  0.388700  1.0  -0.6043
  O  O110  1  0.968800  0.786880  0.631700  1.0  -0.6143
  O  O111  1  0.170500  0.841060  0.703400  1.0  -0.6182
  O  O112  1  0.149300  0.880600  0.449600  1.0  -0.6272
  O  O113  1  0.477000  0.860480  0.678200  1.0  -0.7261
  O  O114  1  0.620600  0.795520  0.806500  1.0  -0.7121
  O  O115  1  0.724400  0.794070  0.107200  1.0  -0.7254
  O  O116  1  0.633700  0.836680  0.269000  1.0  -0.6622
  O  O117  1  0.398300  0.936460  0.447900  1.0  -0.6202
  O  O118  1  0.531000  0.991370  0.336600  1.0  -0.5982
  O  O119  1  0.024000  0.948010  0.630300  1.0  -0.6318
  O  O120  1  0.821500  0.981890  0.498000  1.0  -0.6342
  O  O121  1  0.933600  0.662510  0.888700  1.0  -0.6043
  O  O122  1  0.968800  0.713120  0.131700  1.0  -0.6132
  O  O123  1  0.170500  0.658940  0.203400  1.0  -0.6217
  O  O124  1  0.149300  0.619400  0.949600  1.0  -0.6281
  O  O125  1  0.477000  0.639520  0.178200  1.0  -0.7278
  O  O126  1  0.620600  0.704480  0.306500  1.0  -0.7115
  O  O127  1  0.724400  0.705930  0.607200  1.0  -0.7232
  O  O128  1  0.633700  0.663320  0.769000  1.0  -0.6641
  O  O129  1  0.398300  0.563540  0.947900  1.0  -0.6201
  O  O130  1  0.531000  0.508630  0.836600  1.0  -0.5982
  O  O131  1  0.024000  0.551990  0.130300  1.0  -0.6318
  O  O132  1  0.821500  0.518110  0.998000  1.0  -0.6341
  O  O133  1  0.066400  0.162510  0.611300  1.0  -0.6064
  O  O134  1  0.031200  0.213120  0.368300  1.0  -0.6145
  O  O135  1  0.829500  0.158940  0.296600  1.0  -0.6187
  O  O136  1  0.850700  0.119400  0.550400  1.0  -0.6271
  O  O137  1  0.523000  0.139520  0.321800  1.0  -0.7295
  O  O138  1  0.379400  0.204480  0.193500  1.0  -0.7107
  O  O139  1  0.275600  0.205930  0.892800  1.0  -0.7231
  O  O140  1  0.366300  0.163320  0.731000  1.0  -0.6628
  O  O141  1  0.601700  0.063540  0.552100  1.0  -0.6206
  O  O142  1  0.469000  0.008630  0.663400  1.0  -0.5988
  O  O143  1  0.976000  0.051990  0.369700  1.0  -0.6297
  O  O144  1  0.178500  0.018110  0.502000  1.0  -0.6347
