# generated using pymatgen
data_NdC12(OF)6
_symmetry_space_group_name_H-M   'P 1'
_cell_length_a   10.20500000
_cell_length_b   21.21500000
_cell_length_c   7.86600000
_cell_angle_alpha   90.00000000
_cell_angle_beta   98.64200000
_cell_angle_gamma   90.00000000
_symmetry_Int_Tables_number   1
_chemical_formula_structural   NdC12(OF)6
_chemical_formula_sum   'Nd4 C48 O24 F24'
_cell_volume   1683.64692141
_cell_formula_units_Z   4
loop_
 _symmetry_equiv_pos_site_id
 _symmetry_equiv_pos_as_xyz
  1  'x, y, z'
loop_
 _atom_site_type_symbol
 _atom_site_label
 _atom_site_symmetry_multiplicity
 _atom_site_fract_x
 _atom_site_fract_y
 _atom_site_fract_z
 _atom_site_occupancy
 _atom_site_charge
  Nd  Nd1  1  0.509250  0.215270  0.004200  1.0  2.2799
  Nd  Nd2  1  0.490750  0.715270  0.495800  1.0  2.2797
  Nd  Nd3  1  0.490750  0.784730  0.995800  1.0  2.28
  Nd  Nd4  1  0.509250  0.284730  0.504200  1.0  2.28
  C  C5  1  0.500000  0.126900  0.634900  1.0  0.7176
  C  C6  1  0.499100  0.060800  0.569800  1.0  -0.154
  C  C7  1  0.615100  0.029900  0.556200  1.0  0.1687
  C  C8  1  0.383500  0.030200  0.507200  1.0  0.1945
  C  C9  1  0.089800  0.208300  0.720600  1.0  0.2089
  C  C10  1  0.135200  0.270500  0.713800  1.0  -0.1539
  C  C11  1  0.052000  0.317800  0.748600  1.0  0.2027
  C  C12  1  0.929300  0.304200  0.793000  1.0  0.2078
  C  C13  1  0.885000  0.243300  0.804900  1.0  -0.1549
  C  C14  1  0.969400  0.195000  0.766700  1.0  0.2232
  C  C15  1  0.751500  0.228000  0.857000  1.0  0.7133
  C  C16  1  0.268500  0.283700  0.659800  1.0  0.7228
  C  C17  1  0.500000  0.626900  0.865100  1.0  0.7172
  C  C18  1  0.500900  0.560800  0.930200  1.0  -0.1531
  C  C19  1  0.384900  0.529900  0.943800  1.0  0.1694
  C  C20  1  0.616500  0.530200  0.992800  1.0  0.1934
  C  C21  1  0.910200  0.708300  0.779400  1.0  0.2096
  C  C22  1  0.864800  0.770500  0.786200  1.0  -0.1542
  C  C23  1  0.948000  0.817800  0.751400  1.0  0.2022
  C  C24  1  0.070700  0.804200  0.707000  1.0  0.208
  C  C25  1  0.115000  0.743300  0.695100  1.0  -0.154
  C  C26  1  0.030600  0.695000  0.733300  1.0  0.2235
  C  C27  1  0.248500  0.728000  0.643000  1.0  0.7148
  C  C28  1  0.731500  0.783700  0.840200  1.0  0.7217
  C  C29  1  0.500000  0.873100  0.365100  1.0  0.7166
  C  C30  1  0.500900  0.939200  0.430200  1.0  -0.1538
  C  C31  1  0.384900  0.970100  0.443800  1.0  0.169
  C  C32  1  0.616500  0.969800  0.492800  1.0  0.1926
  C  C33  1  0.910200  0.791700  0.279400  1.0  0.2094
  C  C34  1  0.864800  0.729500  0.286200  1.0  -0.1552
  C  C35  1  0.948000  0.682200  0.251400  1.0  0.2008
  C  C36  1  0.070700  0.695800  0.207000  1.0  0.2091
  C  C37  1  0.115000  0.756700  0.195100  1.0  -0.1537
  C  C38  1  0.030600  0.805000  0.233300  1.0  0.224
  C  C39  1  0.248500  0.772000  0.143000  1.0  0.7146
  C  C40  1  0.731500  0.716300  0.340200  1.0  0.7225
  C  C41  1  0.500000  0.373100  0.134900  1.0  0.7169
  C  C42  1  0.499100  0.439200  0.069800  1.0  -0.1548
  C  C43  1  0.615100  0.470100  0.056200  1.0  0.168
  C  C44  1  0.383500  0.469800  0.007200  1.0  0.1938
  C  C45  1  0.089800  0.291700  0.220600  1.0  0.2086
  C  C46  1  0.135200  0.229500  0.213800  1.0  -0.1544
  C  C47  1  0.052000  0.182200  0.248600  1.0  0.2015
  C  C48  1  0.929300  0.195800  0.293000  1.0  0.2094
  C  C49  1  0.885000  0.256700  0.304900  1.0  -0.1545
  C  C50  1  0.969400  0.305000  0.266700  1.0  0.224
  C  C51  1  0.751500  0.272000  0.357000  1.0  0.7129
  C  C52  1  0.268500  0.216300  0.159800  1.0  0.7228
  O  O53  1  0.745300  0.189700  0.969400  1.0  -0.6116
  O  O54  1  0.650600  0.257700  0.783000  1.0  -0.8369
  O  O55  1  0.512800  0.169600  0.529700  1.0  -0.7074
  O  O56  1  0.488400  0.133300  0.791400  1.0  -0.7622
  O  O57  1  0.370300  0.259500  0.746600  1.0  -0.847
  O  O58  1  0.275500  0.315800  0.533900  1.0  -0.6073
  O  O59  1  0.254700  0.689700  0.530600  1.0  -0.6112
  O  O60  1  0.349400  0.757700  0.717000  1.0  -0.8377
  O  O61  1  0.487200  0.669600  0.970300  1.0  -0.7071
  O  O62  1  0.511600  0.633300  0.708600  1.0  -0.7566
  O  O63  1  0.629700  0.759500  0.753400  1.0  -0.8476
  O  O64  1  0.724500  0.815800  0.966100  1.0  -0.6078
  O  O65  1  0.254700  0.810300  0.030600  1.0  -0.6102
  O  O66  1  0.349400  0.742300  0.217000  1.0  -0.8368
  O  O67  1  0.487200  0.830400  0.470300  1.0  -0.7072
  O  O68  1  0.511600  0.866700  0.208600  1.0  -0.7581
  O  O69  1  0.629700  0.740500  0.253400  1.0  -0.848
  O  O70  1  0.724500  0.684200  0.466100  1.0  -0.6078
  O  O71  1  0.745300  0.310300  0.469400  1.0  -0.6125
  O  O72  1  0.650600  0.242300  0.283000  1.0  -0.8365
  O  O73  1  0.512800  0.330400  0.029700  1.0  -0.7068
  O  O74  1  0.488400  0.366700  0.291400  1.0  -0.7627
  O  O75  1  0.370300  0.240500  0.246600  1.0  -0.8471
  O  O76  1  0.275500  0.184200  0.033900  1.0  -0.6081
  F  F77  1  0.267800  0.058700  0.516400  1.0  -0.1349
  F  F78  1  0.730900  0.059000  0.612700  1.0  -0.1422
  F  F79  1  0.931200  0.135200  0.772500  1.0  -0.1276
  F  F80  1  0.164600  0.161100  0.676400  1.0  -0.1273
  F  F81  1  0.853900  0.352100  0.835900  1.0  -0.1276
  F  F82  1  0.089200  0.378100  0.742600  1.0  -0.1473
  F  F83  1  0.732200  0.558700  0.983600  1.0  -0.1357
  F  F84  1  0.269100  0.559000  0.887300  1.0  -0.1426
  F  F85  1  0.068800  0.635200  0.727500  1.0  -0.1285
  F  F86  1  0.835400  0.661100  0.823600  1.0  -0.1276
  F  F87  1  0.146100  0.852100  0.664100  1.0  -0.128
  F  F88  1  0.910800  0.878100  0.757400  1.0  -0.148
  F  F89  1  0.732200  0.941300  0.483600  1.0  -0.1342
  F  F90  1  0.269100  0.941000  0.387300  1.0  -0.141
  F  F91  1  0.068800  0.864800  0.227500  1.0  -0.1255
  F  F92  1  0.835400  0.838900  0.323600  1.0  -0.1289
  F  F93  1  0.146100  0.647900  0.164100  1.0  -0.1262
  F  F94  1  0.910800  0.621900  0.257400  1.0  -0.1473
  F  F95  1  0.267800  0.441300  0.016400  1.0  -0.1343
  F  F96  1  0.730900  0.441000  0.112700  1.0  -0.1415
  F  F97  1  0.931200  0.364800  0.272500  1.0  -0.1251
  F  F98  1  0.164600  0.338900  0.176400  1.0  -0.1283
  F  F99  1  0.853900  0.147900  0.335900  1.0  -0.1252
  F  F100  1  0.089200  0.121900  0.242600  1.0  -0.148
