# generated using pymatgen
data_PrC12(OF)6
_symmetry_space_group_name_H-M   'P 1'
_cell_length_a   10.21200000
_cell_length_b   21.28800000
_cell_length_c   7.90500000
_cell_angle_alpha   90.00000000
_cell_angle_beta   98.85100000
_cell_angle_gamma   90.00000000
_symmetry_Int_Tables_number   1
_chemical_formula_structural   PrC12(OF)6
_chemical_formula_sum   'Pr4 C48 O24 F24'
_cell_volume   1698.02798495
_cell_formula_units_Z   4
loop_
 _symmetry_equiv_pos_site_id
 _symmetry_equiv_pos_as_xyz
  1  'x, y, z'
loop_
 _atom_site_type_symbol
 _atom_site_label
 _atom_site_symmetry_multiplicity
 _atom_site_fract_x
 _atom_site_fract_y
 _atom_site_fract_z
 _atom_site_occupancy
 _atom_site_charge
  Pr  Pr1  1  0.010550  0.215050  0.004930  1.0  2.2015
  Pr  Pr2  1  0.989450  0.715050  0.495070  1.0  2.2014
  Pr  Pr3  1  0.989450  0.784950  0.995070  1.0  2.2018
  Pr  Pr4  1  0.010550  0.284950  0.504930  1.0  2.2018
  C  C5  1  0.769100  0.216700  0.161700  1.0  0.7092
  C  C6  1  0.252900  0.272000  0.357000  1.0  0.7099
  C  C7  1  0.636300  0.230100  0.211600  1.0  -0.1783
  C  C8  1  0.552000  0.182900  0.250300  1.0  0.2098
  C  C9  1  0.000300  0.060200  0.566700  1.0  -0.1999
  C  C10  1  0.387400  0.256600  0.306000  1.0  -0.1313
  C  C11  1  0.000700  0.127200  0.636400  1.0  0.6711
  C  C12  1  0.431000  0.196300  0.294800  1.0  0.2117
  C  C13  1  0.591100  0.292000  0.221600  1.0  0.2614
  C  C14  1  0.117500  0.029600  0.557800  1.0  0.2485
  C  C15  1  0.883100  0.029900  0.508400  1.0  0.2076
  C  C16  1  0.470600  0.303600  0.267600  1.0  0.1855
  C  C17  1  0.230900  0.716700  0.338300  1.0  0.7095
  C  C18  1  0.747100  0.772000  0.143000  1.0  0.7107
  C  C19  1  0.363700  0.730100  0.288400  1.0  -0.18
  C  C20  1  0.448000  0.682900  0.249700  1.0  0.2096
  C  C21  1  0.999700  0.560200  0.933300  1.0  -0.1998
  C  C22  1  0.612600  0.756600  0.194000  1.0  -0.1302
  C  C23  1  0.999300  0.627200  0.863600  1.0  0.6709
  C  C24  1  0.569000  0.696300  0.205200  1.0  0.212
  C  C25  1  0.408900  0.792000  0.278400  1.0  0.2627
  C  C26  1  0.882500  0.529600  0.942200  1.0  0.2492
  C  C27  1  0.116900  0.529900  0.991600  1.0  0.2067
  C  C28  1  0.529400  0.803600  0.232400  1.0  0.1858
  C  C29  1  0.230900  0.783300  0.838300  1.0  0.7089
  C  C30  1  0.747100  0.728000  0.643000  1.0  0.7107
  C  C31  1  0.363700  0.769900  0.788400  1.0  -0.1797
  C  C32  1  0.448000  0.817100  0.749700  1.0  0.2082
  C  C33  1  0.999700  0.939800  0.433300  1.0  -0.2
  C  C34  1  0.612600  0.743400  0.694000  1.0  -0.1302
  C  C35  1  0.999300  0.872800  0.363600  1.0  0.6703
  C  C36  1  0.569000  0.803700  0.705200  1.0  0.2129
  C  C37  1  0.408900  0.708000  0.778400  1.0  0.2614
  C  C38  1  0.882500  0.970400  0.442200  1.0  0.2452
  C  C39  1  0.116900  0.970100  0.491600  1.0  0.206
  C  C40  1  0.529400  0.696400  0.732400  1.0  0.1851
  C  C41  1  0.769100  0.283300  0.661700  1.0  0.7091
  C  C42  1  0.252900  0.228000  0.857000  1.0  0.7102
  C  C43  1  0.636300  0.269900  0.711600  1.0  -0.178
  C  C44  1  0.552000  0.317100  0.750300  1.0  0.2084
  C  C45  1  0.000300  0.439800  0.066700  1.0  -0.2001
  C  C46  1  0.387400  0.243400  0.806000  1.0  -0.1313
  C  C47  1  0.000700  0.372800  0.136400  1.0  0.6705
  C  C48  1  0.431000  0.303700  0.794800  1.0  0.2123
  C  C49  1  0.591100  0.208000  0.721600  1.0  0.2601
  C  C50  1  0.117500  0.470400  0.057800  1.0  0.244
  C  C51  1  0.883100  0.470100  0.008400  1.0  0.2072
  C  C52  1  0.470600  0.196400  0.767600  1.0  0.1844
  O  O53  1  0.870900  0.240500  0.248500  1.0  -0.8316
  O  O54  1  0.246400  0.310100  0.470300  1.0  -0.6062
  O  O55  1  0.775500  0.183800  0.033800  1.0  -0.622
  O  O56  1  0.152200  0.242000  0.282900  1.0  -0.8543
  O  O57  1  0.989800  0.132800  0.791100  1.0  -0.7267
  O  O58  1  0.014500  0.169800  0.530700  1.0  -0.7013
  O  O59  1  0.129100  0.740500  0.251500  1.0  -0.8328
  O  O60  1  0.753600  0.810100  0.029700  1.0  -0.6051
  O  O61  1  0.224500  0.683800  0.466200  1.0  -0.6207
  O  O62  1  0.847800  0.742000  0.217100  1.0  -0.8559
  O  O63  1  0.010200  0.632800  0.708900  1.0  -0.7255
  O  O64  1  0.985500  0.669800  0.969300  1.0  -0.7002
  O  O65  1  0.129100  0.759500  0.751500  1.0  -0.8324
  O  O66  1  0.753600  0.689900  0.529700  1.0  -0.6058
  O  O67  1  0.224500  0.816200  0.966200  1.0  -0.6217
  O  O68  1  0.847800  0.758000  0.717100  1.0  -0.8559
  O  O69  1  0.010200  0.867200  0.208900  1.0  -0.7301
  O  O70  1  0.985500  0.830200  0.469300  1.0  -0.7003
  O  O71  1  0.870900  0.259500  0.748500  1.0  -0.8315
  O  O72  1  0.246400  0.189900  0.970300  1.0  -0.6055
  O  O73  1  0.775500  0.316200  0.533800  1.0  -0.6215
  O  O74  1  0.152200  0.258000  0.782900  1.0  -0.854
  O  O75  1  0.989800  0.367200  0.291100  1.0  -0.731
  O  O76  1  0.014500  0.330200  0.030700  1.0  -0.7015
  F  F77  1  0.589400  0.122700  0.241600  1.0  -0.1301
  F  F78  1  0.666000  0.338800  0.177500  1.0  -0.1212
  F  F79  1  0.431900  0.364400  0.272500  1.0  -0.1323
  F  F80  1  0.356300  0.147800  0.337800  1.0  -0.1234
  F  F81  1  0.230200  0.059000  0.612300  1.0  -0.1266
  F  F82  1  0.769300  0.059200  0.515500  1.0  -0.1249
  F  F83  1  0.410600  0.622700  0.258400  1.0  -0.1292
  F  F84  1  0.334000  0.838800  0.322500  1.0  -0.1213
  F  F85  1  0.568100  0.864400  0.227500  1.0  -0.1327
  F  F86  1  0.643700  0.647800  0.162200  1.0  -0.1254
  F  F87  1  0.769800  0.559000  0.887700  1.0  -0.1275
  F  F88  1  0.230700  0.559200  0.984500  1.0  -0.1272
  F  F89  1  0.410600  0.877300  0.758400  1.0  -0.129
  F  F90  1  0.334000  0.661200  0.822500  1.0  -0.1184
  F  F91  1  0.568100  0.635600  0.727500  1.0  -0.1339
  F  F92  1  0.643700  0.852200  0.662200  1.0  -0.1276
  F  F93  1  0.769800  0.941000  0.387700  1.0  -0.1275
  F  F94  1  0.230700  0.940800  0.484500  1.0  -0.1256
  F  F95  1  0.589400  0.377300  0.741600  1.0  -0.1291
  F  F96  1  0.666000  0.161200  0.677500  1.0  -0.1187
  F  F97  1  0.431900  0.135600  0.772500  1.0  -0.1331
  F  F98  1  0.356300  0.352200  0.837800  1.0  -0.1267
  F  F99  1  0.230200  0.441000  0.112300  1.0  -0.1262
  F  F100  1  0.769300  0.440800  0.015500  1.0  -0.1235
