# generated using pymatgen
data_Gd2H5C14(NO4)3
_symmetry_space_group_name_H-M   'P 1'
_cell_length_a   9.52610000
_cell_length_b   22.47290000
_cell_length_c   10.12160000
_cell_angle_alpha   90.00000000
_cell_angle_beta   102.26300000
_cell_angle_gamma   90.00000000
_symmetry_Int_Tables_number   1
_chemical_formula_structural   Gd2H5C14(NO4)3
_chemical_formula_sum   'Gd8 H20 C56 N12 O48'
_cell_volume   2117.38241483
_cell_formula_units_Z   4
loop_
 _symmetry_equiv_pos_site_id
 _symmetry_equiv_pos_as_xyz
  1  'x, y, z'
loop_
 _atom_site_type_symbol
 _atom_site_label
 _atom_site_symmetry_multiplicity
 _atom_site_fract_x
 _atom_site_fract_y
 _atom_site_fract_z
 _atom_site_occupancy
 _atom_site_charge
  Gd  Gd1  1  0.718950  0.434540  0.858460  1.0  2.1177
  Gd  Gd2  1  0.249230  0.276790  0.048430  1.0  2.0694
  Gd  Gd3  1  0.281050  0.934540  0.641540  1.0  2.118
  Gd  Gd4  1  0.750770  0.776790  0.451570  1.0  2.0692
  Gd  Gd5  1  0.281050  0.565460  0.141540  1.0  2.1173
  Gd  Gd6  1  0.750770  0.723210  0.951570  1.0  2.0691
  Gd  Gd7  1  0.718950  0.065460  0.358460  1.0  2.1166
  Gd  Gd8  1  0.249230  0.223210  0.548430  1.0  2.0693
  H  H9  1  0.491620  0.410470  0.319940  1.0  0.3294
  H  H10  1  0.723760  0.498450  0.318510  1.0  0.1061
  H  H11  1  0.890430  0.577240  0.352410  1.0  0.1059
  H  H12  1  0.975650  0.611080  0.570930  1.0  0.1088
  H  H13  1  0.905590  0.566130  0.748000  1.0  0.0628
  H  H14  1  0.508380  0.910470  0.180060  1.0  0.3298
  H  H15  1  0.276240  0.998450  0.181490  1.0  0.1061
  H  H16  1  0.109570  0.077240  0.147590  1.0  0.1058
  H  H17  1  0.024350  0.111080  0.929070  1.0  0.1088
  H  H18  1  0.094410  0.066130  0.752000  1.0  0.0633
  H  H19  1  0.508380  0.589530  0.680060  1.0  0.3287
  H  H20  1  0.276240  0.501550  0.681490  1.0  0.1061
  H  H21  1  0.109570  0.422760  0.647590  1.0  0.106
  H  H22  1  0.024350  0.388920  0.429070  1.0  0.1084
  H  H23  1  0.094410  0.433870  0.252000  1.0  0.0634
  H  H24  1  0.491620  0.089530  0.819940  1.0  0.329
  H  H25  1  0.723760  0.001550  0.818510  1.0  0.106
  H  H26  1  0.890430  0.922760  0.852410  1.0  0.1059
  H  H27  1  0.975650  0.888920  0.070930  1.0  0.1087
  H  H28  1  0.905590  0.933870  0.248000  1.0  0.0629
  C  C29  1  0.455300  0.369230  0.449200  1.0  -0.0087
  C  C30  1  0.498800  0.370950  0.588400  1.0  0.0037
  C  C31  1  0.617400  0.439970  0.510900  1.0  0.2445
  C  C32  1  0.721900  0.488520  0.516900  1.0  0.1752
  C  C33  1  0.761600  0.512900  0.404800  1.0  -0.0743
  C  C34  1  0.860300  0.559800  0.424900  1.0  -0.0872
  C  C35  1  0.911400  0.579400  0.554900  1.0  -0.1505
  C  C36  1  0.868100  0.552400  0.661000  1.0  0.1581
  C  C37  1  0.358500  0.330580  0.350600  1.0  0.7109
  C  C38  1  0.462800  0.338650  0.705400  1.0  0.7033
  C  C39  1  0.519800  0.479090  0.061800  1.0  0.5441
  C  C40  1  0.044600  0.479440  0.962300  1.0  0.6209
  C  C41  1  0.952300  0.349390  0.027300  1.0  0.5999
  C  C42  1  0.935900  0.323590  0.883900  1.0  0.5573
  C  C43  1  0.544700  0.869230  0.050800  1.0  -0.0077
  C  C44  1  0.501200  0.870950  0.911600  1.0  0.005
  C  C45  1  0.382600  0.939970  0.989100  1.0  0.2445
  C  C46  1  0.278100  0.988520  0.983100  1.0  0.1753
  C  C47  1  0.238400  0.012900  0.095200  1.0  -0.0753
  C  C48  1  0.139700  0.059800  0.075100  1.0  -0.0917
  C  C49  1  0.088600  0.079400  0.945100  1.0  -0.1514
  C  C50  1  0.131900  0.052400  0.839000  1.0  0.1584
  C  C51  1  0.641500  0.830580  0.149400  1.0  0.7133
  C  C52  1  0.537200  0.838650  0.794600  1.0  0.7015
  C  C53  1  0.480200  0.979090  0.438200  1.0  0.5442
  C  C54  1  0.955400  0.979440  0.537700  1.0  0.6201
  C  C55  1  0.047700  0.849390  0.472700  1.0  0.5993
  C  C56  1  0.064100  0.823590  0.616100  1.0  0.5593
  C  C57  1  0.544700  0.630770  0.550800  1.0  -0.0112
  C  C58  1  0.501200  0.629050  0.411600  1.0  0.0057
  C  C59  1  0.382600  0.560030  0.489100  1.0  0.2456
  C  C60  1  0.278100  0.511480  0.483100  1.0  0.1752
  C  C61  1  0.238400  0.487100  0.595200  1.0  -0.0754
  C  C62  1  0.139700  0.440200  0.575100  1.0  -0.0929
  C  C63  1  0.088600  0.420600  0.445100  1.0  -0.1491
  C  C64  1  0.131900  0.447600  0.339000  1.0  0.1588
  C  C65  1  0.641500  0.669420  0.649400  1.0  0.7151
  C  C66  1  0.537200  0.661350  0.294600  1.0  0.7016
  C  C67  1  0.480200  0.520910  0.938200  1.0  0.5434
  C  C68  1  0.955400  0.520560  0.037700  1.0  0.6196
  C  C69  1  0.047700  0.650610  0.972700  1.0  0.5994
  C  C70  1  0.064100  0.676410  0.116100  1.0  0.5575
  C  C71  1  0.455300  0.130770  0.949200  1.0  -0.0111
  C  C72  1  0.498800  0.129050  0.088400  1.0  0.0046
  C  C73  1  0.617400  0.060030  0.010900  1.0  0.2451
  C  C74  1  0.721900  0.011480  0.016900  1.0  0.1749
  C  C75  1  0.761600  0.987100  0.904800  1.0  -0.0748
  C  C76  1  0.860300  0.940200  0.924900  1.0  -0.0894
  C  C77  1  0.911400  0.920600  0.054900  1.0  -0.1493
  C  C78  1  0.868100  0.947600  0.161000  1.0  0.1584
  C  C79  1  0.358500  0.169420  0.850600  1.0  0.7145
  C  C80  1  0.462800  0.161350  0.205400  1.0  0.7017
  C  C81  1  0.519800  0.020910  0.561800  1.0  0.5431
  C  C82  1  0.044600  0.020560  0.462300  1.0  0.621
  C  C83  1  0.952300  0.150610  0.527300  1.0  0.5992
  C  C84  1  0.935900  0.176410  0.383900  1.0  0.5575
  N  N85  1  0.599100  0.414800  0.623900  1.0  -0.3857
  N  N86  1  0.533400  0.413730  0.403900  1.0  -0.2757
  N  N87  1  0.774500  0.507300  0.645400  1.0  -0.4532
  N  N88  1  0.400900  0.914800  0.876100  1.0  -0.3887
  N  N89  1  0.466600  0.913730  0.096100  1.0  -0.2741
  N  N90  1  0.225500  0.007300  0.854600  1.0  -0.4572
  N  N91  1  0.400900  0.585200  0.376100  1.0  -0.3895
  N  N92  1  0.466600  0.586270  0.596100  1.0  -0.2717
  N  N93  1  0.225500  0.492700  0.354600  1.0  -0.4572
  N  N94  1  0.599100  0.085200  0.123900  1.0  -0.3863
  N  N95  1  0.533400  0.086270  0.903900  1.0  -0.2734
  N  N96  1  0.774500  0.992700  0.145400  1.0  -0.4546
  O  O97  1  0.065600  0.337870  0.110200  1.0  -0.62
  O  O98  1  0.031700  0.287400  0.867200  1.0  -0.6303
  O  O99  1  0.831300  0.341370  0.795700  1.0  -0.6093
  O  O100  1  0.849400  0.380330  0.049400  1.0  -0.629
  O  O101  1  0.522900  0.360230  0.819700  1.0  -0.7496
  O  O102  1  0.379700  0.295740  0.692000  1.0  -0.7072
  O  O103  1  0.277000  0.294240  0.391000  1.0  -0.7431
  O  O104  1  0.367500  0.337450  0.229800  1.0  -0.624
  O  O105  1  0.600900  0.436410  0.050500  1.0  -0.6198
  O  O106  1  0.468800  0.490880  0.163200  1.0  -0.5939
  O  O107  1  0.976800  0.448610  0.868800  1.0  -0.6232
  O  O108  1  0.178200  0.481160  0.003200  1.0  -0.6281
  O  O109  1  0.934400  0.837870  0.389800  1.0  -0.62
  O  O110  1  0.968300  0.787400  0.632800  1.0  -0.63
  O  O111  1  0.168700  0.841370  0.704300  1.0  -0.6102
  O  O112  1  0.150600  0.880330  0.450600  1.0  -0.6315
  O  O113  1  0.477100  0.860230  0.680300  1.0  -0.7482
  O  O114  1  0.620300  0.795740  0.808000  1.0  -0.7082
  O  O115  1  0.723000  0.794240  0.109000  1.0  -0.7433
  O  O116  1  0.632500  0.837450  0.270200  1.0  -0.6234
  O  O117  1  0.399100  0.936410  0.449500  1.0  -0.6197
  O  O118  1  0.531200  0.990880  0.336800  1.0  -0.5952
  O  O119  1  0.023200  0.948610  0.631200  1.0  -0.6245
  O  O120  1  0.821800  0.981160  0.496800  1.0  -0.627
  O  O121  1  0.934400  0.662130  0.889800  1.0  -0.6192
  O  O122  1  0.968300  0.712600  0.132800  1.0  -0.6289
  O  O123  1  0.168700  0.658630  0.204300  1.0  -0.6128
  O  O124  1  0.150600  0.619670  0.950600  1.0  -0.6307
  O  O125  1  0.477100  0.639770  0.180300  1.0  -0.7485
  O  O126  1  0.620300  0.704260  0.308000  1.0  -0.7081
  O  O127  1  0.723000  0.705760  0.609000  1.0  -0.7402
  O  O128  1  0.632500  0.662550  0.770200  1.0  -0.6235
  O  O129  1  0.399100  0.563590  0.949500  1.0  -0.6192
  O  O130  1  0.531200  0.509120  0.836800  1.0  -0.5955
  O  O131  1  0.023200  0.551390  0.131200  1.0  -0.6246
  O  O132  1  0.821800  0.518840  0.996800  1.0  -0.6269
  O  O133  1  0.065600  0.162130  0.610200  1.0  -0.6212
  O  O134  1  0.031700  0.212600  0.367200  1.0  -0.63
  O  O135  1  0.831300  0.158630  0.295700  1.0  -0.6098
  O  O136  1  0.849400  0.119670  0.549400  1.0  -0.6292
  O  O137  1  0.522900  0.139770  0.319700  1.0  -0.7498
  O  O138  1  0.379700  0.204260  0.192000  1.0  -0.7081
  O  O139  1  0.277000  0.205760  0.891000  1.0  -0.7396
  O  O140  1  0.367500  0.162550  0.729800  1.0  -0.6241
  O  O141  1  0.600900  0.063590  0.550500  1.0  -0.6196
  O  O142  1  0.468800  0.009120  0.663200  1.0  -0.5936
  O  O143  1  0.976800  0.051390  0.368800  1.0  -0.6225
  O  O144  1  0.178200  0.018840  0.503200  1.0  -0.6276
