# generated using pymatgen
data_CaH8C10(NO3)2
_symmetry_space_group_name_H-M   'P 1'
_cell_length_a   14.95960000
_cell_length_b   16.83740000
_cell_length_c   16.83740000
_cell_angle_alpha   98.91840000
_cell_angle_beta   94.39060000
_cell_angle_gamma   94.39060000
_symmetry_Int_Tables_number   1
_chemical_formula_structural   CaH8C10(NO3)2
_chemical_formula_sum   'Ca12 H96 C120 N24 O72'
_cell_volume   4160.58232516
_cell_formula_units_Z   12
loop_
 _symmetry_equiv_pos_site_id
 _symmetry_equiv_pos_as_xyz
  1  'x, y, z'
loop_
 _atom_site_type_symbol
 _atom_site_label
 _atom_site_symmetry_multiplicity
 _atom_site_fract_x
 _atom_site_fract_y
 _atom_site_fract_z
 _atom_site_occupancy
 _atom_site_charge
  Ca  Ca1  1  0.640610  0.896760  0.744800  1.0  1.6203
  Ca  Ca2  1  0.589860  0.652850  0.675410  1.0  1.5543
  Ca  Ca3  1  0.181940  0.372110  0.871170  1.0  1.6122
  Ca  Ca4  1  0.859390  0.255200  0.103240  1.0  1.6218
  Ca  Ca5  1  0.910140  0.324590  0.347150  1.0  1.5534
  Ca  Ca6  1  0.318060  0.128830  0.627890  1.0  1.6088
  Ca  Ca7  1  0.359390  0.103240  0.255200  1.0  1.6209
  Ca  Ca8  1  0.410140  0.347150  0.324590  1.0  1.5541
  Ca  Ca9  1  0.818060  0.627890  0.128830  1.0  1.6087
  Ca  Ca10  1  0.140610  0.744800  0.896760  1.0  1.621
  Ca  Ca11  1  0.089860  0.675410  0.652850  1.0  1.5543
  Ca  Ca12  1  0.681940  0.871170  0.372110  1.0  1.6112
  H  H13  1  0.523800  0.301900  0.731100  1.0  0.0998
  H  H14  1  0.722200  0.472200  0.716000  1.0  0.1106
  H  H15  1  0.765600  0.301500  0.853500  1.0  0.106
  H  H16  1  0.558400  0.122200  0.928400  1.0  0.1057
  H  H17  1  0.655100  0.120300  0.970300  1.0  0.1264
  H  H18  1  0.419400  0.495700  0.601500  1.0  0.1048
  H  H19  1  0.350400  0.421700  0.604500  1.0  0.1135
  H  H20  1  0.971700  0.551500  0.855900  1.0  0.0926
  H  H21  1  0.996600  0.557600  0.768400  1.0  0.1185
  H  H22  1  0.607700  0.655500  0.108100  1.0  0.0625
  H  H23  1  0.465900  0.455600  0.144200  1.0  0.0969
  H  H24  1  0.362600  0.595400  0.993400  1.0  0.1106
  H  H25  1  0.421800  0.794000  0.863400  1.0  0.1207
  H  H26  1  0.511800  0.821600  0.918200  1.0  0.1241
  H  H27  1  0.758400  0.487300  0.263500  1.0  0.1155
  H  H28  1  0.698800  0.422300  0.297700  1.0  0.1321
  H  H29  1  0.165700  0.391000  0.102200  1.0  0.087
  H  H30  1  0.222200  0.320900  0.067300  1.0  0.1098
  H  H31  1  0.667500  0.229200  0.927000  1.0  0.2646
  H  H32  1  0.499900  0.364800  0.592400  1.0  0.2851
  H  H33  1  0.855600  0.511800  0.761600  1.0  0.2842
  H  H34  1  0.424100  0.674600  0.913400  1.0  0.2693
  H  H35  1  0.590400  0.460500  0.239500  1.0  0.2806
  H  H36  1  0.293200  0.460900  0.155700  1.0  0.2463
  H  H37  1  0.976200  0.268900  0.698100  1.0  0.0995
  H  H38  1  0.777800  0.284000  0.527800  1.0  0.1101
  H  H39  1  0.734400  0.146500  0.698500  1.0  0.1054
  H  H40  1  0.941600  0.071600  0.877800  1.0  0.1045
  H  H41  1  0.844900  0.029700  0.879700  1.0  0.1204
  H  H42  1  0.080600  0.398500  0.504300  1.0  0.1036
  H  H43  1  0.149600  0.395500  0.578300  1.0  0.1128
  H  H44  1  0.528300  0.144100  0.448500  1.0  0.0873
  H  H45  1  0.503400  0.231600  0.442400  1.0  0.1213
  H  H46  1  0.892300  0.891900  0.344500  1.0  0.0628
  H  H47  1  0.034100  0.855800  0.544400  1.0  0.0972
  H  H48  1  0.137400  0.006600  0.404600  1.0  0.1103
  H  H49  1  0.078200  0.136600  0.206000  1.0  0.1183
  H  H50  1  0.988200  0.081800  0.178400  1.0  0.1244
  H  H51  1  0.741600  0.736500  0.512700  1.0  0.1151
  H  H52  1  0.801200  0.702300  0.577700  1.0  0.1342
  H  H53  1  0.334300  0.897800  0.609000  1.0  0.0926
  H  H54  1  0.277800  0.932700  0.679100  1.0  0.11
  H  H55  1  0.832500  0.073000  0.770800  1.0  0.2648
  H  H56  1  0.000100  0.407600  0.635200  1.0  0.2836
  H  H57  1  0.644400  0.238400  0.488200  1.0  0.2855
  H  H58  1  0.075900  0.086600  0.325400  1.0  0.2696
  H  H59  1  0.909600  0.760500  0.539500  1.0  0.2858
  H  H60  1  0.206800  0.844300  0.539100  1.0  0.2463
  H  H61  1  0.476200  0.698100  0.268900  1.0  0.1
  H  H62  1  0.277800  0.527800  0.284000  1.0  0.1102
  H  H63  1  0.234400  0.698500  0.146500  1.0  0.1057
  H  H64  1  0.441600  0.877800  0.071600  1.0  0.1052
  H  H65  1  0.344900  0.879700  0.029700  1.0  0.1235
  H  H66  1  0.580600  0.504300  0.398500  1.0  0.1047
  H  H67  1  0.649600  0.578300  0.395500  1.0  0.1138
  H  H68  1  0.028300  0.448500  0.144100  1.0  0.0933
  H  H69  1  0.003400  0.442400  0.231600  1.0  0.1189
  H  H70  1  0.392300  0.344500  0.891900  1.0  0.0625
  H  H71  1  0.534100  0.544400  0.855800  1.0  0.0968
  H  H72  1  0.637400  0.404600  0.006600  1.0  0.1106
  H  H73  1  0.578200  0.206000  0.136600  1.0  0.1206
  H  H74  1  0.488200  0.178400  0.081800  1.0  0.1236
  H  H75  1  0.241600  0.512700  0.736500  1.0  0.1158
  H  H76  1  0.301200  0.577700  0.702300  1.0  0.132
  H  H77  1  0.834300  0.609000  0.897800  1.0  0.0891
  H  H78  1  0.777800  0.679100  0.932700  1.0  0.1096
  H  H79  1  0.332500  0.770800  0.073000  1.0  0.2645
  H  H80  1  0.500100  0.635200  0.407600  1.0  0.2829
  H  H81  1  0.144400  0.488200  0.238400  1.0  0.2844
  H  H82  1  0.575900  0.325400  0.086600  1.0  0.2696
  H  H83  1  0.409600  0.539500  0.760500  1.0  0.2852
  H  H84  1  0.706800  0.539100  0.844300  1.0  0.2454
  H  H85  1  0.023800  0.731100  0.301900  1.0  0.0991
  H  H86  1  0.222200  0.716000  0.472200  1.0  0.1099
  H  H87  1  0.265600  0.853500  0.301500  1.0  0.1054
  H  H88  1  0.058400  0.928400  0.122200  1.0  0.1042
  H  H89  1  0.155100  0.970300  0.120300  1.0  0.1218
  H  H90  1  0.919400  0.601500  0.495700  1.0  0.1037
  H  H91  1  0.850400  0.604500  0.421700  1.0  0.1142
  H  H92  1  0.471700  0.855900  0.551500  1.0  0.0876
  H  H93  1  0.496600  0.768400  0.557600  1.0  0.1199
  H  H94  1  0.107700  0.108100  0.655500  1.0  0.063
  H  H95  1  0.965900  0.144200  0.455600  1.0  0.0964
  H  H96  1  0.862600  0.993400  0.595400  1.0  0.1105
  H  H97  1  0.921800  0.863400  0.794000  1.0  0.1203
  H  H98  1  0.011800  0.918200  0.821600  1.0  0.1255
  H  H99  1  0.258400  0.263500  0.487300  1.0  0.1144
  H  H100  1  0.198800  0.297700  0.422300  1.0  0.1339
  H  H101  1  0.665700  0.102200  0.391000  1.0  0.0893
  H  H102  1  0.722200  0.067300  0.320900  1.0  0.1087
  H  H103  1  0.167500  0.927000  0.229200  1.0  0.2656
  H  H104  1  0.999900  0.592400  0.364800  1.0  0.2845
  H  H105  1  0.355600  0.761600  0.511800  1.0  0.2864
  H  H106  1  0.924100  0.913400  0.674600  1.0  0.27
  H  H107  1  0.090400  0.239500  0.460500  1.0  0.2814
  H  H108  1  0.793200  0.155700  0.460900  1.0  0.2458
  C  C109  1  0.639020  0.289880  0.798000  1.0  -0.1572
  C  C110  1  0.582140  0.325200  0.746380  1.0  0.0141
  C  C111  1  0.611820  0.394600  0.717680  1.0  -0.1416
  C  C112  1  0.701250  0.426800  0.736520  1.0  -0.0353
  C  C113  1  0.758790  0.390700  0.786100  1.0  -0.1614
  C  C114  1  0.727510  0.323760  0.818320  1.0  -0.0022
  C  C115  1  0.599820  0.219410  0.831850  1.0  0.5608
  C  C116  1  0.621200  0.119170  0.918690  1.0  -0.1195
  C  C117  1  0.630900  0.039640  0.865300  1.0  0.7148
  C  C118  1  0.548680  0.441720  0.674300  1.0  0.6053
  C  C119  1  0.408500  0.437570  0.587030  1.0  -0.1039
  C  C120  1  0.404800  0.415210  0.495430  1.0  0.6885
  C  C121  1  0.853950  0.425430  0.814370  1.0  0.5415
  C  C122  1  0.979900  0.520030  0.804150  1.0  -0.1065
  C  C123  1  0.056200  0.468760  0.815280  1.0  0.7037
  C  C124  1  0.488530  0.635560  0.042560  1.0  -0.1548
  C  C125  1  0.556180  0.619730  0.096610  1.0  0.0366
  C  C126  1  0.550070  0.552880  0.134140  1.0  -0.2048
  C  C127  1  0.471200  0.501180  0.119480  1.0  0.0198
  C  C128  1  0.400580  0.517800  0.068060  1.0  -0.1525
  C  C129  1  0.409480  0.584820  0.028760  1.0  0.0078
  C  C130  1  0.509730  0.703650  0.997590  1.0  0.5484
  C  C131  1  0.475200  0.775010  0.888030  1.0  -0.1415
  C  C132  1  0.527590  0.734750  0.822510  1.0  0.7564
  C  C133  1  0.632960  0.535470  0.182710  1.0  0.6182
  C  C134  1  0.714990  0.440490  0.248450  1.0  -0.1493
  C  C135  1  0.759170  0.373910  0.198390  1.0  0.7474
  C  C136  1  0.315170  0.461210  0.052670  1.0  0.6166
  C  C137  1  0.220400  0.365080  0.111460  1.0  -0.1535
  C  C138  1  0.218920  0.332060  0.189800  1.0  0.7172
  C  C139  1  0.860980  0.202000  0.710120  1.0  -0.1565
  C  C140  1  0.917860  0.253620  0.674800  1.0  0.0137
  C  C141  1  0.888180  0.282320  0.605400  1.0  -0.1404
  C  C142  1  0.798750  0.263480  0.573200  1.0  -0.0373
  C  C143  1  0.741210  0.213900  0.609300  1.0  -0.1606
  C  C144  1  0.772490  0.181680  0.676240  1.0  -0.0012
  C  C145  1  0.900180  0.168150  0.780590  1.0  0.562
  C  C146  1  0.878800  0.081310  0.880830  1.0  -0.1255
  C  C147  1  0.869100  0.134700  0.960360  1.0  0.7208
  C  C148  1  0.951320  0.325700  0.558280  1.0  0.604
  C  C149  1  0.091500  0.412970  0.562430  1.0  -0.1046
  C  C150  1  0.095200  0.504570  0.584790  1.0  0.6838
  C  C151  1  0.646050  0.185630  0.574570  1.0  0.5372
  C  C152  1  0.520100  0.195850  0.479970  1.0  -0.1066
  C  C153  1  0.443800  0.184720  0.531240  1.0  0.7024
  C  C154  1  0.011470  0.957440  0.364440  1.0  -0.1531
  C  C155  1  0.943820  0.903390  0.380270  1.0  0.0377
  C  C156  1  0.949930  0.865860  0.447120  1.0  -0.2031
  C  C157  1  0.028800  0.880520  0.498820  1.0  0.0183
  C  C158  1  0.099420  0.931940  0.482200  1.0  -0.1524
  C  C159  1  0.090520  0.971240  0.415180  1.0  0.0058
  C  C160  1  0.990270  0.002410  0.296350  1.0  0.5479
  C  C161  1  0.024800  0.111970  0.224990  1.0  -0.1417
  C  C162  1  0.972410  0.177490  0.265250  1.0  0.7543
  C  C163  1  0.867040  0.817290  0.464530  1.0  0.6222
  C  C164  1  0.785010  0.751550  0.559510  1.0  -0.1523
  C  C165  1  0.740830  0.801610  0.626090  1.0  0.7505
  C  C166  1  0.184830  0.947330  0.538790  1.0  0.6152
  C  C167  1  0.279600  0.888540  0.634920  1.0  -0.1549
  C  C168  1  0.281080  0.810200  0.667940  1.0  0.7194
  C  C169  1  0.360980  0.710120  0.202000  1.0  -0.1572
  C  C170  1  0.417860  0.674800  0.253620  1.0  0.0141
  C  C171  1  0.388180  0.605400  0.282320  1.0  -0.1415
  C  C172  1  0.298750  0.573200  0.263480  1.0  -0.034
  C  C173  1  0.241210  0.609300  0.213900  1.0  -0.1608
  C  C174  1  0.272490  0.676240  0.181680  1.0  -0.003
  C  C175  1  0.400180  0.780590  0.168150  1.0  0.5645
  C  C176  1  0.378800  0.880830  0.081310  1.0  -0.1226
  C  C177  1  0.369100  0.960360  0.134700  1.0  0.714
  C  C178  1  0.451320  0.558280  0.325700  1.0  0.6045
  C  C179  1  0.591500  0.562430  0.412970  1.0  -0.1033
  C  C180  1  0.595200  0.584790  0.504570  1.0  0.6893
  C  C181  1  0.146050  0.574570  0.185630  1.0  0.5376
  C  C182  1  0.020100  0.479970  0.195850  1.0  -0.1048
  C  C183  1  0.943800  0.531240  0.184720  1.0  0.7027
  C  C184  1  0.511470  0.364440  0.957440  1.0  -0.1543
  C  C185  1  0.443820  0.380270  0.903390  1.0  0.0381
  C  C186  1  0.449930  0.447120  0.865860  1.0  -0.2045
  C  C187  1  0.528800  0.498820  0.880520  1.0  0.0182
  C  C188  1  0.599420  0.482200  0.931940  1.0  -0.1529
  C  C189  1  0.590520  0.415180  0.971240  1.0  0.007
  C  C190  1  0.490270  0.296350  0.002410  1.0  0.5491
  C  C191  1  0.524800  0.224990  0.111970  1.0  -0.1311
  C  C192  1  0.472410  0.265250  0.177490  1.0  0.7516
  C  C193  1  0.367040  0.464530  0.817290  1.0  0.6195
  C  C194  1  0.285010  0.559510  0.751550  1.0  -0.1502
  C  C195  1  0.240830  0.626090  0.801610  1.0  0.7482
  C  C196  1  0.684830  0.538790  0.947330  1.0  0.6189
  C  C197  1  0.779600  0.634920  0.888540  1.0  -0.1542
  C  C198  1  0.781080  0.667940  0.810200  1.0  0.7274
  C  C199  1  0.139020  0.798000  0.289880  1.0  -0.1572
  C  C200  1  0.082140  0.746380  0.325200  1.0  0.0135
  C  C201  1  0.111820  0.717680  0.394600  1.0  -0.1408
  C  C202  1  0.201250  0.736520  0.426800  1.0  -0.0375
  C  C203  1  0.258790  0.786100  0.390700  1.0  -0.1615
  C  C204  1  0.227510  0.818320  0.323760  1.0  -0.0024
  C  C205  1  0.099820  0.831850  0.219410  1.0  0.5614
  C  C206  1  0.121200  0.918690  0.119170  1.0  -0.1285
  C  C207  1  0.130900  0.865300  0.039640  1.0  0.72
  C  C208  1  0.048680  0.674300  0.441720  1.0  0.6056
  C  C209  1  0.908500  0.587030  0.437570  1.0  -0.1032
  C  C210  1  0.904800  0.495430  0.415210  1.0  0.682
  C  C211  1  0.353950  0.814370  0.425430  1.0  0.5392
  C  C212  1  0.479900  0.804150  0.520030  1.0  -0.1074
  C  C213  1  0.556200  0.815280  0.468760  1.0  0.704
  C  C214  1  0.988530  0.042560  0.635560  1.0  -0.1537
  C  C215  1  0.056180  0.096610  0.619730  1.0  0.0382
  C  C216  1  0.050070  0.134140  0.552880  1.0  -0.2036
  C  C217  1  0.971200  0.119480  0.501180  1.0  0.0177
  C  C218  1  0.900580  0.068060  0.517800  1.0  -0.153
  C  C219  1  0.909480  0.028760  0.584820  1.0  0.0088
  C  C220  1  0.009730  0.997590  0.703650  1.0  0.5496
  C  C221  1  0.975200  0.888030  0.775010  1.0  -0.1327
  C  C222  1  0.027590  0.822510  0.734750  1.0  0.7532
  C  C223  1  0.132960  0.182710  0.535470  1.0  0.6241
  C  C224  1  0.214990  0.248450  0.440490  1.0  -0.1501
  C  C225  1  0.259170  0.198390  0.373910  1.0  0.7503
  C  C226  1  0.815170  0.052670  0.461210  1.0  0.6146
  C  C227  1  0.720400  0.111460  0.365080  1.0  -0.156
  C  C228  1  0.718920  0.189800  0.332060  1.0  0.7295
  N  N229  1  0.651820  0.189210  0.885010  1.0  -0.3923
  N  N230  1  0.477500  0.400140  0.629860  1.0  -0.4317
  N  N231  1  0.894390  0.475490  0.771390  1.0  -0.42
  N  N232  1  0.448330  0.721350  0.943310  1.0  -0.4225
  N  N233  1  0.635070  0.464370  0.207010  1.0  -0.3874
  N  N234  1  0.297130  0.422410  0.112870  1.0  -0.3661
  N  N235  1  0.848180  0.114990  0.810790  1.0  -0.391
  N  N236  1  0.022500  0.370140  0.599860  1.0  -0.4283
  N  N237  1  0.605610  0.228610  0.524510  1.0  -0.4219
  N  N238  1  0.051670  0.056690  0.278650  1.0  -0.423
  N  N239  1  0.864930  0.792990  0.535630  1.0  -0.3834
  N  N240  1  0.202870  0.887130  0.577590  1.0  -0.3672
  N  N241  1  0.348180  0.810790  0.114990  1.0  -0.3923
  N  N242  1  0.522500  0.599860  0.370140  1.0  -0.432
  N  N243  1  0.105610  0.524510  0.228610  1.0  -0.4208
  N  N244  1  0.551670  0.278650  0.056690  1.0  -0.4197
  N  N245  1  0.364930  0.535630  0.792990  1.0  -0.3863
  N  N246  1  0.702870  0.577590  0.887130  1.0  -0.3659
  N  N247  1  0.151820  0.885010  0.189210  1.0  -0.3908
  N  N248  1  0.977500  0.629860  0.400140  1.0  -0.4303
  N  N249  1  0.394390  0.771390  0.475490  1.0  -0.42
  N  N250  1  0.948330  0.943310  0.721350  1.0  -0.4237
  N  N251  1  0.135070  0.207010  0.464370  1.0  -0.3841
  N  N252  1  0.797130  0.112870  0.422410  1.0  -0.368
  O  O253  1  0.520320  0.191880  0.811800  1.0  -0.5633
  O  O254  1  0.670470  0.039370  0.801910  1.0  -0.7273
  O  O255  1  0.598900  0.977010  0.886510  1.0  -0.6887
  O  O256  1  0.560300  0.515780  0.685780  1.0  -0.6303
  O  O257  1  0.340440  0.434850  0.454730  1.0  -0.6451
  O  O258  1  0.466200  0.378350  0.466130  1.0  -0.6973
  O  O259  1  0.891570  0.408350  0.876670  1.0  -0.5209
  O  O260  1  0.060740  0.403660  0.769960  1.0  -0.6752
  O  O261  1  0.116080  0.494890  0.871730  1.0  -0.7184
  O  O262  1  0.585210  0.741650  0.008710  1.0  -0.5336
  O  O263  1  0.526370  0.659420  0.809340  1.0  -0.6527
  O  O264  1  0.568370  0.778930  0.780290  1.0  -0.8331
  O  O265  1  0.698250  0.588010  0.197850  1.0  -0.6645
  O  O266  1  0.835120  0.357280  0.227540  1.0  -0.7978
  O  O267  1  0.722340  0.338390  0.132870  1.0  -0.6525
  O  O268  1  0.268660  0.451390  0.988210  1.0  -0.6598
  O  O269  1  0.275540  0.361330  0.246650  1.0  -0.7266
  O  O270  1  0.156960  0.277380  0.191880  1.0  -0.668
  O  O271  1  0.979680  0.188200  0.808120  1.0  -0.562
  O  O272  1  0.829530  0.198090  0.960630  1.0  -0.7274
  O  O273  1  0.901100  0.113490  0.022990  1.0  -0.6933
  O  O274  1  0.939700  0.314220  0.484220  1.0  -0.6301
  O  O275  1  0.159560  0.545270  0.565150  1.0  -0.6431
  O  O276  1  0.033800  0.533870  0.621650  1.0  -0.699
  O  O277  1  0.608430  0.123330  0.591650  1.0  -0.5178
  O  O278  1  0.439260  0.230040  0.596340  1.0  -0.6782
  O  O279  1  0.383920  0.128270  0.505110  1.0  -0.7162
  O  O280  1  0.914790  0.991290  0.258350  1.0  -0.5346
  O  O281  1  0.973630  0.190660  0.340580  1.0  -0.6477
  O  O282  1  0.931630  0.219710  0.221070  1.0  -0.8338
  O  O283  1  0.801750  0.802150  0.411990  1.0  -0.6686
  O  O284  1  0.664880  0.772460  0.642720  1.0  -0.7955
  O  O285  1  0.777660  0.867130  0.661610  1.0  -0.6532
  O  O286  1  0.231340  0.011790  0.548610  1.0  -0.6572
  O  O287  1  0.224460  0.753350  0.638670  1.0  -0.7245
  O  O288  1  0.343040  0.808120  0.722620  1.0  -0.6723
  O  O289  1  0.479680  0.808120  0.188200  1.0  -0.5616
  O  O290  1  0.329530  0.960630  0.198090  1.0  -0.726
  O  O291  1  0.401100  0.022990  0.113490  1.0  -0.6871
  O  O292  1  0.439700  0.484220  0.314220  1.0  -0.6307
  O  O293  1  0.659560  0.565150  0.545270  1.0  -0.6455
  O  O294  1  0.533800  0.621650  0.533870  1.0  -0.6982
  O  O295  1  0.108430  0.591650  0.123330  1.0  -0.5201
  O  O296  1  0.939260  0.596340  0.230040  1.0  -0.6742
  O  O297  1  0.883920  0.505110  0.128270  1.0  -0.7164
  O  O298  1  0.414790  0.258350  0.991290  1.0  -0.5345
  O  O299  1  0.473630  0.340580  0.190660  1.0  -0.6537
  O  O300  1  0.431630  0.221070  0.219710  1.0  -0.8324
  O  O301  1  0.301750  0.411990  0.802150  1.0  -0.6614
  O  O302  1  0.164880  0.642720  0.772460  1.0  -0.7964
  O  O303  1  0.277660  0.661610  0.867130  1.0  -0.6527
  O  O304  1  0.731340  0.548610  0.011790  1.0  -0.6583
  O  O305  1  0.724460  0.638670  0.753350  1.0  -0.7246
  O  O306  1  0.843040  0.722620  0.808120  1.0  -0.67
  O  O307  1  0.020320  0.811800  0.191880  1.0  -0.5648
  O  O308  1  0.170470  0.801910  0.039370  1.0  -0.7297
  O  O309  1  0.098900  0.886510  0.977010  1.0  -0.6889
  O  O310  1  0.060300  0.685780  0.515780  1.0  -0.63
  O  O311  1  0.840440  0.454730  0.434850  1.0  -0.644
  O  O312  1  0.966200  0.466130  0.378350  1.0  -0.6974
  O  O313  1  0.391570  0.876670  0.408350  1.0  -0.517
  O  O314  1  0.560740  0.769960  0.403660  1.0  -0.6744
  O  O315  1  0.616080  0.871730  0.494890  1.0  -0.7168
  O  O316  1  0.085210  0.008710  0.741650  1.0  -0.534
  O  O317  1  0.026370  0.809340  0.659420  1.0  -0.6491
  O  O318  1  0.068370  0.780290  0.778930  1.0  -0.8313
  O  O319  1  0.198250  0.197850  0.588010  1.0  -0.6709
  O  O320  1  0.335120  0.227540  0.357280  1.0  -0.7965
  O  O321  1  0.222340  0.132870  0.338390  1.0  -0.6528
  O  O322  1  0.768660  0.988210  0.451390  1.0  -0.6583
  O  O323  1  0.775540  0.246650  0.361330  1.0  -0.7251
  O  O324  1  0.656960  0.191880  0.277380  1.0  -0.6719
