# generated using pymatgen
data_Nd2H5C14(NO4)3
_symmetry_space_group_name_H-M   'P 1'
_cell_length_a   9.59400000
_cell_length_b   22.78900000
_cell_length_c   10.14600000
_cell_angle_alpha   90.00000000
_cell_angle_beta   101.32000000
_cell_angle_gamma   90.00000000
_symmetry_Int_Tables_number   1
_chemical_formula_structural   Nd2H5C14(NO4)3
_chemical_formula_sum   'Nd8 H20 C56 N12 O48'
_cell_volume   2175.14343984
_cell_formula_units_Z   4
loop_
 _symmetry_equiv_pos_site_id
 _symmetry_equiv_pos_as_xyz
  1  'x, y, z'
loop_
 _atom_site_type_symbol
 _atom_site_label
 _atom_site_symmetry_multiplicity
 _atom_site_fract_x
 _atom_site_fract_y
 _atom_site_fract_z
 _atom_site_occupancy
 _atom_site_charge
  Nd  Nd1  1  0.254640  0.277970  0.039100  1.0  2.1684
  Nd  Nd2  1  0.719970  0.435370  0.851840  1.0  2.2331
  Nd  Nd3  1  0.745360  0.777970  0.460900  1.0  2.1684
  Nd  Nd4  1  0.280030  0.935370  0.648160  1.0  2.2328
  Nd  Nd5  1  0.745360  0.722030  0.960900  1.0  2.1684
  Nd  Nd6  1  0.280030  0.564630  0.148160  1.0  2.2316
  Nd  Nd7  1  0.254640  0.222030  0.539100  1.0  2.1683
  Nd  Nd8  1  0.719970  0.064630  0.351840  1.0  2.2315
  H  H9  1  0.519800  0.427500  0.313400  1.0  0.2841
  H  H10  1  0.724100  0.500500  0.310100  1.0  0.1154
  H  H11  1  0.888100  0.579500  0.345500  1.0  0.1132
  H  H12  1  0.971800  0.612600  0.565300  1.0  0.1118
  H  H13  1  0.900800  0.565600  0.744600  1.0  0.0815
  H  H14  1  0.480200  0.927500  0.186600  1.0  0.2828
  H  H15  1  0.275900  0.000500  0.189900  1.0  0.1156
  H  H16  1  0.111900  0.079500  0.154500  1.0  0.1128
  H  H17  1  0.028200  0.112600  0.934700  1.0  0.1116
  H  H18  1  0.099200  0.065600  0.755400  1.0  0.0821
  H  H19  1  0.480200  0.572500  0.686600  1.0  0.2827
  H  H20  1  0.275900  0.499500  0.689900  1.0  0.1157
  H  H21  1  0.111900  0.420500  0.654500  1.0  0.1131
  H  H22  1  0.028200  0.387400  0.434700  1.0  0.1117
  H  H23  1  0.099200  0.434400  0.255400  1.0  0.0821
  H  H24  1  0.519800  0.072500  0.813400  1.0  0.284
  H  H25  1  0.724100  0.999500  0.810100  1.0  0.1156
  H  H26  1  0.888100  0.920500  0.845500  1.0  0.1132
  H  H27  1  0.971800  0.887400  0.065300  1.0  0.1114
  H  H28  1  0.900800  0.934400  0.244600  1.0  0.0815
  C  C29  1  0.457100  0.371230  0.442000  1.0  -0.1019
  C  C30  1  0.498300  0.372180  0.580300  1.0  -0.0125
  C  C31  1  0.617500  0.441250  0.503700  1.0  0.2677
  C  C32  1  0.719500  0.489640  0.509800  1.0  0.1584
  C  C33  1  0.760700  0.514670  0.398100  1.0  -0.1588
  C  C34  1  0.857500  0.561320  0.419200  1.0  -0.1094
  C  C35  1  0.907700  0.580430  0.549000  1.0  -0.1196
  C  C36  1  0.864100  0.552370  0.655800  1.0  0.1626
  C  C37  1  0.363200  0.333020  0.341800  1.0  0.7347
  C  C38  1  0.461700  0.339530  0.696300  1.0  0.6898
  C  C39  1  0.520200  0.478360  0.060500  1.0  0.5825
  C  C40  1  0.045200  0.479990  0.961700  1.0  0.6044
  C  C41  1  0.954200  0.349820  0.020400  1.0  0.5746
  C  C42  1  0.941000  0.325420  0.875000  1.0  0.5736
  C  C43  1  0.542900  0.871230  0.058000  1.0  -0.101
  C  C44  1  0.501700  0.872180  0.919700  1.0  -0.0122
  C  C45  1  0.382500  0.941250  0.996300  1.0  0.2672
  C  C46  1  0.280500  0.989640  0.990200  1.0  0.1589
  C  C47  1  0.239300  0.014670  0.101900  1.0  -0.1587
  C  C48  1  0.142500  0.061320  0.080800  1.0  -0.1116
  C  C49  1  0.092300  0.080430  0.951000  1.0  -0.121
  C  C50  1  0.135900  0.052370  0.844200  1.0  0.1626
  C  C51  1  0.636800  0.833020  0.158200  1.0  0.7355
  C  C52  1  0.538300  0.839530  0.803700  1.0  0.6884
  C  C53  1  0.479800  0.978360  0.439500  1.0  0.5829
  C  C54  1  0.954800  0.979990  0.538300  1.0  0.6043
  C  C55  1  0.045800  0.849820  0.479600  1.0  0.5737
  C  C56  1  0.059000  0.825420  0.625000  1.0  0.5746
  C  C57  1  0.542900  0.628770  0.558000  1.0  -0.1
  C  C58  1  0.501700  0.627820  0.419700  1.0  -0.0097
  C  C59  1  0.382500  0.558750  0.496300  1.0  0.2673
  C  C60  1  0.280500  0.510360  0.490200  1.0  0.1591
  C  C61  1  0.239300  0.485330  0.601900  1.0  -0.1581
  C  C62  1  0.142500  0.438680  0.580800  1.0  -0.1124
  C  C63  1  0.092300  0.419570  0.451000  1.0  -0.1214
  C  C64  1  0.135900  0.447630  0.344200  1.0  0.1631
  C  C65  1  0.636800  0.666980  0.658200  1.0  0.7335
  C  C66  1  0.538300  0.660470  0.303700  1.0  0.6887
  C  C67  1  0.479800  0.521640  0.939500  1.0  0.5821
  C  C68  1  0.954800  0.520010  0.038300  1.0  0.6044
  C  C69  1  0.045800  0.650180  0.979600  1.0  0.5744
  C  C70  1  0.059000  0.674580  0.125000  1.0  0.5741
  C  C71  1  0.457100  0.128770  0.942000  1.0  -0.1011
  C  C72  1  0.498300  0.127820  0.080300  1.0  -0.0107
  C  C73  1  0.617500  0.058750  0.003700  1.0  0.2673
  C  C74  1  0.719500  0.010360  0.009800  1.0  0.1587
  C  C75  1  0.760700  0.985330  0.898100  1.0  -0.1589
  C  C76  1  0.857500  0.938680  0.919200  1.0  -0.1106
  C  C77  1  0.907700  0.919570  0.049000  1.0  -0.1205
  C  C78  1  0.864100  0.947630  0.155800  1.0  0.1631
  C  C79  1  0.363200  0.166980  0.841800  1.0  0.7363
  C  C80  1  0.461700  0.160470  0.196300  1.0  0.689
  C  C81  1  0.520200  0.021640  0.560500  1.0  0.5818
  C  C82  1  0.045200  0.020010  0.461700  1.0  0.605
  C  C83  1  0.954200  0.150180  0.520400  1.0  0.5745
  C  C84  1  0.941000  0.174580  0.375000  1.0  0.5753
  N  N85  1  0.597600  0.415770  0.615600  1.0  -0.3716
  N  N86  1  0.533900  0.415650  0.395300  1.0  -0.2871
  N  N87  1  0.772000  0.507230  0.638400  1.0  -0.433
  N  N88  1  0.402400  0.915770  0.884400  1.0  -0.3725
  N  N89  1  0.466100  0.915650  0.104700  1.0  -0.2847
  N  N90  1  0.228000  0.007230  0.861600  1.0  -0.4364
  N  N91  1  0.402400  0.584230  0.384400  1.0  -0.3723
  N  N92  1  0.466100  0.584350  0.604700  1.0  -0.2853
  N  N93  1  0.228000  0.492770  0.361600  1.0  -0.4381
  N  N94  1  0.597600  0.084230  0.115600  1.0  -0.3717
  N  N95  1  0.533900  0.084350  0.895300  1.0  -0.2873
  N  N96  1  0.772000  0.992770  0.138400  1.0  -0.4358
  O  O97  1  0.068000  0.340140  0.101300  1.0  -0.6011
  O  O98  1  0.038300  0.290700  0.856700  1.0  -0.6213
  O  O99  1  0.837000  0.342880  0.787100  1.0  -0.609
  O  O100  1  0.849500  0.378930  0.043700  1.0  -0.6298
  O  O101  1  0.522300  0.360280  0.811700  1.0  -0.7363
  O  O102  1  0.378800  0.296980  0.683300  1.0  -0.7345
  O  O103  1  0.282200  0.296210  0.381500  1.0  -0.742
  O  O104  1  0.374000  0.340380  0.221600  1.0  -0.7123
  O  O105  1  0.598000  0.436090  0.045100  1.0  -0.6
  O  O106  1  0.470900  0.489920  0.164200  1.0  -0.6026
  O  O107  1  0.980100  0.450670  0.865800  1.0  -0.6216
  O  O108  1  0.178200  0.480150  0.006600  1.0  -0.6421
  O  O109  1  0.932000  0.840140  0.398700  1.0  -0.6008
  O  O110  1  0.961700  0.790700  0.643300  1.0  -0.6219
  O  O111  1  0.163000  0.842880  0.712900  1.0  -0.6105
  O  O112  1  0.150500  0.878930  0.456300  1.0  -0.6337
  O  O113  1  0.477700  0.860280  0.688300  1.0  -0.7373
  O  O114  1  0.621200  0.796980  0.816700  1.0  -0.7361
  O  O115  1  0.717800  0.796210  0.118500  1.0  -0.7426
  O  O116  1  0.626000  0.840380  0.278400  1.0  -0.7132
  O  O117  1  0.402000  0.936090  0.454900  1.0  -0.5998
  O  O118  1  0.529100  0.989920  0.335800  1.0  -0.6016
  O  O119  1  0.019900  0.950670  0.634200  1.0  -0.6214
  O  O120  1  0.821800  0.980150  0.493400  1.0  -0.6415
  O  O121  1  0.932000  0.659860  0.898700  1.0  -0.5999
  O  O122  1  0.961700  0.709300  0.143300  1.0  -0.6211
  O  O123  1  0.163000  0.657120  0.212900  1.0  -0.6121
  O  O124  1  0.150500  0.621070  0.956300  1.0  -0.634
  O  O125  1  0.477700  0.639720  0.188300  1.0  -0.741
  O  O126  1  0.621200  0.703020  0.316700  1.0  -0.7364
  O  O127  1  0.717800  0.703790  0.618500  1.0  -0.7397
  O  O128  1  0.626000  0.659620  0.778400  1.0  -0.7136
  O  O129  1  0.402000  0.563910  0.954900  1.0  -0.6009
  O  O130  1  0.529100  0.510080  0.835800  1.0  -0.6014
  O  O131  1  0.019900  0.549330  0.134200  1.0  -0.622
  O  O132  1  0.821800  0.519850  0.993400  1.0  -0.6422
  O  O133  1  0.068000  0.159860  0.601300  1.0  -0.6014
  O  O134  1  0.038300  0.209300  0.356700  1.0  -0.6212
  O  O135  1  0.837000  0.157120  0.287100  1.0  -0.6092
  O  O136  1  0.849500  0.121070  0.543700  1.0  -0.631
  O  O137  1  0.522300  0.139720  0.311700  1.0  -0.7395
  O  O138  1  0.378800  0.203020  0.183300  1.0  -0.7352
  O  O139  1  0.282200  0.203790  0.881500  1.0  -0.7386
  O  O140  1  0.374000  0.159620  0.721600  1.0  -0.713
  O  O141  1  0.598000  0.063910  0.545100  1.0  -0.6008
  O  O142  1  0.470900  0.010080  0.664200  1.0  -0.6023
  O  O143  1  0.980100  0.049330  0.365800  1.0  -0.621
  O  O144  1  0.178200  0.019850  0.506600  1.0  -0.6427
