# generated using pymatgen
data_Gd2MnH32C56(N2O5)4
_symmetry_space_group_name_H-M   'P 1'
_cell_length_a   10.14800000
_cell_length_b   10.88450000
_cell_length_c   13.82610000
_cell_angle_alpha   78.76000000
_cell_angle_beta   79.30500000
_cell_angle_gamma   86.22200000
_symmetry_Int_Tables_number   1
_chemical_formula_structural   Gd2MnH32C56(N2O5)4
_chemical_formula_sum   'Gd2 Mn1 H32 C56 N8 O20'
_cell_volume   1471.16257822
_cell_formula_units_Z   1
loop_
 _symmetry_equiv_pos_site_id
 _symmetry_equiv_pos_as_xyz
  1  'x, y, z'
loop_
 _atom_site_type_symbol
 _atom_site_label
 _atom_site_symmetry_multiplicity
 _atom_site_fract_x
 _atom_site_fract_y
 _atom_site_fract_z
 _atom_site_occupancy
 _atom_site_charge
  Gd  Gd1  1  0.679550  0.076830  0.203740  1.0  2.0978
  Gd  Gd2  1  0.320450  0.923170  0.796260  1.0  2.0983
  Mn  Mn3  1  0.000000  0.500000  0.000000  1.0  1.1543
  H  H4  1  0.652800  0.668900  0.422500  1.0  0.1168
  H  H5  1  0.671800  0.330600  0.347300  1.0  0.1164
  H  H6  1  0.715900  0.639700  0.132800  1.0  0.1116
  H  H7  1  0.644400  0.544300  0.753900  1.0  0.1249
  H  H8  1  0.634300  0.427500  0.911100  1.0  0.082
  H  H9  1  0.648100  0.118500  0.809000  1.0  0.0761
  H  H10  1  0.654900  0.225600  0.649300  1.0  0.1226
  H  H11  1  0.174900  0.085600  0.219400  1.0  0.1134
  H  H12  1  0.913100  0.158800  0.458600  1.0  0.115
  H  H13  1  0.306600  0.148500  0.461400  1.0  0.1239
  H  H14  1  0.989900  0.519200  0.626400  1.0  0.1292
  H  H15  1  0.982800  0.587800  0.772600  1.0  0.0764
  H  H16  1  0.969100  0.247600  0.923900  1.0  0.084
  H  H17  1  0.987000  0.167300  0.780200  1.0  0.132
  H  H18  1  0.621000  0.353800  0.517000  1.0  0.3194
  H  H19  1  0.124200  0.158400  0.615700  1.0  0.2894
  H  H20  1  0.347200  0.331100  0.577500  1.0  0.1173
  H  H21  1  0.328200  0.669400  0.652700  1.0  0.1163
  H  H22  1  0.284100  0.360300  0.867200  1.0  0.1109
  H  H23  1  0.355600  0.455700  0.246100  1.0  0.1255
  H  H24  1  0.365700  0.572500  0.088900  1.0  0.0817
  H  H25  1  0.351900  0.881500  0.191000  1.0  0.0765
  H  H26  1  0.345100  0.774400  0.350700  1.0  0.1224
  H  H27  1  0.825100  0.914400  0.780600  1.0  0.1139
  H  H28  1  0.086900  0.841200  0.541400  1.0  0.1149
  H  H29  1  0.693400  0.851500  0.538600  1.0  0.1234
  H  H30  1  0.010100  0.480800  0.373600  1.0  0.1291
  H  H31  1  0.017200  0.412200  0.227400  1.0  0.0778
  H  H32  1  0.030900  0.752400  0.076100  1.0  0.0833
  H  H33  1  0.013000  0.832700  0.219800  1.0  0.1317
  H  H34  1  0.379000  0.646200  0.483000  1.0  0.3195
  H  H35  1  0.875800  0.841600  0.384300  1.0  0.2891
  C  C36  1  0.686100  0.813400  0.247200  1.0  0.6589
  C  C37  1  0.683400  0.674500  0.273200  1.0  -0.1244
  C  C38  1  0.664600  0.619200  0.373800  1.0  -0.1445
  C  C39  1  0.663100  0.490000  0.401800  1.0  0.2105
  C  C40  1  0.677200  0.417200  0.328700  1.0  -0.1118
  C  C41  1  0.699300  0.472200  0.227600  1.0  -0.1594
  C  C42  1  0.701800  0.602000  0.200200  1.0  -0.027
  C  C43  1  0.729000  0.394500  0.148200  1.0  0.7775
  C  C44  1  0.666800  0.481100  0.579900  1.0  0.5094
  C  C45  1  0.653000  0.398900  0.682000  1.0  -0.0399
  C  C46  1  0.645400  0.457300  0.763100  1.0  -0.1638
  C  C47  1  0.639400  0.386500  0.857400  1.0  0.1797
  C  C48  1  0.647000  0.205600  0.797600  1.0  0.197
  C  C49  1  0.652100  0.269100  0.701300  1.0  -0.1856
  C  C50  1  0.405500  0.097700  0.284800  1.0  0.6656
  C  C51  1  0.262300  0.113400  0.332100  1.0  -0.1287
  C  C52  1  0.157900  0.102800  0.284000  1.0  -0.0213
  C  C53  1  0.026200  0.118000  0.332500  1.0  -0.1475
  C  C54  1  0.001000  0.147800  0.426900  1.0  -0.1123
  C  C55  1  0.106000  0.161400  0.474300  1.0  0.202
  C  C56  1  0.236000  0.142200  0.428400  1.0  -0.0838
  C  C57  1  0.908500  0.106300  0.283900  1.0  0.6677
  C  C58  1  0.995900  0.292600  0.589300  1.0  0.5107
  C  C59  1  0.991900  0.334900  0.686600  1.0  0.013
  C  C60  1  0.988500  0.461800  0.686000  1.0  -0.1209
  C  C61  1  0.983100  0.502000  0.774200  1.0  0.1743
  C  C62  1  0.976600  0.302800  0.862700  1.0  0.1836
  C  C63  1  0.985400  0.253500  0.777000  1.0  -0.175
  C  C64  1  0.313900  0.186600  0.752800  1.0  0.657
  C  C65  1  0.316600  0.325500  0.726800  1.0  -0.1221
  C  C66  1  0.335400  0.380800  0.626200  1.0  -0.144
  C  C67  1  0.336900  0.510000  0.598200  1.0  0.2105
  C  C68  1  0.322800  0.582800  0.671300  1.0  -0.1127
  C  C69  1  0.300700  0.527800  0.772400  1.0  -0.167
  C  C70  1  0.298200  0.398000  0.799800  1.0  -0.0308
  C  C71  1  0.271000  0.605500  0.851800  1.0  0.7777
  C  C72  1  0.333200  0.518900  0.420100  1.0  0.5102
  C  C73  1  0.347000  0.601100  0.318000  1.0  -0.04
  C  C74  1  0.354600  0.542700  0.236900  1.0  -0.1643
  C  C75  1  0.360600  0.613500  0.142600  1.0  0.1798
  C  C76  1  0.353000  0.794400  0.202400  1.0  0.1939
  C  C77  1  0.347900  0.730900  0.298700  1.0  -0.1879
  C  C78  1  0.594500  0.902300  0.715200  1.0  0.6639
  C  C79  1  0.737700  0.886600  0.667900  1.0  -0.1296
  C  C80  1  0.842100  0.897200  0.716000  1.0  -0.0204
  C  C81  1  0.973800  0.882000  0.667500  1.0  -0.1464
  C  C82  1  0.999000  0.852200  0.573100  1.0  -0.1123
  C  C83  1  0.894000  0.838600  0.525700  1.0  0.2025
  C  C84  1  0.764000  0.857800  0.571600  1.0  -0.0835
  C  C85  1  0.091500  0.893700  0.716100  1.0  0.6691
  C  C86  1  0.004100  0.707400  0.410700  1.0  0.5113
  C  C87  1  0.008100  0.665100  0.313400  1.0  0.0123
  C  C88  1  0.011500  0.538200  0.314000  1.0  -0.1215
  C  C89  1  0.016900  0.498000  0.225800  1.0  0.1759
  C  C90  1  0.023400  0.697200  0.137300  1.0  0.179
  C  C91  1  0.014600  0.746500  0.223000  1.0  -0.1777
  N  N92  1  0.646500  0.430000  0.503100  1.0  -0.4041
  N  N93  1  0.640600  0.261100  0.875700  1.0  -0.4265
  N  N94  1  0.082300  0.197800  0.569600  1.0  -0.3941
  N  N95  1  0.978100  0.425000  0.862800  1.0  -0.4122
  N  N96  1  0.353500  0.570000  0.496900  1.0  -0.4046
  N  N97  1  0.359400  0.738900  0.124300  1.0  -0.4308
  N  N98  1  0.917700  0.802200  0.430400  1.0  -0.3948
  N  N99  1  0.021900  0.575000  0.137200  1.0  -0.3836
  O  O100  1  0.672900  0.869500  0.161100  1.0  -0.6866
  O  O101  1  0.704100  0.874900  0.310700  1.0  -0.642
  O  O102  1  0.800500  0.437400  0.066900  1.0  -0.6644
  O  O103  1  0.678400  0.287600  0.167000  1.0  -0.7564
  O  O104  1  0.694400  0.589100  0.571000  1.0  -0.465
  O  O105  1  0.438600  0.097400  0.192400  1.0  -0.6759
  O  O106  1  0.496000  0.085800  0.337300  1.0  -0.6499
  O  O107  1  0.925300  0.093200  0.192900  1.0  -0.7159
  O  O108  1  0.792100  0.111200  0.333700  1.0  -0.63
  O  O109  1  0.924500  0.347500  0.530600  1.0  -0.4893
  O  O110  1  0.327100  0.130500  0.838900  1.0  -0.6864
  O  O111  1  0.295900  0.125100  0.689300  1.0  -0.6431
  O  O112  1  0.199500  0.562600  0.933100  1.0  -0.6652
  O  O113  1  0.321600  0.712400  0.833000  1.0  -0.7553
  O  O114  1  0.305600  0.410900  0.429000  1.0  -0.4645
  O  O115  1  0.561400  0.902600  0.807600  1.0  -0.6782
  O  O116  1  0.504000  0.914200  0.662700  1.0  -0.6491
  O  O117  1  0.074700  0.906800  0.807100  1.0  -0.7165
  O  O118  1  0.207900  0.888800  0.666300  1.0  -0.631
  O  O119  1  0.075500  0.652500  0.469400  1.0  -0.4882
