# generated using pymatgen
data_Eu2MnH32C56(N2O5)4
_symmetry_space_group_name_H-M   'P 1'
_cell_length_a   10.17900000
_cell_length_b   10.91840000
_cell_length_c   13.87040000
_cell_angle_alpha   78.68200000
_cell_angle_beta   79.27100000
_cell_angle_gamma   86.07900000
_symmetry_Int_Tables_number   1
_chemical_formula_structural   Eu2MnH32C56(N2O5)4
_chemical_formula_sum   'Eu2 Mn1 H32 C56 N8 O20'
_cell_volume   1484.32030656
_cell_formula_units_Z   1
loop_
 _symmetry_equiv_pos_site_id
 _symmetry_equiv_pos_as_xyz
  1  'x, y, z'
loop_
 _atom_site_type_symbol
 _atom_site_label
 _atom_site_symmetry_multiplicity
 _atom_site_fract_x
 _atom_site_fract_y
 _atom_site_fract_z
 _atom_site_occupancy
 _atom_site_charge
  Eu  Eu1  1  0.680110  0.076660  0.703360  1.0  2.0591
  Eu  Eu2  1  0.319890  0.923340  0.296640  1.0  2.0607
  Mn  Mn3  1  0.000000  0.500000  0.500000  1.0  1.1208
  H  H4  1  0.173400  0.086800  0.721500  1.0  0.1094
  H  H5  1  0.911700  0.152900  0.960500  1.0  0.1219
  H  H6  1  0.305900  0.146900  0.962700  1.0  0.1237
  H  H7  1  0.987900  0.166400  0.281000  1.0  0.1273
  H  H8  1  0.965300  0.247900  0.425300  1.0  0.0865
  H  H9  1  0.985100  0.588800  0.272600  1.0  0.0788
  H  H10  1  0.990900  0.518700  0.125000  1.0  0.1289
  H  H11  1  0.670400  0.330900  0.846700  1.0  0.1159
  H  H12  1  0.652300  0.668100  0.922900  1.0  0.1203
  H  H13  1  0.714400  0.639100  0.633100  1.0  0.1098
  H  H14  1  0.656000  0.225800  0.146900  1.0  0.1273
  H  H15  1  0.646000  0.117700  0.309700  1.0  0.0816
  H  H16  1  0.637400  0.425900  0.410800  1.0  0.0887
  H  H17  1  0.644000  0.543400  0.254400  1.0  0.1212
  H  H18  1  0.122900  0.158200  0.115900  1.0  0.2986
  H  H19  1  0.619200  0.353600  0.016900  1.0  0.3171
  H  H20  1  0.826600  0.913200  0.278500  1.0  0.1101
  H  H21  1  0.088300  0.847100  0.039500  1.0  0.122
  H  H22  1  0.694100  0.853100  0.037300  1.0  0.1237
  H  H23  1  0.012100  0.833600  0.719000  1.0  0.1271
  H  H24  1  0.034700  0.752100  0.574700  1.0  0.0863
  H  H25  1  0.014900  0.411200  0.727400  1.0  0.0796
  H  H26  1  0.009100  0.481300  0.875000  1.0  0.1285
  H  H27  1  0.329600  0.669100  0.153300  1.0  0.1156
  H  H28  1  0.347700  0.331900  0.077100  1.0  0.1209
  H  H29  1  0.285600  0.360900  0.366900  1.0  0.1095
  H  H30  1  0.344000  0.774200  0.853100  1.0  0.128
  H  H31  1  0.354000  0.882300  0.690300  1.0  0.0833
  H  H32  1  0.362600  0.574100  0.589200  1.0  0.0884
  H  H33  1  0.356000  0.456600  0.745600  1.0  0.1224
  H  H34  1  0.877100  0.841800  0.884100  1.0  0.2989
  H  H35  1  0.380800  0.646400  0.983100  1.0  0.3173
  C  C36  1  0.404900  0.099100  0.785800  1.0  0.6669
  C  C37  1  0.262000  0.114500  0.833100  1.0  -0.1358
  C  C38  1  0.156400  0.104100  0.785700  1.0  -0.0119
  C  C39  1  0.027300  0.119000  0.832200  1.0  -0.147
  C  C40  1  0.999600  0.145500  0.928000  1.0  -0.1217
  C  C41  1  0.106100  0.160800  0.974800  1.0  0.2131
  C  C42  1  0.235700  0.141700  0.929400  1.0  -0.0842
  C  C43  1  0.907900  0.106800  0.784400  1.0  0.6683
  C  C44  1  0.996100  0.293900  0.088900  1.0  0.5237
  C  C45  1  0.991200  0.333900  0.186600  1.0  -0.0187
  C  C46  1  0.985100  0.252400  0.277700  1.0  -0.1541
  C  C47  1  0.974700  0.302400  0.364000  1.0  0.1716
  C  C48  1  0.984000  0.503300  0.274300  1.0  0.162
  C  C49  1  0.989100  0.461900  0.184700  1.0  -0.1495
  C  C50  1  0.728100  0.394900  0.647000  1.0  0.7454
  C  C51  1  0.700000  0.471900  0.726900  1.0  -0.1577
  C  C52  1  0.677000  0.417200  0.828200  1.0  -0.1001
  C  C53  1  0.663600  0.489400  0.901500  1.0  0.2117
  C  C54  1  0.664300  0.618700  0.874200  1.0  -0.1476
  C  C55  1  0.683100  0.674700  0.772600  1.0  -0.1231
  C  C56  1  0.701300  0.601400  0.700200  1.0  -0.0101
  C  C57  1  0.687200  0.810700  0.747500  1.0  0.6649
  C  C58  1  0.666667  0.480900  0.079300  1.0  0.5402
  C  C59  1  0.651800  0.397700  0.181200  1.0  -0.045
  C  C60  1  0.652100  0.268900  0.199000  1.0  -0.1847
  C  C61  1  0.646300  0.204500  0.297700  1.0  0.1928
  C  C62  1  0.640800  0.385500  0.357200  1.0  0.1702
  C  C63  1  0.645300  0.456700  0.263400  1.0  -0.1306
  C  C64  1  0.595100  0.900900  0.214200  1.0  0.6684
  C  C65  1  0.738000  0.885500  0.166900  1.0  -0.1362
  C  C66  1  0.843600  0.895900  0.214300  1.0  -0.0132
  C  C67  1  0.972700  0.881000  0.167800  1.0  -0.1451
  C  C68  1  0.000400  0.854500  0.072000  1.0  -0.1207
  C  C69  1  0.893900  0.839200  0.025200  1.0  0.2137
  C  C70  1  0.764300  0.858300  0.070600  1.0  -0.0841
  C  C71  1  0.092100  0.893200  0.215600  1.0  0.669
  C  C72  1  0.003900  0.706100  0.911100  1.0  0.5225
  C  C73  1  0.008800  0.666100  0.813400  1.0  -0.0195
  C  C74  1  0.014900  0.747600  0.722300  1.0  -0.1563
  C  C75  1  0.025300  0.697600  0.636000  1.0  0.1707
  C  C76  1  0.016000  0.496700  0.725700  1.0  0.1623
  C  C77  1  0.010900  0.538100  0.815300  1.0  -0.1494
  C  C78  1  0.271900  0.605100  0.353000  1.0  0.7426
  C  C79  1  0.300000  0.528100  0.273100  1.0  -0.1622
  C  C80  1  0.323000  0.582800  0.171800  1.0  -0.1001
  C  C81  1  0.336400  0.510600  0.098500  1.0  0.212
  C  C82  1  0.335700  0.381300  0.125800  1.0  -0.1473
  C  C83  1  0.316900  0.325300  0.227400  1.0  -0.122
  C  C84  1  0.298700  0.398600  0.299800  1.0  -0.0116
  C  C85  1  0.312800  0.189300  0.252500  1.0  0.6627
  C  C86  1  0.333400  0.519100  0.920700  1.0  0.5401
  C  C87  1  0.348200  0.602300  0.818800  1.0  -0.0457
  C  C88  1  0.347900  0.731100  0.801000  1.0  -0.1884
  C  C89  1  0.353700  0.795500  0.702300  1.0  0.189
  C  C90  1  0.359200  0.614500  0.642800  1.0  0.1699
  C  C91  1  0.354700  0.543300  0.736600  1.0  -0.1299
  N  N92  1  0.081900  0.197900  0.069700  1.0  -0.4082
  N  N93  1  0.977700  0.425600  0.362700  1.0  -0.3819
  N  N94  1  0.645600  0.429200  0.002800  1.0  -0.4114
  N  N95  1  0.641200  0.261300  0.374700  1.0  -0.4161
  N  N96  1  0.918100  0.802100  0.930300  1.0  -0.4087
  N  N97  1  0.022300  0.574400  0.637300  1.0  -0.3667
  N  N98  1  0.354400  0.570800  0.997200  1.0  -0.4112
  N  N99  1  0.358800  0.738700  0.625300  1.0  -0.4201
  O  O100  1  0.437900  0.098800  0.692000  1.0  -0.7041
  O  O101  1  0.494500  0.086000  0.837900  1.0  -0.6425
  O  O102  1  0.927500  0.094800  0.692100  1.0  -0.697
  O  O103  1  0.794500  0.111300  0.833700  1.0  -0.6073
  O  O104  1  0.923800  0.347300  0.031400  1.0  -0.501
  O  O105  1  0.678600  0.287900  0.666500  1.0  -0.7523
  O  O106  1  0.800600  0.437400  0.566600  1.0  -0.6697
  O  O107  1  0.674100  0.869300  0.661000  1.0  -0.6837
  O  O108  1  0.704200  0.873700  0.810900  1.0  -0.6469
  O  O109  1  0.694200  0.588300  0.071300  1.0  -0.4638
  O  O110  1  0.562100  0.901200  0.308000  1.0  -0.7065
  O  O111  1  0.505500  0.914000  0.162100  1.0  -0.6415
  O  O112  1  0.072500  0.905200  0.307900  1.0  -0.6971
  O  O113  1  0.205500  0.888700  0.166300  1.0  -0.6082
  O  O114  1  0.076200  0.652700  0.968600  1.0  -0.5001
  O  O115  1  0.321400  0.712100  0.333500  1.0  -0.7514
  O  O116  1  0.199400  0.562600  0.433400  1.0  -0.6699
  O  O117  1  0.325900  0.130700  0.339000  1.0  -0.6808
  O  O118  1  0.295800  0.126300  0.189100  1.0  -0.6474
  O  O119  1  0.305800  0.411700  0.928700  1.0  -0.4639
