# generated using pymatgen
data_CoH9C13O4
_symmetry_space_group_name_H-M   'P 1'
_cell_length_a   14.74880000
_cell_length_b   10.74340000
_cell_length_c   28.87740000
_cell_angle_alpha   90.00000000
_cell_angle_beta   90.00000000
_cell_angle_gamma   90.00000000
_symmetry_Int_Tables_number   1
_chemical_formula_structural   CoH9C13O4
_chemical_formula_sum   'Co8 H72 C104 O32'
_cell_volume   4575.68923286
_cell_formula_units_Z   8
loop_
 _symmetry_equiv_pos_site_id
 _symmetry_equiv_pos_as_xyz
  1  'x, y, z'
loop_
 _atom_site_type_symbol
 _atom_site_label
 _atom_site_symmetry_multiplicity
 _atom_site_fract_x
 _atom_site_fract_y
 _atom_site_fract_z
 _atom_site_occupancy
 _atom_site_charge
  Co  Co1  1  0.750000  0.153880  0.285260  1.0  1.0047
  Co  Co2  1  0.250000  0.653880  0.785260  1.0  1.0047
  Co  Co3  1  0.750000  0.153880  0.714740  1.0  1.0057
  Co  Co4  1  0.250000  0.653880  0.214740  1.0  1.0057
  Co  Co5  1  0.250000  0.846120  0.714740  1.0  1.001
  Co  Co6  1  0.750000  0.346120  0.214740  1.0  1.001
  Co  Co7  1  0.250000  0.846120  0.285260  1.0  1.0016
  Co  Co8  1  0.750000  0.346120  0.785260  1.0  1.0016
  H  H9  1  0.598700  0.371900  0.391300  1.0  0.1093
  H  H10  1  0.337300  0.320600  0.446700  1.0  0.1162
  H  H11  1  0.411400  0.228100  0.464900  1.0  0.0924
  H  H12  1  0.426200  0.298900  0.418100  1.0  0.1047
  H  H13  1  0.098700  0.871900  0.891300  1.0  0.1093
  H  H14  1  0.837300  0.820600  0.946700  1.0  0.1162
  H  H15  1  0.911400  0.728100  0.964900  1.0  0.0924
  H  H16  1  0.926200  0.798900  0.918100  1.0  0.1047
  H  H17  1  0.901300  0.371900  0.608700  1.0  0.1097
  H  H18  1  0.162700  0.320600  0.553300  1.0  0.1095
  H  H19  1  0.088600  0.228100  0.535100  1.0  0.0927
  H  H20  1  0.073800  0.298900  0.581900  1.0  0.1051
  H  H21  1  0.401300  0.871900  0.108700  1.0  0.1097
  H  H22  1  0.662700  0.820600  0.053300  1.0  0.1095
  H  H23  1  0.588600  0.728100  0.035100  1.0  0.0927
  H  H24  1  0.573800  0.798900  0.081900  1.0  0.1051
  H  H25  1  0.098700  0.628100  0.608700  1.0  0.1095
  H  H26  1  0.837300  0.679400  0.553300  1.0  0.1167
  H  H27  1  0.911400  0.771900  0.535100  1.0  0.0929
  H  H28  1  0.926200  0.701100  0.581900  1.0  0.1054
  H  H29  1  0.598700  0.128100  0.108700  1.0  0.1095
  H  H30  1  0.337300  0.179400  0.053300  1.0  0.1167
  H  H31  1  0.411400  0.271900  0.035100  1.0  0.0929
  H  H32  1  0.426200  0.201100  0.081900  1.0  0.1054
  H  H33  1  0.401300  0.628100  0.391300  1.0  0.1097
  H  H34  1  0.662700  0.679400  0.446700  1.0  0.109
  H  H35  1  0.588600  0.771900  0.464900  1.0  0.0919
  H  H36  1  0.573800  0.701100  0.418100  1.0  0.1056
  H  H37  1  0.901300  0.128100  0.891300  1.0  0.1097
  H  H38  1  0.162700  0.179400  0.946700  1.0  0.109
  H  H39  1  0.088600  0.271900  0.964900  1.0  0.0919
  H  H40  1  0.073800  0.201100  0.918100  1.0  0.1056
  H  H41  1  0.401300  0.628100  0.608700  1.0  0.11
  H  H42  1  0.662700  0.679400  0.553300  1.0  0.1092
  H  H43  1  0.588600  0.771900  0.535100  1.0  0.0924
  H  H44  1  0.573800  0.701100  0.581900  1.0  0.1055
  H  H45  1  0.901300  0.128100  0.108700  1.0  0.11
  H  H46  1  0.162700  0.179400  0.053300  1.0  0.1092
  H  H47  1  0.088600  0.271900  0.035100  1.0  0.0924
  H  H48  1  0.073800  0.201100  0.081900  1.0  0.1055
  H  H49  1  0.098700  0.628100  0.391300  1.0  0.109
  H  H50  1  0.837300  0.679400  0.446700  1.0  0.1167
  H  H51  1  0.911400  0.771900  0.464900  1.0  0.0917
  H  H52  1  0.926200  0.701100  0.418100  1.0  0.1051
  H  H53  1  0.598700  0.128100  0.891300  1.0  0.109
  H  H54  1  0.337300  0.179400  0.946700  1.0  0.1167
  H  H55  1  0.411400  0.271900  0.964900  1.0  0.0917
  H  H56  1  0.426200  0.201100  0.918100  1.0  0.1051
  H  H57  1  0.901300  0.371900  0.391300  1.0  0.1097
  H  H58  1  0.162700  0.320600  0.446700  1.0  0.1093
  H  H59  1  0.088600  0.228100  0.464900  1.0  0.092
  H  H60  1  0.073800  0.298900  0.418100  1.0  0.1047
  H  H61  1  0.401300  0.871900  0.891300  1.0  0.1097
  H  H62  1  0.662700  0.820600  0.946700  1.0  0.1093
  H  H63  1  0.588600  0.728100  0.964900  1.0  0.092
  H  H64  1  0.573800  0.798900  0.918100  1.0  0.1047
  H  H65  1  0.598700  0.371900  0.608700  1.0  0.1097
  H  H66  1  0.337300  0.320600  0.553300  1.0  0.1162
  H  H67  1  0.411400  0.228100  0.535100  1.0  0.0922
  H  H68  1  0.426200  0.298900  0.581900  1.0  0.1051
  H  H69  1  0.098700  0.871900  0.108700  1.0  0.1097
  H  H70  1  0.837300  0.820600  0.053300  1.0  0.1162
  H  H71  1  0.911400  0.728100  0.035100  1.0  0.0922
  H  H72  1  0.926200  0.798900  0.081900  1.0  0.1051
  H  H73  1  0.500000  0.500000  0.271500  1.0  0.1142
  H  H74  1  0.000000  0.000000  0.771500  1.0  0.1142
  H  H75  1  0.000000  0.500000  0.728500  1.0  0.1147
  H  H76  1  0.500000  0.000000  0.228500  1.0  0.1147
  H  H77  1  0.500000  0.500000  0.728500  1.0  0.1147
  H  H78  1  0.000000  0.000000  0.228500  1.0  0.1147
  H  H79  1  0.000000  0.500000  0.271500  1.0  0.1142
  H  H80  1  0.500000  0.000000  0.771500  1.0  0.1142
  C  C81  1  0.560600  0.426200  0.327430  1.0  -0.1221
  C  C82  1  0.629500  0.351500  0.300690  1.0  0.693
  C  C83  1  0.559400  0.424400  0.375390  1.0  -0.0717
  C  C84  1  0.448800  0.414800  0.475610  1.0  0.0954
  C  C85  1  0.401300  0.304800  0.448700  1.0  -0.3437
  C  C86  1  0.060600  0.926200  0.827430  1.0  -0.1221
  C  C87  1  0.129500  0.851500  0.800690  1.0  0.693
  C  C88  1  0.059400  0.924400  0.875390  1.0  -0.0717
  C  C89  1  0.948800  0.914800  0.975610  1.0  0.0954
  C  C90  1  0.901300  0.804800  0.948700  1.0  -0.3437
  C  C91  1  0.939400  0.426200  0.672570  1.0  -0.1214
  C  C92  1  0.870500  0.351500  0.699310  1.0  0.6956
  C  C93  1  0.940600  0.424400  0.624610  1.0  -0.0709
  C  C94  1  0.051200  0.414800  0.524390  1.0  0.0963
  C  C95  1  0.098700  0.304800  0.551300  1.0  -0.3453
  C  C96  1  0.439400  0.926200  0.172570  1.0  -0.1214
  C  C97  1  0.370500  0.851500  0.199310  1.0  0.6956
  C  C98  1  0.440600  0.924400  0.124610  1.0  -0.0709
  C  C99  1  0.551200  0.914800  0.024390  1.0  0.0963
  C  C100  1  0.598700  0.804800  0.051300  1.0  -0.3453
  C  C101  1  0.060600  0.573800  0.672570  1.0  -0.1221
  C  C102  1  0.129500  0.648500  0.699310  1.0  0.6932
  C  C103  1  0.059400  0.575600  0.624610  1.0  -0.0725
  C  C104  1  0.948800  0.585200  0.524390  1.0  0.0951
  C  C105  1  0.901300  0.695200  0.551300  1.0  -0.345
  C  C106  1  0.560600  0.073800  0.172570  1.0  -0.1221
  C  C107  1  0.629500  0.148500  0.199310  1.0  0.6932
  C  C108  1  0.559400  0.075600  0.124610  1.0  -0.0725
  C  C109  1  0.448800  0.085200  0.024390  1.0  0.0951
  C  C110  1  0.401300  0.195200  0.051300  1.0  -0.345
  C  C111  1  0.439400  0.573800  0.327430  1.0  -0.1214
  C  C112  1  0.370500  0.648500  0.300690  1.0  0.6954
  C  C113  1  0.440600  0.575600  0.375390  1.0  -0.0707
  C  C114  1  0.551200  0.585200  0.475610  1.0  0.0956
  C  C115  1  0.598700  0.695200  0.448700  1.0  -0.3458
  C  C116  1  0.939400  0.073800  0.827430  1.0  -0.1214
  C  C117  1  0.870500  0.148500  0.800690  1.0  0.6954
  C  C118  1  0.940600  0.075600  0.875390  1.0  -0.0707
  C  C119  1  0.051200  0.085200  0.975610  1.0  0.0956
  C  C120  1  0.098700  0.195200  0.948700  1.0  -0.3458
  C  C121  1  0.439400  0.573800  0.672570  1.0  -0.1217
  C  C122  1  0.370500  0.648500  0.699310  1.0  0.6955
  C  C123  1  0.440600  0.575600  0.624610  1.0  -0.0708
  C  C124  1  0.551200  0.585200  0.524390  1.0  0.0957
  C  C125  1  0.598700  0.695200  0.551300  1.0  -0.3452
  C  C126  1  0.939400  0.073800  0.172570  1.0  -0.1217
  C  C127  1  0.870500  0.148500  0.199310  1.0  0.6955
  C  C128  1  0.940600  0.075600  0.124610  1.0  -0.0708
  C  C129  1  0.051200  0.085200  0.024390  1.0  0.0957
  C  C130  1  0.098700  0.195200  0.051300  1.0  -0.3452
  C  C131  1  0.060600  0.573800  0.327430  1.0  -0.1215
  C  C132  1  0.129500  0.648500  0.300690  1.0  0.693
  C  C133  1  0.059400  0.575600  0.375390  1.0  -0.0724
  C  C134  1  0.948800  0.585200  0.475610  1.0  0.095
  C  C135  1  0.901300  0.695200  0.448700  1.0  -0.345
  C  C136  1  0.560600  0.073800  0.827430  1.0  -0.1215
  C  C137  1  0.629500  0.148500  0.800690  1.0  0.693
  C  C138  1  0.559400  0.075600  0.875390  1.0  -0.0724
  C  C139  1  0.448800  0.085200  0.975610  1.0  0.095
  C  C140  1  0.401300  0.195200  0.948700  1.0  -0.345
  C  C141  1  0.939400  0.426200  0.327430  1.0  -0.1222
  C  C142  1  0.870500  0.351500  0.300690  1.0  0.6953
  C  C143  1  0.940600  0.424400  0.375390  1.0  -0.0706
  C  C144  1  0.051200  0.414800  0.475610  1.0  0.096
  C  C145  1  0.098700  0.304800  0.448700  1.0  -0.3449
  C  C146  1  0.439400  0.926200  0.827430  1.0  -0.1222
  C  C147  1  0.370500  0.851500  0.800690  1.0  0.6953
  C  C148  1  0.440600  0.924400  0.875390  1.0  -0.0706
  C  C149  1  0.551200  0.914800  0.975610  1.0  0.096
  C  C150  1  0.598700  0.804800  0.948700  1.0  -0.3449
  C  C151  1  0.560600  0.426200  0.672570  1.0  -0.1215
  C  C152  1  0.629500  0.351500  0.699310  1.0  0.6934
  C  C153  1  0.559400  0.424400  0.624610  1.0  -0.0722
  C  C154  1  0.448800  0.414800  0.524390  1.0  0.0957
  C  C155  1  0.401300  0.304800  0.551300  1.0  -0.3446
  C  C156  1  0.060600  0.926200  0.172570  1.0  -0.1215
  C  C157  1  0.129500  0.851500  0.199310  1.0  0.6934
  C  C158  1  0.059400  0.924400  0.124610  1.0  -0.0722
  C  C159  1  0.948800  0.914800  0.024390  1.0  0.0957
  C  C160  1  0.901300  0.804800  0.051300  1.0  -0.3446
  C  C161  1  0.500000  0.500000  0.303700  1.0  -0.021
  C  C162  1  0.500000  0.500000  0.400000  1.0  0.075
  C  C163  1  0.500000  0.500000  0.451900  1.0  -0.0953
  C  C164  1  0.000000  0.000000  0.803700  1.0  -0.021
  C  C165  1  0.000000  0.000000  0.900000  1.0  0.075
  C  C166  1  0.000000  0.000000  0.951900  1.0  -0.0953
  C  C167  1  0.000000  0.500000  0.696300  1.0  -0.0228
  C  C168  1  0.000000  0.500000  0.600000  1.0  0.0753
  C  C169  1  0.000000  0.500000  0.548100  1.0  -0.0952
  C  C170  1  0.500000  0.000000  0.196300  1.0  -0.0228
  C  C171  1  0.500000  0.000000  0.100000  1.0  0.0753
  C  C172  1  0.500000  0.000000  0.048100  1.0  -0.0952
  C  C173  1  0.500000  0.500000  0.696300  1.0  -0.0228
  C  C174  1  0.500000  0.500000  0.600000  1.0  0.0753
  C  C175  1  0.500000  0.500000  0.548100  1.0  -0.0952
  C  C176  1  0.000000  0.000000  0.196300  1.0  -0.0228
  C  C177  1  0.000000  0.000000  0.100000  1.0  0.0753
  C  C178  1  0.000000  0.000000  0.048100  1.0  -0.0952
  C  C179  1  0.000000  0.500000  0.303700  1.0  -0.021
  C  C180  1  0.000000  0.500000  0.400000  1.0  0.075
  C  C181  1  0.000000  0.500000  0.451900  1.0  -0.0953
  C  C182  1  0.500000  0.000000  0.803700  1.0  -0.021
  C  C183  1  0.500000  0.000000  0.900000  1.0  0.075
  C  C184  1  0.500000  0.000000  0.951900  1.0  -0.0953
  O  O185  1  0.655900  0.251800  0.318990  1.0  -0.5843
  O  O186  1  0.654700  0.393800  0.263140  1.0  -0.6244
  O  O187  1  0.155900  0.751800  0.818990  1.0  -0.5843
  O  O188  1  0.154700  0.893800  0.763140  1.0  -0.6244
  O  O189  1  0.844100  0.251800  0.681010  1.0  -0.5836
  O  O190  1  0.845300  0.393800  0.736860  1.0  -0.6256
  O  O191  1  0.344100  0.751800  0.181010  1.0  -0.5836
  O  O192  1  0.345300  0.893800  0.236860  1.0  -0.6256
  O  O193  1  0.155900  0.748200  0.681010  1.0  -0.5848
  O  O194  1  0.154700  0.606200  0.736860  1.0  -0.6262
  O  O195  1  0.655900  0.248200  0.181010  1.0  -0.5848
  O  O196  1  0.654700  0.106200  0.236860  1.0  -0.6262
  O  O197  1  0.344100  0.748200  0.318990  1.0  -0.5839
  O  O198  1  0.345300  0.606200  0.263140  1.0  -0.6242
  O  O199  1  0.844100  0.248200  0.818990  1.0  -0.5839
  O  O200  1  0.845300  0.106200  0.763140  1.0  -0.6242
  O  O201  1  0.344100  0.748200  0.681010  1.0  -0.5838
  O  O202  1  0.345300  0.606200  0.736860  1.0  -0.6257
  O  O203  1  0.844100  0.248200  0.181010  1.0  -0.5838
  O  O204  1  0.845300  0.106200  0.236860  1.0  -0.6257
  O  O205  1  0.155900  0.748200  0.318990  1.0  -0.5842
  O  O206  1  0.154700  0.606200  0.263140  1.0  -0.6252
  O  O207  1  0.655900  0.248200  0.818990  1.0  -0.5842
  O  O208  1  0.654700  0.106200  0.763140  1.0  -0.6252
  O  O209  1  0.844100  0.251800  0.318990  1.0  -0.5839
  O  O210  1  0.845300  0.393800  0.263140  1.0  -0.6237
  O  O211  1  0.344100  0.751800  0.818990  1.0  -0.5839
  O  O212  1  0.345300  0.893800  0.763140  1.0  -0.6237
  O  O213  1  0.655900  0.251800  0.681010  1.0  -0.5842
  O  O214  1  0.654700  0.393800  0.736860  1.0  -0.6267
  O  O215  1  0.155900  0.751800  0.181010  1.0  -0.5842
  O  O216  1  0.154700  0.893800  0.236860  1.0  -0.6267
