# generated using pymatgen
data_ZnH9C13O4
_symmetry_space_group_name_H-M   'P 1'
_cell_length_a   19.40320000
_cell_length_b   19.40320000
_cell_length_c   26.78700000
_cell_angle_alpha   90.00000000
_cell_angle_beta   90.00000000
_cell_angle_gamma   90.00000000
_symmetry_Int_Tables_number   1
_chemical_formula_structural   ZnH9C13O4
_chemical_formula_sum   'Zn16 H144 C208 O64'
_cell_volume   10084.88146822
_cell_formula_units_Z   16
loop_
 _symmetry_equiv_pos_site_id
 _symmetry_equiv_pos_as_xyz
  1  'x, y, z'
loop_
 _atom_site_type_symbol
 _atom_site_label
 _atom_site_symmetry_multiplicity
 _atom_site_fract_x
 _atom_site_fract_y
 _atom_site_fract_z
 _atom_site_occupancy
 _atom_site_charge
  Zn  Zn1  1  0.541850  0.458150  0.464780  1.0  1.1397
  Zn  Zn2  1  0.958150  0.041850  0.464780  1.0  1.1397
  Zn  Zn3  1  0.041850  0.541850  0.964780  1.0  1.139
  Zn  Zn4  1  0.458150  0.958150  0.964780  1.0  1.1406
  Zn  Zn5  1  0.958150  0.458150  0.035220  1.0  1.1401
  Zn  Zn6  1  0.541850  0.041850  0.035220  1.0  1.1404
  Zn  Zn7  1  0.458150  0.541850  0.535220  1.0  1.1402
  Zn  Zn8  1  0.041850  0.958150  0.535220  1.0  1.1397
  Zn  Zn9  1  0.326370  0.250000  0.250000  1.0  1.1559
  Zn  Zn10  1  0.173630  0.250000  0.250000  1.0  1.1469
  Zn  Zn11  1  0.250000  0.326370  0.750000  1.0  1.1555
  Zn  Zn12  1  0.250000  0.173630  0.750000  1.0  1.1577
  Zn  Zn13  1  0.673630  0.750000  0.750000  1.0  1.1469
  Zn  Zn14  1  0.826370  0.750000  0.750000  1.0  1.1559
  Zn  Zn15  1  0.750000  0.673630  0.250000  1.0  1.1577
  Zn  Zn16  1  0.750000  0.826370  0.250000  1.0  1.1555
  H  H17  1  0.172100  0.445200  0.338500  1.0  0.0939
  H  H18  1  0.278700  0.551100  0.440400  1.0  0.1065
  H  H19  1  0.363000  0.382300  0.377100  1.0  0.0965
  H  H20  1  0.211100  0.599000  0.285600  1.0  0.1161
  H  H21  1  0.263200  0.591900  0.330000  1.0  0.1016
  H  H22  1  0.240000  0.665100  0.311800  1.0  0.1089
  H  H23  1  0.114300  0.518500  0.493600  1.0  0.106
  H  H24  1  0.145100  0.469300  0.452800  1.0  0.0978
  H  H25  1  0.065000  0.477000  0.458300  1.0  0.0962
  H  H26  1  0.327900  0.054800  0.338500  1.0  0.0935
  H  H27  1  0.221300  0.948900  0.440400  1.0  0.1066
  H  H28  1  0.137000  0.117700  0.377100  1.0  0.0973
  H  H29  1  0.288900  0.901000  0.285600  1.0  0.1161
  H  H30  1  0.236800  0.908100  0.330000  1.0  0.102
  H  H31  1  0.260000  0.834900  0.311800  1.0  0.1101
  H  H32  1  0.385700  0.981500  0.493600  1.0  0.1071
  H  H33  1  0.354900  0.030700  0.452800  1.0  0.099
  H  H34  1  0.435000  0.023000  0.458300  1.0  0.0962
  H  H35  1  0.054800  0.172100  0.838500  1.0  0.0932
  H  H36  1  0.948900  0.278700  0.940400  1.0  0.1058
  H  H37  1  0.117700  0.363000  0.877100  1.0  0.0969
  H  H38  1  0.901000  0.211100  0.785600  1.0  0.1159
  H  H39  1  0.908100  0.263200  0.830000  1.0  0.1007
  H  H40  1  0.834900  0.240000  0.811800  1.0  0.1087
  H  H41  1  0.981500  0.114300  0.993600  1.0  0.1068
  H  H42  1  0.030700  0.145100  0.952800  1.0  0.1001
  H  H43  1  0.023000  0.065000  0.958300  1.0  0.0989
  H  H44  1  0.445200  0.327900  0.838500  1.0  0.0935
  H  H45  1  0.551100  0.221300  0.940400  1.0  0.1058
  H  H46  1  0.382300  0.137000  0.877100  1.0  0.0962
  H  H47  1  0.599000  0.288900  0.785600  1.0  0.1156
  H  H48  1  0.591900  0.236800  0.830000  1.0  0.1009
  H  H49  1  0.665100  0.260000  0.811800  1.0  0.109
  H  H50  1  0.518500  0.385700  0.993600  1.0  0.1078
  H  H51  1  0.469300  0.354900  0.952800  1.0  0.1004
  H  H52  1  0.477000  0.435000  0.958300  1.0  0.097
  H  H53  1  0.327900  0.445200  0.161500  1.0  0.0938
  H  H54  1  0.221300  0.551100  0.059600  1.0  0.1067
  H  H55  1  0.137000  0.382300  0.122900  1.0  0.0964
  H  H56  1  0.288900  0.599000  0.214400  1.0  0.1164
  H  H57  1  0.236800  0.591900  0.170000  1.0  0.1026
  H  H58  1  0.260000  0.665100  0.188200  1.0  0.1101
  H  H59  1  0.385700  0.518500  0.006400  1.0  0.1059
  H  H60  1  0.354900  0.469300  0.047200  1.0  0.0982
  H  H61  1  0.435000  0.477000  0.041700  1.0  0.0966
  H  H62  1  0.172100  0.054800  0.161500  1.0  0.0939
  H  H63  1  0.278700  0.948900  0.059600  1.0  0.1069
  H  H64  1  0.363000  0.117700  0.122900  1.0  0.0962
  H  H65  1  0.211100  0.901000  0.214400  1.0  0.1167
  H  H66  1  0.263200  0.908100  0.170000  1.0  0.1023
  H  H67  1  0.240000  0.834900  0.188200  1.0  0.1107
  H  H68  1  0.114300  0.981500  0.006400  1.0  0.1065
  H  H69  1  0.145100  0.030700  0.047200  1.0  0.0988
  H  H70  1  0.065000  0.023000  0.041700  1.0  0.0964
  H  H71  1  0.445200  0.172100  0.661500  1.0  0.0938
  H  H72  1  0.551100  0.278700  0.559600  1.0  0.1058
  H  H73  1  0.382300  0.363000  0.622900  1.0  0.097
  H  H74  1  0.599000  0.211100  0.714400  1.0  0.1165
  H  H75  1  0.591900  0.263200  0.670000  1.0  0.1018
  H  H76  1  0.665100  0.240000  0.688200  1.0  0.1088
  H  H77  1  0.518500  0.114300  0.506400  1.0  0.1066
  H  H78  1  0.469300  0.145100  0.547200  1.0  0.1007
  H  H79  1  0.477000  0.065000  0.541700  1.0  0.0976
  H  H80  1  0.054800  0.327900  0.661500  1.0  0.0931
  H  H81  1  0.948900  0.221300  0.559600  1.0  0.106
  H  H82  1  0.117700  0.137000  0.622900  1.0  0.0959
  H  H83  1  0.901000  0.288900  0.714400  1.0  0.1159
  H  H84  1  0.908100  0.236800  0.670000  1.0  0.101
  H  H85  1  0.834900  0.260000  0.688200  1.0  0.108
  H  H86  1  0.981500  0.385700  0.506400  1.0  0.1066
  H  H87  1  0.030700  0.354900  0.547200  1.0  0.0999
  H  H88  1  0.023000  0.435000  0.541700  1.0  0.0969
  H  H89  1  0.827900  0.554800  0.661500  1.0  0.0937
  H  H90  1  0.721300  0.448900  0.559600  1.0  0.1064
  H  H91  1  0.637000  0.617700  0.622900  1.0  0.0971
  H  H92  1  0.788900  0.401000  0.714400  1.0  0.1165
  H  H93  1  0.736800  0.408100  0.670000  1.0  0.1026
  H  H94  1  0.760000  0.334900  0.688200  1.0  0.1088
  H  H95  1  0.885700  0.481500  0.506400  1.0  0.1059
  H  H96  1  0.854900  0.530700  0.547200  1.0  0.0992
  H  H97  1  0.935000  0.523000  0.541700  1.0  0.0963
  H  H98  1  0.672100  0.945200  0.661500  1.0  0.0942
  H  H99  1  0.778700  0.051100  0.559600  1.0  0.1068
  H  H100  1  0.863000  0.882300  0.622900  1.0  0.096
  H  H101  1  0.711100  0.099000  0.714400  1.0  0.1166
  H  H102  1  0.763200  0.091900  0.670000  1.0  0.1021
  H  H103  1  0.740000  0.165100  0.688200  1.0  0.1074
  H  H104  1  0.614300  0.018500  0.506400  1.0  0.1062
  H  H105  1  0.645100  0.969300  0.547200  1.0  0.0975
  H  H106  1  0.565000  0.977000  0.541700  1.0  0.0965
  H  H107  1  0.945200  0.827900  0.161500  1.0  0.0936
  H  H108  1  0.051100  0.721300  0.059600  1.0  0.1057
  H  H109  1  0.882300  0.637000  0.122900  1.0  0.0959
  H  H110  1  0.099000  0.788900  0.214400  1.0  0.1164
  H  H111  1  0.091900  0.736800  0.170000  1.0  0.1013
  H  H112  1  0.165100  0.760000  0.188200  1.0  0.1073
  H  H113  1  0.018500  0.885700  0.006400  1.0  0.1067
  H  H114  1  0.969300  0.854900  0.047200  1.0  0.0996
  H  H115  1  0.977000  0.935000  0.041700  1.0  0.097
  H  H116  1  0.554800  0.672100  0.161500  1.0  0.0934
  H  H117  1  0.448900  0.778700  0.059600  1.0  0.1061
  H  H118  1  0.617700  0.863000  0.122900  1.0  0.0964
  H  H119  1  0.401000  0.711100  0.214400  1.0  0.1162
  H  H120  1  0.408100  0.763200  0.170000  1.0  0.1011
  H  H121  1  0.334900  0.740000  0.188200  1.0  0.107
  H  H122  1  0.481500  0.614300  0.006400  1.0  0.1068
  H  H123  1  0.530700  0.645100  0.047200  1.0  0.101
  H  H124  1  0.523000  0.565000  0.041700  1.0  0.0988
  H  H125  1  0.672100  0.554800  0.838500  1.0  0.0938
  H  H126  1  0.778700  0.448900  0.940400  1.0  0.1069
  H  H127  1  0.863000  0.617700  0.877100  1.0  0.0967
  H  H128  1  0.711100  0.401000  0.785600  1.0  0.1162
  H  H129  1  0.763200  0.408100  0.830000  1.0  0.1019
  H  H130  1  0.740000  0.334900  0.811800  1.0  0.1086
  H  H131  1  0.614300  0.481500  0.993600  1.0  0.106
  H  H132  1  0.645100  0.530700  0.952800  1.0  0.0982
  H  H133  1  0.565000  0.523000  0.958300  1.0  0.0965
  H  H134  1  0.827900  0.945200  0.838500  1.0  0.0936
  H  H135  1  0.721300  0.051100  0.940400  1.0  0.1064
  H  H136  1  0.637000  0.882300  0.877100  1.0  0.0968
  H  H137  1  0.788900  0.099000  0.785600  1.0  0.1159
  H  H138  1  0.736800  0.091900  0.830000  1.0  0.1021
  H  H139  1  0.760000  0.165100  0.811800  1.0  0.1079
  H  H140  1  0.885700  0.018500  0.993600  1.0  0.1068
  H  H141  1  0.854900  0.969300  0.952800  1.0  0.0987
  H  H142  1  0.935000  0.977000  0.958300  1.0  0.0969
  H  H143  1  0.554800  0.827900  0.338500  1.0  0.0932
  H  H144  1  0.448900  0.721300  0.440400  1.0  0.1059
  H  H145  1  0.617700  0.637000  0.377100  1.0  0.0965
  H  H146  1  0.401000  0.788900  0.285600  1.0  0.1158
  H  H147  1  0.408100  0.736800  0.330000  1.0  0.1008
  H  H148  1  0.334900  0.760000  0.311800  1.0  0.108
  H  H149  1  0.481500  0.885700  0.493600  1.0  0.1072
  H  H150  1  0.530700  0.854900  0.452800  1.0  0.1
  H  H151  1  0.523000  0.935000  0.458300  1.0  0.0976
  H  H152  1  0.945200  0.672100  0.338500  1.0  0.0932
  H  H153  1  0.051100  0.778700  0.440400  1.0  0.1058
  H  H154  1  0.882300  0.863000  0.377100  1.0  0.0972
  H  H155  1  0.099000  0.711100  0.285600  1.0  0.1155
  H  H156  1  0.091900  0.763200  0.330000  1.0  0.1011
  H  H157  1  0.165100  0.740000  0.311800  1.0  0.1067
  H  H158  1  0.018500  0.614300  0.493600  1.0  0.1072
  H  H159  1  0.969300  0.645100  0.452800  1.0  0.1004
  H  H160  1  0.977000  0.565000  0.458300  1.0  0.0975
  C  C161  1  0.212800  0.451500  0.356300  1.0  -0.0742
  C  C162  1  0.165100  0.616700  0.353900  1.0  0.1122
  C  C163  1  0.218600  0.508100  0.387500  1.0  -0.0095
  C  C164  1  0.163500  0.563600  0.388200  1.0  -0.0948
  C  C165  1  0.275900  0.515100  0.417500  1.0  -0.0866
  C  C166  1  0.264900  0.404600  0.350600  1.0  -0.1424
  C  C167  1  0.109200  0.559200  0.423700  1.0  0.0544
  C  C168  1  0.331300  0.466300  0.413200  1.0  -0.1093
  C  C169  1  0.326600  0.413100  0.380400  1.0  0.0175
  C  C170  1  0.258600  0.344700  0.316000  1.0  0.7448
  C  C171  1  0.225500  0.618300  0.316800  1.0  -0.381
  C  C172  1  0.108300  0.500700  0.460400  1.0  -0.3765
  C  C173  1  0.393500  0.475600  0.446300  1.0  0.72
  C  C174  1  0.287200  0.048500  0.356300  1.0  -0.0756
  C  C175  1  0.334900  0.883300  0.353900  1.0  0.1118
  C  C176  1  0.281400  0.991900  0.387500  1.0  -0.0093
  C  C177  1  0.336500  0.936400  0.388200  1.0  -0.0946
  C  C178  1  0.224100  0.984900  0.417500  1.0  -0.0867
  C  C179  1  0.235100  0.095400  0.350600  1.0  -0.1429
  C  C180  1  0.390800  0.940800  0.423700  1.0  0.0534
  C  C181  1  0.168700  0.033700  0.413200  1.0  -0.1083
  C  C182  1  0.173400  0.086900  0.380400  1.0  0.0161
  C  C183  1  0.241400  0.155300  0.316000  1.0  0.7449
  C  C184  1  0.274500  0.881700  0.316800  1.0  -0.381
  C  C185  1  0.391700  0.999300  0.460400  1.0  -0.3759
  C  C186  1  0.106500  0.024400  0.446300  1.0  0.7197
  C  C187  1  0.048500  0.212800  0.856300  1.0  -0.0732
  C  C188  1  0.883300  0.165100  0.853900  1.0  0.1126
  C  C189  1  0.991900  0.218600  0.887500  1.0  -0.0097
  C  C190  1  0.936400  0.163500  0.888200  1.0  -0.0954
  C  C191  1  0.984900  0.275900  0.917500  1.0  -0.0871
  C  C192  1  0.095400  0.264900  0.850600  1.0  -0.1419
  C  C193  1  0.940800  0.109200  0.923700  1.0  0.0555
  C  C194  1  0.033700  0.331300  0.913200  1.0  -0.1083
  C  C195  1  0.086900  0.326600  0.880400  1.0  0.0184
  C  C196  1  0.155300  0.258600  0.816000  1.0  0.7455
  C  C197  1  0.881700  0.225500  0.816800  1.0  -0.3815
  C  C198  1  0.999300  0.108300  0.960400  1.0  -0.375
  C  C199  1  0.024400  0.393500  0.946300  1.0  0.7199
  C  C200  1  0.451500  0.287200  0.856300  1.0  -0.0725
  C  C201  1  0.616700  0.334900  0.853900  1.0  0.1119
  C  C202  1  0.508100  0.281400  0.887500  1.0  -0.0101
  C  C203  1  0.563600  0.336500  0.888200  1.0  -0.0938
  C  C204  1  0.515100  0.224100  0.917500  1.0  -0.0866
  C  C205  1  0.404600  0.235100  0.850600  1.0  -0.1421
  C  C206  1  0.559200  0.390800  0.923700  1.0  0.0554
  C  C207  1  0.466300  0.168700  0.913200  1.0  -0.1072
  C  C208  1  0.413100  0.173400  0.880400  1.0  0.0186
  C  C209  1  0.344700  0.241400  0.816000  1.0  0.7459
  C  C210  1  0.618300  0.274500  0.816800  1.0  -0.3821
  C  C211  1  0.500700  0.391700  0.960400  1.0  -0.3728
  C  C212  1  0.475600  0.106500  0.946300  1.0  0.7196
  C  C213  1  0.287200  0.451500  0.143700  1.0  -0.0753
  C  C214  1  0.334900  0.616700  0.146100  1.0  0.1141
  C  C215  1  0.281400  0.508100  0.112500  1.0  -0.01
  C  C216  1  0.336500  0.563600  0.111800  1.0  -0.0942
  C  C217  1  0.224100  0.515100  0.082500  1.0  -0.0862
  C  C218  1  0.235100  0.404600  0.149400  1.0  -0.1423
  C  C219  1  0.390800  0.559200  0.076300  1.0  0.0538
  C  C220  1  0.168700  0.466300  0.086800  1.0  -0.1082
  C  C221  1  0.173400  0.413100  0.119600  1.0  0.0164
  C  C222  1  0.241400  0.344700  0.184000  1.0  0.7445
  C  C223  1  0.274500  0.618300  0.183200  1.0  -0.3813
  C  C224  1  0.391700  0.500700  0.039600  1.0  -0.3762
  C  C225  1  0.106500  0.475600  0.053700  1.0  0.7199
  C  C226  1  0.212800  0.048500  0.143700  1.0  -0.0764
  C  C227  1  0.165100  0.883300  0.146100  1.0  0.1137
  C  C228  1  0.218600  0.991900  0.112500  1.0  -0.0087
  C  C229  1  0.163500  0.936400  0.111800  1.0  -0.0944
  C  C230  1  0.275900  0.984900  0.082500  1.0  -0.0866
  C  C231  1  0.264900  0.095400  0.149400  1.0  -0.1432
  C  C232  1  0.109200  0.940800  0.076300  1.0  0.0534
  C  C233  1  0.331300  0.033700  0.086800  1.0  -0.1091
  C  C234  1  0.326600  0.086900  0.119600  1.0  0.0172
  C  C235  1  0.258600  0.155300  0.184000  1.0  0.7451
  C  C236  1  0.225500  0.881700  0.183200  1.0  -0.3813
  C  C237  1  0.108300  0.999300  0.039600  1.0  -0.3764
  C  C238  1  0.393500  0.024400  0.053700  1.0  0.7197
  C  C239  1  0.451500  0.212800  0.643700  1.0  -0.0739
  C  C240  1  0.616700  0.165100  0.646100  1.0  0.1139
  C  C241  1  0.508100  0.218600  0.612500  1.0  -0.0094
  C  C242  1  0.563600  0.163500  0.611800  1.0  -0.0937
  C  C243  1  0.515100  0.275900  0.582500  1.0  -0.0864
  C  C244  1  0.404600  0.264900  0.649400  1.0  -0.1414
  C  C245  1  0.559200  0.109200  0.576300  1.0  0.0551
  C  C246  1  0.466300  0.331300  0.586800  1.0  -0.1074
  C  C247  1  0.413100  0.326600  0.619600  1.0  0.0185
  C  C248  1  0.344700  0.258600  0.684000  1.0  0.7459
  C  C249  1  0.618300  0.225500  0.683200  1.0  -0.3821
  C  C250  1  0.500700  0.108300  0.539600  1.0  -0.3728
  C  C251  1  0.475600  0.393500  0.553700  1.0  0.7195
  C  C252  1  0.048500  0.287200  0.643700  1.0  -0.0749
  C  C253  1  0.883300  0.334900  0.646100  1.0  0.1142
  C  C254  1  0.991900  0.281400  0.612500  1.0  -0.0103
  C  C255  1  0.936400  0.336500  0.611800  1.0  -0.0948
  C  C256  1  0.984900  0.224100  0.582500  1.0  -0.0864
  C  C257  1  0.095400  0.235100  0.649400  1.0  -0.1424
  C  C258  1  0.940800  0.390800  0.576300  1.0  0.0552
  C  C259  1  0.033700  0.168700  0.586800  1.0  -0.1082
  C  C260  1  0.086900  0.173400  0.619600  1.0  0.0195
  C  C261  1  0.155300  0.241400  0.684000  1.0  0.7457
  C  C262  1  0.881700  0.274500  0.683200  1.0  -0.382
  C  C263  1  0.999300  0.391700  0.539600  1.0  -0.3755
  C  C264  1  0.024400  0.106500  0.553700  1.0  0.7201
  C  C265  1  0.787200  0.548500  0.643700  1.0  -0.0769
  C  C266  1  0.834900  0.383300  0.646100  1.0  0.1136
  C  C267  1  0.781400  0.491900  0.612500  1.0  -0.0093
  C  C268  1  0.836500  0.436400  0.611800  1.0  -0.0942
  C  C269  1  0.724100  0.484900  0.582500  1.0  -0.0856
  C  C270  1  0.735100  0.595400  0.649400  1.0  -0.1426
  C  C271  1  0.890800  0.440800  0.576300  1.0  0.0531
  C  C272  1  0.668700  0.533700  0.586800  1.0  -0.1086
  C  C273  1  0.673400  0.586900  0.619600  1.0  0.0162
  C  C274  1  0.741400  0.655300  0.684000  1.0  0.7448
  C  C275  1  0.774500  0.381700  0.683200  1.0  -0.3815
  C  C276  1  0.891700  0.499300  0.539600  1.0  -0.3773
  C  C277  1  0.606500  0.524400  0.553700  1.0  0.7198
  C  C278  1  0.712800  0.951500  0.643700  1.0  -0.0746
  C  C279  1  0.665100  0.116700  0.646100  1.0  0.1137
  C  C280  1  0.718600  0.008100  0.612500  1.0  -0.0094
  C  C281  1  0.663500  0.063600  0.611800  1.0  -0.0945
  C  C282  1  0.775900  0.015100  0.582500  1.0  -0.0873
  C  C283  1  0.764900  0.904600  0.649400  1.0  -0.1425
  C  C284  1  0.609200  0.059200  0.576300  1.0  0.0542
  C  C285  1  0.831300  0.966300  0.586800  1.0  -0.1091
  C  C286  1  0.826600  0.913100  0.619600  1.0  0.0176
  C  C287  1  0.758600  0.844700  0.684000  1.0  0.7448
  C  C288  1  0.725500  0.118300  0.683200  1.0  -0.381
  C  C289  1  0.608300  0.000700  0.539600  1.0  -0.3784
  C  C290  1  0.893500  0.975600  0.553700  1.0  0.7199
  C  C291  1  0.951500  0.787200  0.143700  1.0  -0.0741
  C  C292  1  0.116700  0.834900  0.146100  1.0  0.1136
  C  C293  1  0.008100  0.781400  0.112500  1.0  -0.0101
  C  C294  1  0.063600  0.836500  0.111800  1.0  -0.0936
  C  C295  1  0.015100  0.724100  0.082500  1.0  -0.0872
  C  C296  1  0.904600  0.735100  0.149400  1.0  -0.1415
  C  C297  1  0.059200  0.890800  0.076300  1.0  0.0554
  C  C298  1  0.966300  0.668700  0.086800  1.0  -0.1075
  C  C299  1  0.913100  0.673400  0.119600  1.0  0.0185
  C  C300  1  0.844700  0.741400  0.184000  1.0  0.7457
  C  C301  1  0.118300  0.774500  0.183200  1.0  -0.3825
  C  C302  1  0.000700  0.891700  0.039600  1.0  -0.3745
  C  C303  1  0.975600  0.606500  0.053700  1.0  0.7196
  C  C304  1  0.548500  0.712800  0.143700  1.0  -0.0739
  C  C305  1  0.383300  0.665100  0.146100  1.0  0.1141
  C  C306  1  0.491900  0.718600  0.112500  1.0  -0.0097
  C  C307  1  0.436400  0.663500  0.111800  1.0  -0.0949
  C  C308  1  0.484900  0.775900  0.082500  1.0  -0.086
  C  C309  1  0.595400  0.764900  0.149400  1.0  -0.1424
  C  C310  1  0.440800  0.609200  0.076300  1.0  0.055
  C  C311  1  0.533700  0.831300  0.086800  1.0  -0.1082
  C  C312  1  0.586900  0.826600  0.119600  1.0  0.0185
  C  C313  1  0.655300  0.758600  0.184000  1.0  0.7458
  C  C314  1  0.381700  0.725500  0.183200  1.0  -0.3818
  C  C315  1  0.499300  0.608300  0.039600  1.0  -0.3773
  C  C316  1  0.524400  0.893500  0.053700  1.0  0.7199
  C  C317  1  0.712800  0.548500  0.856300  1.0  -0.0751
  C  C318  1  0.665100  0.383300  0.853900  1.0  0.1113
  C  C319  1  0.718600  0.491900  0.887500  1.0  -0.0088
  C  C320  1  0.663500  0.436400  0.888200  1.0  -0.0949
  C  C321  1  0.775900  0.484900  0.917500  1.0  -0.0866
  C  C322  1  0.764900  0.595400  0.850600  1.0  -0.1431
  C  C323  1  0.609200  0.440800  0.923700  1.0  0.0537
  C  C324  1  0.831300  0.533700  0.913200  1.0  -0.1092
  C  C325  1  0.826600  0.586900  0.880400  1.0  0.0171
  C  C326  1  0.758600  0.655300  0.816000  1.0  0.7452
  C  C327  1  0.725500  0.381700  0.816800  1.0  -0.3812
  C  C328  1  0.608300  0.499300  0.960400  1.0  -0.3778
  C  C329  1  0.893500  0.524400  0.946300  1.0  0.7197
  C  C330  1  0.787200  0.951500  0.856300  1.0  -0.0752
  C  C331  1  0.834900  0.116700  0.853900  1.0  0.1124
  C  C332  1  0.781400  0.008100  0.887500  1.0  -0.0101
  C  C333  1  0.836500  0.063600  0.888200  1.0  -0.0945
  C  C334  1  0.724100  0.015100  0.917500  1.0  -0.0868
  C  C335  1  0.735100  0.904600  0.850600  1.0  -0.1426
  C  C336  1  0.890800  0.059200  0.923700  1.0  0.0541
  C  C337  1  0.668700  0.966300  0.913200  1.0  -0.1081
  C  C338  1  0.673400  0.913100  0.880400  1.0  0.0164
  C  C339  1  0.741400  0.844700  0.816000  1.0  0.7444
  C  C340  1  0.774500  0.118300  0.816800  1.0  -0.381
  C  C341  1  0.891700  0.000700  0.960400  1.0  -0.378
  C  C342  1  0.606500  0.975600  0.946300  1.0  0.72
  C  C343  1  0.548500  0.787200  0.356300  1.0  -0.0734
  C  C344  1  0.383300  0.834900  0.353900  1.0  0.1123
  C  C345  1  0.491900  0.781400  0.387500  1.0  -0.0103
  C  C346  1  0.436400  0.836500  0.388200  1.0  -0.0951
  C  C347  1  0.484900  0.724100  0.417500  1.0  -0.0872
  C  C348  1  0.595400  0.735100  0.350600  1.0  -0.1419
  C  C349  1  0.440800  0.890800  0.423700  1.0  0.0552
  C  C350  1  0.533700  0.668700  0.413200  1.0  -0.1081
  C  C351  1  0.586900  0.673400  0.380400  1.0  0.0195
  C  C352  1  0.655300  0.741400  0.316000  1.0  0.7455
  C  C353  1  0.381700  0.774500  0.316800  1.0  -0.3817
  C  C354  1  0.499300  0.891700  0.460400  1.0  -0.3759
  C  C355  1  0.524400  0.606500  0.446300  1.0  0.7202
  C  C356  1  0.951500  0.712800  0.356300  1.0  -0.0731
  C  C357  1  0.116700  0.665100  0.353900  1.0  0.1119
  C  C358  1  0.008100  0.718600  0.387500  1.0  -0.0095
  C  C359  1  0.063600  0.663500  0.388200  1.0  -0.0941
  C  C360  1  0.015100  0.775900  0.417500  1.0  -0.0859
  C  C361  1  0.904600  0.764900  0.350600  1.0  -0.1419
  C  C362  1  0.059200  0.609200  0.423700  1.0  0.0556
  C  C363  1  0.966300  0.831300  0.413200  1.0  -0.1073
  C  C364  1  0.913100  0.826600  0.380400  1.0  0.0184
  C  C365  1  0.844700  0.758600  0.316000  1.0  0.746
  C  C366  1  0.118300  0.725500  0.316800  1.0  -0.3816
  C  C367  1  0.000700  0.608300  0.460400  1.0  -0.375
  C  C368  1  0.975600  0.893500  0.446300  1.0  0.7194
  O  O369  1  0.448500  0.447300  0.432000  1.0  -0.6198
  O  O370  1  0.313600  0.310500  0.308900  1.0  -0.6081
  O  O371  1  0.387000  0.511200  0.483900  1.0  -0.6276
  O  O372  1  0.202900  0.334800  0.295700  1.0  -0.5942
  O  O373  1  0.051500  0.052700  0.432000  1.0  -0.6205
  O  O374  1  0.186400  0.189500  0.308900  1.0  -0.6081
  O  O375  1  0.113000  0.988800  0.483900  1.0  -0.6273
  O  O376  1  0.297100  0.165200  0.295700  1.0  -0.5957
  O  O377  1  0.052700  0.448500  0.932000  1.0  -0.6205
  O  O378  1  0.189500  0.313600  0.808900  1.0  -0.6069
  O  O379  1  0.988800  0.387000  0.983900  1.0  -0.627
  O  O380  1  0.165200  0.202900  0.795700  1.0  -0.5941
  O  O381  1  0.447300  0.051500  0.932000  1.0  -0.6198
  O  O382  1  0.310500  0.186400  0.808900  1.0  -0.6075
  O  O383  1  0.511200  0.113000  0.983900  1.0  -0.6279
  O  O384  1  0.334800  0.297100  0.795700  1.0  -0.5936
  O  O385  1  0.051500  0.447300  0.068000  1.0  -0.6202
  O  O386  1  0.186400  0.310500  0.191100  1.0  -0.6085
  O  O387  1  0.113000  0.511200  0.016100  1.0  -0.628
  O  O388  1  0.297100  0.334800  0.204300  1.0  -0.5957
  O  O389  1  0.448500  0.052700  0.068000  1.0  -0.6201
  O  O390  1  0.313600  0.189500  0.191100  1.0  -0.6074
  O  O391  1  0.387000  0.988800  0.016100  1.0  -0.6281
  O  O392  1  0.202900  0.165200  0.204300  1.0  -0.5943
  O  O393  1  0.447300  0.448500  0.568000  1.0  -0.6205
  O  O394  1  0.310500  0.313600  0.691100  1.0  -0.6074
  O  O395  1  0.511200  0.387000  0.516100  1.0  -0.6279
  O  O396  1  0.334800  0.202900  0.704300  1.0  -0.5935
  O  O397  1  0.052700  0.051500  0.568000  1.0  -0.6197
  O  O398  1  0.189500  0.186400  0.691100  1.0  -0.6067
  O  O399  1  0.988800  0.113000  0.516100  1.0  -0.6281
  O  O400  1  0.165200  0.297100  0.704300  1.0  -0.5927
  O  O401  1  0.551500  0.552700  0.568000  1.0  -0.6205
  O  O402  1  0.686400  0.689500  0.691100  1.0  -0.6083
  O  O403  1  0.613000  0.488800  0.516100  1.0  -0.6282
  O  O404  1  0.797100  0.665200  0.704300  1.0  -0.5955
  O  O405  1  0.948500  0.947300  0.568000  1.0  -0.6202
  O  O406  1  0.813600  0.810500  0.691100  1.0  -0.6081
  O  O407  1  0.887000  0.011200  0.516100  1.0  -0.6281
  O  O408  1  0.702900  0.834800  0.704300  1.0  -0.5941
  O  O409  1  0.947300  0.551500  0.068000  1.0  -0.6201
  O  O410  1  0.810500  0.686400  0.191100  1.0  -0.6077
  O  O411  1  0.011200  0.613000  0.016100  1.0  -0.6282
  O  O412  1  0.834800  0.797100  0.204300  1.0  -0.5934
  O  O413  1  0.552700  0.948500  0.068000  1.0  -0.6206
  O  O414  1  0.689500  0.813600  0.191100  1.0  -0.6068
  O  O415  1  0.488800  0.887000  0.016100  1.0  -0.6283
  O  O416  1  0.665200  0.702900  0.204300  1.0  -0.5933
  O  O417  1  0.948500  0.552700  0.932000  1.0  -0.6209
  O  O418  1  0.813600  0.689500  0.808900  1.0  -0.6075
  O  O419  1  0.887000  0.488800  0.983900  1.0  -0.6268
  O  O420  1  0.702900  0.665200  0.795700  1.0  -0.5947
  O  O421  1  0.551500  0.947300  0.932000  1.0  -0.6202
  O  O422  1  0.686400  0.810500  0.808900  1.0  -0.6084
  O  O423  1  0.613000  0.011200  0.983900  1.0  -0.6277
  O  O424  1  0.797100  0.834800  0.795700  1.0  -0.5955
  O  O425  1  0.552700  0.551500  0.432000  1.0  -0.6204
  O  O426  1  0.689500  0.686400  0.308900  1.0  -0.6065
  O  O427  1  0.488800  0.613000  0.483900  1.0  -0.6274
  O  O428  1  0.665200  0.797100  0.295700  1.0  -0.5934
  O  O429  1  0.947300  0.948500  0.432000  1.0  -0.6207
  O  O430  1  0.810500  0.813600  0.308900  1.0  -0.6074
  O  O431  1  0.011200  0.887000  0.483900  1.0  -0.6269
  O  O432  1  0.834800  0.702900  0.295700  1.0  -0.5935
