# generated using pymatgen
data_CuH9C13O4
_symmetry_space_group_name_H-M   'P 1'
_cell_length_a   14.94360000
_cell_length_b   28.44610000
_cell_length_c   10.74070000
_cell_angle_alpha   90.00000000
_cell_angle_beta   90.00000000
_cell_angle_gamma   90.00000000
_symmetry_Int_Tables_number   1
_chemical_formula_structural   CuH9C13O4
_chemical_formula_sum   'Cu8 H72 C104 O32'
_cell_volume   4565.73344417
_cell_formula_units_Z   8
loop_
 _symmetry_equiv_pos_site_id
 _symmetry_equiv_pos_as_xyz
  1  'x, y, z'
loop_
 _atom_site_type_symbol
 _atom_site_label
 _atom_site_symmetry_multiplicity
 _atom_site_fract_x
 _atom_site_fract_y
 _atom_site_fract_z
 _atom_site_occupancy
 _atom_site_charge
  Cu  Cu1  1  0.000000  0.467100  0.588930  1.0  0.9106
  Cu  Cu2  1  0.500000  0.967100  0.088930  1.0  0.9106
  Cu  Cu3  1  0.000000  0.032900  0.588930  1.0  0.9116
  Cu  Cu4  1  0.500000  0.532900  0.088930  1.0  0.9116
  Cu  Cu5  1  0.000000  0.967100  0.411070  1.0  0.9127
  Cu  Cu6  1  0.500000  0.467100  0.911070  1.0  0.9127
  Cu  Cu7  1  0.000000  0.532900  0.411070  1.0  0.9127
  Cu  Cu8  1  0.500000  0.032900  0.911070  1.0  0.9127
  H  H9  1  0.852800  0.360400  0.373100  1.0  0.1063
  H  H10  1  0.577900  0.308500  0.378800  1.0  0.1131
  H  H11  1  0.663800  0.331200  0.444100  1.0  0.1139
  H  H12  1  0.624300  0.282500  0.494200  1.0  0.0886
  H  H13  1  0.352800  0.860400  0.873100  1.0  0.1063
  H  H14  1  0.077900  0.808500  0.878800  1.0  0.1131
  H  H15  1  0.163800  0.831200  0.944100  1.0  0.1139
  H  H16  1  0.124300  0.782500  0.994200  1.0  0.0886
  H  H17  1  0.147200  0.139600  0.373100  1.0  0.1062
  H  H18  1  0.422100  0.191500  0.378800  1.0  0.112
  H  H19  1  0.336200  0.168800  0.444100  1.0  0.1148
  H  H20  1  0.375700  0.217500  0.494200  1.0  0.0887
  H  H21  1  0.647200  0.639600  0.873100  1.0  0.1062
  H  H22  1  0.922100  0.691500  0.878800  1.0  0.112
  H  H23  1  0.836200  0.668800  0.944100  1.0  0.1148
  H  H24  1  0.875700  0.717500  0.994200  1.0  0.0887
  H  H25  1  0.147200  0.860400  0.626900  1.0  0.1057
  H  H26  1  0.422100  0.808500  0.621200  1.0  0.1116
  H  H27  1  0.336200  0.831200  0.555900  1.0  0.1143
  H  H28  1  0.375700  0.782500  0.505800  1.0  0.0866
  H  H29  1  0.647200  0.360400  0.126900  1.0  0.1057
  H  H30  1  0.922100  0.308500  0.121200  1.0  0.1116
  H  H31  1  0.836200  0.331200  0.055900  1.0  0.1143
  H  H32  1  0.875700  0.282500  0.005800  1.0  0.0866
  H  H33  1  0.852800  0.639600  0.626900  1.0  0.1063
  H  H34  1  0.577900  0.691500  0.621200  1.0  0.1131
  H  H35  1  0.663800  0.668800  0.555900  1.0  0.1139
  H  H36  1  0.624300  0.717500  0.505800  1.0  0.0875
  H  H37  1  0.352800  0.139600  0.126900  1.0  0.1063
  H  H38  1  0.077900  0.191500  0.121200  1.0  0.1131
  H  H39  1  0.163800  0.168800  0.055900  1.0  0.1139
  H  H40  1  0.124300  0.217500  0.005800  1.0  0.0875
  H  H41  1  0.147200  0.639600  0.626900  1.0  0.1057
  H  H42  1  0.422100  0.691500  0.621200  1.0  0.1122
  H  H43  1  0.336200  0.668800  0.555900  1.0  0.1139
  H  H44  1  0.375700  0.717500  0.505800  1.0  0.0875
  H  H45  1  0.647200  0.139600  0.126900  1.0  0.1057
  H  H46  1  0.922100  0.191500  0.121200  1.0  0.1122
  H  H47  1  0.836200  0.168800  0.055900  1.0  0.1139
  H  H48  1  0.875700  0.217500  0.005800  1.0  0.0875
  H  H49  1  0.852800  0.860400  0.626900  1.0  0.1062
  H  H50  1  0.577900  0.808500  0.621200  1.0  0.1122
  H  H51  1  0.663800  0.831200  0.555900  1.0  0.1139
  H  H52  1  0.624300  0.782500  0.505800  1.0  0.0867
  H  H53  1  0.352800  0.360400  0.126900  1.0  0.1062
  H  H54  1  0.077900  0.308500  0.121200  1.0  0.1122
  H  H55  1  0.163800  0.331200  0.055900  1.0  0.1139
  H  H56  1  0.124300  0.282500  0.005800  1.0  0.0867
  H  H57  1  0.852800  0.139600  0.373100  1.0  0.1063
  H  H58  1  0.577900  0.191500  0.378800  1.0  0.1135
  H  H59  1  0.663800  0.168800  0.444100  1.0  0.115
  H  H60  1  0.624300  0.217500  0.494200  1.0  0.0886
  H  H61  1  0.352800  0.639600  0.873100  1.0  0.1063
  H  H62  1  0.077900  0.691500  0.878800  1.0  0.1135
  H  H63  1  0.163800  0.668800  0.944100  1.0  0.115
  H  H64  1  0.124300  0.717500  0.994200  1.0  0.0886
  H  H65  1  0.147200  0.360400  0.373100  1.0  0.1064
  H  H66  1  0.422100  0.308500  0.378800  1.0  0.1118
  H  H67  1  0.336200  0.331200  0.444100  1.0  0.114
  H  H68  1  0.375700  0.282500  0.494200  1.0  0.0884
  H  H69  1  0.647200  0.860400  0.873100  1.0  0.1064
  H  H70  1  0.922100  0.808500  0.878800  1.0  0.1118
  H  H71  1  0.836200  0.831200  0.944100  1.0  0.114
  H  H72  1  0.875700  0.782500  0.994200  1.0  0.0884
  H  H73  1  0.750000  0.482100  0.250000  1.0  0.1105
  H  H74  1  0.250000  0.017900  0.250000  1.0  0.1107
  H  H75  1  0.250000  0.982100  0.750000  1.0  0.1105
  H  H76  1  0.750000  0.517900  0.750000  1.0  0.1107
  H  H77  1  0.250000  0.517900  0.750000  1.0  0.1107
  H  H78  1  0.750000  0.982100  0.750000  1.0  0.1105
  H  H79  1  0.750000  0.017900  0.250000  1.0  0.1107
  H  H80  1  0.250000  0.482100  0.250000  1.0  0.1105
  C  C81  1  0.813000  0.425500  0.320700  1.0  -0.077
  C  C82  1  0.882700  0.452600  0.391500  1.0  0.6917
  C  C83  1  0.695600  0.275000  0.330600  1.0  0.108
  C  C84  1  0.811500  0.377000  0.322200  1.0  -0.1083
  C  C85  1  0.635000  0.301700  0.419900  1.0  -0.3574
  C  C86  1  0.313000  0.925500  0.820700  1.0  -0.077
  C  C87  1  0.382700  0.952600  0.891500  1.0  0.6917
  C  C88  1  0.195600  0.775000  0.830600  1.0  0.108
  C  C89  1  0.311500  0.877000  0.822200  1.0  -0.1083
  C  C90  1  0.135000  0.801700  0.919900  1.0  -0.3574
  C  C91  1  0.187000  0.074500  0.320700  1.0  -0.0764
  C  C92  1  0.117300  0.047400  0.391500  1.0  0.6921
  C  C93  1  0.304400  0.225000  0.330600  1.0  0.1076
  C  C94  1  0.188500  0.123000  0.322200  1.0  -0.1089
  C  C95  1  0.365000  0.198300  0.419900  1.0  -0.3573
  C  C96  1  0.687000  0.574500  0.820700  1.0  -0.0764
  C  C97  1  0.617300  0.547400  0.891500  1.0  0.6921
  C  C98  1  0.804400  0.725000  0.830600  1.0  0.1076
  C  C99  1  0.688500  0.623000  0.822200  1.0  -0.1089
  C  C100  1  0.865000  0.698300  0.919900  1.0  -0.3573
  C  C101  1  0.187000  0.925500  0.679300  1.0  -0.0762
  C  C102  1  0.117300  0.952600  0.608500  1.0  0.6918
  C  C103  1  0.304400  0.775000  0.669400  1.0  0.107
  C  C104  1  0.188500  0.877000  0.677800  1.0  -0.108
  C  C105  1  0.365000  0.801700  0.580100  1.0  -0.3583
  C  C106  1  0.687000  0.425500  0.179300  1.0  -0.0762
  C  C107  1  0.617300  0.452600  0.108500  1.0  0.6918
  C  C108  1  0.804400  0.275000  0.169400  1.0  0.107
  C  C109  1  0.688500  0.377000  0.177800  1.0  -0.108
  C  C110  1  0.865000  0.301700  0.080100  1.0  -0.3583
  C  C111  1  0.813000  0.574500  0.679300  1.0  -0.0772
  C  C112  1  0.882700  0.547400  0.608500  1.0  0.6915
  C  C113  1  0.695600  0.725000  0.669400  1.0  0.1069
  C  C114  1  0.811500  0.623000  0.677800  1.0  -0.1068
  C  C115  1  0.635000  0.698300  0.580100  1.0  -0.3579
  C  C116  1  0.313000  0.074500  0.179300  1.0  -0.0772
  C  C117  1  0.382700  0.047400  0.108500  1.0  0.6915
  C  C118  1  0.195600  0.225000  0.169400  1.0  0.1069
  C  C119  1  0.311500  0.123000  0.177800  1.0  -0.1068
  C  C120  1  0.135000  0.198300  0.080100  1.0  -0.3579
  C  C121  1  0.187000  0.574500  0.679300  1.0  -0.0769
  C  C122  1  0.117300  0.547400  0.608500  1.0  0.6918
  C  C123  1  0.304400  0.725000  0.669400  1.0  0.1065
  C  C124  1  0.188500  0.623000  0.677800  1.0  -0.108
  C  C125  1  0.365000  0.698300  0.580100  1.0  -0.3594
  C  C126  1  0.687000  0.074500  0.179300  1.0  -0.0769
  C  C127  1  0.617300  0.047400  0.108500  1.0  0.6918
  C  C128  1  0.804400  0.225000  0.169400  1.0  0.1065
  C  C129  1  0.688500  0.123000  0.177800  1.0  -0.108
  C  C130  1  0.865000  0.198300  0.080100  1.0  -0.3594
  C  C131  1  0.813000  0.925500  0.679300  1.0  -0.0765
  C  C132  1  0.882700  0.952600  0.608500  1.0  0.6915
  C  C133  1  0.695600  0.775000  0.669400  1.0  0.1073
  C  C134  1  0.811500  0.877000  0.677800  1.0  -0.1083
  C  C135  1  0.635000  0.801700  0.580100  1.0  -0.3572
  C  C136  1  0.313000  0.425500  0.179300  1.0  -0.0765
  C  C137  1  0.382700  0.452600  0.108500  1.0  0.6915
  C  C138  1  0.195600  0.275000  0.169400  1.0  0.1073
  C  C139  1  0.311500  0.377000  0.177800  1.0  -0.1083
  C  C140  1  0.135000  0.301700  0.080100  1.0  -0.3572
  C  C141  1  0.813000  0.074500  0.320700  1.0  -0.0771
  C  C142  1  0.882700  0.047400  0.391500  1.0  0.6917
  C  C143  1  0.695600  0.225000  0.330600  1.0  0.1078
  C  C144  1  0.811500  0.123000  0.322200  1.0  -0.107
  C  C145  1  0.635000  0.198300  0.419900  1.0  -0.3571
  C  C146  1  0.313000  0.574500  0.820700  1.0  -0.0771
  C  C147  1  0.382700  0.547400  0.891500  1.0  0.6917
  C  C148  1  0.195600  0.725000  0.830600  1.0  0.1078
  C  C149  1  0.311500  0.623000  0.822200  1.0  -0.107
  C  C150  1  0.135000  0.698300  0.919900  1.0  -0.3571
  C  C151  1  0.187000  0.425500  0.320700  1.0  -0.0763
  C  C152  1  0.117300  0.452600  0.391500  1.0  0.692
  C  C153  1  0.304400  0.275000  0.330600  1.0  0.1079
  C  C154  1  0.188500  0.377000  0.322200  1.0  -0.1087
  C  C155  1  0.365000  0.301700  0.419900  1.0  -0.357
  C  C156  1  0.687000  0.925500  0.820700  1.0  -0.0763
  C  C157  1  0.617300  0.952600  0.891500  1.0  0.692
  C  C158  1  0.804400  0.775000  0.830600  1.0  0.1079
  C  C159  1  0.688500  0.877000  0.822200  1.0  -0.1087
  C  C160  1  0.865000  0.801700  0.919900  1.0  -0.357
  C  C161  1  0.750000  0.351800  0.250000  1.0  0.0688
  C  C162  1  0.750000  0.448700  0.250000  1.0  -0.0526
  C  C163  1  0.750000  0.299200  0.250000  1.0  -0.0656
  C  C164  1  0.250000  0.148200  0.250000  1.0  0.0686
  C  C165  1  0.250000  0.051300  0.250000  1.0  -0.0525
  C  C166  1  0.250000  0.200800  0.250000  1.0  -0.0658
  C  C167  1  0.250000  0.851800  0.750000  1.0  0.0688
  C  C168  1  0.250000  0.948700  0.750000  1.0  -0.0526
  C  C169  1  0.250000  0.799200  0.750000  1.0  -0.0656
  C  C170  1  0.750000  0.648200  0.750000  1.0  0.0686
  C  C171  1  0.750000  0.551300  0.750000  1.0  -0.0525
  C  C172  1  0.750000  0.700800  0.750000  1.0  -0.0658
  C  C173  1  0.250000  0.648200  0.750000  1.0  0.0686
  C  C174  1  0.250000  0.551300  0.750000  1.0  -0.0525
  C  C175  1  0.250000  0.700800  0.750000  1.0  -0.0658
  C  C176  1  0.750000  0.851800  0.750000  1.0  0.0688
  C  C177  1  0.750000  0.948700  0.750000  1.0  -0.0526
  C  C178  1  0.750000  0.799200  0.750000  1.0  -0.0656
  C  C179  1  0.750000  0.148200  0.250000  1.0  0.0686
  C  C180  1  0.750000  0.051300  0.250000  1.0  -0.0525
  C  C181  1  0.750000  0.200800  0.250000  1.0  -0.0658
  C  C182  1  0.250000  0.351800  0.250000  1.0  0.0688
  C  C183  1  0.250000  0.448700  0.250000  1.0  -0.0526
  C  C184  1  0.250000  0.299200  0.250000  1.0  -0.0656
  O  O185  1  0.909700  0.434840  0.492400  1.0  -0.5769
  O  O186  1  0.907300  0.490510  0.348000  1.0  -0.588
  O  O187  1  0.409700  0.934840  0.992400  1.0  -0.5769
  O  O188  1  0.407300  0.990510  0.848000  1.0  -0.588
  O  O189  1  0.090300  0.065160  0.492400  1.0  -0.5765
  O  O190  1  0.092700  0.009490  0.348000  1.0  -0.5851
  O  O191  1  0.590300  0.565160  0.992400  1.0  -0.5765
  O  O192  1  0.592700  0.509490  0.848000  1.0  -0.5851
  O  O193  1  0.090300  0.934840  0.507600  1.0  -0.5761
  O  O194  1  0.092700  0.990510  0.652000  1.0  -0.5882
  O  O195  1  0.590300  0.434840  0.007600  1.0  -0.5761
  O  O196  1  0.592700  0.490510  0.152000  1.0  -0.5882
  O  O197  1  0.909700  0.565160  0.507600  1.0  -0.5771
  O  O198  1  0.907300  0.509490  0.652000  1.0  -0.5879
  O  O199  1  0.409700  0.065160  0.007600  1.0  -0.5771
  O  O200  1  0.407300  0.009490  0.152000  1.0  -0.5879
  O  O201  1  0.090300  0.565160  0.507600  1.0  -0.5774
  O  O202  1  0.092700  0.509490  0.652000  1.0  -0.5873
  O  O203  1  0.590300  0.065160  0.007600  1.0  -0.5774
  O  O204  1  0.592700  0.009490  0.152000  1.0  -0.5873
  O  O205  1  0.909700  0.934840  0.507600  1.0  -0.576
  O  O206  1  0.907300  0.990510  0.652000  1.0  -0.5884
  O  O207  1  0.409700  0.434840  0.007600  1.0  -0.576
  O  O208  1  0.407300  0.490510  0.152000  1.0  -0.5884
  O  O209  1  0.909700  0.065160  0.492400  1.0  -0.576
  O  O210  1  0.907300  0.009490  0.348000  1.0  -0.5857
  O  O211  1  0.409700  0.565160  0.992400  1.0  -0.576
  O  O212  1  0.407300  0.509490  0.848000  1.0  -0.5857
  O  O213  1  0.090300  0.434840  0.492400  1.0  -0.5769
  O  O214  1  0.092700  0.490510  0.348000  1.0  -0.5874
  O  O215  1  0.590300  0.934840  0.992400  1.0  -0.5769
  O  O216  1  0.592700  0.990510  0.848000  1.0  -0.5874
