# generated using pymatgen
data_Zn3H4(C5O4)4
_symmetry_space_group_name_H-M   'P 1'
_cell_length_a   14.39290000
_cell_length_b   17.85160000
_cell_length_c   26.71110000
_cell_angle_alpha   90.00000000
_cell_angle_beta   90.00000000
_cell_angle_gamma   90.00000000
_symmetry_Int_Tables_number   1
_chemical_formula_structural   Zn3H4(C5O4)4
_chemical_formula_sum   'Zn24 H32 C160 O128'
_cell_volume   6863.05103305
_cell_formula_units_Z   8
loop_
 _symmetry_equiv_pos_site_id
 _symmetry_equiv_pos_as_xyz
  1  'x, y, z'
loop_
 _atom_site_type_symbol
 _atom_site_label
 _atom_site_symmetry_multiplicity
 _atom_site_fract_x
 _atom_site_fract_y
 _atom_site_fract_z
 _atom_site_occupancy
 _atom_site_charge
  Zn  Zn1  1  0.564160  0.471320  0.704040  1.0  1.0365
  Zn  Zn2  1  0.754170  0.535920  0.341990  1.0  1.1131
  Zn  Zn3  1  0.866570  0.457820  0.444100  1.0  1.0949
  Zn  Zn4  1  0.935840  0.528680  0.204040  1.0  1.037
  Zn  Zn5  1  0.745830  0.464080  0.841990  1.0  1.1134
  Zn  Zn6  1  0.633430  0.542180  0.944100  1.0  1.0945
  Zn  Zn7  1  0.435840  0.971320  0.295960  1.0  1.0369
  Zn  Zn8  1  0.245830  0.035920  0.658010  1.0  1.1131
  Zn  Zn9  1  0.133430  0.957820  0.555900  1.0  1.094
  Zn  Zn10  1  0.064160  0.028680  0.795960  1.0  1.0368
  Zn  Zn11  1  0.254170  0.964080  0.158010  1.0  1.1125
  Zn  Zn12  1  0.366570  0.042180  0.055900  1.0  1.0937
  Zn  Zn13  1  0.435840  0.528680  0.295960  1.0  1.0371
  Zn  Zn14  1  0.245830  0.464080  0.658010  1.0  1.1129
  Zn  Zn15  1  0.133430  0.542180  0.555900  1.0  1.0936
  Zn  Zn16  1  0.064160  0.471320  0.795960  1.0  1.0365
  Zn  Zn17  1  0.254170  0.535920  0.158010  1.0  1.1127
  Zn  Zn18  1  0.366570  0.457820  0.055900  1.0  1.0942
  Zn  Zn19  1  0.564160  0.028680  0.704040  1.0  1.0366
  Zn  Zn20  1  0.754170  0.964080  0.341990  1.0  1.113
  Zn  Zn21  1  0.866570  0.042180  0.444100  1.0  1.0944
  Zn  Zn22  1  0.935840  0.971320  0.204040  1.0  1.0369
  Zn  Zn23  1  0.745830  0.035920  0.841990  1.0  1.1136
  Zn  Zn24  1  0.633430  0.957820  0.944100  1.0  1.0949
  H  H25  1  0.634600  0.459100  0.535900  1.0  0.1194
  H  H26  1  0.865400  0.540900  0.035900  1.0  0.12
  H  H27  1  0.365400  0.959100  0.464100  1.0  0.1195
  H  H28  1  0.134600  0.040900  0.964100  1.0  0.1198
  H  H29  1  0.365400  0.540900  0.464100  1.0  0.1201
  H  H30  1  0.134600  0.459100  0.964100  1.0  0.1193
  H  H31  1  0.634600  0.040900  0.535900  1.0  0.1198
  H  H32  1  0.865400  0.959100  0.035900  1.0  0.1196
  H  H33  1  0.165200  0.250000  0.609600  1.0  0.1164
  H  H34  1  0.969400  0.250000  0.473500  1.0  0.1263
  H  H35  1  0.885900  0.250000  0.202800  1.0  0.124
  H  H36  1  0.864400  0.250000  0.375000  1.0  0.1126
  H  H37  1  0.146200  0.250000  0.761800  1.0  0.1222
  H  H38  1  0.452600  0.250000  0.711400  1.0  0.1129
  H  H39  1  0.334800  0.750000  0.109600  1.0  0.1164
  H  H40  1  0.530600  0.750000  0.973500  1.0  0.1264
  H  H41  1  0.614100  0.750000  0.702800  1.0  0.1242
  H  H42  1  0.635600  0.750000  0.875000  1.0  0.113
  H  H43  1  0.353800  0.750000  0.261800  1.0  0.1219
  H  H44  1  0.047400  0.750000  0.211400  1.0  0.1125
  H  H45  1  0.834800  0.750000  0.390400  1.0  0.1163
  H  H46  1  0.030600  0.750000  0.526500  1.0  0.126
  H  H47  1  0.114100  0.750000  0.797200  1.0  0.1247
  H  H48  1  0.135600  0.750000  0.625000  1.0  0.113
  H  H49  1  0.853800  0.750000  0.238200  1.0  0.1211
  H  H50  1  0.547400  0.750000  0.288600  1.0  0.1125
  H  H51  1  0.665200  0.250000  0.890400  1.0  0.1162
  H  H52  1  0.469400  0.250000  0.026500  1.0  0.1264
  H  H53  1  0.385900  0.250000  0.297200  1.0  0.125
  H  H54  1  0.364400  0.250000  0.125000  1.0  0.1128
  H  H55  1  0.646200  0.250000  0.738200  1.0  0.1217
  H  H56  1  0.952600  0.250000  0.788600  1.0  0.1129
  C  C57  1  0.509500  0.450700  0.604100  1.0  0.7298
  C  C58  1  0.501300  0.477200  0.550400  1.0  -0.0492
  C  C59  1  0.579300  0.474900  0.521310  1.0  -0.0304
  C  C60  1  0.580400  0.495000  0.471050  1.0  -0.1422
  C  C61  1  0.669000  0.488000  0.442380  1.0  0.7799
  C  C62  1  0.851000  0.387400  0.345080  1.0  0.7251
  C  C63  1  0.005300  0.387100  0.493900  1.0  0.6785
  C  C64  1  0.037500  0.317700  0.521400  1.0  -0.0364
  C  C65  1  0.096100  0.317500  0.561820  1.0  -0.1099
  C  C66  1  0.130200  0.388400  0.585300  1.0  0.7139
  C  C67  1  0.868700  0.318000  0.315260  1.0  -0.1065
  C  C68  1  0.874700  0.318300  0.262980  1.0  -0.0613
  C  C69  1  0.876300  0.390700  0.233770  1.0  0.7153
  C  C70  1  0.396200  0.390100  0.718420  1.0  0.7277
  C  C71  1  0.343400  0.318400  0.725770  1.0  -0.0652
  C  C72  1  0.251900  0.317800  0.741160  1.0  -0.0364
  C  C73  1  0.193100  0.386900  0.750980  1.0  0.7131
  C  C74  1  0.990500  0.549300  0.104100  1.0  0.73
  C  C75  1  0.998700  0.522800  0.050400  1.0  -0.0492
  C  C76  1  0.920700  0.525100  0.021310  1.0  -0.0325
  C  C77  1  0.919600  0.505000  0.971050  1.0  -0.1418
  C  C78  1  0.831000  0.512000  0.942380  1.0  0.7797
  C  C79  1  0.649000  0.612600  0.845080  1.0  0.724
  C  C80  1  0.494700  0.612900  0.993900  1.0  0.6781
  C  C81  1  0.462500  0.682300  0.021400  1.0  -0.0368
  C  C82  1  0.403900  0.682500  0.061820  1.0  -0.1103
  C  C83  1  0.369800  0.611600  0.085300  1.0  0.7142
  C  C84  1  0.631300  0.682000  0.815260  1.0  -0.1073
  C  C85  1  0.625300  0.681700  0.762980  1.0  -0.0623
  C  C86  1  0.623700  0.609300  0.733770  1.0  0.7148
  C  C87  1  0.103800  0.609900  0.218420  1.0  0.7281
  C  C88  1  0.156600  0.681600  0.225770  1.0  -0.0654
  C  C89  1  0.248100  0.682200  0.241160  1.0  -0.0357
  C  C90  1  0.306900  0.613100  0.250980  1.0  0.7159
  C  C91  1  0.490500  0.950700  0.395900  1.0  0.7298
  C  C92  1  0.498700  0.977200  0.449600  1.0  -0.05
  C  C93  1  0.420700  0.974900  0.478690  1.0  -0.0318
  C  C94  1  0.419600  0.995000  0.528950  1.0  -0.1417
  C  C95  1  0.331000  0.988000  0.557620  1.0  0.7806
  C  C96  1  0.149000  0.887400  0.654920  1.0  0.7244
  C  C97  1  0.994700  0.887100  0.506100  1.0  0.6786
  C  C98  1  0.962500  0.817700  0.478600  1.0  -0.0371
  C  C99  1  0.903900  0.817500  0.438180  1.0  -0.1105
  C  C100  1  0.869800  0.888400  0.414700  1.0  0.7141
  C  C101  1  0.131300  0.818000  0.684740  1.0  -0.1076
  C  C102  1  0.125300  0.818300  0.737020  1.0  -0.0606
  C  C103  1  0.123700  0.890700  0.766230  1.0  0.7154
  C  C104  1  0.603800  0.890100  0.281580  1.0  0.7264
  C  C105  1  0.656600  0.818400  0.274230  1.0  -0.066
  C  C106  1  0.748100  0.817800  0.258840  1.0  -0.036
  C  C107  1  0.806900  0.886900  0.249020  1.0  0.7145
  C  C108  1  0.009500  0.049300  0.895900  1.0  0.7286
  C  C109  1  0.001300  0.022800  0.949600  1.0  -0.0502
  C  C110  1  0.079300  0.025100  0.978690  1.0  -0.0307
  C  C111  1  0.080400  0.005000  0.028950  1.0  -0.142
  C  C112  1  0.169000  0.012000  0.057620  1.0  0.7793
  C  C113  1  0.351000  0.112600  0.154920  1.0  0.7242
  C  C114  1  0.505300  0.112900  0.006100  1.0  0.6788
  C  C115  1  0.537500  0.182300  0.978600  1.0  -0.0364
  C  C116  1  0.596100  0.182500  0.938180  1.0  -0.11
  C  C117  1  0.630200  0.111600  0.914700  1.0  0.7142
  C  C118  1  0.368700  0.182000  0.184740  1.0  -0.1072
  C  C119  1  0.374700  0.181700  0.237020  1.0  -0.0604
  C  C120  1  0.376300  0.109300  0.266230  1.0  0.7143
  C  C121  1  0.896200  0.109900  0.781580  1.0  0.7268
  C  C122  1  0.843400  0.181600  0.774230  1.0  -0.0659
  C  C123  1  0.751900  0.182200  0.758840  1.0  -0.037
  C  C124  1  0.693100  0.113100  0.749020  1.0  0.7142
  C  C125  1  0.490500  0.549300  0.395900  1.0  0.7297
  C  C126  1  0.498700  0.522800  0.449600  1.0  -0.0501
  C  C127  1  0.420700  0.525100  0.478690  1.0  -0.0299
  C  C128  1  0.419600  0.505000  0.528950  1.0  -0.1488
  C  C129  1  0.331000  0.512000  0.557620  1.0  0.7795
  C  C130  1  0.149000  0.612600  0.654920  1.0  0.7236
  C  C131  1  0.994700  0.612900  0.506100  1.0  0.6787
  C  C132  1  0.962500  0.682300  0.478600  1.0  -0.037
  C  C133  1  0.903900  0.682500  0.438180  1.0  -0.1085
  C  C134  1  0.869800  0.611600  0.414700  1.0  0.7143
  C  C135  1  0.131300  0.682000  0.684740  1.0  -0.1075
  C  C136  1  0.125300  0.681700  0.737020  1.0  -0.0606
  C  C137  1  0.123700  0.609300  0.766230  1.0  0.7148
  C  C138  1  0.603800  0.609900  0.281580  1.0  0.7271
  C  C139  1  0.656600  0.681600  0.274230  1.0  -0.0663
  C  C140  1  0.748100  0.682200  0.258840  1.0  -0.0362
  C  C141  1  0.806900  0.613100  0.249020  1.0  0.7151
  C  C142  1  0.009500  0.450700  0.895900  1.0  0.7286
  C  C143  1  0.001300  0.477200  0.949600  1.0  -0.05
  C  C144  1  0.079300  0.474900  0.978690  1.0  -0.0278
  C  C145  1  0.080400  0.495000  0.028950  1.0  -0.1493
  C  C146  1  0.169000  0.488000  0.057620  1.0  0.7798
  C  C147  1  0.351000  0.387400  0.154920  1.0  0.7248
  C  C148  1  0.505300  0.387100  0.006100  1.0  0.6786
  C  C149  1  0.537500  0.317700  0.978600  1.0  -0.0363
  C  C150  1  0.596100  0.317500  0.938180  1.0  -0.108
  C  C151  1  0.630200  0.388400  0.914700  1.0  0.714
  C  C152  1  0.368700  0.318000  0.184740  1.0  -0.1066
  C  C153  1  0.374700  0.318300  0.237020  1.0  -0.0603
  C  C154  1  0.376300  0.390700  0.266230  1.0  0.7148
  C  C155  1  0.896200  0.390100  0.781580  1.0  0.7266
  C  C156  1  0.843400  0.318400  0.774230  1.0  -0.0659
  C  C157  1  0.751900  0.317800  0.758840  1.0  -0.0367
  C  C158  1  0.693100  0.386900  0.749020  1.0  0.7133
  C  C159  1  0.509500  0.049300  0.604100  1.0  0.7292
  C  C160  1  0.501300  0.022800  0.550400  1.0  -0.0495
  C  C161  1  0.579300  0.025100  0.521310  1.0  -0.0281
  C  C162  1  0.580400  0.005000  0.471050  1.0  -0.1492
  C  C163  1  0.669000  0.012000  0.442380  1.0  0.7794
  C  C164  1  0.851000  0.112600  0.345080  1.0  0.7246
  C  C165  1  0.005300  0.112900  0.493900  1.0  0.6784
  C  C166  1  0.037500  0.182300  0.521400  1.0  -0.0363
  C  C167  1  0.096100  0.182500  0.561820  1.0  -0.1078
  C  C168  1  0.130200  0.111600  0.585300  1.0  0.7141
  C  C169  1  0.868700  0.182000  0.315260  1.0  -0.1062
  C  C170  1  0.874700  0.181700  0.262980  1.0  -0.062
  C  C171  1  0.876300  0.109300  0.233770  1.0  0.7145
  C  C172  1  0.396200  0.109900  0.718420  1.0  0.7282
  C  C173  1  0.343400  0.181600  0.725770  1.0  -0.0649
  C  C174  1  0.251900  0.182200  0.741160  1.0  -0.0363
  C  C175  1  0.193100  0.113100  0.750980  1.0  0.7143
  C  C176  1  0.990500  0.950700  0.104100  1.0  0.7304
  C  C177  1  0.998700  0.977200  0.050400  1.0  -0.0489
  C  C178  1  0.920700  0.974900  0.021310  1.0  -0.0293
  C  C179  1  0.919600  0.995000  0.971050  1.0  -0.1488
  C  C180  1  0.831000  0.988000  0.942380  1.0  0.7806
  C  C181  1  0.649000  0.887400  0.845080  1.0  0.7248
  C  C182  1  0.494700  0.887100  0.993900  1.0  0.6784
  C  C183  1  0.462500  0.817700  0.021400  1.0  -0.0371
  C  C184  1  0.403900  0.817500  0.061820  1.0  -0.1085
  C  C185  1  0.369800  0.888400  0.085300  1.0  0.7139
  C  C186  1  0.631300  0.818000  0.815260  1.0  -0.1064
  C  C187  1  0.625300  0.818300  0.762980  1.0  -0.0616
  C  C188  1  0.623700  0.890700  0.733770  1.0  0.7156
  C  C189  1  0.103800  0.890100  0.218420  1.0  0.7269
  C  C190  1  0.156600  0.818400  0.225770  1.0  -0.0652
  C  C191  1  0.248100  0.817800  0.241160  1.0  -0.0358
  C  C192  1  0.306900  0.886900  0.250980  1.0  0.7148
  C  C193  1  0.125500  0.250000  0.582100  1.0  0.0474
  C  C194  1  0.008700  0.250000  0.501100  1.0  -0.014
  C  C195  1  0.879500  0.250000  0.237400  1.0  -0.0063
  C  C196  1  0.866900  0.250000  0.340200  1.0  0.0384
  C  C197  1  0.207000  0.250000  0.749900  1.0  -0.0781
  C  C198  1  0.389800  0.250000  0.719700  1.0  0.0107
  C  C199  1  0.374500  0.750000  0.082100  1.0  0.0467
  C  C200  1  0.491300  0.750000  0.001100  1.0  -0.0141
  C  C201  1  0.620500  0.750000  0.737400  1.0  -0.0054
  C  C202  1  0.633100  0.750000  0.840200  1.0  0.0382
  C  C203  1  0.293000  0.750000  0.249900  1.0  -0.0775
  C  C204  1  0.110200  0.750000  0.219700  1.0  0.0086
  C  C205  1  0.874500  0.750000  0.417900  1.0  0.0477
  C  C206  1  0.991300  0.750000  0.498900  1.0  -0.014
  C  C207  1  0.120500  0.750000  0.762600  1.0  -0.0057
  C  C208  1  0.133100  0.750000  0.659800  1.0  0.0393
  C  C209  1  0.793000  0.750000  0.250100  1.0  -0.0776
  C  C210  1  0.610200  0.750000  0.280300  1.0  0.0085
  C  C211  1  0.625500  0.250000  0.917900  1.0  0.0485
  C  C212  1  0.508700  0.250000  0.998900  1.0  -0.0137
  C  C213  1  0.379500  0.250000  0.262600  1.0  -0.0054
  C  C214  1  0.366900  0.250000  0.159800  1.0  0.0393
  C  C215  1  0.707000  0.250000  0.750100  1.0  -0.0783
  C  C216  1  0.889800  0.250000  0.780300  1.0  0.0104
  O  O217  1  0.542600  0.496600  0.634090  1.0  -0.5603
  O  O218  1  0.491200  0.384500  0.614250  1.0  -0.4659
  O  O219  1  0.665600  0.495900  0.396680  1.0  -0.5851
  O  O220  1  0.804200  0.436800  0.324420  1.0  -0.5751
  O  O221  1  0.882200  0.387600  0.388870  1.0  -0.5745
  O  O222  1  0.741200  0.475300  0.467110  1.0  -0.5883
  O  O223  1  0.919300  0.401300  0.498370  1.0  -0.5766
  O  O224  1  0.057800  0.420000  0.465800  1.0  -0.4517
  O  O225  1  0.082700  0.447100  0.577530  1.0  -0.5997
  O  O226  1  0.200800  0.384800  0.611930  1.0  -0.5658
  O  O227  1  0.946300  0.433490  0.241260  1.0  -0.5689
  O  O228  1  0.813400  0.403800  0.204260  1.0  -0.4509
  O  O229  1  0.480600  0.390650  0.730220  1.0  -0.5747
  O  O230  1  0.355600  0.447750  0.701710  1.0  -0.5882
  O  O231  1  0.160500  0.422500  0.715200  1.0  -0.5829
  O  O232  1  0.174300  0.402100  0.795660  1.0  -0.5535
  O  O233  1  0.957400  0.503400  0.134090  1.0  -0.5594
  O  O234  1  0.008800  0.615500  0.114250  1.0  -0.4639
  O  O235  1  0.834400  0.504100  0.896680  1.0  -0.5843
  O  O236  1  0.695800  0.563200  0.824420  1.0  -0.5742
  O  O237  1  0.617800  0.612400  0.888870  1.0  -0.5751
  O  O238  1  0.758800  0.524700  0.967110  1.0  -0.5888
  O  O239  1  0.580700  0.598700  0.998370  1.0  -0.5766
  O  O240  1  0.442200  0.580000  0.965800  1.0  -0.4534
  O  O241  1  0.417300  0.552900  0.077530  1.0  -0.6006
  O  O242  1  0.299200  0.615200  0.111930  1.0  -0.5661
  O  O243  1  0.553700  0.566510  0.741260  1.0  -0.57
  O  O244  1  0.686600  0.596200  0.704260  1.0  -0.4491
  O  O245  1  0.019400  0.609350  0.230220  1.0  -0.5742
  O  O246  1  0.144400  0.552250  0.201710  1.0  -0.5888
  O  O247  1  0.339500  0.577500  0.215200  1.0  -0.5819
  O  O248  1  0.325700  0.597900  0.295660  1.0  -0.5544
  O  O249  1  0.457400  0.996600  0.365910  1.0  -0.5604
  O  O250  1  0.508800  0.884500  0.385750  1.0  -0.4645
  O  O251  1  0.334400  0.995900  0.603320  1.0  -0.5844
  O  O252  1  0.195800  0.936800  0.675580  1.0  -0.5748
  O  O253  1  0.117800  0.887600  0.611130  1.0  -0.5749
  O  O254  1  0.258800  0.975300  0.532890  1.0  -0.5891
  O  O255  1  0.080700  0.901300  0.501630  1.0  -0.5766
  O  O256  1  0.942200  0.920000  0.534200  1.0  -0.4521
  O  O257  1  0.917300  0.947100  0.422470  1.0  -0.6011
  O  O258  1  0.799200  0.884800  0.388070  1.0  -0.5663
  O  O259  1  0.053700  0.933490  0.758740  1.0  -0.5696
  O  O260  1  0.186600  0.903800  0.795740  1.0  -0.4494
  O  O261  1  0.519400  0.890650  0.269780  1.0  -0.5728
  O  O262  1  0.644400  0.947750  0.298290  1.0  -0.5885
  O  O263  1  0.839500  0.922500  0.284800  1.0  -0.5812
  O  O264  1  0.825700  0.902100  0.204340  1.0  -0.5558
  O  O265  1  0.042600  0.003400  0.865910  1.0  -0.5604
  O  O266  1  0.991200  0.115500  0.885750  1.0  -0.4645
  O  O267  1  0.165600  0.004100  0.103320  1.0  -0.5844
  O  O268  1  0.304200  0.063200  0.175580  1.0  -0.5752
  O  O269  1  0.382200  0.112400  0.111130  1.0  -0.5743
  O  O270  1  0.241200  0.024700  0.032890  1.0  -0.5898
  O  O271  1  0.419300  0.098700  0.001630  1.0  -0.5763
  O  O272  1  0.557800  0.080000  0.034200  1.0  -0.4546
  O  O273  1  0.582700  0.052900  0.922470  1.0  -0.6006
  O  O274  1  0.700800  0.115200  0.888070  1.0  -0.5658
  O  O275  1  0.446300  0.066510  0.258740  1.0  -0.5689
  O  O276  1  0.313400  0.096200  0.295740  1.0  -0.4492
  O  O277  1  0.980600  0.109350  0.769780  1.0  -0.5731
  O  O278  1  0.855600  0.052250  0.798290  1.0  -0.5886
  O  O279  1  0.660500  0.077500  0.784800  1.0  -0.5829
  O  O280  1  0.674300  0.097900  0.704340  1.0  -0.5562
  O  O281  1  0.457400  0.503400  0.365910  1.0  -0.5599
  O  O282  1  0.508800  0.615500  0.385750  1.0  -0.4641
  O  O283  1  0.334400  0.504100  0.603320  1.0  -0.5838
  O  O284  1  0.195800  0.563200  0.675580  1.0  -0.5747
  O  O285  1  0.117800  0.612400  0.611130  1.0  -0.5746
  O  O286  1  0.258800  0.524700  0.532890  1.0  -0.5895
  O  O287  1  0.080700  0.598700  0.501630  1.0  -0.5766
  O  O288  1  0.942200  0.580000  0.534200  1.0  -0.4517
  O  O289  1  0.917300  0.552900  0.422470  1.0  -0.6009
  O  O290  1  0.799200  0.615200  0.388070  1.0  -0.5663
  O  O291  1  0.053700  0.566510  0.758740  1.0  -0.5704
  O  O292  1  0.186600  0.596200  0.795740  1.0  -0.4492
  O  O293  1  0.519400  0.609350  0.269780  1.0  -0.5726
  O  O294  1  0.644400  0.552250  0.298290  1.0  -0.5889
  O  O295  1  0.839500  0.577500  0.284800  1.0  -0.5815
  O  O296  1  0.825700  0.597900  0.204340  1.0  -0.5555
  O  O297  1  0.042600  0.496600  0.865910  1.0  -0.5606
  O  O298  1  0.991200  0.384500  0.885750  1.0  -0.465
  O  O299  1  0.165600  0.495900  0.103320  1.0  -0.5839
  O  O300  1  0.304200  0.436800  0.175580  1.0  -0.5752
  O  O301  1  0.382200  0.387600  0.111130  1.0  -0.5746
  O  O302  1  0.241200  0.475300  0.032890  1.0  -0.5894
  O  O303  1  0.419300  0.401300  0.001630  1.0  -0.5764
  O  O304  1  0.557800  0.420000  0.034200  1.0  -0.4555
  O  O305  1  0.582700  0.447100  0.922470  1.0  -0.6004
  O  O306  1  0.700800  0.384800  0.888070  1.0  -0.5661
  O  O307  1  0.446300  0.433490  0.258740  1.0  -0.5691
  O  O308  1  0.313400  0.403800  0.295740  1.0  -0.449
  O  O309  1  0.980600  0.390650  0.769780  1.0  -0.5733
  O  O310  1  0.855600  0.447750  0.798290  1.0  -0.5888
  O  O311  1  0.660500  0.422500  0.784800  1.0  -0.5829
  O  O312  1  0.674300  0.402100  0.704340  1.0  -0.5562
  O  O313  1  0.542600  0.003400  0.634090  1.0  -0.5603
  O  O314  1  0.491200  0.115500  0.614250  1.0  -0.4645
  O  O315  1  0.665600  0.004100  0.396680  1.0  -0.5839
  O  O316  1  0.804200  0.063200  0.324420  1.0  -0.5748
  O  O317  1  0.882200  0.112400  0.388870  1.0  -0.5746
  O  O318  1  0.741200  0.024700  0.467110  1.0  -0.5888
  O  O319  1  0.919300  0.098700  0.498370  1.0  -0.5767
  O  O320  1  0.057800  0.080000  0.465800  1.0  -0.452
  O  O321  1  0.082700  0.052900  0.577530  1.0  -0.6001
  O  O322  1  0.200800  0.115200  0.611930  1.0  -0.5659
  O  O323  1  0.946300  0.066510  0.241260  1.0  -0.5685
  O  O324  1  0.813400  0.096200  0.204260  1.0  -0.4507
  O  O325  1  0.480600  0.109350  0.730220  1.0  -0.5746
  O  O326  1  0.355600  0.052250  0.701710  1.0  -0.5894
  O  O327  1  0.160500  0.077500  0.715200  1.0  -0.5835
  O  O328  1  0.174300  0.097900  0.795660  1.0  -0.5532
  O  O329  1  0.957400  0.996600  0.134090  1.0  -0.5599
  O  O330  1  0.008800  0.884500  0.114250  1.0  -0.4651
  O  O331  1  0.834400  0.995900  0.896680  1.0  -0.5838
  O  O332  1  0.695800  0.936800  0.824420  1.0  -0.5744
  O  O333  1  0.617800  0.887600  0.888870  1.0  -0.5749
  O  O334  1  0.758800  0.975300  0.967110  1.0  -0.5887
  O  O335  1  0.580700  0.901300  0.998370  1.0  -0.5766
  O  O336  1  0.442200  0.920000  0.965800  1.0  -0.4525
  O  O337  1  0.417300  0.947100  0.077530  1.0  -0.6005
  O  O338  1  0.299200  0.884800  0.111930  1.0  -0.5664
  O  O339  1  0.553700  0.933490  0.741260  1.0  -0.5693
  O  O340  1  0.686600  0.903800  0.704260  1.0  -0.4493
  O  O341  1  0.019400  0.890650  0.230220  1.0  -0.5743
  O  O342  1  0.144400  0.947750  0.201710  1.0  -0.5892
  O  O343  1  0.339500  0.922500  0.215200  1.0  -0.5815
  O  O344  1  0.325700  0.902100  0.295660  1.0  -0.5543
