# generated using pymatgen
data_Na2Mn2Zn3Mo12P8H16C12(NO8)8
_symmetry_space_group_name_H-M   'P 1'
_cell_length_a   17.04970000
_cell_length_b   17.04970000
_cell_length_c   24.90800000
_cell_angle_alpha   120.07140000
_cell_angle_beta   120.07140000
_cell_angle_gamma   50.59760000
_symmetry_Int_Tables_number   1
_chemical_formula_structural   Na2Mn2Zn3Mo12P8H16C12(NO8)8
_chemical_formula_sum   'Na4 Mn4 Zn6 Mo24 P16 H32 C24 N16 O128'
_cell_volume   4656.91843192
_cell_formula_units_Z   2
loop_
 _symmetry_equiv_pos_site_id
 _symmetry_equiv_pos_as_xyz
  1  'x, y, z'
loop_
 _atom_site_type_symbol
 _atom_site_label
 _atom_site_symmetry_multiplicity
 _atom_site_fract_x
 _atom_site_fract_y
 _atom_site_fract_z
 _atom_site_occupancy
 _atom_site_charge
  Na  Na1  1  0.725430  0.210230  0.294010  1.0  0.9941
  Na  Na2  1  0.789770  0.274570  0.205990  1.0  0.9946
  Na  Na3  1  0.274570  0.789770  0.705990  1.0  0.9962
  Na  Na4  1  0.210230  0.725430  0.794010  1.0  0.9916
  Mn  Mn5  1  0.500000  0.000000  0.000000  1.0  0.9753
  Mn  Mn6  1  0.000000  0.500000  0.500000  1.0  0.9753
  Mn  Mn7  1  0.582480  0.417520  0.250000  1.0  1.1707
  Mn  Mn8  1  0.417520  0.582480  0.750000  1.0  1.1709
  Zn  Zn9  1  0.438960  0.477480  0.407290  1.0  1.1087
  Zn  Zn10  1  0.522520  0.561040  0.092710  1.0  1.1073
  Zn  Zn11  1  0.561040  0.522520  0.592710  1.0  1.1085
  Zn  Zn12  1  0.477480  0.438960  0.907290  1.0  1.1072
  Zn  Zn13  1  0.143340  0.856660  0.250000  1.0  0.8991
  Zn  Zn14  1  0.856660  0.143340  0.750000  1.0  0.8997
  Mo  Mo15  1  0.354050  0.267690  0.111440  1.0  1.7405
  Mo  Mo16  1  0.579730  0.067050  0.184890  1.0  1.7836
  Mo  Mo17  1  0.356020  0.294860  0.018220  1.0  1.771
  Mo  Mo18  1  0.583780  0.130440  0.965140  1.0  1.7621
  Mo  Mo19  1  0.748990  0.980770  0.017880  1.0  1.8241
  Mo  Mo20  1  0.747230  0.946210  0.144690  1.0  1.7606
  Mo  Mo21  1  0.732310  0.645950  0.388560  1.0  1.7409
  Mo  Mo22  1  0.932950  0.420270  0.315110  1.0  1.7883
  Mo  Mo23  1  0.705140  0.643980  0.481780  1.0  1.774
  Mo  Mo24  1  0.869560  0.416220  0.534860  1.0  1.7586
  Mo  Mo25  1  0.019230  0.251010  0.482120  1.0  1.8173
  Mo  Mo26  1  0.053790  0.252770  0.355310  1.0  1.761
  Mo  Mo27  1  0.645950  0.732310  0.888560  1.0  1.7393
  Mo  Mo28  1  0.420270  0.932950  0.815110  1.0  1.7863
  Mo  Mo29  1  0.643980  0.705140  0.981780  1.0  1.7709
  Mo  Mo30  1  0.416220  0.869560  0.034860  1.0  1.7585
  Mo  Mo31  1  0.251010  0.019230  0.982120  1.0  1.8187
  Mo  Mo32  1  0.252770  0.053790  0.855310  1.0  1.7622
  Mo  Mo33  1  0.267690  0.354050  0.611440  1.0  1.74
  Mo  Mo34  1  0.067050  0.579730  0.684890  1.0  1.7834
  Mo  Mo35  1  0.294860  0.356020  0.518220  1.0  1.7697
  Mo  Mo36  1  0.130440  0.583780  0.465140  1.0  1.7622
  Mo  Mo37  1  0.980770  0.748990  0.517880  1.0  1.8252
  Mo  Mo38  1  0.946210  0.747230  0.644690  1.0  1.7616
  P  P39  1  0.603210  0.192230  0.125550  1.0  1.7391
  P  P40  1  0.462910  0.392410  0.006250  1.0  1.8652
  P  P41  1  0.469130  0.317550  0.268890  1.0  1.8652
  P  P42  1  0.930710  0.976910  0.157690  1.0  1.8807
  P  P43  1  0.807770  0.396790  0.374450  1.0  1.7388
  P  P44  1  0.607590  0.537090  0.493750  1.0  1.8653
  P  P45  1  0.682450  0.530870  0.231110  1.0  1.8618
  P  P46  1  0.023090  0.069290  0.342310  1.0  1.882
  P  P47  1  0.396790  0.807770  0.874450  1.0  1.7392
  P  P48  1  0.537090  0.607590  0.993750  1.0  1.8654
  P  P49  1  0.530870  0.682450  0.731110  1.0  1.8613
  P  P50  1  0.069290  0.023090  0.842310  1.0  1.8815
  P  P51  1  0.192230  0.603210  0.625550  1.0  1.7391
  P  P52  1  0.392410  0.462910  0.506250  1.0  1.8666
  P  P53  1  0.317550  0.469130  0.768890  1.0  1.8642
  P  P54  1  0.976910  0.930710  0.657690  1.0  1.8806
  H  H55  1  0.093000  0.792000  0.374300  1.0  0.3217
  H  H56  1  0.512000  0.729800  0.285200  1.0  0.3404
  H  H57  1  0.187900  0.599500  0.351800  1.0  0.1605
  H  H58  1  0.386500  0.698700  0.423100  1.0  0.1372
  H  H59  1  0.202700  0.857300  0.402300  1.0  0.1556
  H  H60  1  0.378600  0.689600  0.242000  1.0  0.1264
  H  H61  1  0.242500  0.994900  0.303800  1.0  0.1368
  H  H62  1  0.432500  0.922900  0.320800  1.0  0.1484
  H  H63  1  0.208000  0.907000  0.125700  1.0  0.3207
  H  H64  1  0.270200  0.488000  0.214800  1.0  0.334
  H  H65  1  0.400500  0.812100  0.148200  1.0  0.1596
  H  H66  1  0.301300  0.613500  0.076900  1.0  0.1349
  H  H67  1  0.142700  0.797300  0.097700  1.0  0.1555
  H  H68  1  0.310400  0.621400  0.258000  1.0  0.1262
  H  H69  1  0.005100  0.757500  0.196200  1.0  0.1348
  H  H70  1  0.077100  0.567500  0.179200  1.0  0.1468
  H  H71  1  0.907000  0.208000  0.625700  1.0  0.3197
  H  H72  1  0.488000  0.270200  0.714800  1.0  0.3386
  H  H73  1  0.812100  0.400500  0.648200  1.0  0.1605
  H  H74  1  0.613500  0.301300  0.576900  1.0  0.1369
  H  H75  1  0.797300  0.142700  0.597700  1.0  0.1561
  H  H76  1  0.621400  0.310400  0.758000  1.0  0.1264
  H  H77  1  0.757500  0.005100  0.696200  1.0  0.1361
  H  H78  1  0.567500  0.077100  0.679200  1.0  0.1483
  H  H79  1  0.792000  0.093000  0.874300  1.0  0.32
  H  H80  1  0.729800  0.512000  0.785200  1.0  0.3328
  H  H81  1  0.599500  0.187900  0.851800  1.0  0.1605
  H  H82  1  0.698700  0.386500  0.923100  1.0  0.1354
  H  H83  1  0.857300  0.202700  0.902300  1.0  0.1573
  H  H84  1  0.689600  0.378600  0.742000  1.0  0.1258
  H  H85  1  0.994900  0.242500  0.803800  1.0  0.1353
  H  H86  1  0.922900  0.432500  0.820800  1.0  0.1463
  C  C87  1  0.214600  0.644200  0.372000  1.0  0.0847
  C  C88  1  0.323700  0.701300  0.410600  1.0  0.0587
  C  C89  1  0.221900  0.790500  0.398600  1.0  -0.028
  C  C90  1  0.369300  0.756900  0.262000  1.0  0.2433
  C  C91  1  0.294600  0.924000  0.295100  1.0  0.0219
  C  C92  1  0.400200  0.884400  0.304400  1.0  -0.027
  C  C93  1  0.355800  0.785400  0.128000  1.0  0.0848
  C  C94  1  0.298700  0.676300  0.089400  1.0  0.0566
  C  C95  1  0.209500  0.778100  0.101400  1.0  -0.0249
  C  C96  1  0.243100  0.630700  0.238000  1.0  0.2428
  C  C97  1  0.076000  0.705400  0.204900  1.0  0.0217
  C  C98  1  0.115600  0.599800  0.195600  1.0  -0.024
  C  C99  1  0.785400  0.355800  0.628000  1.0  0.0843
  C  C100  1  0.676300  0.298700  0.589400  1.0  0.0587
  C  C101  1  0.778100  0.209500  0.601400  1.0  -0.0271
  C  C102  1  0.630700  0.243100  0.738000  1.0  0.2432
  C  C103  1  0.705400  0.076000  0.704900  1.0  0.0233
  C  C104  1  0.599800  0.115600  0.695600  1.0  -0.0283
  C  C105  1  0.644200  0.214600  0.872000  1.0  0.0848
  C  C106  1  0.701300  0.323700  0.910600  1.0  0.0556
  C  C107  1  0.790500  0.221900  0.898600  1.0  -0.0242
  C  C108  1  0.756900  0.369300  0.762000  1.0  0.2424
  C  C109  1  0.924000  0.294600  0.795100  1.0  0.0235
  C  C110  1  0.884400  0.400200  0.804400  1.0  -0.0223
  N  N111  1  0.317000  0.620600  0.401300  1.0  -0.2515
  N  N112  1  0.160300  0.752500  0.380300  1.0  -0.2991
  N  N113  1  0.281400  0.840200  0.270900  1.0  -0.2981
  N  N114  1  0.446600  0.775800  0.284000  1.0  -0.2686
  N  N115  1  0.379400  0.683000  0.098700  1.0  -0.2517
  N  N116  1  0.247500  0.839700  0.119700  1.0  -0.2907
  N  N117  1  0.159800  0.718600  0.229100  1.0  -0.2969
  N  N118  1  0.224200  0.553400  0.216000  1.0  -0.2682
  N  N119  1  0.683000  0.379400  0.598700  1.0  -0.2517
  N  N120  1  0.839700  0.247500  0.619700  1.0  -0.2977
  N  N121  1  0.718600  0.159800  0.729100  1.0  -0.3008
  N  N122  1  0.553400  0.224200  0.716000  1.0  -0.2698
  N  N123  1  0.620600  0.317000  0.901300  1.0  -0.2543
  N  N124  1  0.752500  0.160300  0.880300  1.0  -0.2949
  N  N125  1  0.840200  0.281400  0.770900  1.0  -0.299
  N  N126  1  0.775800  0.446600  0.784000  1.0  -0.2652
  O  O127  1  0.531540  0.192740  0.146800  1.0  -0.8124
  O  O128  1  0.694920  0.076520  0.109700  1.0  -0.8077
  O  O129  1  0.446800  0.490000  0.174500  1.0  -0.267
  O  O130  1  0.535930  0.224130  0.061400  1.0  -0.8022
  O  O131  1  0.390620  0.168220  0.029200  1.0  -0.7692
  O  O132  1  0.600280  0.979880  0.097700  1.0  -0.7463
  O  O133  1  0.600420  0.016620  0.980000  1.0  -0.745
  O  O134  1  0.772900  0.875300  0.052900  1.0  -0.6062
  O  O135  1  0.721690  0.111490  0.021300  1.0  -0.6241
  O  O136  1  0.421290  0.192490  0.940100  1.0  -0.6203
  O  O137  1  0.352500  0.378700  0.106500  1.0  -0.633
  O  O138  1  0.416540  0.135140  0.138700  1.0  -0.5679
  O  O139  1  0.714700  0.059300  0.223400  1.0  -0.7554
  O  O140  1  0.799900  0.835300  0.161400  1.0  -0.6062
  O  O141  1  0.800200  0.890600  0.955300  1.0  -0.5317
  O  O142  1  0.595600  0.076400  0.889800  1.0  -0.6144
  O  O143  1  0.228600  0.341000  0.975100  1.0  -0.5556
  O  O144  1  0.226000  0.309400  0.092500  1.0  -0.5761
  O  O145  1  0.593100  0.984900  0.211500  1.0  -0.5213
  O  O146  1  0.371900  0.341700  0.208200  1.0  -0.7899
  O  O147  1  0.532500  0.197300  0.261000  1.0  -0.7257
  O  O148  1  0.424300  0.374300  0.325800  1.0  -0.7321
  O  O149  1  0.539700  0.350700  0.277100  1.0  -0.8923
  O  O150  1  0.645000  0.263600  0.178400  1.0  -0.8771
  O  O151  1  0.887700  0.938100  0.175300  1.0  -0.7473
  O  O152  1  0.890700  0.962700  0.084500  1.0  -0.7263
  O  O153  1  0.049600  0.912600  0.175800  1.0  -0.793
  O  O154  1  0.373420  0.399020  0.013000  1.0  -0.7449
  O  O155  1  0.413600  0.461600  0.963600  1.0  -0.731
  O  O156  1  0.539790  0.278590  0.975700  1.0  -0.7688
  O  O157  1  0.522430  0.434830  0.073600  1.0  -0.7749
  O  O158  1  0.895200  0.093400  0.194500  1.0  -0.8954
  O  O159  1  0.807260  0.468460  0.353200  1.0  -0.8108
  O  O160  1  0.923480  0.305080  0.390300  1.0  -0.8092
  O  O161  1  0.510000  0.553200  0.325500  1.0  -0.2666
  O  O162  1  0.775870  0.464070  0.438600  1.0  -0.803
  O  O163  1  0.831780  0.609380  0.470800  1.0  -0.7703
  O  O164  1  0.020120  0.399720  0.402300  1.0  -0.7419
  O  O165  1  0.983380  0.399580  0.520000  1.0  -0.7434
  O  O166  1  0.124700  0.227100  0.447100  1.0  -0.6074
  O  O167  1  0.888510  0.278310  0.478700  1.0  -0.6256
  O  O168  1  0.807510  0.578710  0.559900  1.0  -0.6187
  O  O169  1  0.621300  0.647500  0.393500  1.0  -0.6324
  O  O170  1  0.864860  0.583460  0.361300  1.0  -0.5729
  O  O171  1  0.940700  0.285300  0.276600  1.0  -0.7582
  O  O172  1  0.164700  0.200100  0.338600  1.0  -0.6069
  O  O173  1  0.109400  0.199800  0.544700  1.0  -0.5332
  O  O174  1  0.923600  0.404400  0.610200  1.0  -0.6124
  O  O175  1  0.659000  0.771400  0.524900  1.0  -0.5564
  O  O176  1  0.690600  0.774000  0.407500  1.0  -0.5827
  O  O177  1  0.015100  0.406900  0.288500  1.0  -0.5198
  O  O178  1  0.658300  0.628100  0.291800  1.0  -0.7906
  O  O179  1  0.802700  0.467500  0.239000  1.0  -0.7294
  O  O180  1  0.625700  0.575700  0.174200  1.0  -0.7322
  O  O181  1  0.649300  0.460300  0.222900  1.0  -0.8934
  O  O182  1  0.736400  0.355000  0.321600  1.0  -0.8749
  O  O183  1  0.061900  0.112300  0.324700  1.0  -0.7462
  O  O184  1  0.037300  0.109300  0.415500  1.0  -0.7273
  O  O185  1  0.087400  0.950400  0.324200  1.0  -0.7923
  O  O186  1  0.600980  0.626580  0.487000  1.0  -0.7482
  O  O187  1  0.538400  0.586400  0.536400  1.0  -0.7339
  O  O188  1  0.721410  0.460210  0.524300  1.0  -0.7695
  O  O189  1  0.565170  0.477570  0.426400  1.0  -0.7779
  O  O190  1  0.906600  0.104800  0.305500  1.0  -0.893
  O  O191  1  0.468460  0.807260  0.853200  1.0  -0.8104
  O  O192  1  0.305080  0.923480  0.890300  1.0  -0.8084
  O  O193  1  0.553200  0.510000  0.825500  1.0  -0.2674
  O  O194  1  0.464070  0.775870  0.938600  1.0  -0.8012
  O  O195  1  0.609380  0.831780  0.970800  1.0  -0.7702
  O  O196  1  0.399720  0.020120  0.902300  1.0  -0.7435
  O  O197  1  0.399580  0.983380  0.020000  1.0  -0.744
  O  O198  1  0.227100  0.124700  0.947100  1.0  -0.6055
  O  O199  1  0.278310  0.888510  0.978700  1.0  -0.6219
  O  O200  1  0.578710  0.807510  0.059900  1.0  -0.6191
  O  O201  1  0.647500  0.621300  0.893500  1.0  -0.6332
  O  O202  1  0.583460  0.864860  0.861300  1.0  -0.5721
  O  O203  1  0.285300  0.940700  0.776600  1.0  -0.7589
  O  O204  1  0.200100  0.164700  0.838600  1.0  -0.6096
  O  O205  1  0.199800  0.109400  0.044700  1.0  -0.5336
  O  O206  1  0.404400  0.923600  0.110200  1.0  -0.6139
  O  O207  1  0.771400  0.659000  0.024900  1.0  -0.5558
  O  O208  1  0.774000  0.690600  0.907500  1.0  -0.5799
  O  O209  1  0.406900  0.015100  0.788500  1.0  -0.5223
  O  O210  1  0.628100  0.658300  0.791800  1.0  -0.7889
  O  O211  1  0.467500  0.802700  0.739000  1.0  -0.7329
  O  O212  1  0.575700  0.625700  0.674200  1.0  -0.7334
  O  O213  1  0.460300  0.649300  0.722900  1.0  -0.893
  O  O214  1  0.355000  0.736400  0.821600  1.0  -0.8768
  O  O215  1  0.112300  0.061900  0.824700  1.0  -0.7451
  O  O216  1  0.109300  0.037300  0.915500  1.0  -0.7252
  O  O217  1  0.950400  0.087400  0.824200  1.0  -0.7921
  O  O218  1  0.626580  0.600980  0.987000  1.0  -0.7468
  O  O219  1  0.586400  0.538400  0.036400  1.0  -0.7304
  O  O220  1  0.460210  0.721410  0.024300  1.0  -0.7687
  O  O221  1  0.477570  0.565170  0.926400  1.0  -0.7768
  O  O222  1  0.104800  0.906600  0.805500  1.0  -0.8933
  O  O223  1  0.192740  0.531540  0.646800  1.0  -0.8125
  O  O224  1  0.076520  0.694920  0.609700  1.0  -0.8087
  O  O225  1  0.490000  0.446800  0.674500  1.0  -0.2669
  O  O226  1  0.224130  0.535930  0.561400  1.0  -0.8018
  O  O227  1  0.168220  0.390620  0.529200  1.0  -0.7704
  O  O228  1  0.979880  0.600280  0.597700  1.0  -0.7447
  O  O229  1  0.016620  0.600420  0.480000  1.0  -0.7427
  O  O230  1  0.875300  0.772900  0.552900  1.0  -0.6063
  O  O231  1  0.111490  0.721690  0.521300  1.0  -0.626
  O  O232  1  0.192490  0.421290  0.440100  1.0  -0.6214
  O  O233  1  0.378700  0.352500  0.606500  1.0  -0.6333
  O  O234  1  0.135140  0.416540  0.638700  1.0  -0.5687
  O  O235  1  0.059300  0.714700  0.723400  1.0  -0.7576
  O  O236  1  0.835300  0.799900  0.661400  1.0  -0.6038
  O  O237  1  0.890600  0.800200  0.455300  1.0  -0.5333
  O  O238  1  0.076400  0.595600  0.389800  1.0  -0.6143
  O  O239  1  0.341000  0.228600  0.475100  1.0  -0.5572
  O  O240  1  0.309400  0.226000  0.592500  1.0  -0.5807
  O  O241  1  0.984900  0.593100  0.711500  1.0  -0.518
  O  O242  1  0.341700  0.371900  0.708200  1.0  -0.7919
  O  O243  1  0.197300  0.532500  0.761000  1.0  -0.7248
  O  O244  1  0.374300  0.424300  0.825800  1.0  -0.7314
  O  O245  1  0.350700  0.539700  0.777100  1.0  -0.8941
  O  O246  1  0.263600  0.645000  0.678400  1.0  -0.8774
  O  O247  1  0.938100  0.887700  0.675300  1.0  -0.7476
  O  O248  1  0.962700  0.890700  0.584500  1.0  -0.7296
  O  O249  1  0.912600  0.049600  0.675800  1.0  -0.7928
  O  O250  1  0.399020  0.373420  0.513000  1.0  -0.7493
  O  O251  1  0.461600  0.413600  0.463600  1.0  -0.7341
  O  O252  1  0.278590  0.539790  0.475700  1.0  -0.7691
  O  O253  1  0.434830  0.522430  0.573600  1.0  -0.777
  O  O254  1  0.093400  0.895200  0.694500  1.0  -0.8945
