# generated using pymatgen
data_ZnH9C24(O2F3)3
_symmetry_space_group_name_H-M   'P 1'
_cell_length_a   7.88490000
_cell_length_b   36.83280000
_cell_length_c   26.76560000
_cell_angle_alpha   90.00000000
_cell_angle_beta   90.00000000
_cell_angle_gamma   90.00000000
_symmetry_Int_Tables_number   1
_chemical_formula_structural   ZnH9C24(O2F3)3
_chemical_formula_sum   'Zn8 H72 C192 O48 F72'
_cell_volume   7773.34436920
_cell_formula_units_Z   8
loop_
 _symmetry_equiv_pos_site_id
 _symmetry_equiv_pos_as_xyz
  1  'x, y, z'
loop_
 _atom_site_type_symbol
 _atom_site_label
 _atom_site_symmetry_multiplicity
 _atom_site_fract_x
 _atom_site_fract_y
 _atom_site_fract_z
 _atom_site_occupancy
 _atom_site_charge
  Zn  Zn1  1  0.867610  0.204750  0.133610  1.0  1.0172
  Zn  Zn2  1  0.867610  0.704750  0.633610  1.0  1.0172
  Zn  Zn3  1  0.132390  0.795250  0.133610  1.0  1.0166
  Zn  Zn4  1  0.132390  0.295250  0.633610  1.0  1.0166
  Zn  Zn5  1  0.367610  0.295250  0.133610  1.0  1.0168
  Zn  Zn6  1  0.367610  0.795250  0.633610  1.0  1.0168
  Zn  Zn7  1  0.632390  0.704750  0.133610  1.0  1.017
  Zn  Zn8  1  0.632390  0.204750  0.633610  1.0  1.017
  H  H9  1  0.755400  0.172000  0.866900  1.0  0.1215
  H  H10  1  0.566400  0.266200  0.920700  1.0  0.1146
  H  H11  1  0.676200  0.253200  0.998600  1.0  0.121
  H  H12  1  0.619700  0.284500  0.841700  1.0  0.1146
  H  H13  1  0.449700  0.195100  0.730400  1.0  0.1127
  H  H14  1  0.531700  0.178900  0.810500  1.0  0.1367
  H  H15  1  0.069300  0.029600  0.208200  1.0  0.1323
  H  H16  1  0.902100  0.024000  0.066500  1.0  0.1341
  H  H17  1  0.833100  0.084700  0.068600  1.0  0.1273
  H  H18  1  0.755400  0.672000  0.366900  1.0  0.1215
  H  H19  1  0.566400  0.766200  0.420700  1.0  0.1146
  H  H20  1  0.676200  0.753200  0.498600  1.0  0.121
  H  H21  1  0.619700  0.784500  0.341700  1.0  0.1146
  H  H22  1  0.449700  0.695100  0.230400  1.0  0.1127
  H  H23  1  0.531700  0.678900  0.310500  1.0  0.1367
  H  H24  1  0.069300  0.529600  0.708200  1.0  0.1312
  H  H25  1  0.902100  0.524000  0.566500  1.0  0.1341
  H  H26  1  0.833100  0.584700  0.568600  1.0  0.1273
  H  H27  1  0.244600  0.828000  0.866900  1.0  0.1209
  H  H28  1  0.433600  0.733800  0.920700  1.0  0.1149
  H  H29  1  0.323800  0.746800  0.998600  1.0  0.1207
  H  H30  1  0.380300  0.715500  0.841700  1.0  0.1134
  H  H31  1  0.550300  0.804900  0.730400  1.0  0.1128
  H  H32  1  0.468300  0.821100  0.810500  1.0  0.1359
  H  H33  1  0.930700  0.970400  0.208200  1.0  0.132
  H  H34  1  0.097900  0.976000  0.066500  1.0  0.1347
  H  H35  1  0.166900  0.915300  0.068600  1.0  0.1275
  H  H36  1  0.244600  0.328000  0.366900  1.0  0.1209
  H  H37  1  0.433600  0.233800  0.420700  1.0  0.1149
  H  H38  1  0.323800  0.246800  0.498600  1.0  0.1207
  H  H39  1  0.380300  0.215500  0.341700  1.0  0.1134
  H  H40  1  0.550300  0.304900  0.230400  1.0  0.1128
  H  H41  1  0.468300  0.321100  0.310500  1.0  0.1359
  H  H42  1  0.930700  0.470400  0.708200  1.0  0.132
  H  H43  1  0.097900  0.476000  0.566500  1.0  0.1347
  H  H44  1  0.166900  0.415300  0.568600  1.0  0.1275
  H  H45  1  0.255400  0.328000  0.866900  1.0  0.1216
  H  H46  1  0.066400  0.233800  0.920700  1.0  0.1148
  H  H47  1  0.176200  0.246800  0.998600  1.0  0.1208
  H  H48  1  0.119700  0.215500  0.841700  1.0  0.1149
  H  H49  1  0.949700  0.304900  0.730400  1.0  0.1131
  H  H50  1  0.031700  0.321100  0.810500  1.0  0.1357
  H  H51  1  0.569300  0.470400  0.208200  1.0  0.1316
  H  H52  1  0.402100  0.476000  0.066500  1.0  0.1342
  H  H53  1  0.333100  0.415300  0.068600  1.0  0.1276
  H  H54  1  0.255400  0.828000  0.366900  1.0  0.1216
  H  H55  1  0.066400  0.733800  0.420700  1.0  0.1148
  H  H56  1  0.176200  0.746800  0.498600  1.0  0.1208
  H  H57  1  0.119700  0.715500  0.341700  1.0  0.1149
  H  H58  1  0.949700  0.804900  0.230400  1.0  0.1131
  H  H59  1  0.031700  0.821100  0.310500  1.0  0.1357
  H  H60  1  0.569300  0.970400  0.708200  1.0  0.1316
  H  H61  1  0.402100  0.976000  0.566500  1.0  0.1342
  H  H62  1  0.333100  0.915300  0.568600  1.0  0.1276
  H  H63  1  0.744600  0.672000  0.866900  1.0  0.1199
  H  H64  1  0.933600  0.766200  0.920700  1.0  0.1146
  H  H65  1  0.823800  0.753200  0.998600  1.0  0.1207
  H  H66  1  0.880300  0.784500  0.841700  1.0  0.1134
  H  H67  1  0.050300  0.695100  0.730400  1.0  0.1127
  H  H68  1  0.968300  0.678900  0.810500  1.0  0.1375
  H  H69  1  0.430700  0.529600  0.208200  1.0  0.1316
  H  H70  1  0.597900  0.524000  0.066500  1.0  0.1345
  H  H71  1  0.666900  0.584700  0.068600  1.0  0.1274
  H  H72  1  0.744600  0.172000  0.366900  1.0  0.1199
  H  H73  1  0.933600  0.266200  0.420700  1.0  0.1146
  H  H74  1  0.823800  0.253200  0.498600  1.0  0.1207
  H  H75  1  0.880300  0.284500  0.341700  1.0  0.1134
  H  H76  1  0.050300  0.195100  0.230400  1.0  0.1127
  H  H77  1  0.968300  0.178900  0.310500  1.0  0.1375
  H  H78  1  0.430700  0.029600  0.708200  1.0  0.1316
  H  H79  1  0.597900  0.024000  0.566500  1.0  0.1345
  H  H80  1  0.666900  0.084700  0.568600  1.0  0.1274
  C  C81  1  0.871400  0.201180  0.030920  1.0  0.7161
  C  C82  1  0.789100  0.204990  0.980050  1.0  -0.1223
  C  C83  1  0.808800  0.180730  0.940150  1.0  -0.0086
  C  C84  1  0.740800  0.188750  0.893550  1.0  -0.1254
  C  C85  1  0.651400  0.220860  0.885060  1.0  0.0583
  C  C86  1  0.628800  0.244420  0.925400  1.0  -0.1221
  C  C87  1  0.694700  0.236750  0.971800  1.0  -0.0122
  C  C88  1  0.901100  0.145400  0.945400  1.0  0.5073
  C  C89  1  0.587700  0.230120  0.834630  1.0  0.0568
  C  C90  1  0.582600  0.266090  0.819320  1.0  -0.09
  C  C91  1  0.524900  0.276010  0.772210  1.0  -0.017
  C  C92  1  0.472600  0.249340  0.738910  1.0  -0.044
  C  C93  1  0.480800  0.213550  0.753500  1.0  -0.028
  C  C94  1  0.533000  0.203690  0.800850  1.0  -0.1195
  C  C95  1  0.529100  0.315840  0.759580  1.0  0.56
  C  C96  1  0.400900  0.257260  0.687830  1.0  0.7314
  C  C97  1  0.858900  0.134200  0.136200  1.0  0.7341
  C  C98  1  0.905900  0.094060  0.139100  1.0  -0.0594
  C  C99  1  0.981500  0.077720  0.181300  1.0  -0.0483
  C  C100  1  0.018100  0.040870  0.180100  1.0  -0.0805
  C  C101  1  0.980000  0.020140  0.137400  1.0  0.0574
  C  C102  1  0.918500  0.037340  0.096500  1.0  -0.1462
  C  C103  1  0.879600  0.073620  0.097600  1.0  -0.1013
  C  C104  1  0.016000  0.098350  0.228000  1.0  0.46
  C  C105  1  0.871400  0.701180  0.530920  1.0  0.7161
  C  C106  1  0.789100  0.704990  0.480050  1.0  -0.1223
  C  C107  1  0.808800  0.680730  0.440150  1.0  -0.0086
  C  C108  1  0.740800  0.688750  0.393550  1.0  -0.1254
  C  C109  1  0.651400  0.720860  0.385060  1.0  0.0583
  C  C110  1  0.628800  0.744420  0.425400  1.0  -0.1221
  C  C111  1  0.694700  0.736750  0.471800  1.0  -0.0122
  C  C112  1  0.901100  0.645400  0.445400  1.0  0.5073
  C  C113  1  0.587700  0.730120  0.334630  1.0  0.0568
  C  C114  1  0.582600  0.766090  0.319320  1.0  -0.09
  C  C115  1  0.524900  0.776010  0.272210  1.0  -0.017
  C  C116  1  0.472600  0.749340  0.238910  1.0  -0.044
  C  C117  1  0.480800  0.713550  0.253500  1.0  -0.028
  C  C118  1  0.533000  0.703690  0.300850  1.0  -0.1195
  C  C119  1  0.529100  0.815840  0.259580  1.0  0.56
  C  C120  1  0.400900  0.757260  0.187830  1.0  0.7314
  C  C121  1  0.858900  0.634200  0.636200  1.0  0.7341
  C  C122  1  0.905900  0.594060  0.639100  1.0  -0.0594
  C  C123  1  0.981500  0.577720  0.681300  1.0  -0.0483
  C  C124  1  0.018100  0.540870  0.680100  1.0  -0.0805
  C  C125  1  0.980000  0.520140  0.637400  1.0  0.0574
  C  C126  1  0.918500  0.537340  0.596500  1.0  -0.1462
  C  C127  1  0.879600  0.573620  0.597600  1.0  -0.1013
  C  C128  1  0.016000  0.598350  0.728000  1.0  0.46
  C  C129  1  0.128600  0.798820  0.030920  1.0  0.7149
  C  C130  1  0.210900  0.795010  0.980050  1.0  -0.1232
  C  C131  1  0.191200  0.819270  0.940150  1.0  -0.0076
  C  C132  1  0.259200  0.811250  0.893550  1.0  -0.125
  C  C133  1  0.348600  0.779140  0.885060  1.0  0.0581
  C  C134  1  0.371200  0.755580  0.925400  1.0  -0.1216
  C  C135  1  0.305300  0.763250  0.971800  1.0  -0.0122
  C  C136  1  0.098900  0.854600  0.945400  1.0  0.5131
  C  C137  1  0.412300  0.769880  0.834630  1.0  0.0571
  C  C138  1  0.417400  0.733910  0.819320  1.0  -0.0947
  C  C139  1  0.475100  0.723990  0.772210  1.0  -0.0171
  C  C140  1  0.527400  0.750660  0.738910  1.0  -0.0435
  C  C141  1  0.519200  0.786450  0.753500  1.0  -0.0206
  C  C142  1  0.467000  0.796310  0.800850  1.0  -0.1213
  C  C143  1  0.470900  0.684160  0.759580  1.0  0.5471
  C  C144  1  0.599100  0.742740  0.687830  1.0  0.7312
  C  C145  1  0.141100  0.865800  0.136200  1.0  0.7273
  C  C146  1  0.094100  0.905940  0.139100  1.0  -0.0588
  C  C147  1  0.018500  0.922280  0.181300  1.0  -0.0488
  C  C148  1  0.981900  0.959130  0.180100  1.0  -0.0811
  C  C149  1  0.020000  0.979860  0.137400  1.0  0.057
  C  C150  1  0.081500  0.962660  0.096500  1.0  -0.1466
  C  C151  1  0.120400  0.926380  0.097600  1.0  -0.1009
  C  C152  1  0.984000  0.901650  0.228000  1.0  0.4606
  C  C153  1  0.128600  0.298820  0.530920  1.0  0.7149
  C  C154  1  0.210900  0.295010  0.480050  1.0  -0.1232
  C  C155  1  0.191200  0.319270  0.440150  1.0  -0.0076
  C  C156  1  0.259200  0.311250  0.393550  1.0  -0.125
  C  C157  1  0.348600  0.279140  0.385060  1.0  0.0581
  C  C158  1  0.371200  0.255580  0.425400  1.0  -0.1216
  C  C159  1  0.305300  0.263250  0.471800  1.0  -0.0122
  C  C160  1  0.098900  0.354600  0.445400  1.0  0.5131
  C  C161  1  0.412300  0.269880  0.334630  1.0  0.0571
  C  C162  1  0.417400  0.233910  0.319320  1.0  -0.0947
  C  C163  1  0.475100  0.223990  0.272210  1.0  -0.0171
  C  C164  1  0.527400  0.250660  0.238910  1.0  -0.0435
  C  C165  1  0.519200  0.286450  0.253500  1.0  -0.0206
  C  C166  1  0.467000  0.296310  0.300850  1.0  -0.1213
  C  C167  1  0.470900  0.184160  0.259580  1.0  0.5471
  C  C168  1  0.599100  0.242740  0.187830  1.0  0.7312
  C  C169  1  0.141100  0.365800  0.636200  1.0  0.7273
  C  C170  1  0.094100  0.405940  0.639100  1.0  -0.0588
  C  C171  1  0.018500  0.422280  0.681300  1.0  -0.0488
  C  C172  1  0.981900  0.459130  0.680100  1.0  -0.0811
  C  C173  1  0.020000  0.479860  0.637400  1.0  0.057
  C  C174  1  0.081500  0.462660  0.596500  1.0  -0.1466
  C  C175  1  0.120400  0.426380  0.597600  1.0  -0.1009
  C  C176  1  0.984000  0.401650  0.728000  1.0  0.4606
  C  C177  1  0.371400  0.298820  0.030920  1.0  0.7144
  C  C178  1  0.289100  0.295010  0.980050  1.0  -0.1186
  C  C179  1  0.308800  0.319270  0.940150  1.0  -0.009
  C  C180  1  0.240800  0.311250  0.893550  1.0  -0.1249
  C  C181  1  0.151400  0.279140  0.885060  1.0  0.0584
  C  C182  1  0.128800  0.255580  0.925400  1.0  -0.1214
  C  C183  1  0.194700  0.263250  0.971800  1.0  -0.0123
  C  C184  1  0.401100  0.354600  0.945400  1.0  0.5009
  C  C185  1  0.087700  0.269880  0.834630  1.0  0.0568
  C  C186  1  0.082600  0.233910  0.819320  1.0  -0.0883
  C  C187  1  0.024900  0.223990  0.772210  1.0  -0.0175
  C  C188  1  0.972600  0.250660  0.738910  1.0  -0.0425
  C  C189  1  0.980800  0.286450  0.753500  1.0  -0.0212
  C  C190  1  0.033000  0.296310  0.800850  1.0  -0.1215
  C  C191  1  0.029100  0.184160  0.759580  1.0  0.574
  C  C192  1  0.900900  0.242740  0.687830  1.0  0.7324
  C  C193  1  0.358900  0.365800  0.136200  1.0  0.734
  C  C194  1  0.405900  0.405940  0.139100  1.0  -0.0594
  C  C195  1  0.481500  0.422280  0.181300  1.0  -0.0487
  C  C196  1  0.518100  0.459130  0.180100  1.0  -0.08
  C  C197  1  0.480000  0.479860  0.137400  1.0  0.0568
  C  C198  1  0.418500  0.462660  0.096500  1.0  -0.1458
  C  C199  1  0.379600  0.426380  0.097600  1.0  -0.1019
  C  C200  1  0.516000  0.401650  0.228000  1.0  0.4603
  C  C201  1  0.371400  0.798820  0.530920  1.0  0.7144
  C  C202  1  0.289100  0.795010  0.480050  1.0  -0.1186
  C  C203  1  0.308800  0.819270  0.440150  1.0  -0.009
  C  C204  1  0.240800  0.811250  0.393550  1.0  -0.1249
  C  C205  1  0.151400  0.779140  0.385060  1.0  0.0584
  C  C206  1  0.128800  0.755580  0.425400  1.0  -0.1214
  C  C207  1  0.194700  0.763250  0.471800  1.0  -0.0123
  C  C208  1  0.401100  0.854600  0.445400  1.0  0.5009
  C  C209  1  0.087700  0.769880  0.334630  1.0  0.0568
  C  C210  1  0.082600  0.733910  0.319320  1.0  -0.0883
  C  C211  1  0.024900  0.723990  0.272210  1.0  -0.0175
  C  C212  1  0.972600  0.750660  0.238910  1.0  -0.0425
  C  C213  1  0.980800  0.786450  0.253500  1.0  -0.0212
  C  C214  1  0.033000  0.796310  0.300850  1.0  -0.1215
  C  C215  1  0.029100  0.684160  0.259580  1.0  0.574
  C  C216  1  0.900900  0.742740  0.187830  1.0  0.7324
  C  C217  1  0.358900  0.865800  0.636200  1.0  0.734
  C  C218  1  0.405900  0.905940  0.639100  1.0  -0.0594
  C  C219  1  0.481500  0.922280  0.681300  1.0  -0.0487
  C  C220  1  0.518100  0.959130  0.680100  1.0  -0.08
  C  C221  1  0.480000  0.979860  0.637400  1.0  0.0568
  C  C222  1  0.418500  0.962660  0.596500  1.0  -0.1458
  C  C223  1  0.379600  0.926380  0.597600  1.0  -0.1019
  C  C224  1  0.516000  0.901650  0.728000  1.0  0.4603
  C  C225  1  0.628600  0.701180  0.030920  1.0  0.7163
  C  C226  1  0.710900  0.704990  0.980050  1.0  -0.1236
  C  C227  1  0.691200  0.680730  0.940150  1.0  -0.0079
  C  C228  1  0.759200  0.688750  0.893550  1.0  -0.1231
  C  C229  1  0.848600  0.720860  0.885060  1.0  0.058
  C  C230  1  0.871200  0.744420  0.925400  1.0  -0.1222
  C  C231  1  0.805300  0.736750  0.971800  1.0  -0.0122
  C  C232  1  0.598900  0.645400  0.945400  1.0  0.5215
  C  C233  1  0.912300  0.730120  0.834630  1.0  0.0572
  C  C234  1  0.917400  0.766090  0.819320  1.0  -0.0898
  C  C235  1  0.975100  0.776010  0.772210  1.0  -0.0168
  C  C236  1  0.027400  0.749340  0.738910  1.0  -0.0429
  C  C237  1  0.019200  0.713550  0.753500  1.0  -0.0261
  C  C238  1  0.967000  0.703690  0.800850  1.0  -0.1199
  C  C239  1  0.970900  0.815840  0.759580  1.0  0.5408
  C  C240  1  0.099100  0.757260  0.687830  1.0  0.7302
  C  C241  1  0.641100  0.634200  0.136200  1.0  0.7275
  C  C242  1  0.594100  0.594060  0.139100  1.0  -0.0567
  C  C243  1  0.518500  0.577720  0.181300  1.0  -0.0483
  C  C244  1  0.481900  0.540870  0.180100  1.0  -0.0815
  C  C245  1  0.520000  0.520140  0.137400  1.0  0.0575
  C  C246  1  0.581500  0.537340  0.096500  1.0  -0.1459
  C  C247  1  0.620400  0.573620  0.097600  1.0  -0.1025
  C  C248  1  0.484000  0.598350  0.228000  1.0  0.4603
  C  C249  1  0.628600  0.201180  0.530920  1.0  0.7163
  C  C250  1  0.710900  0.204990  0.480050  1.0  -0.1236
  C  C251  1  0.691200  0.180730  0.440150  1.0  -0.0079
  C  C252  1  0.759200  0.188750  0.393550  1.0  -0.1231
  C  C253  1  0.848600  0.220860  0.385060  1.0  0.058
  C  C254  1  0.871200  0.244420  0.425400  1.0  -0.1222
  C  C255  1  0.805300  0.236750  0.471800  1.0  -0.0122
  C  C256  1  0.598900  0.145400  0.445400  1.0  0.5215
  C  C257  1  0.912300  0.230120  0.334630  1.0  0.0572
  C  C258  1  0.917400  0.266090  0.319320  1.0  -0.0898
  C  C259  1  0.975100  0.276010  0.272210  1.0  -0.0168
  C  C260  1  0.027400  0.249340  0.238910  1.0  -0.0429
  C  C261  1  0.019200  0.213550  0.253500  1.0  -0.0261
  C  C262  1  0.967000  0.203690  0.300850  1.0  -0.1199
  C  C263  1  0.970900  0.315840  0.259580  1.0  0.5408
  C  C264  1  0.099100  0.257260  0.187830  1.0  0.7302
  C  C265  1  0.641100  0.134200  0.636200  1.0  0.7275
  C  C266  1  0.594100  0.094060  0.639100  1.0  -0.0567
  C  C267  1  0.518500  0.077720  0.681300  1.0  -0.0483
  C  C268  1  0.481900  0.040870  0.680100  1.0  -0.0815
  C  C269  1  0.520000  0.020140  0.637400  1.0  0.0575
  C  C270  1  0.581500  0.037340  0.596500  1.0  -0.1459
  C  C271  1  0.620400  0.073620  0.597600  1.0  -0.1025
  C  C272  1  0.484000  0.098350  0.728000  1.0  0.4603
  O  O273  1  0.789900  0.215440  0.066400  1.0  -0.5747
  O  O274  1  0.009400  0.186680  0.033930  1.0  -0.497
  O  O275  1  0.295200  0.282990  0.686150  1.0  -0.5919
  O  O276  1  0.441000  0.238390  0.650780  1.0  -0.5988
  O  O277  1  0.969900  0.156830  0.146670  1.0  -0.5439
  O  O278  1  0.712300  0.141950  0.121920  1.0  -0.5739
  O  O279  1  0.789900  0.715440  0.566400  1.0  -0.5747
  O  O280  1  0.009400  0.686680  0.533930  1.0  -0.497
  O  O281  1  0.295200  0.782990  0.186150  1.0  -0.5919
  O  O282  1  0.441000  0.738390  0.150780  1.0  -0.5988
  O  O283  1  0.969900  0.656830  0.646670  1.0  -0.5439
  O  O284  1  0.712300  0.641950  0.621920  1.0  -0.5739
  O  O285  1  0.210100  0.784560  0.066400  1.0  -0.5744
  O  O286  1  0.990600  0.813320  0.033930  1.0  -0.4962
  O  O287  1  0.704800  0.717010  0.686150  1.0  -0.5919
  O  O288  1  0.559000  0.761610  0.650780  1.0  -0.5991
  O  O289  1  0.030100  0.843170  0.146670  1.0  -0.543
  O  O290  1  0.287700  0.858050  0.121920  1.0  -0.5727
  O  O291  1  0.210100  0.284560  0.566400  1.0  -0.5744
  O  O292  1  0.990600  0.313320  0.533930  1.0  -0.4962
  O  O293  1  0.704800  0.217010  0.186150  1.0  -0.5919
  O  O294  1  0.559000  0.261610  0.150780  1.0  -0.5991
  O  O295  1  0.030100  0.343170  0.646670  1.0  -0.543
  O  O296  1  0.287700  0.358050  0.621920  1.0  -0.5727
  O  O297  1  0.289900  0.284560  0.066400  1.0  -0.5732
  O  O298  1  0.509400  0.313320  0.033930  1.0  -0.4974
  O  O299  1  0.795200  0.217010  0.686150  1.0  -0.5929
  O  O300  1  0.941000  0.261610  0.650780  1.0  -0.5985
  O  O301  1  0.469900  0.343170  0.146670  1.0  -0.5435
  O  O302  1  0.212300  0.358050  0.121920  1.0  -0.5738
  O  O303  1  0.289900  0.784560  0.566400  1.0  -0.5732
  O  O304  1  0.509400  0.813320  0.533930  1.0  -0.4974
  O  O305  1  0.795200  0.717010  0.186150  1.0  -0.5929
  O  O306  1  0.941000  0.761610  0.150780  1.0  -0.5985
  O  O307  1  0.469900  0.843170  0.646670  1.0  -0.5435
  O  O308  1  0.212300  0.858050  0.621920  1.0  -0.5738
  O  O309  1  0.710100  0.715440  0.066400  1.0  -0.5755
  O  O310  1  0.490600  0.686680  0.033930  1.0  -0.4955
  O  O311  1  0.204800  0.782990  0.686150  1.0  -0.5913
  O  O312  1  0.059000  0.738390  0.650780  1.0  -0.5995
  O  O313  1  0.530100  0.656830  0.146670  1.0  -0.5434
  O  O314  1  0.787700  0.641950  0.121920  1.0  -0.5728
  O  O315  1  0.710100  0.215440  0.566400  1.0  -0.5755
  O  O316  1  0.490600  0.186680  0.533930  1.0  -0.4955
  O  O317  1  0.204800  0.282990  0.186150  1.0  -0.5913
  O  O318  1  0.059000  0.238390  0.150780  1.0  -0.5995
  O  O319  1  0.530100  0.156830  0.646670  1.0  -0.5434
  O  O320  1  0.787700  0.141950  0.621920  1.0  -0.5728
  F  F321  1  0.865700  0.128070  0.987470  1.0  -0.1625
  F  F322  1  0.069100  0.148400  0.943620  1.0  -0.1597
  F  F323  1  0.861000  0.122510  0.907630  1.0  -0.1544
  F  F324  1  0.377900  0.332250  0.763840  1.0  -0.1743
  F  F325  1  0.585400  0.322160  0.713400  1.0  -0.1882
  F  F326  1  0.633600  0.334570  0.790300  1.0  -0.1817
  F  F327  1  0.895700  0.121900  0.240150  1.0  -0.1622
  F  F328  1  0.161500  0.118090  0.224300  1.0  -0.1647
  F  F329  1  0.035000  0.076350  0.267340  1.0  -0.1598
  F  F330  1  0.865700  0.628070  0.487470  1.0  -0.1625
  F  F331  1  0.069100  0.648400  0.443620  1.0  -0.1597
  F  F332  1  0.861000  0.622510  0.407630  1.0  -0.1544
  F  F333  1  0.377900  0.832250  0.263840  1.0  -0.1743
  F  F334  1  0.585400  0.822160  0.213400  1.0  -0.1882
  F  F335  1  0.633600  0.834570  0.290300  1.0  -0.1817
  F  F336  1  0.895700  0.621900  0.740150  1.0  -0.1622
  F  F337  1  0.161500  0.618090  0.724300  1.0  -0.1647
  F  F338  1  0.035000  0.576350  0.767340  1.0  -0.1598
  F  F339  1  0.134300  0.871930  0.987470  1.0  -0.1634
  F  F340  1  0.930900  0.851600  0.943620  1.0  -0.1617
  F  F341  1  0.139000  0.877490  0.907630  1.0  -0.1556
  F  F342  1  0.622100  0.667750  0.763840  1.0  -0.1731
  F  F343  1  0.414600  0.677840  0.713400  1.0  -0.1876
  F  F344  1  0.366400  0.665430  0.790300  1.0  -0.1795
  F  F345  1  0.104300  0.878100  0.240150  1.0  -0.164
  F  F346  1  0.838500  0.881910  0.224300  1.0  -0.1626
  F  F347  1  0.965000  0.923650  0.267340  1.0  -0.1628
  F  F348  1  0.134300  0.371930  0.487470  1.0  -0.1634
  F  F349  1  0.930900  0.351600  0.443620  1.0  -0.1617
  F  F350  1  0.139000  0.377490  0.407630  1.0  -0.1556
  F  F351  1  0.622100  0.167750  0.263840  1.0  -0.1731
  F  F352  1  0.414600  0.177840  0.213400  1.0  -0.1876
  F  F353  1  0.366400  0.165430  0.290300  1.0  -0.1795
  F  F354  1  0.104300  0.378100  0.740150  1.0  -0.164
  F  F355  1  0.838500  0.381910  0.724300  1.0  -0.1626
  F  F356  1  0.965000  0.423650  0.767340  1.0  -0.1628
  F  F357  1  0.365700  0.371930  0.987470  1.0  -0.1636
  F  F358  1  0.569100  0.351600  0.943620  1.0  -0.1597
  F  F359  1  0.361000  0.377490  0.907630  1.0  -0.1558
  F  F360  1  0.877900  0.167750  0.763840  1.0  -0.1743
  F  F361  1  0.085400  0.177840  0.713400  1.0  -0.1879
  F  F362  1  0.133600  0.165430  0.790300  1.0  -0.18
  F  F363  1  0.395700  0.378100  0.240150  1.0  -0.1634
  F  F364  1  0.661500  0.381910  0.224300  1.0  -0.1652
  F  F365  1  0.535000  0.423650  0.267340  1.0  -0.1589
  F  F366  1  0.365700  0.871930  0.487470  1.0  -0.1636
  F  F367  1  0.569100  0.851600  0.443620  1.0  -0.1597
  F  F368  1  0.361000  0.877490  0.407630  1.0  -0.1558
  F  F369  1  0.877900  0.667750  0.263840  1.0  -0.1743
  F  F370  1  0.085400  0.677840  0.213400  1.0  -0.1879
  F  F371  1  0.133600  0.665430  0.290300  1.0  -0.18
  F  F372  1  0.395700  0.878100  0.740150  1.0  -0.1634
  F  F373  1  0.661500  0.881910  0.724300  1.0  -0.1652
  F  F374  1  0.535000  0.923650  0.767340  1.0  -0.1589
  F  F375  1  0.634300  0.628070  0.987470  1.0  -0.1622
  F  F376  1  0.430900  0.648400  0.943620  1.0  -0.1593
  F  F377  1  0.639000  0.622510  0.907630  1.0  -0.154
  F  F378  1  0.122100  0.832250  0.763840  1.0  -0.1747
  F  F379  1  0.914600  0.822160  0.713400  1.0  -0.1875
  F  F380  1  0.866400  0.834570  0.790300  1.0  -0.1803
  F  F381  1  0.604300  0.621900  0.240150  1.0  -0.1629
  F  F382  1  0.338500  0.618090  0.224300  1.0  -0.1618
  F  F383  1  0.465000  0.576350  0.267340  1.0  -0.1618
  F  F384  1  0.634300  0.128070  0.487470  1.0  -0.1622
  F  F385  1  0.430900  0.148400  0.443620  1.0  -0.1593
  F  F386  1  0.639000  0.122510  0.407630  1.0  -0.154
  F  F387  1  0.122100  0.332250  0.263840  1.0  -0.1747
  F  F388  1  0.914600  0.322160  0.213400  1.0  -0.1875
  F  F389  1  0.866400  0.334570  0.290300  1.0  -0.1803
  F  F390  1  0.604300  0.121900  0.740150  1.0  -0.1629
  F  F391  1  0.338500  0.118090  0.724300  1.0  -0.1618
  F  F392  1  0.465000  0.076350  0.767340  1.0  -0.1618
