# generated using pymatgen
data_Cu2H36C61(N3O2)4
_symmetry_space_group_name_H-M   'P 1'
_cell_length_a   16.06040000
_cell_length_b   16.06040000
_cell_length_c   44.11700000
_cell_angle_alpha   90.00000000
_cell_angle_beta   90.00000000
_cell_angle_gamma   90.00000000
_symmetry_Int_Tables_number   1
_chemical_formula_structural   Cu2H36C61(N3O2)4
_chemical_formula_sum   'Cu8 H144 C244 N48 O32'
_cell_volume   11379.38228347
_cell_formula_units_Z   4
loop_
 _symmetry_equiv_pos_site_id
 _symmetry_equiv_pos_as_xyz
  1  'x, y, z'
loop_
 _atom_site_type_symbol
 _atom_site_label
 _atom_site_symmetry_multiplicity
 _atom_site_fract_x
 _atom_site_fract_y
 _atom_site_fract_z
 _atom_site_occupancy
 _atom_site_charge
  Cu  Cu1  1  0.458420  0.929490  0.710350  1.0  0.9245
  Cu  Cu2  1  0.541580  0.070510  0.710350  1.0  0.9227
  Cu  Cu3  1  0.570510  0.958420  0.210350  1.0  0.9219
  Cu  Cu4  1  0.429490  0.041580  0.210350  1.0  0.9263
  Cu  Cu5  1  0.041580  0.429490  0.789650  1.0  0.9201
  Cu  Cu6  1  0.958420  0.570510  0.789650  1.0  0.925
  Cu  Cu7  1  0.929490  0.458420  0.289650  1.0  0.9245
  Cu  Cu8  1  0.070510  0.541580  0.289650  1.0  0.9251
  H  H9  1  0.828750  0.516100  0.461060  1.0  0.1093
  H  H10  1  0.088050  0.506630  0.510340  1.0  0.108
  H  H11  1  0.727720  0.461830  0.429350  1.0  0.1044
  H  H12  1  0.221200  0.298700  0.567310  1.0  0.1289
  H  H13  1  0.003690  0.407490  0.409520  1.0  0.0888
  H  H14  1  0.425730  0.183520  0.632910  1.0  0.1121
  H  H15  1  0.904350  0.357670  0.378200  1.0  0.0972
  H  H16  1  0.795860  0.295280  0.348690  1.0  0.1127
  H  H17  1  0.041480  0.230660  0.490250  1.0  0.112
  H  H18  1  0.152590  0.406460  0.539770  1.0  0.1112
  H  H19  1  0.987920  0.332450  0.459500  1.0  0.0915
  H  H20  1  0.259210  0.001950  0.649530  1.0  0.1269
  H  H21  1  0.175080  0.052850  0.612350  1.0  0.1147
  H  H22  1  0.339890  0.228830  0.592130  1.0  0.1067
  H  H23  1  0.748140  0.185260  0.318640  1.0  0.1187
  H  H24  1  0.702660  0.105950  0.277200  1.0  0.1057
  H  H25  1  0.526860  0.297020  0.321580  1.0  0.1197
  H  H26  1  0.483690  0.219080  0.279780  1.0  0.1039
  H  H27  1  0.171250  0.483900  0.461060  1.0  0.1097
  H  H28  1  0.911950  0.493370  0.510340  1.0  0.1095
  H  H29  1  0.272280  0.538170  0.429350  1.0  0.1044
  H  H30  1  0.778800  0.701300  0.567310  1.0  0.1295
  H  H31  1  0.996310  0.592510  0.409520  1.0  0.0886
  H  H32  1  0.574270  0.816480  0.632910  1.0  0.1127
  H  H33  1  0.095650  0.642330  0.378200  1.0  0.0973
  H  H34  1  0.204140  0.704720  0.348690  1.0  0.1121
  H  H35  1  0.958520  0.769340  0.490250  1.0  0.1122
  H  H36  1  0.847410  0.593540  0.539770  1.0  0.1104
  H  H37  1  0.012080  0.667550  0.459500  1.0  0.0912
  H  H38  1  0.740790  0.998050  0.649530  1.0  0.1266
  H  H39  1  0.824920  0.947150  0.612350  1.0  0.115
  H  H40  1  0.660110  0.771170  0.592130  1.0  0.1059
  H  H41  1  0.251860  0.814740  0.318640  1.0  0.1184
  H  H42  1  0.297340  0.894050  0.277200  1.0  0.1057
  H  H43  1  0.473140  0.702980  0.321580  1.0  0.1198
  H  H44  1  0.516310  0.780920  0.279780  1.0  0.1035
  H  H45  1  0.983900  0.328750  0.961060  1.0  0.1095
  H  H46  1  0.993370  0.588050  0.010340  1.0  0.1109
  H  H47  1  0.038170  0.227720  0.929350  1.0  0.1038
  H  H48  1  0.201300  0.721200  0.067310  1.0  0.1279
  H  H49  1  0.092510  0.503690  0.909520  1.0  0.0885
  H  H50  1  0.316480  0.925730  0.132910  1.0  0.1126
  H  H51  1  0.142330  0.404350  0.878200  1.0  0.0976
  H  H52  1  0.204720  0.295860  0.848690  1.0  0.1117
  H  H53  1  0.269340  0.541480  0.990250  1.0  0.1139
  H  H54  1  0.093540  0.652590  0.039770  1.0  0.1099
  H  H55  1  0.167550  0.487920  0.959500  1.0  0.0913
  H  H56  1  0.498050  0.759210  0.149530  1.0  0.1279
  H  H57  1  0.447150  0.675080  0.112350  1.0  0.1144
  H  H58  1  0.271170  0.839890  0.092130  1.0  0.1055
  H  H59  1  0.314740  0.248140  0.818640  1.0  0.1181
  H  H60  1  0.394050  0.202660  0.777200  1.0  0.106
  H  H61  1  0.202980  0.026860  0.821580  1.0  0.1194
  H  H62  1  0.280920  0.983690  0.779780  1.0  0.104
  H  H63  1  0.016100  0.671250  0.961060  1.0  0.1085
  H  H64  1  0.006630  0.411950  0.010340  1.0  0.1097
  H  H65  1  0.961830  0.772280  0.929350  1.0  0.1041
  H  H66  1  0.798700  0.278800  0.067310  1.0  0.1277
  H  H67  1  0.907490  0.496310  0.909520  1.0  0.0875
  H  H68  1  0.683520  0.074270  0.132910  1.0  0.1128
  H  H69  1  0.857670  0.595650  0.878200  1.0  0.098
  H  H70  1  0.795280  0.704140  0.848690  1.0  0.1118
  H  H71  1  0.730660  0.458520  0.990250  1.0  0.1141
  H  H72  1  0.906460  0.347410  0.039770  1.0  0.1109
  H  H73  1  0.832450  0.512080  0.959500  1.0  0.0917
  H  H74  1  0.501950  0.240790  0.149530  1.0  0.1277
  H  H75  1  0.552850  0.324920  0.112350  1.0  0.1147
  H  H76  1  0.728830  0.160110  0.092130  1.0  0.1057
  H  H77  1  0.685260  0.751860  0.818640  1.0  0.1188
  H  H78  1  0.605950  0.797340  0.777200  1.0  0.1052
  H  H79  1  0.797020  0.973140  0.821580  1.0  0.1197
  H  H80  1  0.719080  0.016310  0.779780  1.0  0.1047
  H  H81  1  0.671250  0.016100  0.038940  1.0  0.1098
  H  H82  1  0.411950  0.006630  0.989660  1.0  0.109
  H  H83  1  0.772280  0.961830  0.070650  1.0  0.1048
  H  H84  1  0.278800  0.798700  0.932690  1.0  0.1291
  H  H85  1  0.496310  0.907490  0.090480  1.0  0.0882
  H  H86  1  0.074270  0.683520  0.867090  1.0  0.1124
  H  H87  1  0.595650  0.857670  0.121800  1.0  0.0976
  H  H88  1  0.704140  0.795280  0.151310  1.0  0.1126
  H  H89  1  0.458520  0.730660  0.009750  1.0  0.1114
  H  H90  1  0.347410  0.906460  0.960230  1.0  0.1099
  H  H91  1  0.512080  0.832450  0.040500  1.0  0.0912
  H  H92  1  0.240790  0.501950  0.850470  1.0  0.1267
  H  H93  1  0.324920  0.552850  0.887650  1.0  0.1143
  H  H94  1  0.160110  0.728830  0.907870  1.0  0.1056
  H  H95  1  0.751860  0.685260  0.181360  1.0  0.1186
  H  H96  1  0.797340  0.605950  0.222800  1.0  0.1054
  H  H97  1  0.973140  0.797020  0.178420  1.0  0.12
  H  H98  1  0.016310  0.719080  0.220220  1.0  0.1036
  H  H99  1  0.328750  0.983900  0.038940  1.0  0.1093
  H  H100  1  0.588050  0.993370  0.989660  1.0  0.1098
  H  H101  1  0.227720  0.038170  0.070650  1.0  0.1048
  H  H102  1  0.721200  0.201300  0.932690  1.0  0.1295
  H  H103  1  0.503690  0.092510  0.090480  1.0  0.0891
  H  H104  1  0.925730  0.316480  0.867090  1.0  0.1118
  H  H105  1  0.404350  0.142330  0.121800  1.0  0.0974
  H  H106  1  0.295860  0.204720  0.151310  1.0  0.1127
  H  H107  1  0.541480  0.269340  0.009750  1.0  0.1108
  H  H108  1  0.652590  0.093540  0.960230  1.0  0.11
  H  H109  1  0.487920  0.167550  0.040500  1.0  0.0909
  H  H110  1  0.759210  0.498050  0.850470  1.0  0.1266
  H  H111  1  0.675080  0.447150  0.887650  1.0  0.1147
  H  H112  1  0.839890  0.271170  0.907870  1.0  0.1067
  H  H113  1  0.248140  0.314740  0.181360  1.0  0.1188
  H  H114  1  0.202660  0.394050  0.222800  1.0  0.1058
  H  H115  1  0.026860  0.202980  0.178420  1.0  0.1189
  H  H116  1  0.983690  0.280920  0.220220  1.0  0.1037
  H  H117  1  0.516100  0.828750  0.538940  1.0  0.1092
  H  H118  1  0.506630  0.088050  0.489660  1.0  0.1099
  H  H119  1  0.461830  0.727720  0.570650  1.0  0.1034
  H  H120  1  0.298700  0.221200  0.432690  1.0  0.1285
  H  H121  1  0.407490  0.003690  0.590480  1.0  0.0886
  H  H122  1  0.183520  0.425730  0.367090  1.0  0.1124
  H  H123  1  0.357670  0.904350  0.621800  1.0  0.0982
  H  H124  1  0.295280  0.795860  0.651310  1.0  0.112
  H  H125  1  0.230660  0.041480  0.509750  1.0  0.113
  H  H126  1  0.406460  0.152590  0.460230  1.0  0.1097
  H  H127  1  0.332450  0.987920  0.540500  1.0  0.0909
  H  H128  1  0.001950  0.259210  0.350470  1.0  0.1273
  H  H129  1  0.052850  0.175080  0.387650  1.0  0.1136
  H  H130  1  0.228830  0.339890  0.407870  1.0  0.1058
  H  H131  1  0.185260  0.748140  0.681360  1.0  0.1184
  H  H132  1  0.105950  0.702660  0.722800  1.0  0.1057
  H  H133  1  0.297020  0.526860  0.678420  1.0  0.1193
  H  H134  1  0.219080  0.483690  0.720220  1.0  0.1038
  H  H135  1  0.483900  0.171250  0.538940  1.0  0.1098
  H  H136  1  0.493370  0.911950  0.489660  1.0  0.1118
  H  H137  1  0.538170  0.272280  0.570650  1.0  0.1046
  H  H138  1  0.701300  0.778800  0.432690  1.0  0.1279
  H  H139  1  0.592510  0.996310  0.590480  1.0  0.0883
  H  H140  1  0.816480  0.574270  0.367090  1.0  0.1121
  H  H141  1  0.642330  0.095650  0.621800  1.0  0.0979
  H  H142  1  0.704720  0.204140  0.651310  1.0  0.1126
  H  H143  1  0.769340  0.958520  0.509750  1.0  0.1122
  H  H144  1  0.593540  0.847410  0.460230  1.0  0.1101
  H  H145  1  0.667550  0.012080  0.540500  1.0  0.0913
  H  H146  1  0.998050  0.740790  0.350470  1.0  0.1271
  H  H147  1  0.947150  0.824920  0.387650  1.0  0.1142
  H  H148  1  0.771170  0.660110  0.407870  1.0  0.1054
  H  H149  1  0.814740  0.251860  0.681360  1.0  0.1185
  H  H150  1  0.894050  0.297340  0.722800  1.0  0.1057
  H  H151  1  0.702980  0.473140  0.678420  1.0  0.1201
  H  H152  1  0.780920  0.516310  0.720220  1.0  0.1044
  C  C153  1  0.034100  0.430200  0.480940  1.0  0.0714
  C  C154  1  0.931000  0.467000  0.439150  1.0  0.0411
  C  C155  1  0.349700  0.090100  0.645080  1.0  -0.114
  C  C156  1  0.100300  0.306700  0.519190  1.0  0.0332
  C  C157  1  0.132900  0.243000  0.539710  1.0  0.0719
  C  C158  1  0.805600  0.401900  0.400330  1.0  0.0544
  C  C159  1  0.844400  0.483500  0.444600  1.0  -0.1653
  C  C160  1  0.080500  0.450700  0.505650  1.0  -0.0986
  C  C161  1  0.406000  0.056600  0.669870  1.0  0.6791
  C  C162  1  0.783600  0.450900  0.425460  1.0  -0.0334
  C  C163  1  0.191900  0.251100  0.561860  1.0  -0.0163
  C  C164  1  0.948300  0.419300  0.413910  1.0  -0.0961
  C  C165  1  0.375800  0.156800  0.628550  1.0  -0.0247
  C  C166  1  0.888400  0.388500  0.395070  1.0  -0.1278
  C  C167  1  0.746900  0.315800  0.357080  1.0  -0.0757
  C  C168  1  0.052400  0.286300  0.494540  1.0  -0.1073
  C  C169  1  0.117100  0.390600  0.524160  1.0  -0.1211
  C  C170  1  0.020300  0.348000  0.476030  1.0  -0.1308
  C  C171  1  0.250000  0.144500  0.598870  1.0  0.1645
  C  C172  1  0.274900  0.048800  0.638560  1.0  -0.0706
  C  C173  1  0.226100  0.078200  0.616130  1.0  -0.0762
  C  C174  1  0.323700  0.184200  0.604220  1.0  -0.1509
  C  C175  1  0.740900  0.365600  0.380810  1.0  0.0792
  C  C176  1  0.643700  0.246000  0.322940  1.0  0.1428
  C  C177  1  0.694500  0.191800  0.311050  1.0  -0.1464
  C  C178  1  0.666400  0.143400  0.286400  1.0  -0.0289
  C  C179  1  0.562100  0.258400  0.312520  1.0  -0.0838
  C  C180  1  0.536300  0.210200  0.287960  1.0  -0.0129
  C  C181  1  0.585700  0.150700  0.275710  1.0  -0.1284
  C  C182  1  0.553900  0.094100  0.251140  1.0  0.6736
  C  C183  1  0.965900  0.569800  0.480940  1.0  0.0705
  C  C184  1  0.069000  0.533000  0.439150  1.0  0.0422
  C  C185  1  0.650300  0.909900  0.645080  1.0  -0.1137
  C  C186  1  0.899700  0.693300  0.519190  1.0  0.0341
  C  C187  1  0.867100  0.757000  0.539710  1.0  0.0713
  C  C188  1  0.194400  0.598100  0.400330  1.0  0.0549
  C  C189  1  0.155600  0.516500  0.444600  1.0  -0.1648
  C  C190  1  0.919500  0.549300  0.505650  1.0  -0.098
  C  C191  1  0.594000  0.943400  0.669870  1.0  0.6811
  C  C192  1  0.216400  0.549100  0.425460  1.0  -0.0333
  C  C193  1  0.808100  0.748900  0.561860  1.0  -0.0188
  C  C194  1  0.051700  0.580700  0.413910  1.0  -0.0953
  C  C195  1  0.624200  0.843200  0.628550  1.0  -0.027
  C  C196  1  0.111600  0.611500  0.395070  1.0  -0.1272
  C  C197  1  0.253100  0.684200  0.357080  1.0  -0.0765
  C  C198  1  0.947600  0.713700  0.494540  1.0  -0.1099
  C  C199  1  0.882900  0.609400  0.524160  1.0  -0.1224
  C  C200  1  0.979700  0.652000  0.476030  1.0  -0.1326
  C  C201  1  0.750000  0.855500  0.598870  1.0  0.1633
  C  C202  1  0.725100  0.951200  0.638560  1.0  -0.0682
  C  C203  1  0.773900  0.921800  0.616130  1.0  -0.0769
  C  C204  1  0.676300  0.815800  0.604220  1.0  -0.1507
  C  C205  1  0.259100  0.634400  0.380810  1.0  0.0796
  C  C206  1  0.356300  0.754000  0.322940  1.0  0.1421
  C  C207  1  0.305500  0.808200  0.311050  1.0  -0.147
  C  C208  1  0.333600  0.856600  0.286400  1.0  -0.0293
  C  C209  1  0.437900  0.741600  0.312520  1.0  -0.0823
  C  C210  1  0.463700  0.789800  0.287960  1.0  -0.0124
  C  C211  1  0.414300  0.849300  0.275710  1.0  -0.1288
  C  C212  1  0.446100  0.905900  0.251140  1.0  0.6743
  C  C213  1  0.069800  0.534100  0.980940  1.0  0.0704
  C  C214  1  0.033000  0.431000  0.939150  1.0  0.0416
  C  C215  1  0.409900  0.849700  0.145080  1.0  -0.1142
  C  C216  1  0.193300  0.600300  0.019190  1.0  0.0333
  C  C217  1  0.257000  0.632900  0.039710  1.0  0.0721
  C  C218  1  0.098100  0.305600  0.900330  1.0  0.0563
  C  C219  1  0.016500  0.344400  0.944600  1.0  -0.1666
  C  C220  1  0.049300  0.580500  0.005650  1.0  -0.1022
  C  C221  1  0.443400  0.906000  0.169870  1.0  0.6798
  C  C222  1  0.049100  0.283600  0.925460  1.0  -0.0389
  C  C223  1  0.248900  0.691900  0.061860  1.0  -0.0148
  C  C224  1  0.080700  0.448300  0.913910  1.0  -0.0953
  C  C225  1  0.343200  0.875800  0.128550  1.0  -0.0255
  C  C226  1  0.111500  0.388400  0.895070  1.0  -0.1283
  C  C227  1  0.184200  0.246900  0.857080  1.0  -0.0776
  C  C228  1  0.213700  0.552400  0.994540  1.0  -0.1046
  C  C229  1  0.109400  0.617100  0.024160  1.0  -0.1239
  C  C230  1  0.152000  0.520300  0.976030  1.0  -0.1296
  C  C231  1  0.355500  0.750000  0.098870  1.0  0.1669
  C  C232  1  0.451200  0.774900  0.138560  1.0  -0.0726
  C  C233  1  0.421800  0.726100  0.116130  1.0  -0.0879
  C  C234  1  0.315800  0.823700  0.104220  1.0  -0.1483
  C  C235  1  0.134400  0.240900  0.880810  1.0  0.0801
  C  C236  1  0.254000  0.143700  0.822940  1.0  0.1428
  C  C237  1  0.308200  0.194500  0.811050  1.0  -0.1486
  C  C238  1  0.356600  0.166400  0.786400  1.0  -0.03
  C  C239  1  0.241600  0.062100  0.812520  1.0  -0.0821
  C  C240  1  0.289800  0.036300  0.787960  1.0  -0.0147
  C  C241  1  0.349300  0.085700  0.775710  1.0  -0.1289
  C  C242  1  0.405900  0.053900  0.751140  1.0  0.6735
  C  C243  1  0.930200  0.465900  0.980940  1.0  0.0685
  C  C244  1  0.967000  0.569000  0.939150  1.0  0.0414
  C  C245  1  0.590100  0.150300  0.145080  1.0  -0.1131
  C  C246  1  0.806700  0.399700  0.019190  1.0  0.0348
  C  C247  1  0.743000  0.367100  0.039710  1.0  0.0718
  C  C248  1  0.901900  0.694400  0.900330  1.0  0.0575
  C  C249  1  0.983500  0.655600  0.944600  1.0  -0.1667
  C  C250  1  0.950700  0.419500  0.005650  1.0  -0.1016
  C  C251  1  0.556600  0.094000  0.169870  1.0  0.6808
  C  C252  1  0.950900  0.716400  0.925460  1.0  -0.039
  C  C253  1  0.751100  0.308100  0.061860  1.0  -0.0158
  C  C254  1  0.919300  0.551700  0.913910  1.0  -0.0961
  C  C255  1  0.656800  0.124200  0.128550  1.0  -0.0258
  C  C256  1  0.888500  0.611600  0.895070  1.0  -0.1259
  C  C257  1  0.815800  0.753100  0.857080  1.0  -0.0779
  C  C258  1  0.786300  0.447600  0.994540  1.0  -0.1041
  C  C259  1  0.890600  0.382900  0.024160  1.0  -0.122
  C  C260  1  0.848000  0.479700  0.976030  1.0  -0.1302
  C  C261  1  0.644500  0.250000  0.098870  1.0  0.1659
  C  C262  1  0.548800  0.225100  0.138560  1.0  -0.0718
  C  C263  1  0.578200  0.273900  0.116130  1.0  -0.0802
  C  C264  1  0.684200  0.176300  0.104220  1.0  -0.1476
  C  C265  1  0.865600  0.759100  0.880810  1.0  0.0813
  C  C266  1  0.746000  0.856300  0.822940  1.0  0.1431
  C  C267  1  0.691800  0.805500  0.811050  1.0  -0.1481
  C  C268  1  0.643400  0.833600  0.786400  1.0  -0.0294
  C  C269  1  0.758400  0.937900  0.812520  1.0  -0.082
  C  C270  1  0.710200  0.963700  0.787960  1.0  -0.0148
  C  C271  1  0.650700  0.914300  0.775710  1.0  -0.129
  C  C272  1  0.594100  0.946100  0.751140  1.0  0.6735
  C  C273  1  0.000000  0.500000  0.460210  1.0  -0.0171
  C  C274  1  0.000000  0.500000  0.960210  1.0  -0.0171
  C  C275  1  0.465900  0.930200  0.019060  1.0  0.0732
  C  C276  1  0.569000  0.967000  0.060850  1.0  0.0435
  C  C277  1  0.150300  0.590100  0.854920  1.0  -0.1224
  C  C278  1  0.399700  0.806700  0.980810  1.0  0.0329
  C  C279  1  0.367100  0.743000  0.960290  1.0  0.072
  C  C280  1  0.694400  0.901900  0.099670  1.0  0.0544
  C  C281  1  0.655600  0.983500  0.055400  1.0  -0.1658
  C  C282  1  0.419500  0.950700  0.994350  1.0  -0.0967
  C  C283  1  0.094000  0.556600  0.830130  1.0  0.6813
  C  C284  1  0.716400  0.950900  0.074540  1.0  -0.034
  C  C285  1  0.308100  0.751100  0.938140  1.0  -0.0152
  C  C286  1  0.551700  0.919300  0.086090  1.0  -0.0962
  C  C287  1  0.124200  0.656800  0.871450  1.0  -0.0256
  C  C288  1  0.611600  0.888500  0.104930  1.0  -0.1261
  C  C289  1  0.753100  0.815800  0.142920  1.0  -0.0777
  C  C290  1  0.447600  0.786300  0.005460  1.0  -0.109
  C  C291  1  0.382900  0.890600  0.975840  1.0  -0.1192
  C  C292  1  0.479700  0.848000  0.023970  1.0  -0.1325
  C  C293  1  0.250000  0.644500  0.901130  1.0  0.1622
  C  C294  1  0.225100  0.548800  0.861440  1.0  -0.0698
  C  C295  1  0.273900  0.578200  0.883870  1.0  -0.0774
  C  C296  1  0.176300  0.684200  0.895780  1.0  -0.1509
  C  C297  1  0.759100  0.865600  0.119190  1.0  0.0799
  C  C298  1  0.856300  0.746000  0.177060  1.0  0.1421
  C  C299  1  0.805500  0.691800  0.188950  1.0  -0.1471
  C  C300  1  0.833600  0.643400  0.213600  1.0  -0.0287
  C  C301  1  0.937900  0.758400  0.187480  1.0  -0.0824
  C  C302  1  0.963700  0.710200  0.212040  1.0  -0.0114
  C  C303  1  0.914300  0.650700  0.224290  1.0  -0.1281
  C  C304  1  0.946100  0.594100  0.248860  1.0  0.6735
  C  C305  1  0.534100  0.069800  0.019060  1.0  0.0725
  C  C306  1  0.431000  0.033000  0.060850  1.0  0.0418
  C  C307  1  0.849700  0.409900  0.854920  1.0  -0.1226
  C  C308  1  0.600300  0.193300  0.980810  1.0  0.034
  C  C309  1  0.632900  0.257000  0.960290  1.0  0.0728
  C  C310  1  0.305600  0.098100  0.099670  1.0  0.0561
  C  C311  1  0.344400  0.016500  0.055400  1.0  -0.1657
  C  C312  1  0.580500  0.049300  0.994350  1.0  -0.0973
  C  C313  1  0.906000  0.443400  0.830130  1.0  0.6804
  C  C314  1  0.283600  0.049100  0.074540  1.0  -0.0331
  C  C315  1  0.691900  0.248900  0.938140  1.0  -0.0169
  C  C316  1  0.448300  0.080700  0.086090  1.0  -0.0948
  C  C317  1  0.875800  0.343200  0.871450  1.0  -0.0267
  C  C318  1  0.388400  0.111500  0.104930  1.0  -0.1267
  C  C319  1  0.246900  0.184200  0.142920  1.0  -0.0758
  C  C320  1  0.552400  0.213700  0.005460  1.0  -0.1096
  C  C321  1  0.617100  0.109400  0.975840  1.0  -0.1201
  C  C322  1  0.520300  0.152000  0.023970  1.0  -0.1316
  C  C323  1  0.750000  0.355500  0.901130  1.0  0.1648
  C  C324  1  0.774900  0.451200  0.861440  1.0  -0.0714
  C  C325  1  0.726100  0.421800  0.883870  1.0  -0.0761
  C  C326  1  0.823700  0.315800  0.895780  1.0  -0.1509
  C  C327  1  0.240900  0.134400  0.119190  1.0  0.0782
  C  C328  1  0.143700  0.254000  0.177060  1.0  0.1425
  C  C329  1  0.194500  0.308200  0.188950  1.0  -0.1468
  C  C330  1  0.166400  0.356600  0.213600  1.0  -0.0276
  C  C331  1  0.062100  0.241600  0.187480  1.0  -0.0836
  C  C332  1  0.036300  0.289800  0.212040  1.0  -0.0121
  C  C333  1  0.085700  0.349300  0.224290  1.0  -0.1284
  C  C334  1  0.053900  0.405900  0.248860  1.0  0.6736
  C  C335  1  0.430200  0.034100  0.519060  1.0  0.0705
  C  C336  1  0.467000  0.931000  0.560850  1.0  0.0427
  C  C337  1  0.090100  0.349700  0.354920  1.0  -0.1214
  C  C338  1  0.306700  0.100300  0.480810  1.0  0.0331
  C  C339  1  0.243000  0.132900  0.460290  1.0  0.0726
  C  C340  1  0.401900  0.805600  0.599670  1.0  0.0566
  C  C341  1  0.483500  0.844400  0.555400  1.0  -0.1696
  C  C342  1  0.450700  0.080500  0.494350  1.0  -0.1018
  C  C343  1  0.056600  0.406000  0.330130  1.0  0.6812
  C  C344  1  0.450900  0.783600  0.574540  1.0  -0.0375
  C  C345  1  0.251100  0.191900  0.438140  1.0  -0.0141
  C  C346  1  0.419300  0.948300  0.586090  1.0  -0.0954
  C  C347  1  0.156800  0.375800  0.371450  1.0  -0.0235
  C  C348  1  0.388500  0.888400  0.604930  1.0  -0.1251
  C  C349  1  0.315800  0.746900  0.642920  1.0  -0.0785
  C  C350  1  0.286300  0.052400  0.505460  1.0  -0.1041
  C  C351  1  0.390600  0.117100  0.475840  1.0  -0.1219
  C  C352  1  0.348000  0.020300  0.523970  1.0  -0.1303
  C  C353  1  0.144500  0.250000  0.401130  1.0  0.1659
  C  C354  1  0.048800  0.274900  0.361440  1.0  -0.0705
  C  C355  1  0.078200  0.226100  0.383870  1.0  -0.086
  C  C356  1  0.184200  0.323700  0.395780  1.0  -0.146
  C  C357  1  0.365600  0.740900  0.619190  1.0  0.0823
  C  C358  1  0.246000  0.643700  0.677060  1.0  0.1437
  C  C359  1  0.191800  0.694500  0.688950  1.0  -0.1494
  C  C360  1  0.143400  0.666400  0.713600  1.0  -0.0298
  C  C361  1  0.258400  0.562100  0.687480  1.0  -0.083
  C  C362  1  0.210200  0.536300  0.712040  1.0  -0.0152
  C  C363  1  0.150700  0.585700  0.724290  1.0  -0.1288
  C  C364  1  0.094100  0.553900  0.748860  1.0  0.6732
  C  C365  1  0.569800  0.965900  0.519060  1.0  0.0715
  C  C366  1  0.533000  0.069000  0.560850  1.0  0.0421
  C  C367  1  0.909900  0.650300  0.354920  1.0  -0.1233
  C  C368  1  0.693300  0.899700  0.480810  1.0  0.0338
  C  C369  1  0.757000  0.867100  0.460290  1.0  0.073
  C  C370  1  0.598100  0.194400  0.599670  1.0  0.0572
  C  C371  1  0.516500  0.155600  0.555400  1.0  -0.166
  C  C372  1  0.549300  0.919500  0.494350  1.0  -0.0995
  C  C373  1  0.943400  0.594000  0.330130  1.0  0.681
  C  C374  1  0.549100  0.216400  0.574540  1.0  -0.0396
  C  C375  1  0.748900  0.808100  0.438140  1.0  -0.0129
  C  C376  1  0.580700  0.051700  0.586090  1.0  -0.0961
  C  C377  1  0.843200  0.624200  0.371450  1.0  -0.0245
  C  C378  1  0.611500  0.111600  0.604930  1.0  -0.1274
  C  C379  1  0.684200  0.253100  0.642920  1.0  -0.0779
  C  C380  1  0.713700  0.947600  0.505460  1.0  -0.1043
  C  C381  1  0.609400  0.882900  0.475840  1.0  -0.1208
  C  C382  1  0.652000  0.979700  0.523970  1.0  -0.1307
  C  C383  1  0.855500  0.750000  0.401130  1.0  0.1666
  C  C384  1  0.951200  0.725100  0.361440  1.0  -0.0708
  C  C385  1  0.921800  0.773900  0.383870  1.0  -0.0794
  C  C386  1  0.815800  0.676300  0.395780  1.0  -0.1486
  C  C387  1  0.634400  0.259100  0.619190  1.0  0.0809
  C  C388  1  0.754000  0.356300  0.677060  1.0  0.142
  C  C389  1  0.808200  0.305500  0.688950  1.0  -0.1478
  C  C390  1  0.856600  0.333600  0.713600  1.0  -0.0293
  C  C391  1  0.741600  0.437900  0.687480  1.0  -0.0835
  C  C392  1  0.789800  0.463700  0.712040  1.0  -0.0144
  C  C393  1  0.849300  0.414300  0.724290  1.0  -0.1287
  C  C394  1  0.905900  0.446100  0.748860  1.0  0.6734
  C  C395  1  0.500000  0.000000  0.039790  1.0  -0.0164
  C  C396  1  0.500000  0.000000  0.539790  1.0  -0.0164
  N  N397  1  0.197900  0.172400  0.574310  1.0  0.0344
  N  N398  1  0.672400  0.301100  0.347720  1.0  0.1102
  N  N399  1  0.106100  0.161100  0.539150  1.0  -0.2157
  N  N400  1  0.145100  0.117800  0.560390  1.0  -0.2698
  N  N401  1  0.661800  0.376300  0.385800  1.0  -0.2217
  N  N402  1  0.618200  0.339600  0.364600  1.0  -0.2707
  N  N403  1  0.802100  0.827600  0.574310  1.0  0.0348
  N  N404  1  0.327600  0.698900  0.347720  1.0  0.1117
  N  N405  1  0.893900  0.838900  0.539150  1.0  -0.2164
  N  N406  1  0.854900  0.882200  0.560390  1.0  -0.2685
  N  N407  1  0.338200  0.623700  0.385800  1.0  -0.2188
  N  N408  1  0.381800  0.660400  0.364600  1.0  -0.2711
  N  N409  1  0.327600  0.697900  0.074310  1.0  0.0341
  N  N410  1  0.198900  0.172400  0.847720  1.0  0.1109
  N  N411  1  0.338900  0.606100  0.039150  1.0  -0.215
  N  N412  1  0.382200  0.645100  0.060390  1.0  -0.2702
  N  N413  1  0.123700  0.161800  0.885800  1.0  -0.2205
  N  N414  1  0.160400  0.118200  0.864600  1.0  -0.272
  N  N415  1  0.672400  0.302100  0.074310  1.0  0.0341
  N  N416  1  0.801100  0.827600  0.847720  1.0  0.1098
  N  N417  1  0.661100  0.393900  0.039150  1.0  -0.2142
  N  N418  1  0.617800  0.354900  0.060390  1.0  -0.2674
  N  N419  1  0.876300  0.838200  0.885800  1.0  -0.2201
  N  N420  1  0.839600  0.881800  0.864600  1.0  -0.2693
  N  N421  1  0.302100  0.672400  0.925690  1.0  0.0351
  N  N422  1  0.827600  0.801100  0.152280  1.0  0.112
  N  N423  1  0.393900  0.661100  0.960850  1.0  -0.2142
  N  N424  1  0.354900  0.617800  0.939610  1.0  -0.2706
  N  N425  1  0.838200  0.876300  0.114200  1.0  -0.2256
  N  N426  1  0.881800  0.839600  0.135400  1.0  -0.2721
  N  N427  1  0.697900  0.327600  0.925690  1.0  0.033
  N  N428  1  0.172400  0.198900  0.152280  1.0  0.111
  N  N429  1  0.606100  0.338900  0.960850  1.0  -0.2143
  N  N430  1  0.645100  0.382200  0.939610  1.0  -0.2698
  N  N431  1  0.161800  0.123700  0.114200  1.0  -0.2245
  N  N432  1  0.118200  0.160400  0.135400  1.0  -0.2704
  N  N433  1  0.172400  0.197900  0.425690  1.0  0.0336
  N  N434  1  0.301100  0.672400  0.652280  1.0  0.1105
  N  N435  1  0.161100  0.106100  0.460850  1.0  -0.2153
  N  N436  1  0.117800  0.145100  0.439610  1.0  -0.2683
  N  N437  1  0.376300  0.661800  0.614200  1.0  -0.2223
  N  N438  1  0.339600  0.618200  0.635400  1.0  -0.2718
  N  N439  1  0.827600  0.802100  0.425690  1.0  0.0323
  N  N440  1  0.698900  0.327600  0.652280  1.0  0.1116
  N  N441  1  0.838900  0.893900  0.460850  1.0  -0.2148
  N  N442  1  0.882200  0.854900  0.439610  1.0  -0.2711
  N  N443  1  0.623700  0.338200  0.614200  1.0  -0.2285
  N  N444  1  0.660400  0.381800  0.635400  1.0  -0.2708
  O  O445  1  0.389700  0.985600  0.680410  1.0  -0.5678
  O  O446  1  0.466600  0.101700  0.677400  1.0  -0.5697
  O  O447  1  0.480000  0.105600  0.243060  1.0  -0.554
  O  O448  1  0.605200  0.042100  0.240410  1.0  -0.5563
  O  O449  1  0.610300  0.014400  0.680410  1.0  -0.5688
  O  O450  1  0.533400  0.898300  0.677400  1.0  -0.5724
  O  O451  1  0.520000  0.894400  0.243060  1.0  -0.5543
  O  O452  1  0.394800  0.957900  0.240410  1.0  -0.5559
  O  O453  1  0.514400  0.889700  0.180410  1.0  -0.5682
  O  O454  1  0.398300  0.966600  0.177400  1.0  -0.5712
  O  O455  1  0.394400  0.980000  0.743060  1.0  -0.5542
  O  O456  1  0.457900  0.105200  0.740410  1.0  -0.5562
  O  O457  1  0.485600  0.110300  0.180410  1.0  -0.5676
  O  O458  1  0.601700  0.033400  0.177400  1.0  -0.571
  O  O459  1  0.605600  0.020000  0.743060  1.0  -0.5536
  O  O460  1  0.542100  0.894800  0.740410  1.0  -0.5577
  O  O461  1  0.110300  0.485600  0.819590  1.0  -0.5672
  O  O462  1  0.033400  0.601700  0.822600  1.0  -0.5708
  O  O463  1  0.020000  0.605600  0.256940  1.0  -0.5548
  O  O464  1  0.894800  0.542100  0.259590  1.0  -0.5559
  O  O465  1  0.889700  0.514400  0.819590  1.0  -0.5675
  O  O466  1  0.966600  0.398300  0.822600  1.0  -0.5705
  O  O467  1  0.980000  0.394400  0.256940  1.0  -0.5543
  O  O468  1  0.105200  0.457900  0.259590  1.0  -0.5555
  O  O469  1  0.985600  0.389700  0.319590  1.0  -0.5684
  O  O470  1  0.101700  0.466600  0.322600  1.0  -0.5712
  O  O471  1  0.105600  0.480000  0.756940  1.0  -0.5551
  O  O472  1  0.042100  0.605200  0.759590  1.0  -0.557
  O  O473  1  0.014400  0.610300  0.319590  1.0  -0.567
  O  O474  1  0.898300  0.533400  0.322600  1.0  -0.5707
  O  O475  1  0.894400  0.520000  0.756940  1.0  -0.5547
  O  O476  1  0.957900  0.394800  0.759590  1.0  -0.5572
