# generated using pymatgen
data_Cu2H36C61(N3O2)4
_symmetry_space_group_name_H-M   'P 1'
_cell_length_a   22.80500000
_cell_length_b   22.80500000
_cell_length_c   44.07270000
_cell_angle_alpha   90.00000000
_cell_angle_beta   90.00000000
_cell_angle_gamma   90.00000000
_symmetry_Int_Tables_number   1
_chemical_formula_structural   Cu2H36C61(N3O2)4
_chemical_formula_sum   'Cu8 H144 C244 N48 O32'
_cell_volume   22920.80204542
_cell_formula_units_Z   4
loop_
 _symmetry_equiv_pos_site_id
 _symmetry_equiv_pos_as_xyz
  1  'x, y, z'
loop_
 _atom_site_type_symbol
 _atom_site_label
 _atom_site_symmetry_multiplicity
 _atom_site_fract_x
 _atom_site_fract_y
 _atom_site_fract_z
 _atom_site_occupancy
 _atom_site_charge
  Cu  Cu1  1  0.555820  0.484510  0.361050  1.0  0.9417
  Cu  Cu2  1  0.444180  0.515490  0.361050  1.0  0.9413
  Cu  Cu3  1  0.015490  0.055820  0.861050  1.0  0.9433
  Cu  Cu4  1  0.984510  0.944180  0.861050  1.0  0.9434
  Cu  Cu5  1  0.944180  0.984510  0.138950  1.0  0.9408
  Cu  Cu6  1  0.055820  0.015490  0.138950  1.0  0.9419
  Cu  Cu7  1  0.484510  0.555820  0.638950  1.0  0.9435
  Cu  Cu8  1  0.515490  0.444180  0.638950  1.0  0.9435
  H  H9  1  0.546000  0.351000  0.295110  1.0  0.1192
  H  H10  1  0.531150  0.284850  0.257480  1.0  0.1177
  H  H11  1  0.362320  0.327190  0.253280  1.0  0.1281
  H  H12  1  0.379140  0.394220  0.292060  1.0  0.1147
  H  H13  1  0.506470  0.210210  0.216960  1.0  0.1199
  H  H14  1  0.535600  0.127820  0.187590  1.0  0.1312
  H  H15  1  0.558820  0.056870  0.155500  1.0  0.1037
  H  H16  1  0.397670  0.059480  0.119770  1.0  0.1069
  H  H17  1  0.378340  0.142190  0.149820  1.0  0.1201
  H  H18  1  0.437280  0.900750  0.102710  1.0  0.0936
  H  H19  1  0.364480  0.874350  0.070410  1.0  0.1306
  H  H20  1  0.366100  0.037750  0.034990  1.0  0.1379
  H  H21  1  0.448750  0.056310  0.065690  1.0  0.1039
  H  H22  1  0.293620  0.007230  0.999910  1.0  0.1283
  H  H23  1  0.162530  0.866160  0.969560  1.0  0.0962
  H  H24  1  0.097570  0.885120  0.930590  1.0  0.131
  H  H25  1  0.157500  0.049630  0.926150  1.0  0.1154
  H  H26  1  0.221170  0.030900  0.966980  1.0  0.1125
  H  H27  1  0.454000  0.649000  0.295110  1.0  0.1185
  H  H28  1  0.468850  0.715150  0.257480  1.0  0.1176
  H  H29  1  0.637680  0.672810  0.253280  1.0  0.1284
  H  H30  1  0.620860  0.605780  0.292060  1.0  0.1145
  H  H31  1  0.493530  0.789790  0.216960  1.0  0.1194
  H  H32  1  0.464400  0.872180  0.187590  1.0  0.1301
  H  H33  1  0.441180  0.943130  0.155500  1.0  0.1042
  H  H34  1  0.602330  0.940520  0.119770  1.0  0.1077
  H  H35  1  0.621660  0.857810  0.149820  1.0  0.1196
  H  H36  1  0.562720  0.099250  0.102710  1.0  0.0945
  H  H37  1  0.635520  0.125650  0.070410  1.0  0.1308
  H  H38  1  0.633900  0.962250  0.034990  1.0  0.1384
  H  H39  1  0.551250  0.943690  0.065690  1.0  0.1028
  H  H40  1  0.706380  0.992770  0.999910  1.0  0.1278
  H  H41  1  0.837470  0.133840  0.969560  1.0  0.0961
  H  H42  1  0.902430  0.114880  0.930590  1.0  0.1311
  H  H43  1  0.842500  0.950370  0.926150  1.0  0.1149
  H  H44  1  0.778830  0.969100  0.966980  1.0  0.1125
  H  H45  1  0.149000  0.046000  0.795110  1.0  0.1173
  H  H46  1  0.215150  0.031150  0.757480  1.0  0.1173
  H  H47  1  0.172810  0.862320  0.753280  1.0  0.1282
  H  H48  1  0.105780  0.879140  0.792060  1.0  0.1136
  H  H49  1  0.289790  0.006470  0.716960  1.0  0.1185
  H  H50  1  0.372180  0.035600  0.687590  1.0  0.131
  H  H51  1  0.443130  0.058820  0.655500  1.0  0.1045
  H  H52  1  0.440520  0.897670  0.619770  1.0  0.1079
  H  H53  1  0.357810  0.878340  0.649820  1.0  0.1187
  H  H54  1  0.599250  0.937280  0.602710  1.0  0.095
  H  H55  1  0.625650  0.864480  0.570410  1.0  0.1315
  H  H56  1  0.462250  0.866100  0.534990  1.0  0.1354
  H  H57  1  0.443690  0.948750  0.565690  1.0  0.1042
  H  H58  1  0.492770  0.793620  0.499910  1.0  0.1283
  H  H59  1  0.633840  0.662530  0.469560  1.0  0.0963
  H  H60  1  0.614880  0.597570  0.430590  1.0  0.1306
  H  H61  1  0.450370  0.657500  0.426150  1.0  0.1162
  H  H62  1  0.469100  0.721170  0.466980  1.0  0.1129
  H  H63  1  0.851000  0.954000  0.795110  1.0  0.1178
  H  H64  1  0.784850  0.968850  0.757480  1.0  0.1175
  H  H65  1  0.827190  0.137680  0.753280  1.0  0.1286
  H  H66  1  0.894220  0.120860  0.792060  1.0  0.1142
  H  H67  1  0.710210  0.993530  0.716960  1.0  0.1185
  H  H68  1  0.627820  0.964400  0.687590  1.0  0.1315
  H  H69  1  0.556870  0.941180  0.655500  1.0  0.1036
  H  H70  1  0.559480  0.102330  0.619770  1.0  0.1093
  H  H71  1  0.642190  0.121660  0.649820  1.0  0.1185
  H  H72  1  0.400750  0.062720  0.602710  1.0  0.094
  H  H73  1  0.374350  0.135520  0.570410  1.0  0.1327
  H  H74  1  0.537750  0.133900  0.534990  1.0  0.1358
  H  H75  1  0.556310  0.051250  0.565690  1.0  0.1044
  H  H76  1  0.507230  0.206380  0.499910  1.0  0.1283
  H  H77  1  0.366160  0.337470  0.469560  1.0  0.0957
  H  H78  1  0.385120  0.402430  0.430590  1.0  0.1311
  H  H79  1  0.549630  0.342500  0.426150  1.0  0.1163
  H  H80  1  0.530900  0.278830  0.466980  1.0  0.1125
  H  H81  1  0.954000  0.851000  0.204890  1.0  0.1188
  H  H82  1  0.968850  0.784850  0.242520  1.0  0.1177
  H  H83  1  0.137680  0.827190  0.246720  1.0  0.1285
  H  H84  1  0.120860  0.894220  0.207940  1.0  0.1154
  H  H85  1  0.993530  0.710210  0.283040  1.0  0.1198
  H  H86  1  0.964400  0.627820  0.312410  1.0  0.1306
  H  H87  1  0.941180  0.556870  0.344500  1.0  0.1043
  H  H88  1  0.102330  0.559480  0.380230  1.0  0.1073
  H  H89  1  0.121660  0.642190  0.350180  1.0  0.1191
  H  H90  1  0.062720  0.400750  0.397290  1.0  0.0944
  H  H91  1  0.135520  0.374350  0.429590  1.0  0.1313
  H  H92  1  0.133900  0.537750  0.465010  1.0  0.138
  H  H93  1  0.051250  0.556310  0.434310  1.0  0.1029
  H  H94  1  0.206380  0.507230  0.500090  1.0  0.1278
  H  H95  1  0.337470  0.366160  0.530440  1.0  0.0963
  H  H96  1  0.402430  0.385120  0.569410  1.0  0.1309
  H  H97  1  0.342500  0.549630  0.573850  1.0  0.1151
  H  H98  1  0.278830  0.530900  0.533020  1.0  0.1133
  H  H99  1  0.046000  0.149000  0.204890  1.0  0.1196
  H  H100  1  0.031150  0.215150  0.242520  1.0  0.1186
  H  H101  1  0.862320  0.172810  0.246720  1.0  0.1281
  H  H102  1  0.879140  0.105780  0.207940  1.0  0.1148
  H  H103  1  0.006470  0.289790  0.283040  1.0  0.1199
  H  H104  1  0.035600  0.372180  0.312410  1.0  0.1305
  H  H105  1  0.058820  0.443130  0.344500  1.0  0.1043
  H  H106  1  0.897670  0.440520  0.380230  1.0  0.1075
  H  H107  1  0.878340  0.357810  0.350180  1.0  0.1204
  H  H108  1  0.937280  0.599250  0.397290  1.0  0.0947
  H  H109  1  0.864480  0.625650  0.429590  1.0  0.1314
  H  H110  1  0.866100  0.462250  0.465010  1.0  0.1374
  H  H111  1  0.948750  0.443690  0.434310  1.0  0.1023
  H  H112  1  0.793620  0.492770  0.500090  1.0  0.1279
  H  H113  1  0.662530  0.633840  0.530440  1.0  0.0968
  H  H114  1  0.597570  0.614880  0.569410  1.0  0.1314
  H  H115  1  0.657500  0.450370  0.573850  1.0  0.115
  H  H116  1  0.721170  0.469100  0.533020  1.0  0.1133
  H  H117  1  0.351000  0.546000  0.704890  1.0  0.1176
  H  H118  1  0.284850  0.531150  0.742520  1.0  0.1174
  H  H119  1  0.327190  0.362320  0.746720  1.0  0.1283
  H  H120  1  0.394220  0.379140  0.707940  1.0  0.1141
  H  H121  1  0.210210  0.506470  0.783040  1.0  0.1188
  H  H122  1  0.127820  0.535600  0.812410  1.0  0.1307
  H  H123  1  0.056870  0.558820  0.844500  1.0  0.1045
  H  H124  1  0.059480  0.397670  0.880230  1.0  0.1082
  H  H125  1  0.142190  0.378340  0.850180  1.0  0.1179
  H  H126  1  0.900750  0.437280  0.897290  1.0  0.0947
  H  H127  1  0.874350  0.364480  0.929590  1.0  0.1322
  H  H128  1  0.037750  0.366100  0.965010  1.0  0.1368
  H  H129  1  0.056310  0.448750  0.934310  1.0  0.1025
  H  H130  1  0.007230  0.293620  0.000090  1.0  0.1285
  H  H131  1  0.866160  0.162530  0.030440  1.0  0.0963
  H  H132  1  0.885120  0.097570  0.069410  1.0  0.131
  H  H133  1  0.049630  0.157500  0.073850  1.0  0.1158
  H  H134  1  0.030900  0.221170  0.033020  1.0  0.1137
  H  H135  1  0.649000  0.454000  0.704890  1.0  0.1178
  H  H136  1  0.715150  0.468850  0.742520  1.0  0.1178
  H  H137  1  0.672810  0.637680  0.746720  1.0  0.1284
  H  H138  1  0.605780  0.620860  0.707940  1.0  0.1147
  H  H139  1  0.789790  0.493530  0.783040  1.0  0.1184
  H  H140  1  0.872180  0.464400  0.812410  1.0  0.1313
  H  H141  1  0.943130  0.441180  0.844500  1.0  0.1044
  H  H142  1  0.940520  0.602330  0.880230  1.0  0.1094
  H  H143  1  0.857810  0.621660  0.850180  1.0  0.1184
  H  H144  1  0.099250  0.562720  0.897290  1.0  0.0946
  H  H145  1  0.125650  0.635520  0.929590  1.0  0.1319
  H  H146  1  0.962250  0.633900  0.965010  1.0  0.1368
  H  H147  1  0.943690  0.551250  0.934310  1.0  0.1035
  H  H148  1  0.992770  0.706380  0.000090  1.0  0.1279
  H  H149  1  0.133840  0.837470  0.030440  1.0  0.0969
  H  H150  1  0.114880  0.902430  0.069410  1.0  0.1307
  H  H151  1  0.950370  0.842500  0.073850  1.0  0.1158
  H  H152  1  0.969100  0.778830  0.033020  1.0  0.1126
  C  C153  1  0.477300  0.424600  0.320220  1.0  0.6742
  C  C154  1  0.465200  0.378500  0.297070  1.0  -0.1124
  C  C155  1  0.508700  0.346500  0.286900  1.0  -0.0354
  C  C156  1  0.499800  0.307200  0.264500  1.0  -0.1047
  C  C157  1  0.447900  0.299700  0.252400  1.0  0.1099
  C  C158  1  0.399300  0.332000  0.261800  1.0  -0.1157
  C  C159  1  0.409900  0.371600  0.284700  1.0  -0.0378
  C  C160  1  0.466500  0.215300  0.213700  1.0  -0.0205
  C  C161  1  0.433100  0.184500  0.193300  1.0  0.1102
  C  C162  1  0.452300  0.139300  0.173460  1.0  0.0155
  C  C163  1  0.507800  0.114600  0.173750  1.0  -0.0853
  C  C164  1  0.521300  0.072700  0.154580  1.0  -0.0819
  C  C165  1  0.481500  0.049900  0.132280  1.0  0.0861
  C  C166  1  0.426600  0.074400  0.132500  1.0  -0.1645
  C  C167  1  0.413700  0.122300  0.151900  1.0  -0.0696
  C  C168  1  0.448300  0.982900  0.089830  1.0  0.0818
  C  C169  1  0.423400  0.928700  0.089130  1.0  -0.1092
  C  C170  1  0.379100  0.912400  0.069810  1.0  -0.0855
  C  C171  1  0.356800  0.951600  0.049900  1.0  -0.0401
  C  C172  1  0.380900  0.009500  0.048130  1.0  -0.1437
  C  C173  1  0.429100  0.020800  0.067860  1.0  -0.0977
  C  C174  1  0.305500  0.940300  0.029000  1.0  0.1324
  C  C175  1  0.283100  0.970100  0.006680  1.0  -0.0944
  C  C176  1  0.200600  0.944000  0.973100  1.0  0.1864
  C  C177  1  0.162000  0.903700  0.961350  1.0  -0.0347
  C  C178  1  0.121800  0.914800  0.937770  1.0  -0.1204
  C  C179  1  0.119000  0.969600  0.925690  1.0  -0.1318
  C  C180  1  0.157600  0.013000  0.935430  1.0  -0.0539
  C  C181  1  0.197100  0.001100  0.959730  1.0  -0.1162
  C  C182  1  0.075100  0.980200  0.901700  1.0  0.7112
  C  C183  1  0.522700  0.575400  0.320220  1.0  0.6745
  C  C184  1  0.534800  0.621500  0.297070  1.0  -0.1118
  C  C185  1  0.491300  0.653500  0.286900  1.0  -0.0353
  C  C186  1  0.500200  0.692800  0.264500  1.0  -0.1019
  C  C187  1  0.552100  0.700300  0.252400  1.0  0.1105
  C  C188  1  0.600700  0.668000  0.261800  1.0  -0.1178
  C  C189  1  0.590100  0.628400  0.284700  1.0  -0.0381
  C  C190  1  0.533500  0.784700  0.213700  1.0  -0.0217
  C  C191  1  0.566900  0.815500  0.193300  1.0  0.1115
  C  C192  1  0.547700  0.860700  0.173460  1.0  0.0161
  C  C193  1  0.492200  0.885400  0.173750  1.0  -0.0854
  C  C194  1  0.478700  0.927300  0.154580  1.0  -0.0825
  C  C195  1  0.518500  0.950100  0.132280  1.0  0.0857
  C  C196  1  0.573400  0.925600  0.132500  1.0  -0.1616
  C  C197  1  0.586300  0.877700  0.151900  1.0  -0.0681
  C  C198  1  0.551700  0.017100  0.089830  1.0  0.0818
  C  C199  1  0.576600  0.071300  0.089130  1.0  -0.1092
  C  C200  1  0.620900  0.087600  0.069810  1.0  -0.0867
  C  C201  1  0.643200  0.048400  0.049900  1.0  -0.0407
  C  C202  1  0.619100  0.990500  0.048130  1.0  -0.1425
  C  C203  1  0.570900  0.979200  0.067860  1.0  -0.097
  C  C204  1  0.694500  0.059700  0.029000  1.0  0.1314
  C  C205  1  0.716900  0.029900  0.006680  1.0  -0.0953
  C  C206  1  0.799400  0.056000  0.973100  1.0  0.1861
  C  C207  1  0.838000  0.096300  0.961350  1.0  -0.0376
  C  C208  1  0.878200  0.085200  0.937770  1.0  -0.1206
  C  C209  1  0.881000  0.030400  0.925690  1.0  -0.1318
  C  C210  1  0.842400  0.987000  0.935430  1.0  -0.0533
  C  C211  1  0.802900  0.998900  0.959730  1.0  -0.1152
  C  C212  1  0.924900  0.019800  0.901700  1.0  0.71
  C  C213  1  0.075400  0.977300  0.820220  1.0  0.6731
  C  C214  1  0.121500  0.965200  0.797070  1.0  -0.1125
  C  C215  1  0.153500  0.008700  0.786900  1.0  -0.0407
  C  C216  1  0.192800  0.999800  0.764500  1.0  -0.1063
  C  C217  1  0.200300  0.947900  0.752400  1.0  0.1099
  C  C218  1  0.168000  0.899300  0.761800  1.0  -0.1181
  C  C219  1  0.128400  0.909900  0.784700  1.0  -0.0424
  C  C220  1  0.284700  0.966500  0.713700  1.0  -0.0231
  C  C221  1  0.315500  0.933100  0.693300  1.0  0.1108
  C  C222  1  0.360700  0.952300  0.673460  1.0  0.0142
  C  C223  1  0.385400  0.007800  0.673750  1.0  -0.0902
  C  C224  1  0.427300  0.021300  0.654580  1.0  -0.0876
  C  C225  1  0.450100  0.981500  0.632280  1.0  0.0861
  C  C226  1  0.425600  0.926600  0.632500  1.0  -0.1626
  C  C227  1  0.377700  0.913700  0.651900  1.0  -0.0676
  C  C228  1  0.517100  0.948300  0.589830  1.0  0.0811
  C  C229  1  0.571300  0.923400  0.589130  1.0  -0.1035
  C  C230  1  0.587600  0.879100  0.569810  1.0  -0.08
  C  C231  1  0.548400  0.856800  0.549900  1.0  -0.04
  C  C232  1  0.490500  0.880900  0.548130  1.0  -0.1422
  C  C233  1  0.479200  0.929100  0.567860  1.0  -0.0943
  C  C234  1  0.559700  0.805500  0.529000  1.0  0.1346
  C  C235  1  0.529900  0.783100  0.506680  1.0  -0.0958
  C  C236  1  0.556000  0.700600  0.473100  1.0  0.1866
  C  C237  1  0.596300  0.662000  0.461350  1.0  -0.0348
  C  C238  1  0.585200  0.621800  0.437770  1.0  -0.1213
  C  C239  1  0.530400  0.619000  0.425690  1.0  -0.1318
  C  C240  1  0.487000  0.657600  0.435430  1.0  -0.0565
  C  C241  1  0.498900  0.697100  0.459730  1.0  -0.115
  C  C242  1  0.519800  0.575100  0.401700  1.0  0.7115
  C  C243  1  0.924600  0.022700  0.820220  1.0  0.6735
  C  C244  1  0.878500  0.034800  0.797070  1.0  -0.1126
  C  C245  1  0.846500  0.991300  0.786900  1.0  -0.0409
  C  C246  1  0.807200  0.000200  0.764500  1.0  -0.1074
  C  C247  1  0.799700  0.052100  0.752400  1.0  0.111
  C  C248  1  0.832000  0.100700  0.761800  1.0  -0.1169
  C  C249  1  0.871600  0.090100  0.784700  1.0  -0.0412
  C  C250  1  0.715300  0.033500  0.713700  1.0  -0.0234
  C  C251  1  0.684500  0.066900  0.693300  1.0  0.1089
  C  C252  1  0.639300  0.047700  0.673460  1.0  0.0157
  C  C253  1  0.614600  0.992200  0.673750  1.0  -0.0882
  C  C254  1  0.572700  0.978700  0.654580  1.0  -0.0816
  C  C255  1  0.549900  0.018500  0.632280  1.0  0.0862
  C  C256  1  0.574400  0.073400  0.632500  1.0  -0.161
  C  C257  1  0.622300  0.086300  0.651900  1.0  -0.069
  C  C258  1  0.482900  0.051700  0.589830  1.0  0.0818
  C  C259  1  0.428700  0.076600  0.589130  1.0  -0.1078
  C  C260  1  0.412400  0.120900  0.569810  1.0  -0.0819
  C  C261  1  0.451600  0.143200  0.549900  1.0  -0.0391
  C  C262  1  0.509500  0.119100  0.548130  1.0  -0.1399
  C  C263  1  0.520800  0.070900  0.567860  1.0  -0.093
  C  C264  1  0.440300  0.194500  0.529000  1.0  0.1347
  C  C265  1  0.470100  0.216900  0.506680  1.0  -0.0964
  C  C266  1  0.444000  0.299400  0.473100  1.0  0.1859
  C  C267  1  0.403700  0.338000  0.461350  1.0  -0.035
  C  C268  1  0.414800  0.378200  0.437770  1.0  -0.1216
  C  C269  1  0.469600  0.381000  0.425690  1.0  -0.1319
  C  C270  1  0.513000  0.342400  0.435430  1.0  -0.0533
  C  C271  1  0.501100  0.302900  0.459730  1.0  -0.113
  C  C272  1  0.480200  0.424900  0.401700  1.0  0.7119
  C  C273  1  0.500000  0.000000  0.110100  1.0  -0.036
  C  C274  1  0.500000  0.000000  0.610100  1.0  -0.036
  C  C275  1  0.022700  0.924600  0.179780  1.0  0.6746
  C  C276  1  0.034800  0.878500  0.202930  1.0  -0.1129
  C  C277  1  0.991300  0.846500  0.213100  1.0  -0.0348
  C  C278  1  0.000200  0.807200  0.235500  1.0  -0.1027
  C  C279  1  0.052100  0.799700  0.247600  1.0  0.1103
  C  C280  1  0.100700  0.832000  0.238200  1.0  -0.1167
  C  C281  1  0.090100  0.871600  0.215300  1.0  -0.0386
  C  C282  1  0.033500  0.715300  0.286300  1.0  -0.022
  C  C283  1  0.066900  0.684500  0.306700  1.0  0.1116
  C  C284  1  0.047700  0.639300  0.326540  1.0  0.0156
  C  C285  1  0.992200  0.614600  0.326250  1.0  -0.0837
  C  C286  1  0.978700  0.572700  0.345420  1.0  -0.0845
  C  C287  1  0.018500  0.549900  0.367720  1.0  0.0844
  C  C288  1  0.073400  0.574400  0.367500  1.0  -0.1614
  C  C289  1  0.086300  0.622300  0.348100  1.0  -0.0671
  C  C290  1  0.051700  0.482900  0.410170  1.0  0.0814
  C  C291  1  0.076600  0.428700  0.410870  1.0  -0.1079
  C  C292  1  0.120900  0.412400  0.430190  1.0  -0.0866
  C  C293  1  0.143200  0.451600  0.450100  1.0  -0.0393
  C  C294  1  0.119100  0.509500  0.451870  1.0  -0.1426
  C  C295  1  0.070900  0.520800  0.432140  1.0  -0.0961
  C  C296  1  0.194500  0.440300  0.471000  1.0  0.1308
  C  C297  1  0.216900  0.470100  0.493320  1.0  -0.0968
  C  C298  1  0.299400  0.444000  0.526900  1.0  0.1863
  C  C299  1  0.338000  0.403700  0.538650  1.0  -0.0364
  C  C300  1  0.378200  0.414800  0.562230  1.0  -0.1208
  C  C301  1  0.381000  0.469600  0.574310  1.0  -0.1313
  C  C302  1  0.342400  0.513000  0.564570  1.0  -0.0533
  C  C303  1  0.302900  0.501100  0.540270  1.0  -0.1168
  C  C304  1  0.424900  0.480200  0.598300  1.0  0.7103
  C  C305  1  0.977300  0.075400  0.179780  1.0  0.6743
  C  C306  1  0.965200  0.121500  0.202930  1.0  -0.1122
  C  C307  1  0.008700  0.153500  0.213100  1.0  -0.0355
  C  C308  1  0.999800  0.192800  0.235500  1.0  -0.105
  C  C309  1  0.947900  0.200300  0.247600  1.0  0.1105
  C  C310  1  0.899300  0.168000  0.238200  1.0  -0.1156
  C  C311  1  0.909900  0.128400  0.215300  1.0  -0.0374
  C  C312  1  0.966500  0.284700  0.286300  1.0  -0.0203
  C  C313  1  0.933100  0.315500  0.306700  1.0  0.1108
  C  C314  1  0.952300  0.360700  0.326540  1.0  0.0132
  C  C315  1  0.007800  0.385400  0.326250  1.0  -0.084
  C  C316  1  0.021300  0.427300  0.345420  1.0  -0.0842
  C  C317  1  0.981500  0.450100  0.367720  1.0  0.0838
  C  C318  1  0.926600  0.425600  0.367500  1.0  -0.1648
  C  C319  1  0.913700  0.377700  0.348100  1.0  -0.069
  C  C320  1  0.948300  0.517100  0.410170  1.0  0.082
  C  C321  1  0.923400  0.571300  0.410870  1.0  -0.11
  C  C322  1  0.879100  0.587600  0.430190  1.0  -0.0855
  C  C323  1  0.856800  0.548400  0.450100  1.0  -0.039
  C  C324  1  0.880900  0.490500  0.451870  1.0  -0.1446
  C  C325  1  0.929100  0.479200  0.432140  1.0  -0.0978
  C  C326  1  0.805500  0.559700  0.471000  1.0  0.1311
  C  C327  1  0.783100  0.529900  0.493320  1.0  -0.0968
  C  C328  1  0.700600  0.556000  0.526900  1.0  0.1868
  C  C329  1  0.662000  0.596300  0.538650  1.0  -0.0371
  C  C330  1  0.621800  0.585200  0.562230  1.0  -0.1202
  C  C331  1  0.619000  0.530400  0.574310  1.0  -0.1311
  C  C332  1  0.657600  0.487000  0.564570  1.0  -0.0525
  C  C333  1  0.697100  0.498900  0.540270  1.0  -0.1156
  C  C334  1  0.575100  0.519800  0.598300  1.0  0.7115
  C  C335  1  0.424600  0.477300  0.679780  1.0  0.6735
  C  C336  1  0.378500  0.465200  0.702930  1.0  -0.1127
  C  C337  1  0.346500  0.508700  0.713100  1.0  -0.0396
  C  C338  1  0.307200  0.499800  0.735500  1.0  -0.1075
  C  C339  1  0.299700  0.447900  0.747600  1.0  0.1104
  C  C340  1  0.332000  0.399300  0.738200  1.0  -0.1184
  C  C341  1  0.371600  0.409900  0.715300  1.0  -0.0431
  C  C342  1  0.215300  0.466500  0.786300  1.0  -0.0225
  C  C343  1  0.184500  0.433100  0.806700  1.0  0.1097
  C  C344  1  0.139300  0.452300  0.826540  1.0  0.0149
  C  C345  1  0.114600  0.507800  0.826250  1.0  -0.0885
  C  C346  1  0.072700  0.521300  0.845420  1.0  -0.0873
  C  C347  1  0.049900  0.481500  0.867720  1.0  0.0852
  C  C348  1  0.074400  0.426600  0.867500  1.0  -0.1614
  C  C349  1  0.122300  0.413700  0.848100  1.0  -0.0687
  C  C350  1  0.982900  0.448300  0.910170  1.0  0.0813
  C  C351  1  0.928700  0.423400  0.910870  1.0  -0.1081
  C  C352  1  0.912400  0.379100  0.930190  1.0  -0.0806
  C  C353  1  0.951600  0.356800  0.950100  1.0  -0.0389
  C  C354  1  0.009500  0.380900  0.951870  1.0  -0.1402
  C  C355  1  0.020800  0.429100  0.932140  1.0  -0.0918
  C  C356  1  0.940300  0.305500  0.971000  1.0  0.1342
  C  C357  1  0.970100  0.283100  0.993320  1.0  -0.0977
  C  C358  1  0.944000  0.200600  0.026900  1.0  0.1863
  C  C359  1  0.903700  0.162000  0.038650  1.0  -0.0361
  C  C360  1  0.914800  0.121800  0.062230  1.0  -0.1215
  C  C361  1  0.969600  0.119000  0.074310  1.0  -0.1311
  C  C362  1  0.013000  0.157600  0.064570  1.0  -0.0529
  C  C363  1  0.001100  0.197100  0.040270  1.0  -0.1137
  C  C364  1  0.980200  0.075100  0.098300  1.0  0.7117
  C  C365  1  0.575400  0.522700  0.679780  1.0  0.6733
  C  C366  1  0.621500  0.534800  0.702930  1.0  -0.1128
  C  C367  1  0.653500  0.491300  0.713100  1.0  -0.0411
  C  C368  1  0.692800  0.500200  0.735500  1.0  -0.1093
  C  C369  1  0.700300  0.552100  0.747600  1.0  0.1102
  C  C370  1  0.668000  0.600700  0.738200  1.0  -0.117
  C  C371  1  0.628400  0.590100  0.715300  1.0  -0.0422
  C  C372  1  0.784700  0.533500  0.786300  1.0  -0.0233
  C  C373  1  0.815500  0.566900  0.806700  1.0  0.1105
  C  C374  1  0.860700  0.547700  0.826540  1.0  0.0128
  C  C375  1  0.885400  0.492200  0.826250  1.0  -0.0865
  C  C376  1  0.927300  0.478700  0.845420  1.0  -0.0858
  C  C377  1  0.950100  0.518500  0.867720  1.0  0.0841
  C  C378  1  0.925600  0.573400  0.867500  1.0  -0.1612
  C  C379  1  0.877700  0.586300  0.848100  1.0  -0.0672
  C  C380  1  0.017100  0.551700  0.910170  1.0  0.0821
  C  C381  1  0.071300  0.576600  0.910870  1.0  -0.1053
  C  C382  1  0.087600  0.620900  0.930190  1.0  -0.0792
  C  C383  1  0.048400  0.643200  0.950100  1.0  -0.0383
  C  C384  1  0.990500  0.619100  0.951870  1.0  -0.1446
  C  C385  1  0.979200  0.570900  0.932140  1.0  -0.0941
  C  C386  1  0.059700  0.694500  0.971000  1.0  0.1343
  C  C387  1  0.029900  0.716900  0.993320  1.0  -0.0973
  C  C388  1  0.056000  0.799400  0.026900  1.0  0.1867
  C  C389  1  0.096300  0.838000  0.038650  1.0  -0.0356
  C  C390  1  0.085200  0.878200  0.062230  1.0  -0.1198
  C  C391  1  0.030400  0.881000  0.074310  1.0  -0.1311
  C  C392  1  0.987000  0.842400  0.064570  1.0  -0.0558
  C  C393  1  0.998900  0.802900  0.040270  1.0  -0.114
  C  C394  1  0.019800  0.924900  0.098300  1.0  0.712
  C  C395  1  0.000000  0.500000  0.389900  1.0  -0.0361
  C  C396  1  0.000000  0.500000  0.889900  1.0  -0.0361
  N  N397  1  0.431900  0.254400  0.228400  1.0  -0.1131
  N  N398  1  0.376600  0.252300  0.214100  1.0  -0.3089
  N  N399  1  0.381400  0.211000  0.194000  1.0  -0.2133
  N  N400  1  0.275700  0.891500  0.032500  1.0  -0.161
  N  N401  1  0.233700  0.890400  0.013300  1.0  -0.245
  N  N402  1  0.242300  0.935200  0.995930  1.0  0.0475
  N  N403  1  0.568100  0.745600  0.228400  1.0  -0.1126
  N  N404  1  0.623400  0.747700  0.214100  1.0  -0.3116
  N  N405  1  0.618600  0.789000  0.194000  1.0  -0.2198
  N  N406  1  0.724300  0.108500  0.032500  1.0  -0.1588
  N  N407  1  0.766300  0.109600  0.013300  1.0  -0.2453
  N  N408  1  0.757700  0.064800  0.995930  1.0  0.0466
  N  N409  1  0.245600  0.931900  0.728400  1.0  -0.1144
  N  N410  1  0.247700  0.876600  0.714100  1.0  -0.3115
  N  N411  1  0.289000  0.881400  0.694000  1.0  -0.2136
  N  N412  1  0.608500  0.775700  0.532500  1.0  -0.1624
  N  N413  1  0.609600  0.733700  0.513300  1.0  -0.2517
  N  N414  1  0.564800  0.742300  0.495930  1.0  0.047
  N  N415  1  0.754400  0.068100  0.728400  1.0  -0.1141
  N  N416  1  0.752300  0.123400  0.714100  1.0  -0.3076
  N  N417  1  0.711000  0.118600  0.694000  1.0  -0.213
  N  N418  1  0.391500  0.224300  0.532500  1.0  -0.1558
  N  N419  1  0.390400  0.266300  0.513300  1.0  -0.2471
  N  N420  1  0.435200  0.257700  0.495930  1.0  0.047
  N  N421  1  0.068100  0.754400  0.271600  1.0  -0.1127
  N  N422  1  0.123400  0.752300  0.285900  1.0  -0.3167
  N  N423  1  0.118600  0.711000  0.306000  1.0  -0.216
  N  N424  1  0.224300  0.391500  0.467500  1.0  -0.1621
  N  N425  1  0.266300  0.390400  0.486700  1.0  -0.2441
  N  N426  1  0.257700  0.435200  0.504070  1.0  0.0481
  N  N427  1  0.931900  0.245600  0.271600  1.0  -0.1131
  N  N428  1  0.876600  0.247700  0.285900  1.0  -0.3159
  N  N429  1  0.881400  0.289000  0.306000  1.0  -0.2103
  N  N430  1  0.775700  0.608500  0.467500  1.0  -0.1604
  N  N431  1  0.733700  0.609600  0.486700  1.0  -0.2458
  N  N432  1  0.742300  0.564800  0.504070  1.0  0.0484
  N  N433  1  0.254400  0.431900  0.771600  1.0  -0.1144
  N  N434  1  0.252300  0.376600  0.785900  1.0  -0.3077
  N  N435  1  0.211000  0.381400  0.806000  1.0  -0.2151
  N  N436  1  0.891500  0.275700  0.967500  1.0  -0.1562
  N  N437  1  0.890400  0.233700  0.986700  1.0  -0.2493
  N  N438  1  0.935200  0.242300  0.004070  1.0  0.0477
  N  N439  1  0.745600  0.568100  0.771600  1.0  -0.1141
  N  N440  1  0.747700  0.623400  0.785900  1.0  -0.3077
  N  N441  1  0.789000  0.618600  0.806000  1.0  -0.2138
  N  N442  1  0.108500  0.724300  0.967500  1.0  -0.1649
  N  N443  1  0.109600  0.766300  0.986700  1.0  -0.2516
  N  N444  1  0.064800  0.757700  0.004070  1.0  0.0487
  O  O445  1  0.532200  0.429600  0.330040  1.0  -0.5673
  O  O446  1  0.434700  0.455500  0.329930  1.0  -0.5656
  O  O447  1  0.070300  0.032900  0.892060  1.0  -0.5689
  O  O448  1  0.043050  0.938700  0.892590  1.0  -0.5813
  O  O449  1  0.467800  0.570400  0.330040  1.0  -0.5685
  O  O450  1  0.565300  0.544500  0.329930  1.0  -0.5661
  O  O451  1  0.929700  0.967100  0.892060  1.0  -0.5699
  O  O452  1  0.956950  0.061300  0.892590  1.0  -0.5812
  O  O453  1  0.070400  0.032200  0.830040  1.0  -0.5679
  O  O454  1  0.044500  0.934700  0.829930  1.0  -0.5652
  O  O455  1  0.467100  0.570300  0.392060  1.0  -0.5695
  O  O456  1  0.561300  0.543050  0.392590  1.0  -0.5811
  O  O457  1  0.929600  0.967800  0.830040  1.0  -0.5702
  O  O458  1  0.955500  0.065300  0.829930  1.0  -0.5649
  O  O459  1  0.532900  0.429700  0.392060  1.0  -0.5684
  O  O460  1  0.438700  0.456950  0.392590  1.0  -0.5814
  O  O461  1  0.967800  0.929600  0.169960  1.0  -0.5687
  O  O462  1  0.065300  0.955500  0.170070  1.0  -0.5663
  O  O463  1  0.429700  0.532900  0.607940  1.0  -0.5698
  O  O464  1  0.456950  0.438700  0.607410  1.0  -0.5812
  O  O465  1  0.032200  0.070400  0.169960  1.0  -0.5665
  O  O466  1  0.934700  0.044500  0.170070  1.0  -0.5666
  O  O467  1  0.570300  0.467100  0.607940  1.0  -0.5697
  O  O468  1  0.543050  0.561300  0.607410  1.0  -0.5809
  O  O469  1  0.429600  0.532200  0.669960  1.0  -0.5694
  O  O470  1  0.455500  0.434700  0.670070  1.0  -0.5656
  O  O471  1  0.032900  0.070300  0.107940  1.0  -0.5681
  O  O472  1  0.938700  0.043050  0.107410  1.0  -0.5819
  O  O473  1  0.570400  0.467800  0.669960  1.0  -0.5695
  O  O474  1  0.544500  0.565300  0.670070  1.0  -0.565
  O  O475  1  0.967100  0.929700  0.107940  1.0  -0.5698
  O  O476  1  0.061300  0.956950  0.107410  1.0  -0.5806
