# generated using pymatgen
data_CuH20C26N6ClO10
_symmetry_space_group_name_H-M   'P 1'
_cell_length_a   9.81080000
_cell_length_b   9.81080000
_cell_length_c   23.41700000
_cell_angle_alpha   90.00000000
_cell_angle_beta   90.00000000
_cell_angle_gamma   108.96700000
_symmetry_Int_Tables_number   1
_chemical_formula_structural   CuH20C26N6ClO10
_chemical_formula_sum   'Cu2 H40 C52 N12 Cl2 O20'
_cell_volume   2131.55338560
_cell_formula_units_Z   2
loop_
 _symmetry_equiv_pos_site_id
 _symmetry_equiv_pos_as_xyz
  1  'x, y, z'
loop_
 _atom_site_type_symbol
 _atom_site_label
 _atom_site_symmetry_multiplicity
 _atom_site_fract_x
 _atom_site_fract_y
 _atom_site_fract_z
 _atom_site_occupancy
 _atom_site_charge
  Cu  Cu1  1  0.000000  0.000000  0.750000  1.0  0.5097
  Cu  Cu2  1  0.000000  0.000000  0.250000  1.0  0.5097
  H  H3  1  0.858400  0.186000  0.691700  1.0  0.123
  H  H4  1  0.707200  0.177400  0.616400  1.0  0.1593
  H  H5  1  0.608400  0.747400  0.614900  1.0  0.1724
  H  H6  1  0.762900  0.769700  0.689900  1.0  0.1239
  H  H7  1  0.141600  0.814000  0.691700  1.0  0.123
  H  H8  1  0.292800  0.822600  0.616400  1.0  0.158
  H  H9  1  0.391600  0.252600  0.614900  1.0  0.1725
  H  H10  1  0.237100  0.230300  0.689900  1.0  0.1248
  H  H11  1  0.814000  0.141600  0.808300  1.0  0.1226
  H  H12  1  0.822600  0.292800  0.883600  1.0  0.1577
  H  H13  1  0.252600  0.391600  0.885100  1.0  0.1727
  H  H14  1  0.230300  0.237100  0.810100  1.0  0.1238
  H  H15  1  0.186000  0.858400  0.808300  1.0  0.123
  H  H16  1  0.177400  0.707200  0.883600  1.0  0.1575
  H  H17  1  0.747400  0.608400  0.885100  1.0  0.1729
  H  H18  1  0.769700  0.762900  0.810100  1.0  0.1244
  H  H19  1  0.141600  0.814000  0.308300  1.0  0.1232
  H  H20  1  0.292800  0.822600  0.383600  1.0  0.1579
  H  H21  1  0.391600  0.252600  0.385100  1.0  0.1725
  H  H22  1  0.237100  0.230300  0.310100  1.0  0.1249
  H  H23  1  0.858400  0.186000  0.308300  1.0  0.1234
  H  H24  1  0.707200  0.177400  0.383600  1.0  0.1592
  H  H25  1  0.608400  0.747400  0.385100  1.0  0.1725
  H  H26  1  0.762900  0.769700  0.310100  1.0  0.1239
  H  H27  1  0.186000  0.858400  0.191700  1.0  0.1225
  H  H28  1  0.177400  0.707200  0.116400  1.0  0.1575
  H  H29  1  0.747400  0.608400  0.114900  1.0  0.1731
  H  H30  1  0.769700  0.762900  0.189900  1.0  0.1243
  H  H31  1  0.814000  0.141600  0.191700  1.0  0.1226
  H  H32  1  0.822600  0.292800  0.116400  1.0  0.1577
  H  H33  1  0.252600  0.391600  0.114900  1.0  0.1729
  H  H34  1  0.230300  0.237100  0.189900  1.0  0.1234
  H  H35  1  0.708100  0.065700  0.500000  1.0  0.14
  H  H36  1  0.690500  0.897300  0.500000  1.0  0.1564
  H  H37  1  0.291900  0.934300  0.500000  1.0  0.1405
  H  H38  1  0.309500  0.102700  0.500000  1.0  0.1563
  H  H39  1  0.934300  0.291900  0.000000  1.0  0.1401
  H  H40  1  0.102700  0.309500  0.000000  1.0  0.1559
  H  H41  1  0.065700  0.708100  0.000000  1.0  0.1401
  H  H42  1  0.897300  0.690500  0.000000  1.0  0.155
  C  C43  1  0.808100  0.094700  0.675500  1.0  0.2089
  C  C44  1  0.716800  0.090400  0.630700  1.0  -0.206
  C  C45  1  0.639100  0.961300  0.606350  1.0  0.1456
  C  C46  1  0.659100  0.840300  0.629660  1.0  -0.1503
  C  C47  1  0.752600  0.855200  0.674280  1.0  0.2015
  C  C48  1  0.541500  0.945500  0.554280  1.0  0.2081
  C  C49  1  0.191900  0.905300  0.675500  1.0  0.2085
  C  C50  1  0.283200  0.909600  0.630700  1.0  -0.2047
  C  C51  1  0.360900  0.038700  0.606350  1.0  0.1456
  C  C52  1  0.340900  0.159700  0.629660  1.0  -0.1503
  C  C53  1  0.247400  0.144800  0.674280  1.0  0.2005
  C  C54  1  0.458500  0.054500  0.554280  1.0  0.2078
  C  C55  1  0.905300  0.191900  0.824500  1.0  0.2104
  C  C56  1  0.909600  0.283200  0.869300  1.0  -0.2021
  C  C57  1  0.038700  0.360900  0.893650  1.0  0.1464
  C  C58  1  0.159700  0.340900  0.870340  1.0  -0.148
  C  C59  1  0.144800  0.247400  0.825720  1.0  0.2039
  C  C60  1  0.054500  0.458500  0.945720  1.0  0.2074
  C  C61  1  0.094700  0.808100  0.824500  1.0  0.2108
  C  C62  1  0.090400  0.716800  0.869300  1.0  -0.2012
  C  C63  1  0.961300  0.639100  0.893650  1.0  0.1462
  C  C64  1  0.840300  0.659100  0.870340  1.0  -0.1498
  C  C65  1  0.855200  0.752600  0.825720  1.0  0.2044
  C  C66  1  0.945500  0.541500  0.945720  1.0  0.2081
  C  C67  1  0.191900  0.905300  0.324500  1.0  0.2083
  C  C68  1  0.283200  0.909600  0.369300  1.0  -0.2045
  C  C69  1  0.360900  0.038700  0.393650  1.0  0.1462
  C  C70  1  0.340900  0.159700  0.370340  1.0  -0.1502
  C  C71  1  0.247400  0.144800  0.325720  1.0  0.2015
  C  C72  1  0.458500  0.054500  0.445720  1.0  0.2077
  C  C73  1  0.808100  0.094700  0.324500  1.0  0.2099
  C  C74  1  0.716800  0.090400  0.369300  1.0  -0.2056
  C  C75  1  0.639100  0.961300  0.393650  1.0  0.1458
  C  C76  1  0.659100  0.840300  0.370340  1.0  -0.1507
  C  C77  1  0.752600  0.855200  0.325720  1.0  0.2013
  C  C78  1  0.541500  0.945500  0.445720  1.0  0.2075
  C  C79  1  0.094700  0.808100  0.175500  1.0  0.2104
  C  C80  1  0.090400  0.716800  0.130700  1.0  -0.202
  C  C81  1  0.961300  0.639100  0.106350  1.0  0.1459
  C  C82  1  0.840300  0.659100  0.129660  1.0  -0.1499
  C  C83  1  0.855200  0.752600  0.174280  1.0  0.2043
  C  C84  1  0.945500  0.541500  0.054280  1.0  0.2085
  C  C85  1  0.905300  0.191900  0.175500  1.0  0.2107
  C  C86  1  0.909600  0.283200  0.130700  1.0  -0.2022
  C  C87  1  0.038700  0.360900  0.106350  1.0  0.1461
  C  C88  1  0.159700  0.340900  0.129660  1.0  -0.1487
  C  C89  1  0.144800  0.247400  0.174280  1.0  0.2043
  C  C90  1  0.054500  0.458500  0.054280  1.0  0.2079
  C  C91  1  0.637100  0.967300  0.500000  1.0  -0.2211
  C  C92  1  0.362900  0.032700  0.500000  1.0  -0.2213
  C  C93  1  0.032700  0.362900  0.000000  1.0  -0.2221
  C  C94  1  0.967300  0.637100  0.000000  1.0  -0.2225
  N  N95  1  0.830560  0.980240  0.697550  1.0  -0.2824
  N  N96  1  0.169440  0.019760  0.697550  1.0  -0.2815
  N  N97  1  0.019760  0.169440  0.802450  1.0  -0.285
  N  N98  1  0.980240  0.830560  0.802450  1.0  -0.2852
  N  N99  1  0.169440  0.019760  0.302450  1.0  -0.2819
  N  N100  1  0.830560  0.980240  0.302450  1.0  -0.2836
  N  N101  1  0.980240  0.830560  0.197550  1.0  -0.2849
  N  N102  1  0.019760  0.169440  0.197550  1.0  -0.2842
  N  N103  1  0.000000  0.500000  0.633500  1.0  0.8466
  N  N104  1  0.500000  0.000000  0.866500  1.0  0.8478
  N  N105  1  0.000000  0.500000  0.366500  1.0  0.8478
  N  N106  1  0.500000  0.000000  0.133500  1.0  0.8466
  Cl  Cl107  1  0.500000  0.500000  0.500000  1.0  -0.503
  Cl  Cl108  1  0.500000  0.500000  0.000000  1.0  -0.503
  O  O109  1  0.435400  0.805000  0.549100  1.0  -0.5105
  O  O110  1  0.564600  0.195000  0.549100  1.0  -0.5033
  O  O111  1  0.195000  0.564600  0.950900  1.0  -0.5132
  O  O112  1  0.805000  0.435400  0.950900  1.0  -0.5128
  O  O113  1  0.564600  0.195000  0.450900  1.0  -0.5037
  O  O114  1  0.435400  0.805000  0.450900  1.0  -0.5106
  O  O115  1  0.805000  0.435400  0.049100  1.0  -0.5124
  O  O116  1  0.195000  0.564600  0.049100  1.0  -0.5131
  O  O117  1  0.882900  0.454900  0.606900  1.0  -0.4307
  O  O118  1  0.117100  0.545100  0.606900  1.0  -0.4306
  O  O119  1  0.000000  0.500000  0.687100  1.0  -0.4588
  O  O120  1  0.545100  0.117100  0.893100  1.0  -0.4299
  O  O121  1  0.454900  0.882900  0.893100  1.0  -0.4308
  O  O122  1  0.500000  0.000000  0.812900  1.0  -0.4579
  O  O123  1  0.117100  0.545100  0.393100  1.0  -0.4309
  O  O124  1  0.882900  0.454900  0.393100  1.0  -0.4305
  O  O125  1  0.000000  0.500000  0.312900  1.0  -0.4579
  O  O126  1  0.454900  0.882900  0.106900  1.0  -0.4314
  O  O127  1  0.545100  0.117100  0.106900  1.0  -0.4307
  O  O128  1  0.500000  0.000000  0.187100  1.0  -0.4588
