# generated using pymatgen
data_ErH3C6N2O5
_symmetry_space_group_name_H-M   'P 1'
_cell_length_a   6.15100000
_cell_length_b   11.70600000
_cell_length_c   14.06300000
_cell_angle_alpha   92.25500000
_cell_angle_beta   90.00000000
_cell_angle_gamma   90.00000000
_symmetry_Int_Tables_number   1
_chemical_formula_structural   ErH3C6N2O5
_chemical_formula_sum   'Er4 H12 C24 N8 O20'
_cell_volume   1011.80257048
_cell_formula_units_Z   4
loop_
 _symmetry_equiv_pos_site_id
 _symmetry_equiv_pos_as_xyz
  1  'x, y, z'
loop_
 _atom_site_type_symbol
 _atom_site_label
 _atom_site_symmetry_multiplicity
 _atom_site_fract_x
 _atom_site_fract_y
 _atom_site_fract_z
 _atom_site_occupancy
 _atom_site_charge
  Er  Er1  1  0.506670  0.846270  0.245830  1.0  1.3828
  Er  Er2  1  0.006670  0.653730  0.254170  1.0  1.3838
  Er  Er3  1  0.493330  0.153730  0.754170  1.0  1.3838
  Er  Er4  1  0.993330  0.346270  0.745830  1.0  1.383
  H  H5  1  0.783100  0.965100  0.597800  1.0  0.092
  H  H6  1  0.216000  0.118000  0.976800  1.0  0.0897
  H  H7  1  0.222000  0.766000  0.380000  1.0  0.3967
  H  H8  1  0.283100  0.534900  0.902200  1.0  0.0917
  H  H9  1  0.716000  0.382000  0.523200  1.0  0.089
  H  H10  1  0.722000  0.734000  0.120000  1.0  0.3955
  H  H11  1  0.216900  0.034900  0.402200  1.0  0.0916
  H  H12  1  0.784000  0.882000  0.023200  1.0  0.0891
  H  H13  1  0.778000  0.234000  0.620000  1.0  0.3959
  H  H14  1  0.716900  0.465100  0.097800  1.0  0.0916
  H  H15  1  0.284000  0.618000  0.476800  1.0  0.0895
  H  H16  1  0.278000  0.266000  0.880000  1.0  0.3974
  C  C17  1  0.823200  0.840800  0.434600  1.0  0.6374
  C  C18  1  0.652700  0.925200  0.469600  1.0  0.0689
  C  C19  1  0.666100  0.980500  0.558400  1.0  0.1631
  C  C20  1  0.177900  0.017800  0.144900  1.0  0.6207
  C  C21  1  0.346200  0.007800  0.066800  1.0  0.0735
  C  C22  1  0.334200  0.069900  0.985200  1.0  0.1552
  C  C23  1  0.323200  0.659200  0.065400  1.0  0.6385
  C  C24  1  0.152700  0.574800  0.030400  1.0  0.0695
  C  C25  1  0.166100  0.519500  0.941600  1.0  0.1626
  C  C26  1  0.677900  0.482200  0.355100  1.0  0.621
  C  C27  1  0.846200  0.492200  0.433200  1.0  0.0728
  C  C28  1  0.834200  0.430100  0.514800  1.0  0.1553
  C  C29  1  0.176800  0.159200  0.565400  1.0  0.6374
  C  C30  1  0.347300  0.074800  0.530400  1.0  0.0693
  C  C31  1  0.333900  0.019500  0.441600  1.0  0.1581
  C  C32  1  0.822100  0.982200  0.855100  1.0  0.6222
  C  C33  1  0.653800  0.992200  0.933200  1.0  0.0744
  C  C34  1  0.665800  0.930100  0.014800  1.0  0.1549
  C  C35  1  0.676800  0.340800  0.934600  1.0  0.6367
  C  C36  1  0.847300  0.425200  0.969600  1.0  0.0687
  C  C37  1  0.833900  0.480500  0.058400  1.0  0.1586
  C  C38  1  0.322100  0.517800  0.644900  1.0  0.6235
  C  C39  1  0.153800  0.507800  0.566800  1.0  0.0748
  C  C40  1  0.165800  0.569900  0.485200  1.0  0.1548
  N  N41  1  0.484300  0.945000  0.411400  1.0  -0.3053
  N  N42  1  0.513200  0.937300  0.081000  1.0  -0.3058
  N  N43  1  0.984300  0.555000  0.088600  1.0  -0.3012
  N  N44  1  0.013200  0.562700  0.419000  1.0  -0.3066
  N  N45  1  0.515700  0.055000  0.588600  1.0  -0.3013
  N  N46  1  0.486800  0.062700  0.919000  1.0  -0.3072
  N  N47  1  0.015700  0.445000  0.911400  1.0  -0.3054
  N  N48  1  0.986800  0.437300  0.581000  1.0  -0.3064
  O  O49  1  0.783300  0.788900  0.354600  1.0  -0.6408
  O  O50  1  0.984400  0.827900  0.483400  1.0  -0.4837
  O  O51  1  0.214900  0.962100  0.218000  1.0  -0.5903
  O  O52  1  0.018400  0.079600  0.131100  1.0  -0.4498
  O  O53  1  0.270000  0.746700  0.328960  1.0  -0.907
  O  O54  1  0.283300  0.711100  0.145400  1.0  -0.6405
  O  O55  1  0.484400  0.672100  0.016600  1.0  -0.4835
  O  O56  1  0.714900  0.537900  0.282000  1.0  -0.5888
  O  O57  1  0.518400  0.420400  0.368900  1.0  -0.4483
  O  O58  1  0.770000  0.753300  0.171040  1.0  -0.9053
  O  O59  1  0.216700  0.211100  0.645400  1.0  -0.6403
  O  O60  1  0.015600  0.172100  0.516600  1.0  -0.4834
  O  O61  1  0.785100  0.037900  0.782000  1.0  -0.5884
  O  O62  1  0.981600  0.920400  0.868900  1.0  -0.4482
  O  O63  1  0.730000  0.253300  0.671040  1.0  -0.9059
  O  O64  1  0.716700  0.288900  0.854600  1.0  -0.6408
  O  O65  1  0.515600  0.327900  0.983400  1.0  -0.484
  O  O66  1  0.285100  0.462100  0.718000  1.0  -0.5897
  O  O67  1  0.481600  0.579600  0.631100  1.0  -0.4498
  O  O68  1  0.230000  0.246700  0.828960  1.0  -0.9072
