# generated using pymatgen
data_Fe4(PO4)7
_symmetry_space_group_name_H-M   'P 1'
_cell_length_a   13.52740000
_cell_length_b   13.52740000
_cell_length_c   19.26450000
_cell_angle_alpha   90.00000000
_cell_angle_beta   90.00000000
_cell_angle_gamma   120.00000000
_symmetry_Int_Tables_number   1
_chemical_formula_structural   Fe4(PO4)7
_chemical_formula_sum   'Fe16 P28 O112'
_cell_volume   3052.93134276
_cell_formula_units_Z   4
loop_
 _symmetry_equiv_pos_site_id
 _symmetry_equiv_pos_as_xyz
  1  'x, y, z'
loop_
 _atom_site_type_symbol
 _atom_site_label
 _atom_site_symmetry_multiplicity
 _atom_site_fract_x
 _atom_site_fract_y
 _atom_site_fract_z
 _atom_site_occupancy
 _atom_site_charge
  Fe  Fe1  1  0.855600  0.565500  0.450370  1.0  1.4275
  Fe  Fe2  1  0.434500  0.290100  0.450370  1.0  1.4288
  Fe  Fe3  1  0.709900  0.144400  0.450370  1.0  1.4276
  Fe  Fe4  1  0.565500  0.855600  0.049630  1.0  1.4276
  Fe  Fe5  1  0.290100  0.434500  0.049630  1.0  1.4268
  Fe  Fe6  1  0.144400  0.709900  0.049630  1.0  1.4285
  Fe  Fe7  1  0.144400  0.434500  0.549630  1.0  1.4267
  Fe  Fe8  1  0.565500  0.709900  0.549630  1.0  1.4277
  Fe  Fe9  1  0.290100  0.855600  0.549630  1.0  1.4289
  Fe  Fe10  1  0.434500  0.144400  0.950370  1.0  1.429
  Fe  Fe11  1  0.709900  0.565500  0.950370  1.0  1.4272
  Fe  Fe12  1  0.855600  0.290100  0.950370  1.0  1.4281
  Fe  Fe13  1  0.000000  0.000000  0.250000  1.0  0.9898
  Fe  Fe14  1  0.000000  0.000000  0.750000  1.0  0.9898
  Fe  Fe15  1  0.000000  0.000000  0.500000  1.0  0.7101
  Fe  Fe16  1  0.000000  0.000000  0.000000  1.0  0.7101
  P  P17  1  0.963500  0.812100  0.371200  1.0  1.919
  P  P18  1  0.632100  0.505100  0.543900  1.0  1.7721
  P  P19  1  0.187900  0.151400  0.371200  1.0  1.9182
  P  P20  1  0.494900  0.127000  0.543900  1.0  1.7723
  P  P21  1  0.848600  0.036500  0.371200  1.0  1.9158
  P  P22  1  0.873000  0.367900  0.543900  1.0  1.7722
  P  P23  1  0.812100  0.963500  0.128800  1.0  1.9172
  P  P24  1  0.505100  0.632100  0.956100  1.0  1.7718
  P  P25  1  0.151400  0.187900  0.128800  1.0  1.9192
  P  P26  1  0.127000  0.494900  0.956100  1.0  1.7715
  P  P27  1  0.036500  0.848600  0.128800  1.0  1.9182
  P  P28  1  0.367900  0.873000  0.956100  1.0  1.7719
  P  P29  1  0.036500  0.187900  0.628800  1.0  1.9205
  P  P30  1  0.367900  0.494900  0.456100  1.0  1.7718
  P  P31  1  0.812100  0.848600  0.628800  1.0  1.9178
  P  P32  1  0.505100  0.873000  0.456100  1.0  1.7717
  P  P33  1  0.151400  0.963500  0.628800  1.0  1.918
  P  P34  1  0.127000  0.632100  0.456100  1.0  1.7716
  P  P35  1  0.187900  0.036500  0.871200  1.0  1.9179
  P  P36  1  0.494900  0.367900  0.043900  1.0  1.772
  P  P37  1  0.848600  0.812100  0.871200  1.0  1.9204
  P  P38  1  0.873000  0.505100  0.043900  1.0  1.7724
  P  P39  1  0.963500  0.151400  0.871200  1.0  1.9168
  P  P40  1  0.632100  0.127000  0.043900  1.0  1.7723
  P  P41  1  0.666667  0.333333  0.362500  1.0  1.8811
  P  P42  1  0.333333  0.666667  0.137500  1.0  1.8799
  P  P43  1  0.333333  0.666667  0.637500  1.0  1.8799
  P  P44  1  0.666667  0.333333  0.862500  1.0  1.8811
  O  O45  1  0.880900  0.686000  0.383100  1.0  -0.6887
  O  O46  1  0.081200  0.824900  0.347500  1.0  -0.5015
  O  O47  1  0.923400  0.859700  0.312800  1.0  -0.6593
  O  O48  1  0.983600  0.874800  0.440200  1.0  -0.7392
  O  O49  1  0.713500  0.564100  0.483700  1.0  -0.6627
  O  O50  1  0.702500  0.495000  0.606600  1.0  -0.4174
  O  O51  1  0.005900  0.580000  0.428900  1.0  -0.736
  O  O52  1  0.839200  0.457200  0.527300  1.0  -0.7056
  O  O53  1  0.772200  0.443200  0.386200  1.0  -0.7631
  O  O54  1  0.314000  0.194900  0.383100  1.0  -0.6882
  O  O55  1  0.175100  0.256300  0.347500  1.0  -0.5036
  O  O56  1  0.140300  0.063700  0.312800  1.0  -0.6602
  O  O57  1  0.125200  0.108800  0.440200  1.0  -0.739
  O  O58  1  0.435900  0.149400  0.483700  1.0  -0.6615
  O  O59  1  0.505000  0.207500  0.606600  1.0  -0.4192
  O  O60  1  0.420000  0.425900  0.428900  1.0  -0.7356
  O  O61  1  0.542800  0.382000  0.527300  1.0  -0.7054
  O  O62  1  0.556800  0.329000  0.386200  1.0  -0.7634
  O  O63  1  0.805100  0.119100  0.383100  1.0  -0.6889
  O  O64  1  0.743700  0.918800  0.347500  1.0  -0.5018
  O  O65  1  0.936300  0.076600  0.312800  1.0  -0.6604
  O  O66  1  0.891200  0.016400  0.440200  1.0  -0.7399
  O  O67  1  0.850600  0.286500  0.483700  1.0  -0.6619
  O  O68  1  0.792500  0.297500  0.606600  1.0  -0.4197
  O  O69  1  0.574100  0.994100  0.428900  1.0  -0.7357
  O  O70  1  0.618000  0.160800  0.527300  1.0  -0.704
  O  O71  1  0.671000  0.227800  0.386200  1.0  -0.7644
  O  O72  1  0.686000  0.880900  0.116900  1.0  -0.6878
  O  O73  1  0.824900  0.081200  0.152500  1.0  -0.503
  O  O74  1  0.859700  0.923400  0.187200  1.0  -0.6604
  O  O75  1  0.874800  0.983600  0.059800  1.0  -0.7406
  O  O76  1  0.564100  0.713500  0.016300  1.0  -0.6612
  O  O77  1  0.495000  0.702500  0.893400  1.0  -0.4197
  O  O78  1  0.580000  0.005900  0.071100  1.0  -0.7365
  O  O79  1  0.457200  0.839200  0.972700  1.0  -0.7041
  O  O80  1  0.443200  0.772200  0.113800  1.0  -0.766
  O  O81  1  0.194900  0.314000  0.116900  1.0  -0.6869
  O  O82  1  0.256300  0.175100  0.152500  1.0  -0.5022
  O  O83  1  0.063700  0.140300  0.187200  1.0  -0.6615
  O  O84  1  0.108800  0.125200  0.059800  1.0  -0.739
  O  O85  1  0.149400  0.435900  0.016300  1.0  -0.6633
  O  O86  1  0.207500  0.505000  0.893400  1.0  -0.4194
  O  O87  1  0.425900  0.420000  0.071100  1.0  -0.7352
  O  O88  1  0.382000  0.542800  0.972700  1.0  -0.7048
  O  O89  1  0.329000  0.556800  0.113800  1.0  -0.7623
  O  O90  1  0.119100  0.805100  0.116900  1.0  -0.6877
  O  O91  1  0.918800  0.743700  0.152500  1.0  -0.5037
  O  O92  1  0.076600  0.936300  0.187200  1.0  -0.6599
  O  O93  1  0.016400  0.891200  0.059800  1.0  -0.7394
  O  O94  1  0.286500  0.850600  0.016300  1.0  -0.6622
  O  O95  1  0.297500  0.792500  0.893400  1.0  -0.4216
  O  O96  1  0.994100  0.574100  0.071100  1.0  -0.7356
  O  O97  1  0.160800  0.618000  0.972700  1.0  -0.7054
  O  O98  1  0.227800  0.671000  0.113800  1.0  -0.7631
  O  O99  1  0.119100  0.314000  0.616900  1.0  -0.6851
  O  O100  1  0.918800  0.175100  0.652500  1.0  -0.4981
  O  O101  1  0.076600  0.140300  0.687200  1.0  -0.6602
  O  O102  1  0.016400  0.125200  0.559800  1.0  -0.7397
  O  O103  1  0.286500  0.435900  0.516300  1.0  -0.663
  O  O104  1  0.297500  0.505000  0.393400  1.0  -0.4191
  O  O105  1  0.994100  0.420000  0.571100  1.0  -0.7356
  O  O106  1  0.160800  0.542800  0.472700  1.0  -0.7056
  O  O107  1  0.227800  0.556800  0.613800  1.0  -0.7631
  O  O108  1  0.686000  0.805100  0.616900  1.0  -0.6872
  O  O109  1  0.824900  0.743700  0.652500  1.0  -0.5046
  O  O110  1  0.859700  0.936300  0.687200  1.0  -0.6615
  O  O111  1  0.874800  0.891200  0.559800  1.0  -0.7407
  O  O112  1  0.564100  0.850600  0.516300  1.0  -0.6618
  O  O113  1  0.495000  0.792500  0.393400  1.0  -0.4212
  O  O114  1  0.580000  0.574100  0.571100  1.0  -0.7354
  O  O115  1  0.457200  0.618000  0.472700  1.0  -0.705
  O  O116  1  0.443200  0.671000  0.613800  1.0  -0.7617
  O  O117  1  0.194900  0.880900  0.616900  1.0  -0.6862
  O  O118  1  0.256300  0.081200  0.652500  1.0  -0.5033
  O  O119  1  0.063700  0.923400  0.687200  1.0  -0.6601
  O  O120  1  0.108800  0.983600  0.559800  1.0  -0.7391
  O  O121  1  0.149400  0.713500  0.516300  1.0  -0.6621
  O  O122  1  0.207500  0.702500  0.393400  1.0  -0.4201
  O  O123  1  0.425900  0.005900  0.571100  1.0  -0.7351
  O  O124  1  0.382000  0.839200  0.472700  1.0  -0.7042
  O  O125  1  0.329000  0.772200  0.613800  1.0  -0.7662
  O  O126  1  0.314000  0.119100  0.883100  1.0  -0.687
  O  O127  1  0.175100  0.918800  0.847500  1.0  -0.5032
  O  O128  1  0.140300  0.076600  0.812800  1.0  -0.6597
  O  O129  1  0.125200  0.016400  0.940200  1.0  -0.739
  O  O130  1  0.435900  0.286500  0.983700  1.0  -0.6622
  O  O131  1  0.505000  0.297500  0.106600  1.0  -0.419
  O  O132  1  0.420000  0.994100  0.928900  1.0  -0.7357
  O  O133  1  0.542800  0.160800  0.027300  1.0  -0.7041
  O  O134  1  0.556800  0.227800  0.886200  1.0  -0.7646
  O  O135  1  0.805100  0.686000  0.883100  1.0  -0.6871
  O  O136  1  0.743700  0.824900  0.847500  1.0  -0.4982
  O  O137  1  0.936300  0.859700  0.812800  1.0  -0.6602
  O  O138  1  0.891200  0.874800  0.940200  1.0  -0.74
  O  O139  1  0.850600  0.564100  0.983700  1.0  -0.6622
  O  O140  1  0.792500  0.495000  0.106600  1.0  -0.4181
  O  O141  1  0.574100  0.580000  0.928900  1.0  -0.7355
  O  O142  1  0.618000  0.457200  0.027300  1.0  -0.7067
  O  O143  1  0.671000  0.443200  0.886200  1.0  -0.7638
  O  O144  1  0.880900  0.194900  0.883100  1.0  -0.6882
  O  O145  1  0.081200  0.256300  0.847500  1.0  -0.5037
  O  O146  1  0.923400  0.063700  0.812800  1.0  -0.6597
  O  O147  1  0.983600  0.108800  0.940200  1.0  -0.7403
  O  O148  1  0.713500  0.149400  0.983700  1.0  -0.6612
  O  O149  1  0.702500  0.207500  0.106600  1.0  -0.4185
  O  O150  1  0.005900  0.425900  0.928900  1.0  -0.7354
  O  O151  1  0.839200  0.382000  0.027300  1.0  -0.705
  O  O152  1  0.772200  0.329000  0.886200  1.0  -0.7625
  O  O153  1  0.666667  0.333333  0.281800  1.0  -0.4579
  O  O154  1  0.333333  0.666667  0.218200  1.0  -0.4592
  O  O155  1  0.333333  0.666667  0.718200  1.0  -0.4592
  O  O156  1  0.666667  0.333333  0.781800  1.0  -0.4579
