# generated using pymatgen
data_Fe2PH(CO3)3
_symmetry_space_group_name_H-M   'P 1'
_cell_length_a   7.72860000
_cell_length_b   7.58740000
_cell_length_c   17.98160000
_cell_angle_alpha   90.00000000
_cell_angle_beta   98.21400000
_cell_angle_gamma   90.00000000
_symmetry_Int_Tables_number   1
_chemical_formula_structural   Fe2PH(CO3)3
_chemical_formula_sum   'Fe8 P4 H4 C12 O36'
_cell_volume   1043.62352081
_cell_formula_units_Z   4
loop_
 _symmetry_equiv_pos_site_id
 _symmetry_equiv_pos_as_xyz
  1  'x, y, z'
loop_
 _atom_site_type_symbol
 _atom_site_label
 _atom_site_symmetry_multiplicity
 _atom_site_fract_x
 _atom_site_fract_y
 _atom_site_fract_z
 _atom_site_occupancy
 _atom_site_charge
  Fe  Fe1  1  0.624590  0.938670  0.363130  1.0  1.086
  Fe  Fe2  1  0.724450  0.815280  0.692500  1.0  1.0533
  Fe  Fe3  1  0.375410  0.438670  0.136870  1.0  1.0877
  Fe  Fe4  1  0.275550  0.315280  0.807500  1.0  1.0547
  Fe  Fe5  1  0.375410  0.061330  0.636870  1.0  1.0875
  Fe  Fe6  1  0.275550  0.184720  0.307500  1.0  1.0547
  Fe  Fe7  1  0.624590  0.561330  0.863130  1.0  1.0859
  Fe  Fe8  1  0.724450  0.684720  0.192500  1.0  1.053
  P  P9  1  0.550160  0.071340  0.190100  1.0  1.5456
  P  P10  1  0.449840  0.571340  0.309900  1.0  1.5381
  P  P11  1  0.449840  0.928660  0.809900  1.0  1.5409
  P  P12  1  0.550160  0.428660  0.690100  1.0  1.5492
  H  H13  1  0.658000  0.140300  0.201100  1.0  0.1461
  H  H14  1  0.342000  0.640300  0.298900  1.0  0.1465
  H  H15  1  0.342000  0.859700  0.798900  1.0  0.1469
  H  H16  1  0.658000  0.359700  0.701100  1.0  0.1467
  C  C17  1  0.036900  0.475300  0.196300  1.0  0.6339
  C  C18  1  0.066800  0.641200  0.149500  1.0  0.6721
  C  C19  1  0.586400  0.961800  0.521800  1.0  0.6199
  C  C20  1  0.963100  0.975300  0.303700  1.0  0.634
  C  C21  1  0.933200  0.141200  0.350500  1.0  0.6702
  C  C22  1  0.413600  0.461800  0.978200  1.0  0.6176
  C  C23  1  0.963100  0.524700  0.803700  1.0  0.6351
  C  C24  1  0.933200  0.358800  0.850500  1.0  0.6721
  C  C25  1  0.413600  0.038200  0.478200  1.0  0.6171
  C  C26  1  0.036900  0.024700  0.696300  1.0  0.6346
  C  C27  1  0.066800  0.858800  0.649500  1.0  0.6723
  C  C28  1  0.586400  0.538200  0.021800  1.0  0.6195
  O  O29  1  0.423100  0.179700  0.135550  1.0  -0.7586
  O  O30  1  0.207700  0.653800  0.123430  1.0  -0.5455
  O  O31  1  0.593400  0.961400  0.592930  1.0  -0.6052
  O  O32  1  0.479000  0.045500  0.264430  1.0  -0.863
  O  O33  1  0.298900  0.090900  0.513940  1.0  -0.5362
  O  O34  1  0.154900  0.359200  0.201490  1.0  -0.6399
  O  O35  1  0.597300  0.901100  0.155130  1.0  -0.7578
  O  O36  1  0.897700  0.471700  0.224250  1.0  -0.5242
  O  O37  1  0.947600  0.752900  0.140860  1.0  -0.5282
  O  O38  1  0.576900  0.679700  0.364450  1.0  -0.7601
  O  O39  1  0.792300  0.153800  0.376570  1.0  -0.5441
  O  O40  1  0.406600  0.461400  0.907070  1.0  -0.6045
  O  O41  1  0.521000  0.545500  0.235570  1.0  -0.8636
  O  O42  1  0.701100  0.590900  0.986060  1.0  -0.5344
  O  O43  1  0.845100  0.859200  0.298510  1.0  -0.6381
  O  O44  1  0.402700  0.401100  0.344870  1.0  -0.7584
  O  O45  1  0.102300  0.971700  0.275750  1.0  -0.5255
  O  O46  1  0.052400  0.252900  0.359140  1.0  -0.5255
  O  O47  1  0.576900  0.820300  0.864450  1.0  -0.7602
  O  O48  1  0.792300  0.346200  0.876570  1.0  -0.5437
  O  O49  1  0.406600  0.038600  0.407070  1.0  -0.6041
  O  O50  1  0.521000  0.954500  0.735570  1.0  -0.8632
  O  O51  1  0.701100  0.909100  0.486060  1.0  -0.5348
  O  O52  1  0.845100  0.640800  0.798510  1.0  -0.6387
  O  O53  1  0.402700  0.098900  0.844870  1.0  -0.7579
  O  O54  1  0.102300  0.528300  0.775750  1.0  -0.5248
  O  O55  1  0.052400  0.247100  0.859140  1.0  -0.5253
  O  O56  1  0.423100  0.320300  0.635550  1.0  -0.7587
  O  O57  1  0.207700  0.846200  0.623430  1.0  -0.5441
  O  O58  1  0.593400  0.538600  0.092930  1.0  -0.6054
  O  O59  1  0.479000  0.454500  0.764430  1.0  -0.8627
  O  O60  1  0.298900  0.409100  0.013940  1.0  -0.5369
  O  O61  1  0.154900  0.140800  0.701490  1.0  -0.6392
  O  O62  1  0.597300  0.598900  0.655130  1.0  -0.759
  O  O63  1  0.897700  0.028300  0.724250  1.0  -0.5236
  O  O64  1  0.947600  0.747100  0.640860  1.0  -0.526
