# generated using pymatgen
data_CoHC4O3
_symmetry_space_group_name_H-M   'P 1'
_cell_length_a   6.71920000
_cell_length_b   15.24020000
_cell_length_c   15.24020000
_cell_angle_alpha   62.12120000
_cell_angle_beta   81.54900000
_cell_angle_gamma   98.45100000
_symmetry_Int_Tables_number   1
_chemical_formula_structural   CoHC4O3
_chemical_formula_sum   'Co6 H6 C24 O18'
_cell_volume   1322.35079046
_cell_formula_units_Z   6
loop_
 _symmetry_equiv_pos_site_id
 _symmetry_equiv_pos_as_xyz
  1  'x, y, z'
loop_
 _atom_site_type_symbol
 _atom_site_label
 _atom_site_symmetry_multiplicity
 _atom_site_fract_x
 _atom_site_fract_y
 _atom_site_fract_z
 _atom_site_occupancy
 _atom_site_charge
  Co  Co1  1  0.301990  0.264840  0.314200  1.0  1.0258
  Co  Co2  1  0.616190  0.314200  0.420960  1.0  1.0264
  Co  Co3  1  0.037150  0.420960  0.264840  1.0  1.0279
  Co  Co4  1  0.698010  0.735160  0.685800  1.0  1.0265
  Co  Co5  1  0.383810  0.685800  0.579040  1.0  1.0279
  Co  Co6  1  0.962850  0.579040  0.735160  1.0  1.0272
  H  H7  1  0.302100  0.468800  0.547800  1.0  0.114
  H  H8  1  0.849900  0.547800  0.983400  1.0  0.1162
  H  H9  1  0.833300  0.983400  0.468800  1.0  0.1136
  H  H10  1  0.697900  0.531200  0.452200  1.0  0.1141
  H  H11  1  0.150100  0.452200  0.016600  1.0  0.1164
  H  H12  1  0.166700  0.016600  0.531200  1.0  0.1144
  C  C13  1  0.239900  0.387200  0.437400  1.0  0.7305
  C  C14  1  0.113500  0.447000  0.465700  1.0  -0.1871
  C  C15  1  0.928800  0.467000  0.433800  1.0  0.3615
  C  C16  1  0.179000  0.481300  0.529100  1.0  -0.1117
  C  C17  1  0.677300  0.437400  0.175400  1.0  0.7316
  C  C18  1  0.579200  0.465700  0.087300  1.0  -0.1865
  C  C19  1  0.362600  0.433800  0.099200  1.0  0.359
  C  C20  1  0.708100  0.529100  0.989600  1.0  -0.1116
  C  C21  1  0.852700  0.175400  0.387200  1.0  0.7295
  C  C22  1  0.666500  0.087300  0.447000  1.0  -0.1872
  C  C23  1  0.461800  0.099200  0.467000  1.0  0.3563
  C  C24  1  0.697700  0.989600  0.481300  1.0  -0.1111
  C  C25  1  0.760100  0.612800  0.562600  1.0  0.7317
  C  C26  1  0.886500  0.553000  0.534300  1.0  -0.1858
  C  C27  1  0.071200  0.533000  0.566200  1.0  0.3596
  C  C28  1  0.821000  0.518700  0.470900  1.0  -0.1125
  C  C29  1  0.322700  0.562600  0.824600  1.0  0.7321
  C  C30  1  0.420800  0.534300  0.912700  1.0  -0.187
  C  C31  1  0.637400  0.566200  0.900800  1.0  0.359
  C  C32  1  0.291900  0.470900  0.010400  1.0  -0.1112
  C  C33  1  0.147300  0.824600  0.612800  1.0  0.7305
  C  C34  1  0.333500  0.912700  0.553000  1.0  -0.1873
  C  C35  1  0.538200  0.900800  0.533000  1.0  0.3551
  C  C36  1  0.302300  0.010400  0.518700  1.0  -0.1109
  O  O37  1  0.186500  0.354200  0.379500  1.0  -0.6541
  O  O38  1  0.395800  0.367700  0.474600  1.0  -0.6097
  O  O39  1  0.852900  0.440900  0.369900  1.0  -0.6716
  O  O40  1  0.566000  0.379500  0.266300  1.0  -0.6548
  O  O41  1  0.870400  0.474600  0.157700  1.0  -0.6075
  O  O42  1  0.222800  0.369900  0.189200  1.0  -0.6697
  O  O43  1  0.832300  0.266300  0.354200  1.0  -0.6542
  O  O44  1  0.028100  0.157700  0.367700  1.0  -0.6067
  O  O45  1  0.412000  0.189200  0.440900  1.0  -0.6688
  O  O46  1  0.813500  0.645800  0.620500  1.0  -0.6552
  O  O47  1  0.604200  0.632300  0.525400  1.0  -0.6098
  O  O48  1  0.147100  0.559100  0.630100  1.0  -0.6711
  O  O49  1  0.434000  0.620500  0.733700  1.0  -0.6541
  O  O50  1  0.129600  0.525400  0.842300  1.0  -0.6071
  O  O51  1  0.777200  0.630100  0.810800  1.0  -0.6704
  O  O52  1  0.167700  0.733700  0.645800  1.0  -0.6551
  O  O53  1  0.971900  0.842300  0.632300  1.0  -0.6065
  O  O54  1  0.588000  0.810800  0.559100  1.0  -0.6707
