# generated using pymatgen
data_CoHC4O3
_symmetry_space_group_name_H-M   'P 1'
_cell_length_a   6.71820000
_cell_length_b   15.26740000
_cell_length_c   15.26740000
_cell_angle_alpha   62.11310000
_cell_angle_beta   81.56550000
_cell_angle_gamma   98.43450000
_symmetry_Int_Tables_number   1
_chemical_formula_structural   CoHC4O3
_chemical_formula_sum   'Co6 H6 C24 O18'
_cell_volume   1326.99153833
_cell_formula_units_Z   6
loop_
 _symmetry_equiv_pos_site_id
 _symmetry_equiv_pos_as_xyz
  1  'x, y, z'
loop_
 _atom_site_type_symbol
 _atom_site_label
 _atom_site_symmetry_multiplicity
 _atom_site_fract_x
 _atom_site_fract_y
 _atom_site_fract_z
 _atom_site_occupancy
 _atom_site_charge
  Co  Co1  1  0.619710  0.315530  0.420050  1.0  0.987
  Co  Co2  1  0.039760  0.420050  0.264420  1.0  0.987
  Co  Co3  1  0.304180  0.264420  0.315530  1.0  0.9855
  Co  Co4  1  0.380290  0.684470  0.579950  1.0  0.9851
  Co  Co5  1  0.960240  0.579950  0.735580  1.0  0.9857
  Co  Co6  1  0.695820  0.735580  0.684470  1.0  0.985
  H  H7  1  0.284700  0.448790  0.570320  1.0  0.1376
  H  H8  1  0.855020  0.570320  0.980890  1.0  0.138
  H  H9  1  0.835910  0.980890  0.448790  1.0  0.1372
  H  H10  1  0.715300  0.551210  0.429680  1.0  0.1371
  H  H11  1  0.144980  0.429680  0.019110  1.0  0.1376
  H  H12  1  0.164090  0.019110  0.551210  1.0  0.1365
  C  C13  1  0.235040  0.394560  0.432570  1.0  0.7483
  C  C14  1  0.122350  0.452330  0.461030  1.0  -0.1338
  C  C15  1  0.935010  0.468700  0.431860  1.0  0.2419
  C  C16  1  0.169090  0.470340  0.542250  1.0  -0.0709
  C  C17  1  0.667610  0.432570  0.172870  1.0  0.7456
  C  C18  1  0.583380  0.461030  0.086640  1.0  -0.1331
  C  C19  1  0.366870  0.431860  0.099440  1.0  0.2397
  C  C20  1  0.711340  0.542250  0.987410  1.0  -0.0686
  C  C21  1  0.840480  0.172870  0.394560  1.0  0.7455
  C  C22  1  0.670020  0.086640  0.452330  1.0  -0.1328
  C  C23  1  0.466310  0.099440  0.468700  1.0  0.2396
  C  C24  1  0.698750  0.987410  0.470340  1.0  -0.0695
  C  C25  1  0.764960  0.605440  0.567430  1.0  0.7474
  C  C26  1  0.877650  0.547670  0.538970  1.0  -0.1338
  C  C27  1  0.064990  0.531300  0.568140  1.0  0.2382
  C  C28  1  0.830910  0.529660  0.457750  1.0  -0.0716
  C  C29  1  0.332390  0.567430  0.827130  1.0  0.7458
  C  C30  1  0.416620  0.538970  0.913360  1.0  -0.1336
  C  C31  1  0.633130  0.568140  0.900560  1.0  0.2353
  C  C32  1  0.288660  0.457750  0.012590  1.0  -0.0709
  C  C33  1  0.159520  0.827130  0.605440  1.0  0.7454
  C  C34  1  0.329980  0.913360  0.547670  1.0  -0.1318
  C  C35  1  0.533690  0.900560  0.531300  1.0  0.2349
  C  C36  1  0.301250  0.012590  0.529660  1.0  -0.0715
  O  O37  1  0.370020  0.359310  0.479970  1.0  -0.6123
  O  O38  1  0.168690  0.359480  0.379070  1.0  -0.638
  O  O39  1  0.871630  0.438330  0.365640  1.0  -0.6529
  O  O40  1  0.849990  0.479970  0.160720  1.0  -0.6156
  O  O41  1  0.547760  0.379070  0.261450  1.0  -0.6383
  O  O42  1  0.237270  0.365640  0.196030  1.0  -0.6525
  O  O43  1  0.010710  0.160720  0.359310  1.0  -0.6133
  O  O44  1  0.809210  0.261450  0.359480  1.0  -0.6391
  O  O45  1  0.433300  0.196030  0.438330  1.0  -0.6513
  O  O46  1  0.629980  0.640690  0.520030  1.0  -0.6133
  O  O47  1  0.831310  0.640520  0.620930  1.0  -0.6386
  O  O48  1  0.128370  0.561670  0.634360  1.0  -0.6527
  O  O49  1  0.150010  0.520030  0.839280  1.0  -0.6122
  O  O50  1  0.452240  0.620930  0.738550  1.0  -0.6391
  O  O51  1  0.762730  0.634360  0.803970  1.0  -0.6525
  O  O52  1  0.989290  0.839280  0.640690  1.0  -0.6127
  O  O53  1  0.190790  0.738550  0.640520  1.0  -0.6388
  O  O54  1  0.566700  0.803970  0.561670  1.0  -0.6519
