# generated using pymatgen
data_CuH20(C6N)4
_symmetry_space_group_name_H-M   'P 1'
_cell_length_a   17.39800000
_cell_length_b   17.39800000
_cell_length_c   8.08080000
_cell_angle_alpha   90.00000000
_cell_angle_beta   90.00000000
_cell_angle_gamma   90.00000000
_symmetry_Int_Tables_number   1
_chemical_formula_structural   CuH20(C6N)4
_chemical_formula_sum   'Cu4 H80 C96 N16'
_cell_volume   2445.98061664
_cell_formula_units_Z   4
loop_
 _symmetry_equiv_pos_site_id
 _symmetry_equiv_pos_as_xyz
  1  'x, y, z'
loop_
 _atom_site_type_symbol
 _atom_site_label
 _atom_site_symmetry_multiplicity
 _atom_site_fract_x
 _atom_site_fract_y
 _atom_site_fract_z
 _atom_site_occupancy
 _atom_site_charge
  Cu  Cu1  1  0.000000  0.000000  0.000000  1.0  0.3589
  Cu  Cu2  1  0.500000  0.500000  0.500000  1.0  0.3589
  Cu  Cu3  1  0.500000  0.000000  0.250000  1.0  0.5894
  Cu  Cu4  1  0.000000  0.500000  0.750000  1.0  0.5894
  H  H5  1  0.938200  0.904800  0.267300  1.0  0.056
  H  H6  1  0.865300  0.920500  0.499700  1.0  0.0822
  H  H7  1  0.771100  0.103800  0.282100  1.0  0.1014
  H  H8  1  0.859000  0.090400  0.076100  1.0  0.0547
  H  H9  1  0.711900  0.062100  0.542000  1.0  0.0705
  H  H10  1  0.771800  0.933900  0.676800  1.0  0.084
  H  H11  1  0.729200  0.894300  0.955200  1.0  0.1249
  H  H12  1  0.649900  0.912100  0.172600  1.0  0.0582
  H  H13  1  0.570800  0.099700  0.991100  1.0  0.0518
  H  H14  1  0.657500  0.092400  0.782000  1.0  0.075
  H  H15  1  0.438200  0.404800  0.767300  1.0  0.056
  H  H16  1  0.365300  0.420500  0.999700  1.0  0.0822
  H  H17  1  0.271100  0.603800  0.782100  1.0  0.1014
  H  H18  1  0.359000  0.590400  0.576100  1.0  0.0547
  H  H19  1  0.211900  0.562100  0.042000  1.0  0.0705
  H  H20  1  0.271800  0.433900  0.176800  1.0  0.084
  H  H21  1  0.229200  0.394300  0.455200  1.0  0.1249
  H  H22  1  0.149900  0.412100  0.672600  1.0  0.0582
  H  H23  1  0.070800  0.599700  0.491100  1.0  0.0518
  H  H24  1  0.157500  0.592400  0.282000  1.0  0.075
  H  H25  1  0.061800  0.095200  0.267300  1.0  0.0564
  H  H26  1  0.134700  0.079500  0.499700  1.0  0.0818
  H  H27  1  0.228900  0.896200  0.282100  1.0  0.1013
  H  H28  1  0.141000  0.909600  0.076100  1.0  0.0547
  H  H29  1  0.288100  0.937900  0.542000  1.0  0.0701
  H  H30  1  0.228200  0.066100  0.676800  1.0  0.0839
  H  H31  1  0.270800  0.105700  0.955200  1.0  0.1251
  H  H32  1  0.350100  0.087900  0.172600  1.0  0.0577
  H  H33  1  0.429200  0.900300  0.991100  1.0  0.0527
  H  H34  1  0.342500  0.907600  0.782000  1.0  0.0748
  H  H35  1  0.561800  0.595200  0.767300  1.0  0.0564
  H  H36  1  0.634700  0.579500  0.999700  1.0  0.0818
  H  H37  1  0.728900  0.396200  0.782100  1.0  0.1013
  H  H38  1  0.641000  0.409600  0.576100  1.0  0.0547
  H  H39  1  0.788100  0.437900  0.042000  1.0  0.0701
  H  H40  1  0.728200  0.566100  0.176800  1.0  0.0839
  H  H41  1  0.770800  0.605700  0.455200  1.0  0.1251
  H  H42  1  0.850100  0.587900  0.672600  1.0  0.0577
  H  H43  1  0.929200  0.400300  0.491100  1.0  0.0527
  H  H44  1  0.842500  0.407600  0.282000  1.0  0.0748
  H  H45  1  0.904800  0.061800  0.732700  1.0  0.0571
  H  H46  1  0.920500  0.134700  0.500300  1.0  0.0834
  H  H47  1  0.103800  0.228900  0.717900  1.0  0.1014
  H  H48  1  0.090400  0.141000  0.923900  1.0  0.0555
  H  H49  1  0.062100  0.288100  0.458000  1.0  0.0701
  H  H50  1  0.933900  0.228200  0.323200  1.0  0.0855
  H  H51  1  0.894300  0.270800  0.044800  1.0  0.1255
  H  H52  1  0.912100  0.350100  0.827400  1.0  0.0586
  H  H53  1  0.099700  0.429200  0.008900  1.0  0.0528
  H  H54  1  0.092400  0.342500  0.218000  1.0  0.0752
  H  H55  1  0.404800  0.561800  0.232700  1.0  0.0571
  H  H56  1  0.420500  0.634700  0.000300  1.0  0.0834
  H  H57  1  0.603800  0.728900  0.217900  1.0  0.1014
  H  H58  1  0.590400  0.641000  0.423900  1.0  0.0555
  H  H59  1  0.562100  0.788100  0.958000  1.0  0.0701
  H  H60  1  0.433900  0.728200  0.823200  1.0  0.0855
  H  H61  1  0.394300  0.770800  0.544800  1.0  0.1255
  H  H62  1  0.412100  0.850100  0.327400  1.0  0.0586
  H  H63  1  0.599700  0.929200  0.508900  1.0  0.0528
  H  H64  1  0.592400  0.842500  0.718000  1.0  0.0752
  H  H65  1  0.095200  0.938200  0.732700  1.0  0.0558
  H  H66  1  0.079500  0.865300  0.500300  1.0  0.0828
  H  H67  1  0.896200  0.771100  0.717900  1.0  0.1012
  H  H68  1  0.909600  0.859000  0.923900  1.0  0.0559
  H  H69  1  0.937900  0.711900  0.458000  1.0  0.0707
  H  H70  1  0.066100  0.771800  0.323200  1.0  0.085
  H  H71  1  0.105700  0.729200  0.044800  1.0  0.1258
  H  H72  1  0.087900  0.649900  0.827400  1.0  0.0593
  H  H73  1  0.900300  0.570800  0.008900  1.0  0.0529
  H  H74  1  0.907600  0.657500  0.218000  1.0  0.0751
  H  H75  1  0.595200  0.438200  0.232700  1.0  0.0558
  H  H76  1  0.579500  0.365300  0.000300  1.0  0.0828
  H  H77  1  0.396200  0.271100  0.217900  1.0  0.1012
  H  H78  1  0.409600  0.359000  0.423900  1.0  0.0559
  H  H79  1  0.437900  0.211900  0.958000  1.0  0.0707
  H  H80  1  0.566100  0.271800  0.823200  1.0  0.085
  H  H81  1  0.605700  0.229200  0.544800  1.0  0.1258
  H  H82  1  0.587900  0.149900  0.327400  1.0  0.0593
  H  H83  1  0.400300  0.070800  0.508900  1.0  0.0529
  H  H84  1  0.407600  0.157500  0.718000  1.0  0.0751
  C  C85  1  0.905800  0.947200  0.275300  1.0  0.1457
  C  C86  1  0.858900  0.953500  0.410300  1.0  -0.2042
  C  C87  1  0.800100  0.010500  0.414600  1.0  0.0715
  C  C88  1  0.804800  0.062400  0.285100  1.0  -0.2551
  C  C89  1  0.858200  0.054200  0.160700  1.0  0.1732
  C  C90  1  0.746100  0.021100  0.549700  1.0  -0.1455
  C  C91  1  0.741800  0.978100  0.679700  1.0  -0.109
  C  C92  1  0.696400  0.988700  0.831400  1.0  0.1551
  C  C93  1  0.696100  0.936300  0.957100  1.0  -0.251
  C  C94  1  0.646200  0.946900  0.085700  1.0  0.1467
  C  C95  1  0.601300  0.055900  0.985000  1.0  0.1585
  C  C96  1  0.653000  0.051200  0.854700  1.0  -0.2149
  C  C97  1  0.405800  0.447200  0.775300  1.0  0.1457
  C  C98  1  0.358900  0.453500  0.910300  1.0  -0.2042
  C  C99  1  0.300100  0.510500  0.914600  1.0  0.0715
  C  C100  1  0.304800  0.562400  0.785100  1.0  -0.2551
  C  C101  1  0.358200  0.554200  0.660700  1.0  0.1732
  C  C102  1  0.246100  0.521100  0.049700  1.0  -0.1455
  C  C103  1  0.241800  0.478100  0.179700  1.0  -0.109
  C  C104  1  0.196400  0.488700  0.331400  1.0  0.1551
  C  C105  1  0.196100  0.436300  0.457100  1.0  -0.251
  C  C106  1  0.146200  0.446900  0.585700  1.0  0.1467
  C  C107  1  0.101300  0.555900  0.485000  1.0  0.1585
  C  C108  1  0.153000  0.551200  0.354700  1.0  -0.2149
  C  C109  1  0.094200  0.052800  0.275300  1.0  0.1448
  C  C110  1  0.141100  0.046500  0.410300  1.0  -0.205
  C  C111  1  0.199900  0.989500  0.414600  1.0  0.0715
  C  C112  1  0.195200  0.937600  0.285100  1.0  -0.2549
  C  C113  1  0.141800  0.945800  0.160700  1.0  0.1726
  C  C114  1  0.253900  0.978900  0.549700  1.0  -0.1435
  C  C115  1  0.258200  0.021900  0.679700  1.0  -0.1084
  C  C116  1  0.303600  0.011300  0.831400  1.0  0.1543
  C  C117  1  0.303900  0.063700  0.957100  1.0  -0.249
  C  C118  1  0.353800  0.053100  0.085700  1.0  0.1462
  C  C119  1  0.398700  0.944100  0.985000  1.0  0.1589
  C  C120  1  0.347000  0.948800  0.854700  1.0  -0.214
  C  C121  1  0.594200  0.552800  0.775300  1.0  0.1448
  C  C122  1  0.641100  0.546500  0.910300  1.0  -0.205
  C  C123  1  0.699900  0.489500  0.914600  1.0  0.0715
  C  C124  1  0.695200  0.437600  0.785100  1.0  -0.2549
  C  C125  1  0.641800  0.445800  0.660700  1.0  0.1726
  C  C126  1  0.753900  0.478900  0.049700  1.0  -0.1435
  C  C127  1  0.758200  0.521900  0.179700  1.0  -0.1084
  C  C128  1  0.803600  0.511300  0.331400  1.0  0.1543
  C  C129  1  0.803900  0.563700  0.457100  1.0  -0.249
  C  C130  1  0.853800  0.553100  0.585700  1.0  0.1462
  C  C131  1  0.898700  0.444100  0.485000  1.0  0.1589
  C  C132  1  0.847000  0.448800  0.354700  1.0  -0.214
  C  C133  1  0.947200  0.094200  0.724700  1.0  0.1452
  C  C134  1  0.953500  0.141100  0.589700  1.0  -0.2065
  C  C135  1  0.010500  0.199900  0.585400  1.0  0.072
  C  C136  1  0.062400  0.195200  0.714900  1.0  -0.2549
  C  C137  1  0.054200  0.141800  0.839300  1.0  0.1726
  C  C138  1  0.021100  0.253900  0.450300  1.0  -0.1462
  C  C139  1  0.978100  0.258200  0.320300  1.0  -0.1101
  C  C140  1  0.988700  0.303600  0.168600  1.0  0.1565
  C  C141  1  0.936300  0.303900  0.042900  1.0  -0.2477
  C  C142  1  0.946900  0.353800  0.914300  1.0  0.1471
  C  C143  1  0.055900  0.398700  0.015000  1.0  0.1593
  C  C144  1  0.051200  0.347000  0.145300  1.0  -0.2122
  C  C145  1  0.447200  0.594200  0.224700  1.0  0.1452
  C  C146  1  0.453500  0.641100  0.089700  1.0  -0.2065
  C  C147  1  0.510500  0.699900  0.085400  1.0  0.072
  C  C148  1  0.562400  0.695200  0.214900  1.0  -0.2549
  C  C149  1  0.554200  0.641800  0.339300  1.0  0.1726
  C  C150  1  0.521100  0.753900  0.950300  1.0  -0.1462
  C  C151  1  0.478100  0.758200  0.820300  1.0  -0.1101
  C  C152  1  0.488700  0.803600  0.668600  1.0  0.1565
  C  C153  1  0.436300  0.803900  0.542900  1.0  -0.2477
  C  C154  1  0.446900  0.853800  0.414300  1.0  0.1471
  C  C155  1  0.555900  0.898700  0.515000  1.0  0.1593
  C  C156  1  0.551200  0.847000  0.645300  1.0  -0.2122
  C  C157  1  0.052800  0.905800  0.724700  1.0  0.1459
  C  C158  1  0.046500  0.858900  0.589700  1.0  -0.2056
  C  C159  1  0.989500  0.800100  0.585400  1.0  0.0712
  C  C160  1  0.937600  0.804800  0.714900  1.0  -0.2535
  C  C161  1  0.945800  0.858200  0.839300  1.0  0.1737
  C  C162  1  0.978900  0.746100  0.450300  1.0  -0.1468
  C  C163  1  0.021900  0.741800  0.320300  1.0  -0.1107
  C  C164  1  0.011300  0.696400  0.168600  1.0  0.1568
  C  C165  1  0.063700  0.696100  0.042900  1.0  -0.2499
  C  C166  1  0.053100  0.646200  0.914300  1.0  0.1464
  C  C167  1  0.944100  0.601300  0.015000  1.0  0.1595
  C  C168  1  0.948800  0.653000  0.145300  1.0  -0.2122
  C  C169  1  0.552800  0.405800  0.224700  1.0  0.1459
  C  C170  1  0.546500  0.358900  0.089700  1.0  -0.2056
  C  C171  1  0.489500  0.300100  0.085400  1.0  0.0712
  C  C172  1  0.437600  0.304800  0.214900  1.0  -0.2535
  C  C173  1  0.445800  0.358200  0.339300  1.0  0.1737
  C  C174  1  0.478900  0.246100  0.950300  1.0  -0.1468
  C  C175  1  0.521900  0.241800  0.820300  1.0  -0.1107
  C  C176  1  0.511300  0.196400  0.668600  1.0  0.1568
  C  C177  1  0.563700  0.196100  0.542900  1.0  -0.2499
  C  C178  1  0.553100  0.146200  0.414300  1.0  0.1464
  C  C179  1  0.444100  0.101300  0.515000  1.0  0.1595
  C  C180  1  0.448800  0.153000  0.645300  1.0  -0.2122
  N  N181  1  0.906900  0.998800  0.156200  1.0  -0.3248
  N  N182  1  0.591700  0.002700  0.101300  1.0  -0.3478
  N  N183  1  0.406900  0.498800  0.656200  1.0  -0.3248
  N  N184  1  0.091700  0.502700  0.601300  1.0  -0.3478
  N  N185  1  0.093100  0.001200  0.156200  1.0  -0.3245
  N  N186  1  0.408300  0.997300  0.101300  1.0  -0.3477
  N  N187  1  0.593100  0.501200  0.656200  1.0  -0.3245
  N  N188  1  0.908300  0.497300  0.601300  1.0  -0.3477
  N  N189  1  0.998800  0.093100  0.843800  1.0  -0.3234
  N  N190  1  0.002700  0.408300  0.898700  1.0  -0.349
  N  N191  1  0.498800  0.593100  0.343800  1.0  -0.3234
  N  N192  1  0.502700  0.908300  0.398700  1.0  -0.349
  N  N193  1  0.001200  0.906900  0.843800  1.0  -0.3234
  N  N194  1  0.997300  0.591700  0.898700  1.0  -0.3488
  N  N195  1  0.501200  0.406900  0.343800  1.0  -0.3234
  N  N196  1  0.497300  0.091700  0.398700  1.0  -0.3488
