# generated using pymatgen
data_Cu4H65(C39O8)2
_symmetry_space_group_name_H-M   'P 1'
_cell_length_a   18.40590000
_cell_length_b   18.76450000
_cell_length_c   34.52110000
_cell_angle_alpha   90.00000000
_cell_angle_beta   90.00000000
_cell_angle_gamma   90.00000000
_symmetry_Int_Tables_number   1
_chemical_formula_structural   Cu4H65(C39O8)2
_chemical_formula_sum   'Cu16 H260 C312 O64'
_cell_volume   11922.81157945
_cell_formula_units_Z   4
loop_
 _symmetry_equiv_pos_site_id
 _symmetry_equiv_pos_as_xyz
  1  'x, y, z'
loop_
 _atom_site_type_symbol
 _atom_site_label
 _atom_site_symmetry_multiplicity
 _atom_site_fract_x
 _atom_site_fract_y
 _atom_site_fract_z
 _atom_site_occupancy
 _atom_site_charge
  Cu  Cu1  1  0.882210  0.271050  0.968630  1.0  0.9203
  Cu  Cu2  1  0.618430  0.228530  0.531680  1.0  0.8983
  Cu  Cu3  1  0.545180  0.289580  0.474550  1.0  0.9282
  Cu  Cu4  1  0.955550  0.210610  0.025750  1.0  0.9089
  Cu  Cu5  1  0.617790  0.728950  0.468630  1.0  0.9183
  Cu  Cu6  1  0.881570  0.771470  0.031680  1.0  0.8983
  Cu  Cu7  1  0.954820  0.710420  0.974550  1.0  0.9257
  Cu  Cu8  1  0.544450  0.789390  0.525750  1.0  0.9099
  Cu  Cu9  1  0.117790  0.771050  0.531370  1.0  0.9185
  Cu  Cu10  1  0.381570  0.728530  0.968320  1.0  0.8988
  Cu  Cu11  1  0.454820  0.789580  0.025450  1.0  0.928
  Cu  Cu12  1  0.044450  0.710610  0.474250  1.0  0.91
  Cu  Cu13  1  0.382210  0.228950  0.031370  1.0  0.9171
  Cu  Cu14  1  0.118430  0.271470  0.468320  1.0  0.8985
  Cu  Cu15  1  0.045180  0.210420  0.525450  1.0  0.9269
  Cu  Cu16  1  0.455550  0.289390  0.974250  1.0  0.9099
  H  H17  1  0.740900  0.046500  0.137900  1.0  0.116
  H  H18  1  0.438700  0.173900  0.609000  1.0  0.0873
  H  H19  1  0.670700  0.243900  0.013600  1.0  0.1143
  H  H20  1  0.541400  0.097000  0.325700  1.0  0.1123
  H  H21  1  0.745600  0.992200  0.200100  1.0  0.1127
  H  H22  1  0.414500  0.007500  0.989900  1.0  0.1091
  H  H23  1  0.565400  0.006000  0.488700  1.0  0.1067
  H  H24  1  0.726500  0.953200  0.273100  1.0  0.1261
  H  H25  1  0.408200  0.183800  0.674400  1.0  0.1014
  H  H26  1  0.588900  0.184800  0.172900  1.0  0.0989
  H  H27  1  0.611800  0.910300  0.387200  1.0  0.1184
  H  H28  1  0.600800  0.122600  0.391400  1.0  0.0901
  H  H29  1  0.332900  0.247500  0.514500  1.0  0.1078
  H  H30  1  0.221600  0.157000  0.602000  1.0  0.1071
  H  H31  1  0.255800  0.993200  0.697200  1.0  0.1137
  H  H32  1  0.557900  0.240900  0.243900  1.0  0.1063
  H  H33  1  0.551300  0.215700  0.286900  1.0  0.081
  H  H34  1  0.446600  0.218200  0.783700  1.0  0.1038
  H  H35  1  0.434600  0.238600  0.740400  1.0  0.0989
  H  H36  1  0.560900  0.169400  0.105000  1.0  0.0742
  H  H37  1  0.701800  0.952100  0.341100  1.0  0.1123
  H  H38  1  0.420300  0.120500  0.891600  1.0  0.1041
  H  H39  1  0.252100  0.047100  0.638200  1.0  0.124
  H  H40  1  0.307400  0.934100  0.836300  1.0  0.1123
  H  H41  1  0.376500  0.907900  0.889800  1.0  0.1039
  H  H42  1  0.442900  0.103000  0.830600  1.0  0.1037
  H  H43  1  0.462500  0.138400  0.263800  1.0  0.0796
  H  H44  1  0.476300  0.152800  0.219600  1.0  0.0839
  H  H45  1  0.531000  0.127000  0.766200  1.0  0.0809
  H  H46  1  0.521600  0.151200  0.723400  1.0  0.0949
  H  H47  1  0.275000  0.952600  0.773600  1.0  0.0861
  H  H48  1  0.514100  0.019100  0.241400  1.0  0.0898
  H  H49  1  0.504000  0.003000  0.732900  1.0  0.0937
  H  H50  1  0.636800  0.083900  0.745300  1.0  0.0862
  H  H51  1  0.642300  0.005900  0.728800  1.0  0.0883
  H  H52  1  0.581400  0.008300  0.677700  1.0  0.095
  H  H53  1  0.522800  0.067600  0.670600  1.0  0.104
  H  H54  1  0.600000  0.088400  0.686100  1.0  0.1035
  H  H55  1  0.412500  0.023600  0.280700  1.0  0.112
  H  H56  1  0.364100  0.031400  0.243600  1.0  0.1173
  H  H57  1  0.409900  0.962000  0.250100  1.0  0.1034
  H  H58  1  0.516000  0.009000  0.184700  1.0  0.0963
  H  H59  1  0.434500  0.991700  0.187900  1.0  0.0763
  H  H60  1  0.254300  0.225000  0.803900  1.0  0.1103
  H  H61  1  0.325600  0.220600  0.827100  1.0  0.11
  H  H62  1  0.688700  0.217700  0.252000  1.0  0.0739
  H  H63  1  0.695800  0.171300  0.314200  1.0  0.0798
  H  H64  1  0.735300  0.245500  0.313800  1.0  0.0881
  H  H65  1  0.637700  0.332800  0.242000  1.0  0.108
  H  H66  1  0.629300  0.341800  0.286900  1.0  0.0972
  H  H67  1  0.706900  0.336800  0.268400  1.0  0.0979
  H  H68  1  0.658700  0.238500  0.366900  1.0  0.106
  H  H69  1  0.631700  0.298900  0.339100  1.0  0.1133
  H  H70  1  0.592300  0.224900  0.339500  1.0  0.1022
  H  H71  1  0.654200  0.002500  0.797700  1.0  0.0957
  H  H72  1  0.578100  0.039200  0.802100  1.0  0.1001
  H  H73  1  0.583500  0.961400  0.785600  1.0  0.1068
  H  H74  1  0.459200  0.038400  0.131200  1.0  0.1141
  H  H75  1  0.407200  0.090400  0.153500  1.0  0.1051
  H  H76  1  0.490200  0.108000  0.150200  1.0  0.1045
  H  H77  1  0.256200  0.124500  0.839400  1.0  0.1044
  H  H78  1  0.255200  0.102800  0.795500  1.0  0.0926
  H  H79  1  0.327700  0.098300  0.819200  1.0  0.1707
  H  H80  1  0.348700  0.288900  0.779200  1.0  0.1018
  H  H81  1  0.776500  0.147400  0.102600  1.0  0.096
  H  H82  1  0.759100  0.953500  0.637900  1.0  0.116
  H  H83  1  0.061300  0.826100  0.109000  1.0  0.0872
  H  H84  1  0.829300  0.756100  0.513600  1.0  0.1143
  H  H85  1  0.958600  0.903000  0.825700  1.0  0.1122
  H  H86  1  0.754400  0.007800  0.700100  1.0  0.1131
  H  H87  1  0.085500  0.992500  0.489900  1.0  0.1091
  H  H88  1  0.934600  0.994000  0.988700  1.0  0.1063
  H  H89  1  0.773500  0.046800  0.773100  1.0  0.124
  H  H90  1  0.091800  0.816200  0.174400  1.0  0.1009
  H  H91  1  0.911100  0.815200  0.672900  1.0  0.0987
  H  H92  1  0.888200  0.089700  0.887200  1.0  0.1178
  H  H93  1  0.899200  0.877400  0.891400  1.0  0.0903
  H  H94  1  0.167100  0.752500  0.014500  1.0  0.1077
  H  H95  1  0.278400  0.843000  0.102000  1.0  0.1073
  H  H96  1  0.244200  0.006800  0.197200  1.0  0.1128
  H  H97  1  0.942100  0.759100  0.743900  1.0  0.1057
  H  H98  1  0.948700  0.784300  0.786900  1.0  0.0794
  H  H99  1  0.053400  0.781800  0.283700  1.0  0.1045
  H  H100  1  0.065400  0.761400  0.240400  1.0  0.0983
  H  H101  1  0.939100  0.830600  0.605000  1.0  0.0737
  H  H102  1  0.798200  0.047900  0.841100  1.0  0.112
  H  H103  1  0.079700  0.879500  0.391600  1.0  0.1023
  H  H104  1  0.247900  0.952900  0.138200  1.0  0.1248
  H  H105  1  0.192600  0.065900  0.336300  1.0  0.1116
  H  H106  1  0.123500  0.092100  0.389800  1.0  0.1041
  H  H107  1  0.057100  0.897000  0.330600  1.0  0.1037
  H  H108  1  0.037500  0.861600  0.763800  1.0  0.078
  H  H109  1  0.023700  0.847200  0.719600  1.0  0.0834
  H  H110  1  0.969000  0.873000  0.266200  1.0  0.0814
  H  H111  1  0.978400  0.848800  0.223400  1.0  0.0969
  H  H112  1  0.225000  0.047400  0.273600  1.0  0.0846
  H  H113  1  0.985900  0.980900  0.741400  1.0  0.09
  H  H114  1  0.996000  0.997000  0.232900  1.0  0.0936
  H  H115  1  0.863200  0.916100  0.245300  1.0  0.0858
  H  H116  1  0.857700  0.994100  0.228800  1.0  0.089
  H  H117  1  0.918600  0.991700  0.177700  1.0  0.0974
  H  H118  1  0.977200  0.932400  0.170600  1.0  0.1023
  H  H119  1  0.900000  0.911600  0.186100  1.0  0.1012
  H  H120  1  0.087500  0.976400  0.780700  1.0  0.1118
  H  H121  1  0.135900  0.968600  0.743600  1.0  0.1175
  H  H122  1  0.090100  0.038000  0.750100  1.0  0.1028
  H  H123  1  0.984000  0.991000  0.684700  1.0  0.0963
  H  H124  1  0.065500  0.008300  0.687900  1.0  0.0765
  H  H125  1  0.245700  0.775000  0.303900  1.0  0.1115
  H  H126  1  0.174400  0.779400  0.327100  1.0  0.1106
  H  H127  1  0.811300  0.782300  0.752000  1.0  0.0739
  H  H128  1  0.804200  0.828700  0.814200  1.0  0.077
  H  H129  1  0.764700  0.754500  0.813800  1.0  0.0872
  H  H130  1  0.862300  0.667200  0.742000  1.0  0.107
  H  H131  1  0.870700  0.658200  0.786900  1.0  0.0967
  H  H132  1  0.793100  0.663200  0.768400  1.0  0.0999
  H  H133  1  0.841300  0.761500  0.866900  1.0  0.1055
  H  H134  1  0.868300  0.701100  0.839100  1.0  0.1167
  H  H135  1  0.907700  0.775100  0.839500  1.0  0.1019
  H  H136  1  0.845800  0.997500  0.297700  1.0  0.0973
  H  H137  1  0.921900  0.960800  0.302100  1.0  0.0996
  H  H138  1  0.916500  0.038600  0.285600  1.0  0.1072
  H  H139  1  0.040800  0.961600  0.631200  1.0  0.1142
  H  H140  1  0.092800  0.909600  0.653500  1.0  0.1077
  H  H141  1  0.009800  0.892000  0.650200  1.0  0.1045
  H  H142  1  0.243800  0.875500  0.339400  1.0  0.1022
  H  H143  1  0.244800  0.897200  0.295500  1.0  0.0914
  H  H144  1  0.172300  0.901700  0.319200  1.0  0.1722
  H  H145  1  0.151300  0.711100  0.279200  1.0  0.0981
  H  H146  1  0.723500  0.852600  0.602600  1.0  0.0957
  H  H147  1  0.259100  0.546500  0.362100  1.0  0.1161
  H  H148  1  0.561300  0.673900  0.891000  1.0  0.0875
  H  H149  1  0.329300  0.743900  0.486400  1.0  0.1141
  H  H150  1  0.458600  0.597000  0.174300  1.0  0.1133
  H  H151  1  0.254400  0.492200  0.299900  1.0  0.113
  H  H152  1  0.585500  0.507500  0.510100  1.0  0.1082
  H  H153  1  0.434600  0.506000  0.011300  1.0  0.106
  H  H154  1  0.273500  0.453200  0.226900  1.0  0.1252
  H  H155  1  0.591800  0.683800  0.825600  1.0  0.1019
  H  H156  1  0.411100  0.684800  0.327100  1.0  0.0992
  H  H157  1  0.388200  0.410300  0.112800  1.0  0.1181
  H  H158  1  0.399200  0.622600  0.108600  1.0  0.0894
  H  H159  1  0.667100  0.747500  0.985500  1.0  0.1071
  H  H160  1  0.778400  0.657000  0.898000  1.0  0.1077
  H  H161  1  0.744200  0.493200  0.802800  1.0  0.1143
  H  H162  1  0.442100  0.740900  0.256100  1.0  0.1051
  H  H163  1  0.448700  0.715700  0.213100  1.0  0.0799
  H  H164  1  0.553400  0.718200  0.716300  1.0  0.1043
  H  H165  1  0.565400  0.738600  0.759600  1.0  0.0967
  H  H166  1  0.439100  0.669400  0.395000  1.0  0.074
  H  H167  1  0.298200  0.452100  0.158900  1.0  0.1121
  H  H168  1  0.579700  0.620500  0.608400  1.0  0.1032
  H  H169  1  0.747900  0.547100  0.861800  1.0  0.1254
  H  H170  1  0.692600  0.434100  0.663700  1.0  0.112
  H  H171  1  0.623500  0.407900  0.610200  1.0  0.1037
  H  H172  1  0.557100  0.603000  0.669400  1.0  0.1036
  H  H173  1  0.537500  0.638400  0.236200  1.0  0.0786
  H  H174  1  0.523700  0.652800  0.280400  1.0  0.0826
  H  H175  1  0.469000  0.627000  0.733800  1.0  0.082
  H  H176  1  0.478400  0.651200  0.776600  1.0  0.0942
  H  H177  1  0.725000  0.452600  0.726400  1.0  0.0866
  H  H178  1  0.485900  0.519100  0.258600  1.0  0.089
  H  H179  1  0.496000  0.503000  0.767100  1.0  0.0934
  H  H180  1  0.363200  0.583900  0.754700  1.0  0.0856
  H  H181  1  0.357700  0.505900  0.771200  1.0  0.0874
  H  H182  1  0.418600  0.508300  0.822300  1.0  0.0951
  H  H183  1  0.477200  0.567600  0.829400  1.0  0.1032
  H  H184  1  0.400000  0.588400  0.813900  1.0  0.1044
  H  H185  1  0.587500  0.523600  0.219300  1.0  0.1123
  H  H186  1  0.635900  0.531400  0.256400  1.0  0.1183
  H  H187  1  0.590100  0.462000  0.249900  1.0  0.1035
  H  H188  1  0.484000  0.509000  0.315300  1.0  0.0988
  H  H189  1  0.565500  0.491700  0.312100  1.0  0.075
  H  H190  1  0.745700  0.725000  0.696100  1.0  0.1125
  H  H191  1  0.674400  0.720600  0.672900  1.0  0.1083
  H  H192  1  0.311300  0.717700  0.248000  1.0  0.0743
  H  H193  1  0.304200  0.671300  0.185800  1.0  0.0751
  H  H194  1  0.264700  0.745500  0.186200  1.0  0.0854
  H  H195  1  0.362300  0.832800  0.258000  1.0  0.1087
  H  H196  1  0.370700  0.841800  0.213100  1.0  0.0968
  H  H197  1  0.293100  0.836800  0.231600  1.0  0.1
  H  H198  1  0.341300  0.738500  0.133100  1.0  0.1061
  H  H199  1  0.368300  0.798900  0.160900  1.0  0.1136
  H  H200  1  0.407700  0.724900  0.160500  1.0  0.1021
  H  H201  1  0.345800  0.502500  0.702300  1.0  0.0966
  H  H202  1  0.421900  0.539200  0.697900  1.0  0.0979
  H  H203  1  0.416500  0.461400  0.714400  1.0  0.1059
  H  H204  1  0.540800  0.538400  0.368800  1.0  0.1146
  H  H205  1  0.592800  0.590400  0.346500  1.0  0.1066
  H  H206  1  0.509800  0.608000  0.349800  1.0  0.1037
  H  H207  1  0.743800  0.624500  0.660600  1.0  0.1039
  H  H208  1  0.744800  0.602800  0.704500  1.0  0.0906
  H  H209  1  0.672300  0.598300  0.680800  1.0  0.1723
  H  H210  1  0.651300  0.788900  0.720800  1.0  0.1018
  H  H211  1  0.223500  0.647400  0.397400  1.0  0.096
  H  H212  1  0.240900  0.453500  0.862100  1.0  0.1159
  H  H213  1  0.938700  0.326100  0.391000  1.0  0.0873
  H  H214  1  0.170700  0.256100  0.986400  1.0  0.1142
  H  H215  1  0.041400  0.403000  0.674300  1.0  0.1128
  H  H216  1  0.245600  0.507800  0.799900  1.0  0.113
  H  H217  1  0.914500  0.492500  0.010100  1.0  0.1084
  H  H218  1  0.065400  0.494000  0.511300  1.0  0.1061
  H  H219  1  0.226500  0.546800  0.726900  1.0  0.1241
  H  H220  1  0.908200  0.316200  0.325600  1.0  0.1019
  H  H221  1  0.088900  0.315200  0.827100  1.0  0.0996
  H  H222  1  0.111800  0.589700  0.612800  1.0  0.118
  H  H223  1  0.100800  0.377400  0.608600  1.0  0.0896
  H  H224  1  0.832900  0.252500  0.485500  1.0  0.1073
  H  H225  1  0.721600  0.343000  0.398000  1.0  0.1081
  H  H226  1  0.755800  0.506800  0.302800  1.0  0.1132
  H  H227  1  0.057900  0.259100  0.756100  1.0  0.1062
  H  H228  1  0.051300  0.284300  0.713100  1.0  0.0806
  H  H229  1  0.946600  0.281800  0.216300  1.0  0.1031
  H  H230  1  0.934600  0.261400  0.259600  1.0  0.0976
  H  H231  1  0.060900  0.330600  0.895000  1.0  0.0742
  H  H232  1  0.201800  0.547900  0.658900  1.0  0.1118
  H  H233  1  0.920300  0.379500  0.108400  1.0  0.1026
  H  H234  1  0.752100  0.452900  0.361800  1.0  0.1251
  H  H235  1  0.807400  0.565900  0.163700  1.0  0.1118
  H  H236  1  0.876500  0.592100  0.110200  1.0  0.1037
  H  H237  1  0.942900  0.397000  0.169400  1.0  0.1036
  H  H238  1  0.962500  0.361600  0.736200  1.0  0.0792
  H  H239  1  0.976300  0.347200  0.780400  1.0  0.0837
  H  H240  1  0.031000  0.373000  0.233800  1.0  0.0816
  H  H241  1  0.021600  0.348800  0.276600  1.0  0.0961
  H  H242  1  0.775000  0.547400  0.226400  1.0  0.0844
  H  H243  1  0.014100  0.480900  0.758600  1.0  0.0907
  H  H244  1  0.004000  0.497000  0.267100  1.0  0.0924
  H  H245  1  0.136800  0.416100  0.254700  1.0  0.086
  H  H246  1  0.142300  0.494100  0.271200  1.0  0.0884
  H  H247  1  0.081400  0.491700  0.322300  1.0  0.0962
  H  H248  1  0.022800  0.432400  0.329400  1.0  0.104
  H  H249  1  0.100000  0.411600  0.313900  1.0  0.1016
  H  H250  1  0.912500  0.476400  0.719300  1.0  0.1106
  H  H251  1  0.864100  0.468600  0.756400  1.0  0.1161
  H  H252  1  0.909900  0.538000  0.749900  1.0  0.1043
  H  H253  1  0.016000  0.491000  0.815300  1.0  0.0988
  H  H254  1  0.934500  0.508300  0.812100  1.0  0.0745
  H  H255  1  0.754300  0.275000  0.196100  1.0  0.1083
  H  H256  1  0.825600  0.279400  0.172900  1.0  0.1071
  H  H257  1  0.188700  0.282300  0.748000  1.0  0.0742
  H  H258  1  0.195800  0.328700  0.685800  1.0  0.0782
  H  H259  1  0.235300  0.254500  0.686200  1.0  0.0876
  H  H260  1  0.137700  0.167200  0.758000  1.0  0.1094
  H  H261  1  0.129300  0.158200  0.713100  1.0  0.0979
  H  H262  1  0.206900  0.163200  0.731600  1.0  0.0983
  H  H263  1  0.158700  0.261500  0.633100  1.0  0.1064
  H  H264  1  0.131700  0.201100  0.660900  1.0  0.1152
  H  H265  1  0.092300  0.275100  0.660500  1.0  0.1001
  H  H266  1  0.154200  0.497500  0.202300  1.0  0.0965
  H  H267  1  0.078100  0.460800  0.197900  1.0  0.1003
  H  H268  1  0.083500  0.538600  0.214400  1.0  0.108
  H  H269  1  0.959200  0.461600  0.868800  1.0  0.1151
  H  H270  1  0.907200  0.409600  0.846500  1.0  0.108
  H  H271  1  0.990200  0.392000  0.849800  1.0  0.1043
  H  H272  1  0.756200  0.375500  0.160600  1.0  0.1031
  H  H273  1  0.755200  0.397200  0.204500  1.0  0.0909
  H  H274  1  0.827700  0.401700  0.180800  1.0  0.1718
  H  H275  1  0.848700  0.211100  0.220800  1.0  0.0972
  H  H276  1  0.276500  0.352600  0.897400  1.0  0.0963
  C  C277  1  0.467700  0.225900  0.537700  1.0  0.705
  C  C278  1  0.713000  0.065500  0.157900  1.0  -0.1278
  C  C279  1  0.619800  0.112800  0.215400  1.0  -0.0237
  C  C280  1  0.735700  0.200000  0.054200  1.0  -0.0972
  C  C281  1  0.411700  0.074500  0.944300  1.0  -0.1228
  C  C282  1  0.425000  0.131000  0.749700  1.0  0.0498
  C  C283  1  0.395500  0.178200  0.595200  1.0  -0.0481
  C  C284  1  0.395600  0.212400  0.555900  1.0  -0.1228
  C  C285  1  0.671200  0.221500  0.037600  1.0  -1e-04
  C  C286  1  0.671400  0.159300  0.111800  1.0  0.0817
  C  C287  1  0.589400  0.949000  0.442000  1.0  -0.1475
  C  C288  1  0.669000  0.057900  0.224200  1.0  -0.0014
  C  C289  1  0.606900  0.018500  0.383900  1.0  -0.0441
  C  C290  1  0.670000  0.127800  0.150000  1.0  0.0652
  C  C291  1  0.412600  0.874900  0.961500  1.0  0.6758
  C  C292  1  0.579400  0.069500  0.316100  1.0  -0.1517
  C  C293  1  0.715100  0.030700  0.195400  1.0  -0.1187
  C  C294  1  0.410100  0.009100  0.963100  1.0  -0.0112
  C  C295  1  0.397200  0.078600  0.778900  1.0  0.0099
  C  C296  1  0.338900  0.033700  0.763200  1.0  -0.0199
  C  C297  1  0.613400  0.017900  0.338800  1.0  -0.0285
  C  C298  1  0.806200  0.214900  0.035100  1.0  0.6757
  C  C299  1  0.267700  0.201500  0.555600  1.0  -0.1346
  C  C300  1  0.575900  0.008900  0.462400  1.0  -0.0071
  C  C301  1  0.336400  0.054400  0.720500  1.0  -0.0592
  C  C302  1  0.334200  0.154100  0.610300  1.0  -0.0288
  C  C303  1  0.604000  0.077700  0.279800  1.0  0.1046
  C  C304  1  0.691500  0.982400  0.284200  1.0  -0.1066
  C  C305  1  0.402000  0.945100  0.942200  1.0  -0.0777
  C  C306  1  0.379000  0.144300  0.679300  1.0  -0.1276
  C  C307  1  0.621400  0.148000  0.178000  1.0  -0.123
  C  C308  1  0.397200  0.011400  0.881800  1.0  -0.0124
  C  C309  1  0.604200  0.951800  0.401500  1.0  -0.078
  C  C310  1  0.596200  0.078800  0.403800  1.0  -0.0641
  C  C311  1  0.333600  0.224200  0.538300  1.0  -0.0047
  C  C312  1  0.265700  0.169200  0.590700  1.0  -0.0516
  C  C313  1  0.195600  0.211800  0.532700  1.0  0.639
  C  C314  1  0.287200  0.030700  0.691800  1.0  -0.0477
  C  C315  1  0.333500  0.115900  0.649300  1.0  0.0452
  C  C316  1  0.579600  0.210200  0.263300  1.0  -0.2561
  C  C317  1  0.415500  0.209900  0.761500  1.0  -0.2648
  C  C318  1  0.425000  0.141100  0.966500  1.0  0.6914
  C  C319  1  0.602600  0.208100  0.058900  1.0  -0.0837
  C  C320  1  0.604600  0.178700  0.092500  1.0  -0.04
  C  C321  1  0.673700  0.979500  0.324300  1.0  -0.1264
  C  C322  1  0.411600  0.077700  0.904300  1.0  -0.0877
  C  C323  1  0.649800  0.035600  0.261600  1.0  0.1031
  C  C324  1  0.285300  0.061800  0.656900  1.0  -0.0769
  C  C325  1  0.327100  0.972200  0.822600  1.0  -0.2118
  C  C326  1  0.390100  0.949200  0.902900  1.0  -0.0676
  C  C327  1  0.410300  0.071700  0.819000  1.0  -0.0607
  C  C328  1  0.570900  0.132200  0.249400  1.0  0.0597
  C  C329  1  0.377200  0.021100  0.841600  1.0  0.0846
  C  C330  1  0.578000  0.143700  0.466100  1.0  0.6774
  C  C331  1  0.490100  0.123000  0.241400  1.0  -0.2224
  C  C332  1  0.505800  0.116100  0.742200  1.0  -0.2068
  C  C333  1  0.379600  0.115000  0.713300  1.0  0.081
  C  C334  1  0.535600  0.232700  0.038800  1.0  0.688
  C  C335  1  0.577500  0.076000  0.444100  1.0  -0.1036
  C  C336  1  0.309300  0.982500  0.784800  1.0  -0.0723
  C  C337  1  0.471600  0.045900  0.232300  1.0  0.0016
  C  C338  1  0.535700  0.044200  0.728300  1.0  0.0533
  C  C339  1  0.592800  0.877500  0.462600  1.0  0.7315
  C  C340  1  0.613400  0.037600  0.744800  1.0  -0.1255
  C  C341  1  0.562400  0.052900  0.686800  1.0  -0.3407
  C  C342  1  0.408900  0.012700  0.253600  1.0  -0.3386
  C  C343  1  0.469000  0.030700  0.189500  1.0  -0.1115
  C  C344  1  0.301600  0.202200  0.804200  1.0  -0.1127
  C  C345  1  0.308200  0.240400  0.731000  1.0  -0.1527
  C  C346  1  0.656100  0.238100  0.271500  1.0  0.0559
  C  C347  1  0.688500  0.222200  0.311300  1.0  -0.1644
  C  C348  1  0.657600  0.320200  0.266800  1.0  -0.3705
  C  C349  1  0.638400  0.248500  0.341900  1.0  -0.3388
  C  C350  1  0.606700  0.007300  0.786500  1.0  -0.3343
  C  C351  1  0.455200  0.070400  0.152800  1.0  -0.2963
  C  C352  1  0.283400  0.124600  0.815700  1.0  -0.334
  C  C353  1  0.341700  0.239200  0.771300  1.0  -0.1689
  C  C354  1  0.733800  0.165400  0.092000  1.0  -0.0642
  C  C355  1  0.032300  0.774100  0.037700  1.0  0.705
  C  C356  1  0.787000  0.934500  0.657900  1.0  -0.1281
  C  C357  1  0.880200  0.887200  0.715400  1.0  -0.0246
  C  C358  1  0.764300  0.800000  0.554200  1.0  -0.0971
  C  C359  1  0.088300  0.925500  0.444300  1.0  -0.1223
  C  C360  1  0.075000  0.869000  0.249700  1.0  0.0501
  C  C361  1  0.104500  0.821800  0.095200  1.0  -0.0488
  C  C362  1  0.104400  0.787600  0.055900  1.0  -0.1292
  C  C363  1  0.828800  0.778500  0.537600  1.0  0.0008
  C  C364  1  0.828600  0.840700  0.611800  1.0  0.0806
  C  C365  1  0.910600  0.051000  0.942000  1.0  -0.1474
  C  C366  1  0.831000  0.942100  0.724200  1.0  -0.0044
  C  C367  1  0.893100  0.981500  0.883900  1.0  -0.0441
  C  C368  1  0.830000  0.872200  0.650000  1.0  0.0664
  C  C369  1  0.087400  0.125100  0.461500  1.0  0.6761
  C  C370  1  0.920600  0.930500  0.816100  1.0  -0.1504
  C  C371  1  0.784900  0.969300  0.695400  1.0  -0.1174
  C  C372  1  0.089900  0.990900  0.463100  1.0  -0.0119
  C  C373  1  0.102800  0.921400  0.278900  1.0  0.0103
  C  C374  1  0.161100  0.966300  0.263200  1.0  -0.0229
  C  C375  1  0.886600  0.982100  0.838800  1.0  -0.0267
  C  C376  1  0.693800  0.785100  0.535100  1.0  0.6747
  C  C377  1  0.232300  0.798500  0.055600  1.0  -0.1345
  C  C378  1  0.924100  0.991100  0.962400  1.0  -0.0055
  C  C379  1  0.163600  0.945600  0.220500  1.0  -0.0608
  C  C380  1  0.165800  0.845900  0.110300  1.0  -0.0276
  C  C381  1  0.896000  0.922300  0.779800  1.0  0.1062
  C  C382  1  0.808500  0.017600  0.784200  1.0  -0.1037
  C  C383  1  0.098000  0.054900  0.442200  1.0  -0.0774
  C  C384  1  0.121000  0.855700  0.179300  1.0  -0.1229
  C  C385  1  0.878600  0.852000  0.678000  1.0  -0.1203
  C  C386  1  0.102800  0.988600  0.381800  1.0  -0.0133
  C  C387  1  0.895800  0.048200  0.901500  1.0  -0.0786
  C  C388  1  0.903800  0.921200  0.903800  1.0  -0.063
  C  C389  1  0.166400  0.775800  0.038300  1.0  -0.0034
  C  C390  1  0.234300  0.830800  0.090700  1.0  -0.0505
  C  C391  1  0.304400  0.788200  0.032700  1.0  0.6377
  C  C392  1  0.212800  0.969300  0.191800  1.0  -0.042
  C  C393  1  0.166500  0.884100  0.149300  1.0  0.0454
  C  C394  1  0.920400  0.789800  0.763300  1.0  -0.2537
  C  C395  1  0.084500  0.790100  0.261500  1.0  -0.262
  C  C396  1  0.075000  0.858900  0.466500  1.0  0.6912
  C  C397  1  0.897400  0.791900  0.558900  1.0  -0.0837
  C  C398  1  0.895400  0.821300  0.592500  1.0  -0.0393
  C  C399  1  0.826300  0.020500  0.824300  1.0  -0.1268
  C  C400  1  0.088400  0.922300  0.404300  1.0  -0.0887
  C  C401  1  0.850200  0.964400  0.761600  1.0  0.0995
  C  C402  1  0.214700  0.938200  0.156900  1.0  -0.0756
  C  C403  1  0.172900  0.027800  0.322600  1.0  -0.21
  C  C404  1  0.109900  0.050800  0.402900  1.0  -0.0681
  C  C405  1  0.089700  0.928300  0.319000  1.0  -0.0626
  C  C406  1  0.929100  0.867800  0.749400  1.0  0.06
  C  C407  1  0.122800  0.978900  0.341600  1.0  0.0836
  C  C408  1  0.922000  0.856300  0.966100  1.0  0.6777
  C  C409  1  0.009900  0.877000  0.741400  1.0  -0.2224
  C  C410  1  0.994200  0.883900  0.242200  1.0  -0.2072
  C  C411  1  0.120400  0.885000  0.213300  1.0  0.0813
  C  C412  1  0.964400  0.767300  0.538800  1.0  0.6872
  C  C413  1  0.922500  0.924000  0.944100  1.0  -0.1049
  C  C414  1  0.190700  0.017500  0.284800  1.0  -0.07
  C  C415  1  0.028400  0.954100  0.732300  1.0  0.0024
  C  C416  1  0.964300  0.955800  0.228300  1.0  0.0542
  C  C417  1  0.907200  0.122500  0.962600  1.0  0.7311
  C  C418  1  0.886600  0.962400  0.244800  1.0  -0.1236
  C  C419  1  0.937600  0.947100  0.186800  1.0  -0.3402
  C  C420  1  0.091100  0.987300  0.753600  1.0  -0.3379
  C  C421  1  0.031000  0.969300  0.689500  1.0  -0.1119
  C  C422  1  0.198400  0.797800  0.304200  1.0  -0.1105
  C  C423  1  0.191800  0.759600  0.231000  1.0  -0.1523
  C  C424  1  0.843900  0.761900  0.771500  1.0  0.0556
  C  C425  1  0.811500  0.777800  0.811300  1.0  -0.1637
  C  C426  1  0.842400  0.679800  0.766800  1.0  -0.3711
  C  C427  1  0.861600  0.751500  0.841900  1.0  -0.338
  C  C428  1  0.893300  0.992700  0.286500  1.0  -0.3347
  C  C429  1  0.044800  0.929600  0.652800  1.0  -0.2959
  C  C430  1  0.216600  0.875400  0.315700  1.0  -0.3293
  C  C431  1  0.158300  0.760800  0.271300  1.0  -0.168
  C  C432  1  0.766200  0.834600  0.592000  1.0  -0.067
  C  C433  1  0.532300  0.725900  0.962300  1.0  0.7053
  C  C434  1  0.287000  0.565500  0.342100  1.0  -0.1276
  C  C435  1  0.380200  0.612800  0.284600  1.0  -0.0241
  C  C436  1  0.264300  0.700000  0.445800  1.0  -0.0972
  C  C437  1  0.588300  0.574500  0.555700  1.0  -0.1224
  C  C438  1  0.575000  0.631000  0.750300  1.0  0.0498
  C  C439  1  0.604500  0.678200  0.904800  1.0  -0.0489
  C  C440  1  0.604400  0.712400  0.944100  1.0  -0.1283
  C  C441  1  0.328800  0.721500  0.462400  1.0  0.0006
  C  C442  1  0.328600  0.659300  0.388200  1.0  0.0811
  C  C443  1  0.410600  0.449000  0.058000  1.0  -0.1477
  C  C444  1  0.331000  0.557900  0.275800  1.0  -0.0008
  C  C445  1  0.393100  0.518500  0.116100  1.0  -0.045
  C  C446  1  0.330000  0.627800  0.350000  1.0  0.0663
  C  C447  1  0.587400  0.374900  0.538500  1.0  0.6756
  C  C448  1  0.420600  0.569500  0.183900  1.0  -0.1522
  C  C449  1  0.284900  0.530700  0.304600  1.0  -0.1178
  C  C450  1  0.589900  0.509100  0.536900  1.0  -0.0108
  C  C451  1  0.602800  0.578600  0.721100  1.0  0.0086
  C  C452  1  0.661100  0.533700  0.736800  1.0  -0.0204
  C  C453  1  0.386600  0.517900  0.161200  1.0  -0.0278
  C  C454  1  0.193800  0.714900  0.464900  1.0  0.6743
  C  C455  1  0.732300  0.701500  0.944400  1.0  -0.1343
  C  C456  1  0.424100  0.508900  0.037600  1.0  -0.0069
  C  C457  1  0.663600  0.554400  0.779500  1.0  -0.0568
  C  C458  1  0.665800  0.654100  0.889700  1.0  -0.0267
  C  C459  1  0.396000  0.577700  0.220200  1.0  0.1062
  C  C460  1  0.308500  0.482400  0.215800  1.0  -0.1052
  C  C461  1  0.598000  0.445100  0.557800  1.0  -0.0779
  C  C462  1  0.621000  0.644300  0.820700  1.0  -0.1271
  C  C463  1  0.378600  0.648000  0.322000  1.0  -0.1207
  C  C464  1  0.602800  0.511400  0.618200  1.0  -0.0131
  C  C465  1  0.395800  0.451800  0.098500  1.0  -0.0775
  C  C466  1  0.403800  0.578800  0.096200  1.0  -0.0639
  C  C467  1  0.666400  0.724200  0.961700  1.0  -0.0056
  C  C468  1  0.734300  0.669200  0.909300  1.0  -0.051
  C  C469  1  0.804400  0.711800  0.967300  1.0  0.6399
  C  C470  1  0.712800  0.530700  0.808200  1.0  -0.0465
  C  C471  1  0.666500  0.615900  0.850700  1.0  0.0458
  C  C472  1  0.420400  0.710200  0.236700  1.0  -0.2549
  C  C473  1  0.584500  0.709900  0.738500  1.0  -0.2633
  C  C474  1  0.575000  0.641100  0.533500  1.0  0.691
  C  C475  1  0.397400  0.708100  0.441100  1.0  -0.0836
  C  C476  1  0.395400  0.678700  0.407500  1.0  -0.0395
  C  C477  1  0.326300  0.479500  0.175700  1.0  -0.1246
  C  C478  1  0.588400  0.577700  0.595700  1.0  -0.0881
  C  C479  1  0.350200  0.535600  0.238400  1.0  0.1027
  C  C480  1  0.714700  0.561800  0.843100  1.0  -0.0815
  C  C481  1  0.672900  0.472200  0.677400  1.0  -0.2117
  C  C482  1  0.609900  0.449200  0.597100  1.0  -0.067
  C  C483  1  0.589700  0.571700  0.681000  1.0  -0.0639
  C  C484  1  0.429100  0.632200  0.250600  1.0  0.0595
  C  C485  1  0.622800  0.521100  0.658400  1.0  0.0816
  C  C486  1  0.422000  0.643700  0.033900  1.0  0.6778
  C  C487  1  0.509900  0.623000  0.258600  1.0  -0.2214
  C  C488  1  0.494200  0.616100  0.757800  1.0  -0.2057
  C  C489  1  0.620400  0.615000  0.786700  1.0  0.0823
  C  C490  1  0.464400  0.732700  0.461200  1.0  0.6874
  C  C491  1  0.422500  0.576000  0.055900  1.0  -0.1061
  C  C492  1  0.690700  0.482500  0.715200  1.0  -0.0733
  C  C493  1  0.528400  0.545900  0.267700  1.0  0.0019
  C  C494  1  0.464300  0.544200  0.771700  1.0  0.0563
  C  C495  1  0.407200  0.377500  0.037400  1.0  0.7308
  C  C496  1  0.386600  0.537600  0.755200  1.0  -0.1237
  C  C497  1  0.437600  0.552900  0.813200  1.0  -0.3413
  C  C498  1  0.591100  0.512700  0.246400  1.0  -0.338
  C  C499  1  0.531000  0.530700  0.310500  1.0  -0.1108
  C  C500  1  0.698400  0.702200  0.695800  1.0  -0.1121
  C  C501  1  0.691800  0.740400  0.769000  1.0  -0.1559
  C  C502  1  0.343900  0.738100  0.228500  1.0  0.055
  C  C503  1  0.311500  0.722200  0.188700  1.0  -0.1627
  C  C504  1  0.342400  0.820200  0.233200  1.0  -0.373
  C  C505  1  0.361600  0.748500  0.158100  1.0  -0.339
  C  C506  1  0.393300  0.507300  0.713500  1.0  -0.3333
  C  C507  1  0.544800  0.570400  0.347200  1.0  -0.2971
  C  C508  1  0.716600  0.624600  0.684300  1.0  -0.3308
  C  C509  1  0.658300  0.739200  0.728700  1.0  -0.1702
  C  C510  1  0.266200  0.665400  0.408000  1.0  -0.0669
  C  C511  1  0.967700  0.274100  0.462300  1.0  0.7051
  C  C512  1  0.213000  0.434500  0.842100  1.0  -0.1291
  C  C513  1  0.119800  0.387200  0.784600  1.0  -0.0232
  C  C514  1  0.235700  0.300000  0.945800  1.0  -0.0976
  C  C515  1  0.911700  0.425500  0.055700  1.0  -0.1231
  C  C516  1  0.925000  0.369000  0.250300  1.0  0.0503
  C  C517  1  0.895500  0.321800  0.404800  1.0  -0.0485
  C  C518  1  0.895600  0.287600  0.444100  1.0  -0.1228
  C  C519  1  0.171200  0.278500  0.962400  1.0  0.0013
  C  C520  1  0.171400  0.340700  0.888200  1.0  0.0821
  C  C521  1  0.089400  0.551000  0.558000  1.0  -0.1473
  C  C522  1  0.169000  0.442100  0.775800  1.0  -0.0038
  C  C523  1  0.106900  0.481500  0.616100  1.0  -0.0444
  C  C524  1  0.170000  0.372200  0.850000  1.0  0.0656
  C  C525  1  0.912600  0.625100  0.038500  1.0  0.676
  C  C526  1  0.079400  0.430500  0.683900  1.0  -0.1504
  C  C527  1  0.215100  0.469300  0.804600  1.0  -0.1202
  C  C528  1  0.910100  0.490900  0.036900  1.0  -0.0114
  C  C529  1  0.897200  0.421400  0.221100  1.0  0.0101
  C  C530  1  0.838900  0.466300  0.236800  1.0  -0.0229
  C  C531  1  0.113400  0.482100  0.661200  1.0  -0.0291
  C  C532  1  0.306200  0.285100  0.964900  1.0  0.6759
  C  C533  1  0.767700  0.298500  0.444400  1.0  -0.1341
  C  C534  1  0.075900  0.491100  0.537600  1.0  -0.0061
  C  C535  1  0.836400  0.445600  0.279500  1.0  -0.0611
  C  C536  1  0.834200  0.345900  0.389700  1.0  -0.025
  C  C537  1  0.104000  0.422300  0.720200  1.0  0.107
  C  C538  1  0.191500  0.517600  0.715800  1.0  -0.1032
  C  C539  1  0.902000  0.554900  0.057800  1.0  -0.0773
  C  C540  1  0.879000  0.355700  0.320700  1.0  -0.125
  C  C541  1  0.121400  0.352000  0.822000  1.0  -0.1191
  C  C542  1  0.897200  0.488600  0.118200  1.0  -0.0122
  C  C543  1  0.104200  0.548200  0.598500  1.0  -0.079
  C  C544  1  0.096200  0.421200  0.596200  1.0  -0.0629
  C  C545  1  0.833600  0.275800  0.461700  1.0  -0.0054
  C  C546  1  0.765700  0.330800  0.409300  1.0  -0.0524
  C  C547  1  0.695600  0.288200  0.467300  1.0  0.6409
  C  C548  1  0.787200  0.469300  0.308200  1.0  -0.0455
  C  C549  1  0.833500  0.384100  0.350700  1.0  0.0467
  C  C550  1  0.079600  0.289800  0.736700  1.0  -0.2541
  C  C551  1  0.915500  0.290100  0.238500  1.0  -0.2622
  C  C552  1  0.925000  0.358900  0.033500  1.0  0.6907
  C  C553  1  0.102600  0.291900  0.941100  1.0  -0.0835
  C  C554  1  0.104600  0.321300  0.907500  1.0  -0.0401
  C  C555  1  0.173700  0.520500  0.675700  1.0  -0.1252
  C  C556  1  0.911600  0.422300  0.095700  1.0  -0.0872
  C  C557  1  0.149800  0.464400  0.738400  1.0  0.1003
  C  C558  1  0.785300  0.438200  0.343100  1.0  -0.0792
  C  C559  1  0.827100  0.527800  0.177400  1.0  -0.2112
  C  C560  1  0.890100  0.550800  0.097100  1.0  -0.0685
  C  C561  1  0.910300  0.428300  0.181000  1.0  -0.0611
  C  C562  1  0.070900  0.367800  0.750600  1.0  0.0596
  C  C563  1  0.877200  0.478900  0.158400  1.0  0.0835
  C  C564  1  0.078000  0.356300  0.533900  1.0  0.6771
  C  C565  1  0.990100  0.377000  0.758600  1.0  -0.2214
  C  C566  1  0.005800  0.383900  0.257800  1.0  -0.2058
  C  C567  1  0.879600  0.385000  0.286700  1.0  0.0814
  C  C568  1  0.035600  0.267300  0.961200  1.0  0.6882
  C  C569  1  0.077500  0.424000  0.555900  1.0  -0.1047
  C  C570  1  0.809300  0.517500  0.215200  1.0  -0.0671
  C  C571  1  0.971600  0.454100  0.767700  1.0  0.0019
  C  C572  1  0.035700  0.455800  0.271700  1.0  0.0541
  C  C573  1  0.092800  0.622500  0.537400  1.0  0.7314
  C  C574  1  0.113400  0.462400  0.255200  1.0  -0.1253
  C  C575  1  0.062400  0.447100  0.313200  1.0  -0.3407
  C  C576  1  0.908900  0.487300  0.746400  1.0  -0.3393
  C  C577  1  0.969000  0.469300  0.810500  1.0  -0.1101
  C  C578  1  0.801600  0.297800  0.195800  1.0  -0.1103
  C  C579  1  0.808200  0.259600  0.269000  1.0  -0.1543
  C  C580  1  0.156100  0.261900  0.728500  1.0  0.0559
  C  C581  1  0.188500  0.277800  0.688700  1.0  -0.1644
  C  C582  1  0.157600  0.179800  0.733200  1.0  -0.3714
  C  C583  1  0.138400  0.251500  0.658100  1.0  -0.3381
  C  C584  1  0.106700  0.492700  0.213500  1.0  -0.3347
  C  C585  1  0.955200  0.429600  0.847200  1.0  -0.2982
  C  C586  1  0.783400  0.375400  0.184300  1.0  -0.3306
  C  C587  1  0.841700  0.260800  0.228700  1.0  -0.1694
  C  C588  1  0.233800  0.334600  0.908000  1.0  -0.0658
  O  O589  1  0.857100  0.188500  0.047900  1.0  -0.5641
  O  O590  1  0.558000  0.877000  0.493500  1.0  -0.5874
  O  O591  1  0.374200  0.826700  0.945360  1.0  -0.6039
  O  O592  1  0.135700  0.189600  0.550200  1.0  -0.5945
  O  O593  1  0.452200  0.194900  0.950700  1.0  -0.5968
  O  O594  1  0.204500  0.245700  0.501950  1.0  -0.5926
  O  O595  1  0.446900  0.872300  0.992830  1.0  -0.5829
  O  O596  1  0.551600  0.196800  0.447660  1.0  -0.606
  O  O597  1  0.477700  0.213900  0.055170  1.0  -0.5647
  O  O598  1  0.463100  0.257000  0.505740  1.0  -0.5935
  O  O599  1  0.401300  0.140700  0.000950  1.0  -0.5727
  O  O600  1  0.805300  0.250800  0.003610  1.0  -0.6253
  O  O601  1  0.620300  0.823800  0.446900  1.0  -0.6006
  O  O602  1  0.603100  0.142900  0.500900  1.0  -0.5783
  O  O603  1  0.524500  0.218600  0.557380  1.0  -0.5648
  O  O604  1  0.539700  0.258800  0.004550  1.0  -0.6037
  O  O605  1  0.642900  0.811500  0.547900  1.0  -0.5638
  O  O606  1  0.942000  0.123000  0.993500  1.0  -0.5873
  O  O607  1  0.125800  0.173300  0.445360  1.0  -0.6042
  O  O608  1  0.364300  0.810400  0.050200  1.0  -0.5918
  O  O609  1  0.047800  0.805100  0.450700  1.0  -0.5962
  O  O610  1  0.295500  0.754300  0.001950  1.0  -0.5935
  O  O611  1  0.053100  0.127700  0.492830  1.0  -0.5797
  O  O612  1  0.948400  0.803200  0.947660  1.0  -0.6063
  O  O613  1  0.022300  0.786100  0.555170  1.0  -0.5652
  O  O614  1  0.036900  0.743000  0.005740  1.0  -0.594
  O  O615  1  0.098700  0.859300  0.500950  1.0  -0.5727
  O  O616  1  0.694700  0.749200  0.503610  1.0  -0.6246
  O  O617  1  0.879700  0.176200  0.946900  1.0  -0.6006
  O  O618  1  0.896900  0.857100  0.000900  1.0  -0.5775
  O  O619  1  0.975500  0.781400  0.057380  1.0  -0.5645
  O  O620  1  0.960300  0.741200  0.504550  1.0  -0.604
  O  O621  1  0.142900  0.688500  0.452100  1.0  -0.5644
  O  O622  1  0.442000  0.377000  0.006500  1.0  -0.5869
  O  O623  1  0.625800  0.326700  0.554640  1.0  -0.6039
  O  O624  1  0.864300  0.689600  0.949800  1.0  -0.5931
  O  O625  1  0.547800  0.694900  0.549300  1.0  -0.5965
  O  O626  1  0.795500  0.745700  0.998050  1.0  -0.5936
  O  O627  1  0.553100  0.372300  0.507170  1.0  -0.583
  O  O628  1  0.448400  0.696800  0.052340  1.0  -0.607
  O  O629  1  0.522300  0.713900  0.444830  1.0  -0.5654
  O  O630  1  0.536900  0.757000  0.994260  1.0  -0.5947
  O  O631  1  0.598700  0.640700  0.499050  1.0  -0.5733
  O  O632  1  0.194700  0.750800  0.496390  1.0  -0.6259
  O  O633  1  0.379700  0.323800  0.053100  1.0  -0.5973
  O  O634  1  0.396900  0.642900  0.999100  1.0  -0.5766
  O  O635  1  0.475500  0.718600  0.942620  1.0  -0.565
  O  O636  1  0.460300  0.758800  0.495450  1.0  -0.6041
  O  O637  1  0.357100  0.311500  0.952100  1.0  -0.5643
  O  O638  1  0.058000  0.623000  0.506500  1.0  -0.5863
  O  O639  1  0.874200  0.673300  0.054640  1.0  -0.6057
  O  O640  1  0.635700  0.310400  0.449800  1.0  -0.5918
  O  O641  1  0.952200  0.305100  0.049300  1.0  -0.5955
  O  O642  1  0.704500  0.254300  0.498050  1.0  -0.5938
  O  O643  1  0.946900  0.627700  0.007170  1.0  -0.5803
  O  O644  1  0.051600  0.303200  0.552340  1.0  -0.6048
  O  O645  1  0.977700  0.286100  0.944830  1.0  -0.5645
  O  O646  1  0.963100  0.243000  0.494260  1.0  -0.5939
  O  O647  1  0.901300  0.359300  0.999050  1.0  -0.5732
  O  O648  1  0.305300  0.249200  0.996390  1.0  -0.6236
  O  O649  1  0.120300  0.676200  0.553100  1.0  -0.5987
  O  O650  1  0.103100  0.357100  0.499100  1.0  -0.5791
  O  O651  1  0.024500  0.281400  0.442620  1.0  -0.5648
  O  O652  1  0.039700  0.241200  0.995450  1.0  -0.6044
