# generated using pymatgen
data_La2H18(C5O4)3
_symmetry_space_group_name_H-M   'P 1'
_cell_length_a   9.07600000
_cell_length_b   9.86700000
_cell_length_c   16.30300000
_cell_angle_alpha   103.34900000
_cell_angle_beta   104.11000000
_cell_angle_gamma   98.52600000
_symmetry_Int_Tables_number   1
_chemical_formula_structural   La2H18(C5O4)3
_chemical_formula_sum   'La4 H36 C30 O24'
_cell_volume   1344.92106748
_cell_formula_units_Z   2
loop_
 _symmetry_equiv_pos_site_id
 _symmetry_equiv_pos_as_xyz
  1  'x, y, z'
loop_
 _atom_site_type_symbol
 _atom_site_label
 _atom_site_symmetry_multiplicity
 _atom_site_fract_x
 _atom_site_fract_y
 _atom_site_fract_z
 _atom_site_occupancy
 _atom_site_charge
  La  La1  1  0.692130  0.451440  0.598110  1.0  2.1747
  La  La2  1  0.848420  0.426700  0.864330  1.0  2.1798
  La  La3  1  0.307870  0.548560  0.401890  1.0  2.1733
  La  La4  1  0.151580  0.573300  0.135670  1.0  2.1798
  H  H5  1  0.377400  0.027500  0.616900  1.0  0.105
  H  H6  1  0.409500  0.063100  0.719300  1.0  0.1028
  H  H7  1  0.609300  0.938600  0.729600  1.0  0.0847
  H  H8  1  0.454300  0.837400  0.664900  1.0  0.085
  H  H9  1  0.545900  0.897300  0.546300  1.0  0.1055
  H  H10  1  0.708700  0.962500  0.616800  1.0  0.1069
  H  H11  1  0.512500  0.141700  0.986500  1.0  0.1217
  H  H12  1  0.500500  0.051700  0.891700  1.0  0.1275
  H  H13  1  0.311400  0.184400  0.836900  1.0  0.095
  H  H14  1  0.253500  0.073400  0.883500  1.0  0.0827
  H  H15  1  0.287400  0.249700  0.009900  1.0  0.1121
  H  H16  1  0.372600  0.363600  0.974700  1.0  0.1111
  H  H17  1  0.533900  0.750100  0.840400  1.0  0.1178
  H  H18  1  0.479500  0.605600  0.859500  1.0  0.1043
  H  H19  1  0.295300  0.692600  0.722800  1.0  0.095
  H  H20  1  0.272500  0.723300  0.817300  1.0  0.0992
  H  H21  1  0.242200  0.442000  0.712900  1.0  0.1237
  H  H22  1  0.201100  0.480400  0.802100  1.0  0.1191
  H  H23  1  0.622600  0.972500  0.383100  1.0  0.1055
  H  H24  1  0.590500  0.936900  0.280700  1.0  0.1025
  H  H25  1  0.390700  0.061400  0.270400  1.0  0.085
  H  H26  1  0.545700  0.162600  0.335100  1.0  0.0842
  H  H27  1  0.454100  0.102700  0.453700  1.0  0.106
  H  H28  1  0.291300  0.037500  0.383200  1.0  0.1064
  H  H29  1  0.487500  0.858300  0.013500  1.0  0.1222
  H  H30  1  0.499500  0.948300  0.108300  1.0  0.1284
  H  H31  1  0.688600  0.815600  0.163100  1.0  0.0936
  H  H32  1  0.746500  0.926600  0.116500  1.0  0.0825
  H  H33  1  0.712600  0.750300  0.990100  1.0  0.1112
  H  H34  1  0.627400  0.636400  0.025300  1.0  0.1121
  H  H35  1  0.466100  0.249900  0.159600  1.0  0.117
  H  H36  1  0.520500  0.394400  0.140500  1.0  0.1057
  H  H37  1  0.704700  0.307400  0.277200  1.0  0.0939
  H  H38  1  0.727500  0.276700  0.182700  1.0  0.0999
  H  H39  1  0.757800  0.558000  0.287100  1.0  0.1231
  H  H40  1  0.798900  0.519600  0.197900  1.0  0.1184
  C  C41  1  0.571800  0.183700  0.683300  1.0  0.7932
  C  C42  1  0.458300  0.048400  0.672200  1.0  -0.3088
  C  C43  1  0.533400  0.920900  0.672800  1.0  -0.0833
  C  C44  1  0.613000  0.891400  0.601000  1.0  -0.294
  C  C45  1  0.648600  0.745500  0.588800  1.0  0.7353
  C  C46  1  0.617700  0.257200  0.919800  1.0  0.7451
  C  C47  1  0.492500  0.143600  0.925600  1.0  -0.3533
  C  C48  1  0.325700  0.162400  0.892900  1.0  -0.0742
  C  C49  1  0.288900  0.280000  0.957500  1.0  -0.328
  C  C50  1  0.138500  0.322200  0.924900  1.0  0.7676
  C  C51  1  0.550000  0.578700  0.748900  1.0  0.742
  C  C52  1  0.474200  0.653000  0.813300  1.0  -0.3311
  C  C53  1  0.305100  0.657900  0.774500  1.0  -0.0763
  C  C54  1  0.199800  0.509200  0.749000  1.0  -0.3451
  C  C55  1  0.034200  0.501000  0.699800  1.0  0.7351
  C  C56  1  0.428200  0.816300  0.316700  1.0  0.79
  C  C57  1  0.541700  0.951600  0.327800  1.0  -0.3069
  C  C58  1  0.466600  0.079100  0.327200  1.0  -0.0831
  C  C59  1  0.387000  0.108600  0.399000  1.0  -0.2962
  C  C60  1  0.351400  0.254500  0.411200  1.0  0.7372
  C  C61  1  0.382300  0.742800  0.080200  1.0  0.7472
  C  C62  1  0.507500  0.856400  0.074400  1.0  -0.3538
  C  C63  1  0.674300  0.837600  0.107100  1.0  -0.074
  C  C64  1  0.711100  0.720000  0.042500  1.0  -0.3286
  C  C65  1  0.861500  0.677800  0.075100  1.0  0.7644
  C  C66  1  0.450000  0.421300  0.251100  1.0  0.7442
  C  C67  1  0.525800  0.347000  0.186700  1.0  -0.3276
  C  C68  1  0.694900  0.342100  0.225500  1.0  -0.0764
  C  C69  1  0.800200  0.490800  0.251000  1.0  -0.3461
  C  C70  1  0.965800  0.499000  0.300200  1.0  0.7342
  O  O71  1  0.698100  0.215300  0.742800  1.0  -0.7063
  O  O72  1  0.533200  0.258000  0.632500  1.0  -0.6572
  O  O73  1  0.762100  0.725300  0.642990  1.0  -0.6832
  O  O74  1  0.559500  0.642000  0.526720  1.0  -0.8342
  O  O75  1  0.758400  0.244000  0.943350  1.0  -0.7034
  O  O76  1  0.583300  0.357100  0.889800  1.0  -0.6444
  O  O77  1  0.108200  0.426900  0.975910  1.0  -0.8389
  O  O78  1  0.044600  0.260800  0.851260  1.0  -0.6373
  O  O79  1  0.681800  0.552100  0.777800  1.0  -0.7918
  O  O80  1  0.486000  0.547100  0.667730  1.0  -0.6475
  O  O81  1  0.924200  0.444500  0.725700  1.0  -0.7738
  O  O82  1  0.002100  0.541700  0.631850  1.0  -0.6552
  O  O83  1  0.301900  0.784700  0.257200  1.0  -0.7056
  O  O84  1  0.466800  0.742000  0.367500  1.0  -0.6569
  O  O85  1  0.237900  0.274700  0.357010  1.0  -0.6806
  O  O86  1  0.440500  0.358000  0.473280  1.0  -0.8352
  O  O87  1  0.241600  0.756000  0.056650  1.0  -0.7086
  O  O88  1  0.416700  0.642900  0.110200  1.0  -0.6471
  O  O89  1  0.891800  0.573100  0.024090  1.0  -0.8356
  O  O90  1  0.955400  0.739200  0.148740  1.0  -0.6393
  O  O91  1  0.318200  0.447900  0.222200  1.0  -0.793
  O  O92  1  0.514000  0.452900  0.332270  1.0  -0.6484
  O  O93  1  0.075800  0.555500  0.274300  1.0  -0.7735
  O  O94  1  0.997900  0.458300  0.368150  1.0  -0.6564
