# generated using pymatgen
data_MgH6(C3O)4
_symmetry_space_group_name_H-M   'P 1'
_cell_length_a   13.41910000
_cell_length_b   18.06690000
_cell_length_c   20.97460000
_cell_angle_alpha   90.00000000
_cell_angle_beta   99.65900000
_cell_angle_gamma   90.00000000
_symmetry_Int_Tables_number   1
_chemical_formula_structural   MgH6(C3O)4
_chemical_formula_sum   'Mg12 H72 C144 O48'
_cell_volume   5013.02660613
_cell_formula_units_Z   12
loop_
 _symmetry_equiv_pos_site_id
 _symmetry_equiv_pos_as_xyz
  1  'x, y, z'
loop_
 _atom_site_type_symbol
 _atom_site_label
 _atom_site_symmetry_multiplicity
 _atom_site_fract_x
 _atom_site_fract_y
 _atom_site_fract_z
 _atom_site_occupancy
 _atom_site_charge
  Mg  Mg1  1  0.740240  0.259000  0.691180  1.0  1.5529
  Mg  Mg2  1  0.240240  0.759000  0.691180  1.0  1.5529
  Mg  Mg3  1  0.259760  0.259000  0.808820  1.0  1.5487
  Mg  Mg4  1  0.759760  0.759000  0.808820  1.0  1.5487
  Mg  Mg5  1  0.259760  0.741000  0.308820  1.0  1.5485
  Mg  Mg6  1  0.759760  0.241000  0.308820  1.0  1.5485
  Mg  Mg7  1  0.740240  0.741000  0.191180  1.0  1.5531
  Mg  Mg8  1  0.240240  0.241000  0.191180  1.0  1.5531
  Mg  Mg9  1  0.500000  0.247540  0.750000  1.0  1.5538
  Mg  Mg10  1  0.000000  0.747540  0.750000  1.0  1.5538
  Mg  Mg11  1  0.500000  0.752460  0.250000  1.0  1.5545
  Mg  Mg12  1  0.000000  0.252460  0.250000  1.0  1.5545
  H  H13  1  0.373800  0.392300  0.594400  1.0  0.0775
  H  H14  1  0.658700  0.446700  0.577100  1.0  0.0927
  H  H15  1  0.311600  0.467200  0.509900  1.0  0.0932
  H  H16  1  0.439800  0.040800  0.648700  1.0  0.0956
  H  H17  1  0.621700  0.114500  0.528600  1.0  0.0943
  H  H18  1  0.381200  0.949000  0.578200  1.0  0.0959
  H  H19  1  0.856300  0.358700  0.894800  1.0  0.0991
  H  H20  1  0.883100  0.358100  0.005200  1.0  0.0694
  H  H21  1  0.648600  0.197600  0.890200  1.0  0.0871
  H  H22  1  0.873800  0.892300  0.594400  1.0  0.0775
  H  H23  1  0.158700  0.946700  0.577100  1.0  0.0927
  H  H24  1  0.811600  0.967200  0.509900  1.0  0.0932
  H  H25  1  0.939800  0.540800  0.648700  1.0  0.0956
  H  H26  1  0.121700  0.614500  0.528600  1.0  0.0943
  H  H27  1  0.881200  0.449000  0.578200  1.0  0.0959
  H  H28  1  0.356300  0.858700  0.894800  1.0  0.0991
  H  H29  1  0.383100  0.858100  0.005200  1.0  0.0694
  H  H30  1  0.148600  0.697600  0.890200  1.0  0.0871
  H  H31  1  0.626200  0.392300  0.905600  1.0  0.0772
  H  H32  1  0.341300  0.446700  0.922900  1.0  0.093
  H  H33  1  0.688400  0.467200  0.990100  1.0  0.0928
  H  H34  1  0.560200  0.040800  0.851300  1.0  0.0951
  H  H35  1  0.378300  0.114500  0.971400  1.0  0.0937
  H  H36  1  0.618800  0.949000  0.921800  1.0  0.0957
  H  H37  1  0.143700  0.358700  0.605200  1.0  0.0992
  H  H38  1  0.116900  0.358100  0.494800  1.0  0.0702
  H  H39  1  0.351400  0.197600  0.609800  1.0  0.087
  H  H40  1  0.126200  0.892300  0.905600  1.0  0.0772
  H  H41  1  0.841300  0.946700  0.922900  1.0  0.093
  H  H42  1  0.188400  0.967200  0.990100  1.0  0.0928
  H  H43  1  0.060200  0.540800  0.851300  1.0  0.0951
  H  H44  1  0.878300  0.614500  0.971400  1.0  0.0937
  H  H45  1  0.118800  0.449000  0.921800  1.0  0.0957
  H  H46  1  0.643700  0.858700  0.605200  1.0  0.0992
  H  H47  1  0.616900  0.858100  0.494800  1.0  0.0702
  H  H48  1  0.851400  0.697600  0.609800  1.0  0.087
  H  H49  1  0.626200  0.607700  0.405600  1.0  0.0771
  H  H50  1  0.341300  0.553300  0.422900  1.0  0.0936
  H  H51  1  0.688400  0.532800  0.490100  1.0  0.0932
  H  H52  1  0.560200  0.959200  0.351300  1.0  0.0954
  H  H53  1  0.378300  0.885500  0.471400  1.0  0.0943
  H  H54  1  0.618800  0.051000  0.421800  1.0  0.0955
  H  H55  1  0.143700  0.641300  0.105200  1.0  0.0991
  H  H56  1  0.116900  0.641900  0.994800  1.0  0.0701
  H  H57  1  0.351400  0.802400  0.109800  1.0  0.0869
  H  H58  1  0.126200  0.107700  0.405600  1.0  0.0771
  H  H59  1  0.841300  0.053300  0.422900  1.0  0.0936
  H  H60  1  0.188400  0.032800  0.490100  1.0  0.0932
  H  H61  1  0.060200  0.459200  0.351300  1.0  0.0954
  H  H62  1  0.878300  0.385500  0.471400  1.0  0.0943
  H  H63  1  0.118800  0.551000  0.421800  1.0  0.0955
  H  H64  1  0.643700  0.141300  0.105200  1.0  0.0991
  H  H65  1  0.616900  0.141900  0.994800  1.0  0.0701
  H  H66  1  0.851400  0.302400  0.109800  1.0  0.0869
  H  H67  1  0.373800  0.607700  0.094400  1.0  0.0774
  H  H68  1  0.658700  0.553300  0.077100  1.0  0.0929
  H  H69  1  0.311600  0.532800  0.009900  1.0  0.0933
  H  H70  1  0.439800  0.959200  0.148700  1.0  0.0958
  H  H71  1  0.621700  0.885500  0.028600  1.0  0.0944
  H  H72  1  0.381200  0.051000  0.078200  1.0  0.0964
  H  H73  1  0.856300  0.641300  0.394800  1.0  0.099
  H  H74  1  0.883100  0.641900  0.505200  1.0  0.0695
  H  H75  1  0.648600  0.802400  0.390200  1.0  0.0874
  H  H76  1  0.873800  0.107700  0.094400  1.0  0.0774
  H  H77  1  0.158700  0.053300  0.077100  1.0  0.0929
  H  H78  1  0.811600  0.032800  0.009900  1.0  0.0933
  H  H79  1  0.939800  0.459200  0.148700  1.0  0.0958
  H  H80  1  0.121700  0.385500  0.028600  1.0  0.0944
  H  H81  1  0.881200  0.551000  0.078200  1.0  0.0964
  H  H82  1  0.356300  0.141300  0.394800  1.0  0.099
  H  H83  1  0.383100  0.141900  0.505200  1.0  0.0695
  H  H84  1  0.148600  0.302400  0.390200  1.0  0.0874
  C  C85  1  0.563800  0.358660  0.649430  1.0  0.738
  C  C86  1  0.524500  0.411030  0.594490  1.0  -0.147
  C  C87  1  0.418300  0.418410  0.573280  1.0  -0.076
  C  C88  1  0.589300  0.450590  0.563210  1.0  -0.0808
  C  C89  1  0.552500  0.496840  0.510620  1.0  0.0258
  C  C90  1  0.381100  0.463000  0.522750  1.0  -0.1692
  C  C91  1  0.569000  0.153240  0.640060  1.0  0.7286
  C  C92  1  0.536700  0.088140  0.594820  1.0  -0.1541
  C  C93  1  0.463800  0.036900  0.609720  1.0  -0.0884
  C  C94  1  0.572800  0.081500  0.537840  1.0  -0.0818
  C  C95  1  0.536800  0.025100  0.492350  1.0  0.0198
  C  C96  1  0.428700  0.982300  0.567590  1.0  -0.1281
  C  C97  1  0.735900  0.275660  0.809730  1.0  0.699
  C  C98  1  0.748800  0.277040  0.882010  1.0  -0.1462
  C  C99  1  0.820600  0.326070  0.916820  1.0  -0.0815
  C  C100  1  0.837100  0.325070  0.982540  1.0  -0.1041
  C  C101  1  0.696500  0.228710  0.913700  1.0  -0.0648
  C  C102  1  0.785600  0.274720  0.017230  1.0  0.0273
  C  C103  1  0.063800  0.858660  0.649430  1.0  0.738
  C  C104  1  0.024500  0.911030  0.594490  1.0  -0.147
  C  C105  1  0.918300  0.918410  0.573280  1.0  -0.076
  C  C106  1  0.089300  0.950590  0.563210  1.0  -0.0808
  C  C107  1  0.052500  0.996840  0.510620  1.0  0.0258
  C  C108  1  0.881100  0.963000  0.522750  1.0  -0.1692
  C  C109  1  0.069000  0.653240  0.640060  1.0  0.7286
  C  C110  1  0.036700  0.588140  0.594820  1.0  -0.1541
  C  C111  1  0.963800  0.536900  0.609720  1.0  -0.0884
  C  C112  1  0.072800  0.581500  0.537840  1.0  -0.0818
  C  C113  1  0.036800  0.525100  0.492350  1.0  0.0198
  C  C114  1  0.928700  0.482300  0.567590  1.0  -0.1281
  C  C115  1  0.235900  0.775660  0.809730  1.0  0.699
  C  C116  1  0.248800  0.777040  0.882010  1.0  -0.1462
  C  C117  1  0.320600  0.826070  0.916820  1.0  -0.0815
  C  C118  1  0.337100  0.825070  0.982540  1.0  -0.1041
  C  C119  1  0.196500  0.728710  0.913700  1.0  -0.0648
  C  C120  1  0.285600  0.774720  0.017230  1.0  0.0273
  C  C121  1  0.436200  0.358660  0.850570  1.0  0.7372
  C  C122  1  0.475500  0.411030  0.905510  1.0  -0.147
  C  C123  1  0.581700  0.418410  0.926720  1.0  -0.0757
  C  C124  1  0.410700  0.450590  0.936790  1.0  -0.0821
  C  C125  1  0.447500  0.496840  0.989380  1.0  0.026
  C  C126  1  0.618900  0.463000  0.977250  1.0  -0.1669
  C  C127  1  0.431000  0.153240  0.859940  1.0  0.7266
  C  C128  1  0.463300  0.088140  0.905180  1.0  -0.1532
  C  C129  1  0.536200  0.036900  0.890280  1.0  -0.0862
  C  C130  1  0.427200  0.081500  0.962160  1.0  -0.0829
  C  C131  1  0.463200  0.025100  0.007650  1.0  0.0198
  C  C132  1  0.571300  0.982300  0.932410  1.0  -0.1309
  C  C133  1  0.264100  0.275660  0.690270  1.0  0.6999
  C  C134  1  0.251200  0.277040  0.617990  1.0  -0.1468
  C  C135  1  0.179400  0.326070  0.583180  1.0  -0.0795
  C  C136  1  0.162900  0.325070  0.517460  1.0  -0.1038
  C  C137  1  0.303500  0.228710  0.586300  1.0  -0.063
  C  C138  1  0.214400  0.274720  0.482770  1.0  0.0275
  C  C139  1  0.936200  0.858660  0.850570  1.0  0.7372
  C  C140  1  0.975500  0.911030  0.905510  1.0  -0.147
  C  C141  1  0.081700  0.918410  0.926720  1.0  -0.0757
  C  C142  1  0.910700  0.950590  0.936790  1.0  -0.0821
  C  C143  1  0.947500  0.996840  0.989380  1.0  0.026
  C  C144  1  0.118900  0.963000  0.977250  1.0  -0.1669
  C  C145  1  0.931000  0.653240  0.859940  1.0  0.7266
  C  C146  1  0.963300  0.588140  0.905180  1.0  -0.1532
  C  C147  1  0.036200  0.536900  0.890280  1.0  -0.0862
  C  C148  1  0.927200  0.581500  0.962160  1.0  -0.0829
  C  C149  1  0.963200  0.525100  0.007650  1.0  0.0198
  C  C150  1  0.071300  0.482300  0.932410  1.0  -0.1309
  C  C151  1  0.764100  0.775660  0.690270  1.0  0.6999
  C  C152  1  0.751200  0.777040  0.617990  1.0  -0.1468
  C  C153  1  0.679400  0.826070  0.583180  1.0  -0.0795
  C  C154  1  0.662900  0.825070  0.517460  1.0  -0.1038
  C  C155  1  0.803500  0.728710  0.586300  1.0  -0.063
  C  C156  1  0.714400  0.774720  0.482770  1.0  0.0275
  C  C157  1  0.436200  0.641340  0.350570  1.0  0.7364
  C  C158  1  0.475500  0.588970  0.405510  1.0  -0.1454
  C  C159  1  0.581700  0.581590  0.426720  1.0  -0.0716
  C  C160  1  0.410700  0.549410  0.436790  1.0  -0.0816
  C  C161  1  0.447500  0.503160  0.489380  1.0  0.0257
  C  C162  1  0.618900  0.537000  0.477250  1.0  -0.1609
  C  C163  1  0.431000  0.846760  0.359940  1.0  0.7261
  C  C164  1  0.463300  0.911860  0.405180  1.0  -0.1536
  C  C165  1  0.536200  0.963100  0.390280  1.0  -0.0859
  C  C166  1  0.427200  0.918500  0.462160  1.0  -0.0822
  C  C167  1  0.463200  0.974900  0.507650  1.0  0.0193
  C  C168  1  0.571300  0.017700  0.432410  1.0  -0.1252
  C  C169  1  0.264100  0.724340  0.190270  1.0  0.7001
  C  C170  1  0.251200  0.722960  0.117990  1.0  -0.1467
  C  C171  1  0.179400  0.673930  0.083180  1.0  -0.0791
  C  C172  1  0.162900  0.674930  0.017460  1.0  -0.1032
  C  C173  1  0.303500  0.771290  0.086300  1.0  -0.0652
  C  C174  1  0.214400  0.725280  0.982770  1.0  0.0275
  C  C175  1  0.936200  0.141340  0.350570  1.0  0.7364
  C  C176  1  0.975500  0.088970  0.405510  1.0  -0.1454
  C  C177  1  0.081700  0.081590  0.426720  1.0  -0.0716
  C  C178  1  0.910700  0.049410  0.436790  1.0  -0.0816
  C  C179  1  0.947500  0.003160  0.489380  1.0  0.0257
  C  C180  1  0.118900  0.037000  0.477250  1.0  -0.1609
  C  C181  1  0.931000  0.346760  0.359940  1.0  0.7261
  C  C182  1  0.963300  0.411860  0.405180  1.0  -0.1536
  C  C183  1  0.036200  0.463100  0.390280  1.0  -0.0859
  C  C184  1  0.927200  0.418500  0.462160  1.0  -0.0822
  C  C185  1  0.963200  0.474900  0.507650  1.0  0.0193
  C  C186  1  0.071300  0.517700  0.432410  1.0  -0.1252
  C  C187  1  0.764100  0.224340  0.190270  1.0  0.7001
  C  C188  1  0.751200  0.222960  0.117990  1.0  -0.1467
  C  C189  1  0.679400  0.173930  0.083180  1.0  -0.0791
  C  C190  1  0.662900  0.174930  0.017460  1.0  -0.1032
  C  C191  1  0.803500  0.271290  0.086300  1.0  -0.0652
  C  C192  1  0.714400  0.225280  0.982770  1.0  0.0275
  C  C193  1  0.563800  0.641340  0.149430  1.0  0.7377
  C  C194  1  0.524500  0.588970  0.094490  1.0  -0.1463
  C  C195  1  0.418300  0.581590  0.073280  1.0  -0.0712
  C  C196  1  0.589300  0.549410  0.063210  1.0  -0.0802
  C  C197  1  0.552500  0.503160  0.010620  1.0  0.0256
  C  C198  1  0.381100  0.537000  0.022750  1.0  -0.1626
  C  C199  1  0.569000  0.846760  0.140060  1.0  0.7284
  C  C200  1  0.536700  0.911860  0.094820  1.0  -0.1537
  C  C201  1  0.463800  0.963100  0.109720  1.0  -0.087
  C  C202  1  0.572800  0.918500  0.037840  1.0  -0.0807
  C  C203  1  0.536800  0.974900  0.992350  1.0  0.0193
  C  C204  1  0.428700  0.017700  0.067590  1.0  -0.124
  C  C205  1  0.735900  0.724340  0.309730  1.0  0.699
  C  C206  1  0.748800  0.722960  0.382010  1.0  -0.1469
  C  C207  1  0.820600  0.673930  0.416820  1.0  -0.0807
  C  C208  1  0.837100  0.674930  0.482540  1.0  -0.1035
  C  C209  1  0.696500  0.771290  0.413700  1.0  -0.0675
  C  C210  1  0.785600  0.725280  0.517230  1.0  0.0273
  C  C211  1  0.063800  0.141340  0.149430  1.0  0.7377
  C  C212  1  0.024500  0.088970  0.094490  1.0  -0.1463
  C  C213  1  0.918300  0.081590  0.073280  1.0  -0.0712
  C  C214  1  0.089300  0.049410  0.063210  1.0  -0.0802
  C  C215  1  0.052500  0.003160  0.010620  1.0  0.0256
  C  C216  1  0.881100  0.037000  0.022750  1.0  -0.1626
  C  C217  1  0.069000  0.346760  0.140060  1.0  0.7284
  C  C218  1  0.036700  0.411860  0.094820  1.0  -0.1537
  C  C219  1  0.963800  0.463100  0.109720  1.0  -0.087
  C  C220  1  0.072800  0.418500  0.037840  1.0  -0.0807
  C  C221  1  0.036800  0.474900  0.992350  1.0  0.0193
  C  C222  1  0.928700  0.517700  0.067590  1.0  -0.124
  C  C223  1  0.235900  0.224340  0.309730  1.0  0.699
  C  C224  1  0.248800  0.222960  0.382010  1.0  -0.1469
  C  C225  1  0.320600  0.173930  0.416820  1.0  -0.0807
  C  C226  1  0.337100  0.174930  0.482540  1.0  -0.1035
  C  C227  1  0.196500  0.271290  0.413700  1.0  -0.0675
  C  C228  1  0.285600  0.225280  0.517230  1.0  0.0273
  O  O229  1  0.502510  0.328820  0.678680  1.0  -0.6385
  O  O230  1  0.658040  0.348200  0.658790  1.0  -0.73
  O  O231  1  0.517200  0.163790  0.683390  1.0  -0.6407
  O  O232  1  0.642600  0.189880  0.630150  1.0  -0.6787
  O  O233  1  0.804830  0.302590  0.782780  1.0  -0.6476
  O  O234  1  0.660020  0.244920  0.776700  1.0  -0.7224
  O  O235  1  0.002510  0.828820  0.678680  1.0  -0.6385
  O  O236  1  0.158040  0.848200  0.658790  1.0  -0.73
  O  O237  1  0.017200  0.663790  0.683390  1.0  -0.6407
  O  O238  1  0.142600  0.689880  0.630150  1.0  -0.6787
  O  O239  1  0.304830  0.802590  0.782780  1.0  -0.6476
  O  O240  1  0.160020  0.744920  0.776700  1.0  -0.7224
  O  O241  1  0.497490  0.328820  0.821320  1.0  -0.6377
  O  O242  1  0.341960  0.348200  0.841210  1.0  -0.7337
  O  O243  1  0.482800  0.163790  0.816610  1.0  -0.637
  O  O244  1  0.357400  0.189880  0.869850  1.0  -0.682
  O  O245  1  0.195170  0.302590  0.717220  1.0  -0.6471
  O  O246  1  0.339980  0.244920  0.723300  1.0  -0.7217
  O  O247  1  0.997490  0.828820  0.821320  1.0  -0.6377
  O  O248  1  0.841960  0.848200  0.841210  1.0  -0.7337
  O  O249  1  0.982800  0.663790  0.816610  1.0  -0.637
  O  O250  1  0.857400  0.689880  0.869850  1.0  -0.682
  O  O251  1  0.695170  0.802590  0.717220  1.0  -0.6471
  O  O252  1  0.839980  0.744920  0.723300  1.0  -0.7217
  O  O253  1  0.497490  0.671180  0.321320  1.0  -0.6368
  O  O254  1  0.341960  0.651800  0.341210  1.0  -0.7331
  O  O255  1  0.482800  0.836210  0.316610  1.0  -0.6378
  O  O256  1  0.357400  0.810120  0.369850  1.0  -0.6813
  O  O257  1  0.195170  0.697410  0.217220  1.0  -0.6486
  O  O258  1  0.339980  0.755080  0.223300  1.0  -0.7236
  O  O259  1  0.997490  0.171180  0.321320  1.0  -0.6368
  O  O260  1  0.841960  0.151800  0.341210  1.0  -0.7331
  O  O261  1  0.982800  0.336210  0.316610  1.0  -0.6378
  O  O262  1  0.857400  0.310120  0.369850  1.0  -0.6813
  O  O263  1  0.695170  0.197410  0.217220  1.0  -0.6486
  O  O264  1  0.839980  0.255080  0.223300  1.0  -0.7236
  O  O265  1  0.502510  0.671180  0.178680  1.0  -0.6372
  O  O266  1  0.658040  0.651800  0.158790  1.0  -0.7297
  O  O267  1  0.517200  0.836210  0.183390  1.0  -0.6418
  O  O268  1  0.642600  0.810120  0.130150  1.0  -0.6782
  O  O269  1  0.804830  0.697410  0.282780  1.0  -0.6471
  O  O270  1  0.660020  0.755080  0.276700  1.0  -0.7229
  O  O271  1  0.002510  0.171180  0.178680  1.0  -0.6372
  O  O272  1  0.158040  0.151800  0.158790  1.0  -0.7297
  O  O273  1  0.017200  0.336210  0.183390  1.0  -0.6418
  O  O274  1  0.142600  0.310120  0.130150  1.0  -0.6782
  O  O275  1  0.304830  0.197410  0.282780  1.0  -0.6471
  O  O276  1  0.160020  0.255080  0.276700  1.0  -0.7229
