# generated using pymatgen
data_NiH6C10(NO2)2
_symmetry_space_group_name_H-M   'P 1'
_cell_length_a   20.39500000
_cell_length_b   6.94100000
_cell_length_c   20.07000000
_cell_angle_alpha   90.00000000
_cell_angle_beta   119.18000000
_cell_angle_gamma   90.00000000
_symmetry_Int_Tables_number   1
_chemical_formula_structural   NiH6C10(NO2)2
_chemical_formula_sum   'Ni6 H36 C60 N12 O24'
_cell_volume   2480.58032204
_cell_formula_units_Z   6
loop_
 _symmetry_equiv_pos_site_id
 _symmetry_equiv_pos_as_xyz
  1  'x, y, z'
loop_
 _atom_site_type_symbol
 _atom_site_label
 _atom_site_symmetry_multiplicity
 _atom_site_fract_x
 _atom_site_fract_y
 _atom_site_fract_z
 _atom_site_occupancy
 _atom_site_charge
  Ni  Ni1  1  0.420710  0.510440  0.130410  1.0  0.8695
  Ni  Ni2  1  0.579290  0.510440  0.369590  1.0  0.8682
  Ni  Ni3  1  0.579290  0.489560  0.869590  1.0  0.8682
  Ni  Ni4  1  0.420710  0.489560  0.630410  1.0  0.8693
  Ni  Ni5  1  0.000000  0.402300  0.250000  1.0  0.5982
  Ni  Ni6  1  0.000000  0.597700  0.750000  1.0  0.5985
  H  H7  1  0.431000  0.500900  0.406200  1.0  0.116
  H  H8  1  0.225500  0.455700  0.385000  1.0  0.1042
  H  H9  1  0.247600  0.476700  0.195100  1.0  0.115
  H  H10  1  0.523700  0.174400  0.149700  1.0  0.0919
  H  H11  1  0.525200  0.850600  0.151100  1.0  0.0939
  H  H12  1  0.320900  0.849000  0.123400  1.0  0.101
  H  H13  1  0.319900  0.171500  0.120700  1.0  0.0934
  H  H14  1  0.095000  0.068300  0.349300  1.0  0.1178
  H  H15  1  0.093600  0.735100  0.346800  1.0  0.0811
  H  H16  1  0.569000  0.500900  0.093800  1.0  0.1158
  H  H17  1  0.774500  0.455700  0.115000  1.0  0.1053
  H  H18  1  0.752400  0.476700  0.304900  1.0  0.1148
  H  H19  1  0.476300  0.174400  0.350300  1.0  0.0923
  H  H20  1  0.474800  0.850600  0.348900  1.0  0.0941
  H  H21  1  0.679100  0.849000  0.376600  1.0  0.1006
  H  H22  1  0.680100  0.171500  0.379300  1.0  0.093
  H  H23  1  0.905000  0.068300  0.150700  1.0  0.117
  H  H24  1  0.906400  0.735100  0.153200  1.0  0.0813
  H  H25  1  0.569000  0.499100  0.593800  1.0  0.1155
  H  H26  1  0.774500  0.544300  0.615000  1.0  0.105
  H  H27  1  0.752400  0.523300  0.804900  1.0  0.1149
  H  H28  1  0.476300  0.825600  0.850300  1.0  0.0926
  H  H29  1  0.474800  0.149400  0.848900  1.0  0.0938
  H  H30  1  0.679100  0.151000  0.876600  1.0  0.1008
  H  H31  1  0.680100  0.828500  0.879300  1.0  0.093
  H  H32  1  0.905000  0.931700  0.650700  1.0  0.118
  H  H33  1  0.906400  0.264900  0.653200  1.0  0.0812
  H  H34  1  0.431000  0.499100  0.906200  1.0  0.1161
  H  H35  1  0.225500  0.544300  0.885000  1.0  0.104
  H  H36  1  0.247600  0.523300  0.695100  1.0  0.1149
  H  H37  1  0.523700  0.825600  0.649700  1.0  0.092
  H  H38  1  0.525200  0.149400  0.651100  1.0  0.0934
  H  H39  1  0.320900  0.151000  0.623400  1.0  0.101
  H  H40  1  0.319900  0.828500  0.620700  1.0  0.0935
  H  H41  1  0.095000  0.931700  0.849300  1.0  0.1173
  H  H42  1  0.093600  0.264900  0.846800  1.0  0.0812
  C  C43  1  0.364800  0.484800  0.491200  1.0  0.6122
  C  C44  1  0.331400  0.482500  0.405100  1.0  -0.1282
  C  C45  1  0.378100  0.493200  0.374300  1.0  -0.0905
  C  C46  1  0.255900  0.465000  0.361300  1.0  -0.0164
  C  C47  1  0.397200  0.505300  0.261300  1.0  0.6594
  C  C48  1  0.346600  0.492700  0.295100  1.0  -0.1667
  C  C49  1  0.268700  0.476600  0.249100  1.0  -0.0057
  C  C50  1  0.221700  0.460300  0.281000  1.0  -0.1607
  C  C51  1  0.139200  0.439600  0.237300  1.0  0.7153
  C  C52  1  0.479900  0.107800  0.142100  1.0  0.1533
  C  C53  1  0.480700  0.914500  0.142900  1.0  0.1449
  C  C54  1  0.363500  0.913600  0.126800  1.0  0.1453
  C  C55  1  0.363100  0.106500  0.125700  1.0  0.1568
  C  C56  1  0.055400  0.002100  0.307700  1.0  0.1043
  C  C57  1  0.053600  0.801200  0.305600  1.0  0.141
  C  C58  1  0.635200  0.484800  0.008800  1.0  0.6126
  C  C59  1  0.668600  0.482500  0.094900  1.0  -0.128
  C  C60  1  0.621900  0.493200  0.125700  1.0  -0.0897
  C  C61  1  0.744100  0.465000  0.138700  1.0  -0.0161
  C  C62  1  0.602800  0.505300  0.238700  1.0  0.6602
  C  C63  1  0.653400  0.492700  0.204900  1.0  -0.1676
  C  C64  1  0.731300  0.476600  0.250900  1.0  -0.0068
  C  C65  1  0.778300  0.460300  0.219000  1.0  -0.1606
  C  C66  1  0.860800  0.439600  0.262700  1.0  0.7172
  C  C67  1  0.520100  0.107800  0.357900  1.0  0.1529
  C  C68  1  0.519300  0.914500  0.357100  1.0  0.145
  C  C69  1  0.636500  0.913600  0.373200  1.0  0.1459
  C  C70  1  0.636900  0.106500  0.374300  1.0  0.1597
  C  C71  1  0.944600  0.002100  0.192300  1.0  0.1046
  C  C72  1  0.946400  0.801200  0.194400  1.0  0.1443
  C  C73  1  0.635200  0.515200  0.508800  1.0  0.6126
  C  C74  1  0.668600  0.517500  0.594900  1.0  -0.1279
  C  C75  1  0.621900  0.506800  0.625700  1.0  -0.0899
  C  C76  1  0.744100  0.535000  0.638700  1.0  -0.0158
  C  C77  1  0.602800  0.494700  0.738700  1.0  0.6601
  C  C78  1  0.653400  0.507300  0.704900  1.0  -0.1677
  C  C79  1  0.731300  0.523400  0.750900  1.0  -0.0068
  C  C80  1  0.778300  0.539700  0.719000  1.0  -0.1605
  C  C81  1  0.860800  0.560400  0.762700  1.0  0.7167
  C  C82  1  0.520100  0.892200  0.857900  1.0  0.1529
  C  C83  1  0.519300  0.085500  0.857100  1.0  0.1451
  C  C84  1  0.636500  0.086400  0.873200  1.0  0.1464
  C  C85  1  0.636900  0.893500  0.874300  1.0  0.1584
  C  C86  1  0.944600  0.997900  0.692300  1.0  0.1045
  C  C87  1  0.946400  0.198800  0.694400  1.0  0.142
  C  C88  1  0.364800  0.515200  0.991200  1.0  0.6121
  C  C89  1  0.331400  0.517500  0.905100  1.0  -0.1282
  C  C90  1  0.378100  0.506800  0.874300  1.0  -0.0906
  C  C91  1  0.255900  0.535000  0.861300  1.0  -0.0162
  C  C92  1  0.397200  0.494700  0.761300  1.0  0.6593
  C  C93  1  0.346600  0.507300  0.795100  1.0  -0.1667
  C  C94  1  0.268700  0.523400  0.749100  1.0  -0.0057
  C  C95  1  0.221700  0.539700  0.781000  1.0  -0.1606
  C  C96  1  0.139200  0.560400  0.737300  1.0  0.7152
  C  C97  1  0.479900  0.892200  0.642100  1.0  0.1527
  C  C98  1  0.480700  0.085500  0.642900  1.0  0.1455
  C  C99  1  0.363500  0.086400  0.626800  1.0  0.1454
  C  C100  1  0.363100  0.893500  0.625700  1.0  0.1565
  C  C101  1  0.055400  0.997900  0.807700  1.0  0.1047
  C  C102  1  0.053600  0.198800  0.805600  1.0  0.1443
  N  N103  1  0.419600  0.211200  0.131100  1.0  -0.2888
  N  N104  1  0.421100  0.805900  0.132400  1.0  -0.3156
  N  N105  1  0.580400  0.211200  0.368900  1.0  -0.2889
  N  N106  1  0.578900  0.805900  0.367600  1.0  -0.316
  N  N107  1  0.580400  0.788800  0.868900  1.0  -0.2912
  N  N108  1  0.578900  0.194100  0.867600  1.0  -0.3162
  N  N109  1  0.419600  0.788800  0.631100  1.0  -0.2905
  N  N110  1  0.421100  0.194100  0.632400  1.0  -0.3155
  N  N111  1  0.000000  0.100200  0.250000  1.0  -0.3191
  N  N112  1  0.000000  0.692900  0.250000  1.0  -0.3166
  N  N113  1  0.000000  0.899800  0.750000  1.0  -0.3199
  N  N114  1  0.000000  0.307100  0.750000  1.0  -0.3169
  O  O115  1  0.434000  0.488800  0.532900  1.0  -0.5708
  O  O116  1  0.321800  0.484200  0.521100  1.0  -0.5978
  O  O117  1  0.364600  0.506700  0.188200  1.0  -0.5922
  O  O118  1  0.465200  0.511400  0.303500  1.0  -0.5993
  O  O119  1  0.106900  0.404000  0.275300  1.0  -0.594
  O  O120  1  0.105400  0.457700  0.165700  1.0  -0.4753
  O  O121  1  0.566000  0.488800  0.967100  1.0  -0.5713
  O  O122  1  0.678200  0.484200  0.978900  1.0  -0.5972
  O  O123  1  0.635400  0.506700  0.311800  1.0  -0.5918
  O  O124  1  0.534800  0.511400  0.196500  1.0  -0.599
  O  O125  1  0.893100  0.404000  0.224700  1.0  -0.5934
  O  O126  1  0.894600  0.457700  0.334300  1.0  -0.4724
  O  O127  1  0.566000  0.511200  0.467100  1.0  -0.5716
  O  O128  1  0.678200  0.515800  0.478900  1.0  -0.5972
  O  O129  1  0.635400  0.493300  0.811800  1.0  -0.5921
  O  O130  1  0.534800  0.488600  0.696500  1.0  -0.5988
  O  O131  1  0.893100  0.596000  0.724700  1.0  -0.5931
  O  O132  1  0.894600  0.542300  0.834300  1.0  -0.4722
  O  O133  1  0.434000  0.511200  0.032900  1.0  -0.571
  O  O134  1  0.321800  0.515800  0.021100  1.0  -0.5977
  O  O135  1  0.364600  0.493300  0.688200  1.0  -0.5922
  O  O136  1  0.465200  0.488600  0.803500  1.0  -0.5992
  O  O137  1  0.106900  0.596000  0.775300  1.0  -0.5941
  O  O138  1  0.105400  0.542300  0.665700  1.0  -0.4753
