# generated using pymatgen
data_ZnH8C16NO4
_symmetry_space_group_name_H-M   'P 1'
_cell_length_a   21.98280000
_cell_length_b   29.98500000
_cell_length_c   10.41460000
_cell_angle_alpha   90.00000000
_cell_angle_beta   90.00000000
_cell_angle_gamma   90.00000000
_symmetry_Int_Tables_number   1
_chemical_formula_structural   ZnH8C16NO4
_chemical_formula_sum   'Zn8 H64 C128 N8 O32'
_cell_volume   6864.82793537
_cell_formula_units_Z   8
loop_
 _symmetry_equiv_pos_site_id
 _symmetry_equiv_pos_as_xyz
  1  'x, y, z'
loop_
 _atom_site_type_symbol
 _atom_site_label
 _atom_site_symmetry_multiplicity
 _atom_site_fract_x
 _atom_site_fract_y
 _atom_site_fract_z
 _atom_site_occupancy
 _atom_site_charge
  Zn  Zn1  1  0.500000  0.484080  0.133900  1.0  1.1434
  Zn  Zn2  1  0.000000  0.984080  0.633900  1.0  1.1434
  Zn  Zn3  1  0.500000  0.015920  0.133900  1.0  1.1445
  Zn  Zn4  1  0.000000  0.515920  0.633900  1.0  1.1445
  Zn  Zn5  1  0.500000  0.984080  0.866100  1.0  1.1439
  Zn  Zn6  1  0.000000  0.484080  0.366100  1.0  1.1439
  Zn  Zn7  1  0.500000  0.515920  0.866100  1.0  1.1439
  Zn  Zn8  1  0.000000  0.015920  0.366100  1.0  1.1439
  H  H9  1  0.367300  0.578500  0.281300  1.0  0.1202
  H  H10  1  0.308000  0.638400  0.342100  1.0  0.1258
  H  H11  1  0.380600  0.629100  0.927000  1.0  0.1206
  H  H12  1  0.324700  0.690500  0.991000  1.0  0.1249
  H  H13  1  0.867300  0.078500  0.781300  1.0  0.1202
  H  H14  1  0.808000  0.138400  0.842100  1.0  0.1258
  H  H15  1  0.880600  0.129100  0.427000  1.0  0.1206
  H  H16  1  0.824700  0.190500  0.491000  1.0  0.1249
  H  H17  1  0.632700  0.921500  0.281300  1.0  0.1201
  H  H18  1  0.692000  0.861600  0.342100  1.0  0.1261
  H  H19  1  0.619400  0.870900  0.927000  1.0  0.1208
  H  H20  1  0.675300  0.809500  0.991000  1.0  0.1245
  H  H21  1  0.132700  0.421500  0.781300  1.0  0.1201
  H  H22  1  0.192000  0.361600  0.842100  1.0  0.1261
  H  H23  1  0.119400  0.370900  0.427000  1.0  0.1208
  H  H24  1  0.175300  0.309500  0.491000  1.0  0.1245
  H  H25  1  0.632700  0.078500  0.718700  1.0  0.1196
  H  H26  1  0.692000  0.138400  0.657900  1.0  0.1262
  H  H27  1  0.619400  0.129100  0.073000  1.0  0.1206
  H  H28  1  0.675300  0.190500  0.009000  1.0  0.1243
  H  H29  1  0.132700  0.578500  0.218700  1.0  0.1196
  H  H30  1  0.192000  0.638400  0.157900  1.0  0.1262
  H  H31  1  0.119400  0.629100  0.573000  1.0  0.1206
  H  H32  1  0.175300  0.690500  0.509000  1.0  0.1243
  H  H33  1  0.367300  0.421500  0.718700  1.0  0.1201
  H  H34  1  0.308000  0.361600  0.657900  1.0  0.1265
  H  H35  1  0.380600  0.370900  0.073000  1.0  0.1209
  H  H36  1  0.324700  0.309500  0.009000  1.0  0.1244
  H  H37  1  0.867300  0.921500  0.218700  1.0  0.1201
  H  H38  1  0.808000  0.861600  0.157900  1.0  0.1265
  H  H39  1  0.880600  0.870900  0.573000  1.0  0.1209
  H  H40  1  0.824700  0.809500  0.509000  1.0  0.1244
  H  H41  1  0.632700  0.421500  0.718700  1.0  0.1198
  H  H42  1  0.692000  0.361600  0.657900  1.0  0.1262
  H  H43  1  0.619400  0.370900  0.073000  1.0  0.1209
  H  H44  1  0.675300  0.309500  0.009000  1.0  0.1246
  H  H45  1  0.132700  0.921500  0.218700  1.0  0.1198
  H  H46  1  0.192000  0.861600  0.157900  1.0  0.1262
  H  H47  1  0.119400  0.870900  0.573000  1.0  0.1209
  H  H48  1  0.175300  0.809500  0.509000  1.0  0.1246
  H  H49  1  0.367300  0.078500  0.718700  1.0  0.1196
  H  H50  1  0.308000  0.138400  0.657900  1.0  0.1264
  H  H51  1  0.380600  0.129100  0.073000  1.0  0.1206
  H  H52  1  0.324700  0.190500  0.009000  1.0  0.124
  H  H53  1  0.867300  0.578500  0.218700  1.0  0.1196
  H  H54  1  0.808000  0.638400  0.157900  1.0  0.1264
  H  H55  1  0.880600  0.629100  0.573000  1.0  0.1206
  H  H56  1  0.824700  0.690500  0.509000  1.0  0.124
  H  H57  1  0.367300  0.921500  0.281300  1.0  0.1204
  H  H58  1  0.308000  0.861600  0.342100  1.0  0.1259
  H  H59  1  0.380600  0.870900  0.927000  1.0  0.1209
  H  H60  1  0.324700  0.809500  0.991000  1.0  0.1243
  H  H61  1  0.867300  0.421500  0.781300  1.0  0.1204
  H  H62  1  0.808000  0.361600  0.842100  1.0  0.1259
  H  H63  1  0.880600  0.370900  0.427000  1.0  0.1209
  H  H64  1  0.824700  0.309500  0.491000  1.0  0.1243
  H  H65  1  0.632700  0.578500  0.281300  1.0  0.1201
  H  H66  1  0.692000  0.638400  0.342100  1.0  0.1263
  H  H67  1  0.619400  0.629100  0.927000  1.0  0.1206
  H  H68  1  0.675300  0.690500  0.991000  1.0  0.125
  H  H69  1  0.132700  0.078500  0.781300  1.0  0.1201
  H  H70  1  0.192000  0.138400  0.842100  1.0  0.1263
  H  H71  1  0.119400  0.129100  0.427000  1.0  0.1206
  H  H72  1  0.175300  0.190500  0.491000  1.0  0.125
  C  C73  1  0.420870  0.559300  0.060300  1.0  0.7507
  C  C74  1  0.380620  0.597770  0.098100  1.0  -0.1265
  C  C75  1  0.358450  0.600860  0.222200  1.0  -0.0393
  C  C76  1  0.323210  0.636930  0.258900  1.0  -0.1168
  C  C77  1  0.310440  0.670790  0.173100  1.0  -0.0228
  C  C78  1  0.366870  0.631140  0.011300  1.0  -0.0415
  C  C79  1  0.332710  0.667730  0.049400  1.0  -0.0922
  C  C80  1  0.276680  0.711420  0.213400  1.0  0.0554
  C  C81  1  0.920870  0.059300  0.560300  1.0  0.7507
  C  C82  1  0.880620  0.097770  0.598100  1.0  -0.1265
  C  C83  1  0.858450  0.100860  0.722200  1.0  -0.0393
  C  C84  1  0.823210  0.136930  0.758900  1.0  -0.1168
  C  C85  1  0.810440  0.170790  0.673100  1.0  -0.0228
  C  C86  1  0.866870  0.131140  0.511300  1.0  -0.0415
  C  C87  1  0.832710  0.167730  0.549400  1.0  -0.0922
  C  C88  1  0.776680  0.211420  0.713400  1.0  0.0554
  C  C89  1  0.579130  0.940700  0.060300  1.0  0.751
  C  C90  1  0.619380  0.902230  0.098100  1.0  -0.1256
  C  C91  1  0.641550  0.899140  0.222200  1.0  -0.0422
  C  C92  1  0.676790  0.863070  0.258900  1.0  -0.1151
  C  C93  1  0.689560  0.829210  0.173100  1.0  -0.0221
  C  C94  1  0.633130  0.868860  0.011300  1.0  -0.0391
  C  C95  1  0.667290  0.832270  0.049400  1.0  -0.0925
  C  C96  1  0.723320  0.788580  0.213400  1.0  0.0549
  C  C97  1  0.079130  0.440700  0.560300  1.0  0.751
  C  C98  1  0.119380  0.402230  0.598100  1.0  -0.1256
  C  C99  1  0.141550  0.399140  0.722200  1.0  -0.0422
  C  C100  1  0.176790  0.363070  0.758900  1.0  -0.1151
  C  C101  1  0.189560  0.329210  0.673100  1.0  -0.0221
  C  C102  1  0.133130  0.368860  0.511300  1.0  -0.0391
  C  C103  1  0.167290  0.332270  0.549400  1.0  -0.0925
  C  C104  1  0.223320  0.288580  0.713400  1.0  0.0546
  C  C105  1  0.579130  0.059300  0.939700  1.0  0.751
  C  C106  1  0.619380  0.097770  0.901900  1.0  -0.1265
  C  C107  1  0.641550  0.100860  0.777800  1.0  -0.0409
  C  C108  1  0.676790  0.136930  0.741100  1.0  -0.1164
  C  C109  1  0.689560  0.170790  0.826900  1.0  -0.0219
  C  C110  1  0.633130  0.131140  0.988700  1.0  -0.0403
  C  C111  1  0.667290  0.167730  0.950600  1.0  -0.0921
  C  C112  1  0.723320  0.211420  0.786600  1.0  0.055
  C  C113  1  0.079130  0.559300  0.439700  1.0  0.751
  C  C114  1  0.119380  0.597770  0.401900  1.0  -0.1265
  C  C115  1  0.141550  0.600860  0.277800  1.0  -0.0409
  C  C116  1  0.176790  0.636930  0.241100  1.0  -0.1164
  C  C117  1  0.189560  0.670790  0.326900  1.0  -0.0219
  C  C118  1  0.133130  0.631140  0.488700  1.0  -0.0403
  C  C119  1  0.167290  0.667730  0.450600  1.0  -0.0921
  C  C120  1  0.223320  0.711420  0.286600  1.0  0.055
  C  C121  1  0.420870  0.440700  0.939700  1.0  0.7509
  C  C122  1  0.380620  0.402230  0.901900  1.0  -0.1252
  C  C123  1  0.358450  0.399140  0.777800  1.0  -0.0425
  C  C124  1  0.323210  0.363070  0.741100  1.0  -0.1175
  C  C125  1  0.310440  0.329210  0.826900  1.0  -0.0226
  C  C126  1  0.366870  0.368860  0.988700  1.0  -0.0394
  C  C127  1  0.332710  0.332270  0.950600  1.0  -0.092
  C  C128  1  0.276680  0.288580  0.786600  1.0  0.055
  C  C129  1  0.920870  0.940700  0.439700  1.0  0.7509
  C  C130  1  0.880620  0.902230  0.401900  1.0  -0.1252
  C  C131  1  0.858450  0.899140  0.277800  1.0  -0.0425
  C  C132  1  0.823210  0.863070  0.241100  1.0  -0.1175
  C  C133  1  0.810440  0.829210  0.326900  1.0  -0.0226
  C  C134  1  0.866870  0.868860  0.488700  1.0  -0.0394
  C  C135  1  0.832710  0.832270  0.450600  1.0  -0.092
  C  C136  1  0.776680  0.788580  0.286600  1.0  0.055
  C  C137  1  0.579130  0.440700  0.939700  1.0  0.7509
  C  C138  1  0.619380  0.402230  0.901900  1.0  -0.1259
  C  C139  1  0.641550  0.399140  0.777800  1.0  -0.0426
  C  C140  1  0.676790  0.363070  0.741100  1.0  -0.1163
  C  C141  1  0.689560  0.329210  0.826900  1.0  -0.0219
  C  C142  1  0.633130  0.368860  0.988700  1.0  -0.0398
  C  C143  1  0.667290  0.332270  0.950600  1.0  -0.0912
  C  C144  1  0.723320  0.288580  0.786600  1.0  0.0557
  C  C145  1  0.079130  0.940700  0.439700  1.0  0.7509
  C  C146  1  0.119380  0.902230  0.401900  1.0  -0.1259
  C  C147  1  0.141550  0.899140  0.277800  1.0  -0.0426
  C  C148  1  0.176790  0.863070  0.241100  1.0  -0.1163
  C  C149  1  0.189560  0.829210  0.326900  1.0  -0.0219
  C  C150  1  0.133130  0.868860  0.488700  1.0  -0.0398
  C  C151  1  0.167290  0.832270  0.450600  1.0  -0.0912
  C  C152  1  0.223320  0.788580  0.286600  1.0  0.0557
  C  C153  1  0.420870  0.059300  0.939700  1.0  0.7507
  C  C154  1  0.380620  0.097770  0.901900  1.0  -0.1263
  C  C155  1  0.358450  0.100860  0.777800  1.0  -0.0416
  C  C156  1  0.323210  0.136930  0.741100  1.0  -0.1176
  C  C157  1  0.310440  0.170790  0.826900  1.0  -0.0227
  C  C158  1  0.366870  0.131140  0.988700  1.0  -0.04
  C  C159  1  0.332710  0.167730  0.950600  1.0  -0.0929
  C  C160  1  0.276680  0.211420  0.786600  1.0  0.0554
  C  C161  1  0.920870  0.559300  0.439700  1.0  0.7507
  C  C162  1  0.880620  0.597770  0.401900  1.0  -0.1263
  C  C163  1  0.858450  0.600860  0.277800  1.0  -0.0416
  C  C164  1  0.823210  0.636930  0.241100  1.0  -0.1176
  C  C165  1  0.810440  0.670790  0.326900  1.0  -0.0227
  C  C166  1  0.866870  0.631140  0.488700  1.0  -0.04
  C  C167  1  0.832710  0.667730  0.450600  1.0  -0.0929
  C  C168  1  0.776680  0.711420  0.286600  1.0  0.0554
  C  C169  1  0.420870  0.940700  0.060300  1.0  0.7509
  C  C170  1  0.380620  0.902230  0.098100  1.0  -0.1248
  C  C171  1  0.358450  0.899140  0.222200  1.0  -0.0401
  C  C172  1  0.323210  0.863070  0.258900  1.0  -0.1168
  C  C173  1  0.310440  0.829210  0.173100  1.0  -0.0228
  C  C174  1  0.366870  0.868860  0.011300  1.0  -0.0409
  C  C175  1  0.332710  0.832270  0.049400  1.0  -0.0922
  C  C176  1  0.276680  0.788580  0.213400  1.0  0.0552
  C  C177  1  0.920870  0.440700  0.560300  1.0  0.7509
  C  C178  1  0.880620  0.402230  0.598100  1.0  -0.1248
  C  C179  1  0.858450  0.399140  0.722200  1.0  -0.0401
  C  C180  1  0.823210  0.363070  0.758900  1.0  -0.1168
  C  C181  1  0.810440  0.329210  0.673100  1.0  -0.0228
  C  C182  1  0.866870  0.368860  0.511300  1.0  -0.0409
  C  C183  1  0.832710  0.332270  0.549400  1.0  -0.0922
  C  C184  1  0.776680  0.288580  0.713400  1.0  0.0552
  C  C185  1  0.579130  0.559300  0.060300  1.0  0.751
  C  C186  1  0.619380  0.597770  0.098100  1.0  -0.1268
  C  C187  1  0.641550  0.600860  0.222200  1.0  -0.0404
  C  C188  1  0.676790  0.636930  0.258900  1.0  -0.1153
  C  C189  1  0.689560  0.670790  0.173100  1.0  -0.022
  C  C190  1  0.633130  0.631140  0.011300  1.0  -0.0397
  C  C191  1  0.667290  0.667730  0.049400  1.0  -0.092
  C  C192  1  0.723320  0.711420  0.213400  1.0  0.0552
  C  C193  1  0.079130  0.059300  0.560300  1.0  0.751
  C  C194  1  0.119380  0.097770  0.598100  1.0  -0.1268
  C  C195  1  0.141550  0.100860  0.722200  1.0  -0.0404
  C  C196  1  0.176790  0.136930  0.758900  1.0  -0.1153
  C  C197  1  0.189560  0.170790  0.673100  1.0  -0.022
  C  C198  1  0.133130  0.131140  0.511300  1.0  -0.0397
  C  C199  1  0.167290  0.167730  0.549400  1.0  -0.092
  C  C200  1  0.223320  0.211420  0.713400  1.0  0.0552
  N  N201  1  0.301930  0.750000  0.175300  1.0  -0.3984
  N  N202  1  0.801930  0.250000  0.675300  1.0  -0.3984
  N  N203  1  0.698070  0.750000  0.175300  1.0  -0.398
  N  N204  1  0.198070  0.250000  0.675300  1.0  -0.398
  N  N205  1  0.698070  0.250000  0.824700  1.0  -0.399
  N  N206  1  0.198070  0.750000  0.324700  1.0  -0.399
  N  N207  1  0.301930  0.250000  0.824700  1.0  -0.3988
  N  N208  1  0.801930  0.750000  0.324700  1.0  -0.3988
  O  O209  1  0.436050  0.532630  0.146360  1.0  -0.6075
  O  O210  1  0.436660  0.557300  0.944320  1.0  -0.6248
  O  O211  1  0.936050  0.032630  0.646360  1.0  -0.6075
  O  O212  1  0.936660  0.057300  0.444320  1.0  -0.6248
  O  O213  1  0.563950  0.967370  0.146360  1.0  -0.6065
  O  O214  1  0.563340  0.942700  0.944320  1.0  -0.6249
  O  O215  1  0.063950  0.467370  0.646360  1.0  -0.6065
  O  O216  1  0.063340  0.442700  0.444320  1.0  -0.6249
  O  O217  1  0.563950  0.032630  0.853640  1.0  -0.6072
  O  O218  1  0.563340  0.057300  0.055680  1.0  -0.6245
  O  O219  1  0.063950  0.532630  0.353640  1.0  -0.6072
  O  O220  1  0.063340  0.557300  0.555680  1.0  -0.6245
  O  O221  1  0.436050  0.467370  0.853640  1.0  -0.6072
  O  O222  1  0.436660  0.442700  0.055680  1.0  -0.6252
  O  O223  1  0.936050  0.967370  0.353640  1.0  -0.6072
  O  O224  1  0.936660  0.942700  0.555680  1.0  -0.6252
  O  O225  1  0.563950  0.467370  0.853640  1.0  -0.6072
  O  O226  1  0.563340  0.442700  0.055680  1.0  -0.6245
  O  O227  1  0.063950  0.967370  0.353640  1.0  -0.6072
  O  O228  1  0.063340  0.942700  0.555680  1.0  -0.6245
  O  O229  1  0.436050  0.032630  0.853640  1.0  -0.6068
  O  O230  1  0.436660  0.057300  0.055680  1.0  -0.6251
  O  O231  1  0.936050  0.532630  0.353640  1.0  -0.6068
  O  O232  1  0.936660  0.557300  0.555680  1.0  -0.6251
  O  O233  1  0.436050  0.967370  0.146360  1.0  -0.6067
  O  O234  1  0.436660  0.942700  0.944320  1.0  -0.625
  O  O235  1  0.936050  0.467370  0.646360  1.0  -0.6067
  O  O236  1  0.936660  0.442700  0.444320  1.0  -0.625
  O  O237  1  0.563950  0.532630  0.146360  1.0  -0.6076
  O  O238  1  0.563340  0.557300  0.944320  1.0  -0.6251
  O  O239  1  0.063950  0.032630  0.646360  1.0  -0.6076
  O  O240  1  0.063340  0.057300  0.444320  1.0  -0.6251
