# generated using pymatgen
data_AlC8N4O5
_symmetry_space_group_name_H-M   'P 1'
_cell_length_a   6.64250000
_cell_length_b   16.38700000
_cell_length_c   13.36790000
_cell_angle_alpha   90.00000000
_cell_angle_beta   90.00000000
_cell_angle_gamma   90.00000000
_symmetry_Int_Tables_number   1
_chemical_formula_structural   AlC8N4O5
_chemical_formula_sum   'Al4 C32 N16 O20'
_cell_volume   1455.10457072
_cell_formula_units_Z   4
loop_
 _symmetry_equiv_pos_site_id
 _symmetry_equiv_pos_as_xyz
  1  'x, y, z'
loop_
 _atom_site_type_symbol
 _atom_site_label
 _atom_site_symmetry_multiplicity
 _atom_site_fract_x
 _atom_site_fract_y
 _atom_site_fract_z
 _atom_site_occupancy
 _atom_site_charge
  Al  Al1  1  0.250000  0.250000  0.250000  1.0  1.9086
  Al  Al2  1  0.750000  0.250000  0.250000  1.0  1.9086
  Al  Al3  1  0.750000  0.750000  0.750000  1.0  1.9086
  Al  Al4  1  0.250000  0.750000  0.750000  1.0  1.9086
  C  C5  1  0.184430  0.534000  0.532700  1.0  0.1553
  C  C6  1  0.684430  0.034000  0.032700  1.0  0.1553
  C  C7  1  0.815570  0.966000  0.532700  1.0  0.1554
  C  C8  1  0.315570  0.466000  0.032700  1.0  0.1554
  C  C9  1  0.815570  0.034000  0.467300  1.0  0.1554
  C  C10  1  0.315570  0.534000  0.967300  1.0  0.1554
  C  C11  1  0.184430  0.466000  0.467300  1.0  0.1552
  C  C12  1  0.684430  0.966000  0.967300  1.0  0.1552
  C  C13  1  0.815570  0.466000  0.467300  1.0  0.1554
  C  C14  1  0.315570  0.966000  0.967300  1.0  0.1554
  C  C15  1  0.184430  0.034000  0.467300  1.0  0.1552
  C  C16  1  0.684430  0.534000  0.967300  1.0  0.1552
  C  C17  1  0.184430  0.966000  0.532700  1.0  0.1552
  C  C18  1  0.684430  0.466000  0.032700  1.0  0.1552
  C  C19  1  0.815570  0.534000  0.532700  1.0  0.1554
  C  C20  1  0.315570  0.034000  0.032700  1.0  0.1554
  C  C21  1  0.000000  0.568000  0.565300  1.0  0.0208
  C  C22  1  0.000000  0.635900  0.630600  1.0  0.8454
  C  C23  1  0.500000  0.068000  0.065300  1.0  0.0208
  C  C24  1  0.500000  0.135900  0.130600  1.0  0.8454
  C  C25  1  0.000000  0.932000  0.565300  1.0  0.0212
  C  C26  1  0.000000  0.864100  0.630600  1.0  0.8451
  C  C27  1  0.500000  0.432000  0.065300  1.0  0.0212
  C  C28  1  0.500000  0.364100  0.130600  1.0  0.8451
  C  C29  1  0.000000  0.068000  0.434700  1.0  0.021
  C  C30  1  0.000000  0.135900  0.369400  1.0  0.8451
  C  C31  1  0.500000  0.568000  0.934700  1.0  0.021
  C  C32  1  0.500000  0.635900  0.869400  1.0  0.8451
  C  C33  1  0.000000  0.432000  0.434700  1.0  0.0214
  C  C34  1  0.000000  0.364100  0.369400  1.0  0.8447
  C  C35  1  0.500000  0.932000  0.934700  1.0  0.0214
  C  C36  1  0.500000  0.864100  0.869400  1.0  0.8447
  N  N37  1  0.369000  0.432000  0.435000  1.0  -0.3526
  N  N38  1  0.869000  0.932000  0.935000  1.0  -0.3526
  N  N39  1  0.631000  0.068000  0.435000  1.0  -0.3522
  N  N40  1  0.131000  0.568000  0.935000  1.0  -0.3522
  N  N41  1  0.631000  0.932000  0.565000  1.0  -0.3507
  N  N42  1  0.131000  0.432000  0.065000  1.0  -0.3492
  N  N43  1  0.369000  0.568000  0.565000  1.0  -0.3509
  N  N44  1  0.869000  0.068000  0.065000  1.0  -0.3509
  N  N45  1  0.631000  0.568000  0.565000  1.0  -0.3494
  N  N46  1  0.131000  0.068000  0.065000  1.0  -0.3494
  N  N47  1  0.369000  0.932000  0.565000  1.0  -0.3495
  N  N48  1  0.869000  0.432000  0.065000  1.0  -0.3495
  N  N49  1  0.369000  0.068000  0.435000  1.0  -0.3503
  N  N50  1  0.869000  0.568000  0.935000  1.0  -0.3503
  N  N51  1  0.631000  0.432000  0.435000  1.0  -0.3493
  N  N52  1  0.131000  0.932000  0.935000  1.0  -0.3493
  O  O53  1  0.161900  0.665670  0.659300  1.0  -0.5522
  O  O54  1  0.661900  0.165670  0.159300  1.0  -0.5522
  O  O55  1  0.838100  0.834330  0.659300  1.0  -0.5514
  O  O56  1  0.338100  0.334330  0.159300  1.0  -0.5514
  O  O57  1  0.838100  0.165670  0.340700  1.0  -0.5515
  O  O58  1  0.338100  0.665670  0.840700  1.0  -0.5515
  O  O59  1  0.161900  0.334330  0.340700  1.0  -0.5529
  O  O60  1  0.661900  0.834330  0.840700  1.0  -0.5529
  O  O61  1  0.838100  0.334330  0.340700  1.0  -0.5519
  O  O62  1  0.338100  0.834330  0.840700  1.0  -0.5519
  O  O63  1  0.161900  0.165670  0.340700  1.0  -0.5526
  O  O64  1  0.661900  0.665670  0.840700  1.0  -0.5526
  O  O65  1  0.161900  0.834330  0.659300  1.0  -0.5524
  O  O66  1  0.661900  0.334330  0.159300  1.0  -0.5524
  O  O67  1  0.838100  0.665670  0.659300  1.0  -0.5514
  O  O68  1  0.338100  0.165670  0.159300  1.0  -0.5514
  O  O69  1  0.000000  0.250000  0.188400  1.0  -0.6512
  O  O70  1  0.500000  0.750000  0.688400  1.0  -0.6512
  O  O71  1  0.000000  0.750000  0.811600  1.0  -0.653
  O  O72  1  0.500000  0.250000  0.311600  1.0  -0.653
