# generated using pymatgen
data_AlC8NO5
_symmetry_space_group_name_H-M   'P 1'
_cell_length_a   20.43750000
_cell_length_b   7.84960000
_cell_length_c   6.59340000
_cell_angle_alpha   90.00000000
_cell_angle_beta   111.80100000
_cell_angle_gamma   90.00000000
_symmetry_Int_Tables_number   1
_chemical_formula_structural   AlC8NO5
_chemical_formula_sum   'Al4 C32 N4 O20'
_cell_volume   982.10284067
_cell_formula_units_Z   4
loop_
 _symmetry_equiv_pos_site_id
 _symmetry_equiv_pos_as_xyz
  1  'x, y, z'
loop_
 _atom_site_type_symbol
 _atom_site_label
 _atom_site_symmetry_multiplicity
 _atom_site_fract_x
 _atom_site_fract_y
 _atom_site_fract_z
 _atom_site_occupancy
 _atom_site_charge
  Al  Al1  1  0.000000  0.000000  0.000000  1.0  1.7855
  Al  Al2  1  0.500000  0.500000  0.000000  1.0  1.7843
  Al  Al3  1  0.000000  0.000000  0.500000  1.0  1.7849
  Al  Al4  1  0.500000  0.500000  0.500000  1.0  1.7849
  C  C5  1  0.179550  0.767710  0.460130  1.0  -0.0456
  C  C6  1  0.206410  0.706500  0.304650  1.0  0.0536
  C  C7  1  0.278830  0.666560  0.369560  1.0  0.046
  C  C8  1  0.324380  0.687830  0.589940  1.0  -0.0075
  C  C9  1  0.297510  0.749050  0.745420  1.0  0.0123
  C  C10  1  0.225100  0.788990  0.680510  1.0  0.0138
  C  C11  1  0.107130  0.807700  0.395220  1.0  0.7719
  C  C12  1  0.396790  0.647900  0.654850  1.0  0.775
  C  C13  1  0.679550  0.267710  0.460130  1.0  -0.0456
  C  C14  1  0.706410  0.206500  0.304650  1.0  0.0536
  C  C15  1  0.778830  0.166560  0.369560  1.0  0.046
  C  C16  1  0.824380  0.187830  0.589940  1.0  -0.0069
  C  C17  1  0.797510  0.249050  0.745420  1.0  0.0126
  C  C18  1  0.725100  0.288990  0.680510  1.0  0.0138
  C  C19  1  0.607130  0.307700  0.395220  1.0  0.7719
  C  C20  1  0.896790  0.147900  0.654850  1.0  0.7731
  C  C21  1  0.179550  0.232290  0.960130  1.0  -0.0461
  C  C22  1  0.206410  0.293500  0.804650  1.0  0.0547
  C  C23  1  0.278830  0.333440  0.869560  1.0  0.0464
  C  C24  1  0.324380  0.312170  0.089940  1.0  -0.007
  C  C25  1  0.297510  0.250950  0.245420  1.0  0.0117
  C  C26  1  0.225100  0.211010  0.180510  1.0  0.0143
  C  C27  1  0.107130  0.192300  0.895220  1.0  0.772
  C  C28  1  0.396790  0.352100  0.154850  1.0  0.7735
  C  C29  1  0.679550  0.732290  0.960130  1.0  -0.0461
  C  C30  1  0.706410  0.793500  0.804650  1.0  0.0547
  C  C31  1  0.778830  0.833440  0.869560  1.0  0.0464
  C  C32  1  0.824380  0.812170  0.089940  1.0  -0.007
  C  C33  1  0.797510  0.750950  0.245420  1.0  0.0117
  C  C34  1  0.725100  0.711010  0.180510  1.0  0.0143
  C  C35  1  0.607130  0.692300  0.895220  1.0  0.772
  C  C36  1  0.896790  0.852100  0.154850  1.0  0.7754
  N  N37  1  0.160860  0.685230  0.084270  1.0  -0.2671
  N  N38  1  0.660860  0.185230  0.084270  1.0  -0.2671
  N  N39  1  0.160860  0.314770  0.584270  1.0  -0.2667
  N  N40  1  0.660860  0.814770  0.584270  1.0  -0.2667
  O  O41  1  0.067160  0.789000  0.201820  1.0  -0.6032
  O  O42  1  0.083560  0.861400  0.531650  1.0  -0.5899
  O  O43  1  0.420370  0.594200  0.518420  1.0  -0.634
  O  O44  1  0.436760  0.666667  0.848250  1.0  -0.5908
  O  O45  1  0.002600  0.889700  0.739000  1.0  -0.7164
  O  O46  1  0.567160  0.289000  0.201820  1.0  -0.6033
  O  O47  1  0.583560  0.361400  0.531650  1.0  -0.5902
  O  O48  1  0.920370  0.094200  0.518420  1.0  -0.6357
  O  O49  1  0.936760  0.166600  0.848250  1.0  -0.5911
  O  O50  1  0.502600  0.389700  0.739000  1.0  -0.7163
  O  O51  1  0.067160  0.211000  0.701820  1.0  -0.6024
  O  O52  1  0.083560  0.138600  0.031650  1.0  -0.591
  O  O53  1  0.420370  0.405800  0.018420  1.0  -0.6344
  O  O54  1  0.436760  0.333400  0.348250  1.0  -0.5911
  O  O55  1  0.002600  0.110300  0.239000  1.0  -0.7212
  O  O56  1  0.567160  0.711000  0.701820  1.0  -0.6022
  O  O57  1  0.583560  0.638600  0.031650  1.0  -0.5911
  O  O58  1  0.920370  0.905800  0.018420  1.0  -0.6343
  O  O59  1  0.936760  0.833400  0.348250  1.0  -0.591
  O  O60  1  0.502600  0.610300  0.239000  1.0  -0.7212
