# generated using pymatgen
data_Zn2P2H29C27(N3O4)2
_symmetry_space_group_name_H-M   'P 1'
_cell_length_a   10.31870000
_cell_length_b   13.66510000
_cell_length_c   16.14190000
_cell_angle_alpha   102.04700000
_cell_angle_beta   108.58000000
_cell_angle_gamma   99.14700000
_symmetry_Int_Tables_number   1
_chemical_formula_structural   Zn2P2H29C27(N3O4)2
_chemical_formula_sum   'Zn4 P4 H58 C54 N12 O16'
_cell_volume   2046.59774902
_cell_formula_units_Z   2
loop_
 _symmetry_equiv_pos_site_id
 _symmetry_equiv_pos_as_xyz
  1  'x, y, z'
loop_
 _atom_site_type_symbol
 _atom_site_label
 _atom_site_symmetry_multiplicity
 _atom_site_fract_x
 _atom_site_fract_y
 _atom_site_fract_z
 _atom_site_occupancy
 _atom_site_charge
  Zn  Zn1  1  0.713300  0.252360  0.239930  1.0  0.8669
  Zn  Zn2  1  0.524800  0.206800  0.874620  1.0  0.8018
  Zn  Zn3  1  0.286700  0.747640  0.760070  1.0  0.867
  Zn  Zn4  1  0.475200  0.793200  0.125380  1.0  0.8047
  P  P5  1  0.463100  0.244390  0.059760  1.0  1.7631
  P  P6  1  0.620100  0.019140  0.173770  1.0  1.819
  P  P7  1  0.536900  0.755610  0.940240  1.0  1.7648
  P  P8  1  0.379900  0.980860  0.826230  1.0  1.816
  H  H9  1  0.360500  0.359200  0.057400  1.0  0.4776
  H  H10  1  0.436800  0.064600  0.097600  1.0  0.4067
  H  H11  1  0.810800  0.412900  0.153000  1.0  0.0832
  H  H12  1  0.151500  0.521600  0.147700  1.0  0.0756
  H  H13  1  0.005400  0.550700  0.142100  1.0  0.0726
  H  H14  1  0.894600  0.416100  0.998000  1.0  0.0603
  H  H15  1  0.049800  0.407800  0.002700  1.0  0.0572
  H  H16  1  0.001000  0.155400  0.279800  1.0  0.1012
  H  H17  1  0.232400  0.145500  0.298400  1.0  0.0878
  H  H18  1  0.376100  0.260600  0.256500  1.0  0.073
  H  H19  1  0.294700  0.393500  0.199800  1.0  0.1045
  H  H20  1  0.778400  0.157500  0.005500  1.0  0.0774
  H  H21  1  0.040900  0.165700  0.081600  1.0  0.0543
  H  H22  1  0.140300  0.194000  0.027300  1.0  0.0573
  H  H23  1  0.061100  0.017800  0.935000  1.0  0.0665
  H  H24  1  0.150200  0.030400  0.039500  1.0  0.0513
  H  H25  1  0.130400  0.195800  0.868000  1.0  0.1024
  H  H26  1  0.074300  0.247000  0.733400  1.0  0.0728
  H  H27  1  0.851900  0.270500  0.661900  1.0  0.0725
  H  H28  1  0.677600  0.252000  0.725900  1.0  0.1039
  H  H29  1  0.604600  0.433100  0.331000  1.0  0.0892
  H  H30  1  0.651600  0.602900  0.458900  1.0  0.0659
  H  H31  1  0.766700  0.614800  0.556700  1.0  0.0717
  H  H32  1  0.600100  0.488800  0.580400  1.0  0.0579
  H  H33  1  0.550100  0.592700  0.573500  1.0  0.0502
  H  H34  1  0.932000  0.524900  0.644000  1.0  0.0864
  H  H35  1  0.106000  0.433200  0.682500  1.0  0.0764
  H  H36  1  0.115200  0.294600  0.575700  1.0  0.08
  H  H37  1  0.951300  0.240900  0.424900  1.0  0.1115
  H  H38  1  0.639500  0.640800  0.942600  1.0  0.4741
  H  H39  1  0.563200  0.935400  0.902400  1.0  0.4093
  H  H40  1  0.189200  0.587100  0.847000  1.0  0.0832
  H  H41  1  0.848500  0.478400  0.852300  1.0  0.0776
  H  H42  1  0.994600  0.449300  0.857900  1.0  0.0723
  H  H43  1  0.105400  0.583900  0.002000  1.0  0.0605
  H  H44  1  0.950200  0.592200  0.997300  1.0  0.0588
  H  H45  1  0.999000  0.844600  0.720200  1.0  0.1015
  H  H46  1  0.767600  0.854500  0.701600  1.0  0.0876
  H  H47  1  0.623900  0.739400  0.743500  1.0  0.0732
  H  H48  1  0.705300  0.606500  0.800200  1.0  0.1045
  H  H49  1  0.221600  0.842500  0.994500  1.0  0.077
  H  H50  1  0.959100  0.834300  0.918400  1.0  0.0543
  H  H51  1  0.859700  0.806000  0.972700  1.0  0.0566
  H  H52  1  0.938900  0.982200  0.065000  1.0  0.0647
  H  H53  1  0.849800  0.969600  0.960500  1.0  0.0463
  H  H54  1  0.869600  0.804200  0.132000  1.0  0.102
  H  H55  1  0.925700  0.753000  0.266600  1.0  0.0731
  H  H56  1  0.148100  0.729500  0.338100  1.0  0.0732
  H  H57  1  0.322400  0.748000  0.274100  1.0  0.1037
  H  H58  1  0.395400  0.566900  0.669000  1.0  0.0892
  H  H59  1  0.348400  0.397100  0.541100  1.0  0.0674
  H  H60  1  0.233300  0.385200  0.443300  1.0  0.0734
  H  H61  1  0.399900  0.511200  0.419600  1.0  0.0582
  H  H62  1  0.449900  0.407300  0.426500  1.0  0.0509
  H  H63  1  0.068000  0.475100  0.356000  1.0  0.086
  H  H64  1  0.894000  0.566800  0.317500  1.0  0.0769
  H  H65  1  0.884800  0.705400  0.424300  1.0  0.0805
  H  H66  1  0.048700  0.759100  0.575100  1.0  0.1113
  C  C67  1  0.886500  0.381400  0.172800  1.0  0.124
  C  C68  1  0.048100  0.493700  0.124400  1.0  -0.0709
  C  C69  1  0.994200  0.455200  0.021000  1.0  -0.12
  C  C70  1  0.096600  0.348800  0.202800  1.0  0.12
  C  C71  1  0.012300  0.280900  0.228300  1.0  0.1089
  C  C72  1  0.059900  0.202700  0.263600  1.0  -0.1213
  C  C73  1  0.196200  0.197300  0.274100  1.0  -0.0983
  C  C74  1  0.283100  0.267000  0.249400  1.0  -0.1155
  C  C75  1  0.235400  0.345000  0.214700  1.0  -0.1568
  C  C76  1  0.806200  0.172500  0.957900  1.0  0.1474
  C  C77  1  0.051100  0.148700  0.021600  1.0  -0.0344
  C  C78  1  0.060300  0.037000  0.997400  1.0  -0.1367
  C  C79  1  0.935400  0.195900  0.876300  1.0  0.0465
  C  C80  1  0.040300  0.207400  0.839900  1.0  -0.1538
  C  C81  1  0.005300  0.236800  0.760200  1.0  -0.1361
  C  C82  1  0.871600  0.252000  0.717400  1.0  -0.1307
  C  C83  1  0.767700  0.240800  0.754300  1.0  -0.1448
  C  C84  1  0.801900  0.212000  0.835300  1.0  0.1204
  C  C85  1  0.679700  0.420800  0.376700  1.0  0.1393
  C  C86  1  0.686100  0.566100  0.505100  1.0  -0.0476
  C  C87  1  0.568400  0.531200  0.538600  1.0  -0.1312
  C  C88  1  0.841300  0.437700  0.510200  1.0  0.0743
  C  C89  1  0.936800  0.468600  0.600100  1.0  -0.1393
  C  C90  1  0.038500  0.413700  0.622200  1.0  -0.1224
  C  C91  1  0.044000  0.330600  0.558000  1.0  -0.1421
  C  C92  1  0.947800  0.298300  0.468300  1.0  -0.1361
  C  C93  1  0.846800  0.354300  0.445800  1.0  0.1077
  C  C94  1  0.113500  0.618600  0.827200  1.0  0.124
  C  C95  1  0.951900  0.506300  0.875600  1.0  -0.0709
  C  C96  1  0.005800  0.544800  0.979000  1.0  -0.1197
  C  C97  1  0.903400  0.651200  0.797200  1.0  0.1208
  C  C98  1  0.987700  0.719100  0.771700  1.0  0.1093
  C  C99  1  0.940100  0.797300  0.736400  1.0  -0.1218
  C  C100  1  0.803800  0.802700  0.725900  1.0  -0.0962
  C  C101  1  0.716900  0.733000  0.750600  1.0  -0.1176
  C  C102  1  0.764600  0.655000  0.785300  1.0  -0.1569
  C  C103  1  0.193800  0.827500  0.042100  1.0  0.1484
  C  C104  1  0.948900  0.851300  0.978400  1.0  -0.0353
  C  C105  1  0.939700  0.963000  0.002600  1.0  -0.1383
  C  C106  1  0.064600  0.804100  0.123700  1.0  0.0487
  C  C107  1  0.959700  0.792600  0.160100  1.0  -0.1564
  C  C108  1  0.994700  0.763200  0.239800  1.0  -0.1362
  C  C109  1  0.128400  0.748000  0.282600  1.0  -0.1263
  C  C110  1  0.232300  0.759200  0.245700  1.0  -0.1438
  C  C111  1  0.198100  0.788000  0.164700  1.0  0.1205
  C  C112  1  0.320300  0.579200  0.623300  1.0  0.1385
  C  C113  1  0.313900  0.433900  0.494900  1.0  -0.0455
  C  C114  1  0.431600  0.468800  0.461400  1.0  -0.1304
  C  C115  1  0.158700  0.562300  0.489800  1.0  0.075
  C  C116  1  0.063200  0.531400  0.399900  1.0  -0.1378
  C  C117  1  0.961500  0.586300  0.377800  1.0  -0.1221
  C  C118  1  0.956000  0.669400  0.442000  1.0  -0.1437
  C  C119  1  0.052200  0.701700  0.531700  1.0  -0.1313
  C  C120  1  0.153200  0.645700  0.554200  1.0  0.1084
  N  N121  1  0.879500  0.303900  0.208300  1.0  -0.4143
  N  N122  1  0.015300  0.411600  0.167600  1.0  -0.0485
  N  N123  1  0.722700  0.196900  0.889300  1.0  -0.3755
  N  N124  1  0.934000  0.170500  0.955000  1.0  -0.0346
  N  N125  1  0.742900  0.346100  0.361800  1.0  -0.389
  N  N126  1  0.734100  0.478400  0.465100  1.0  -0.035
  N  N127  1  0.120500  0.696100  0.791700  1.0  -0.414
  N  N128  1  0.984700  0.588400  0.832400  1.0  -0.0485
  N  N129  1  0.277300  0.803100  0.110700  1.0  -0.3723
  N  N130  1  0.066000  0.829500  0.045000  1.0  -0.0358
  N  N131  1  0.257100  0.653900  0.638200  1.0  -0.3914
  N  N132  1  0.265900  0.521600  0.534900  1.0  -0.0348
  O  O133  1  0.349300  0.308600  0.039500  1.0  -0.7545
  O  O134  1  0.553200  0.284700  0.160300  1.0  -0.8478
  O  O135  1  0.381100  0.132900  0.033100  1.0  -0.5509
  O  O136  1  0.552900  0.260100  0.002300  1.0  -0.8298
  O  O137  1  0.686100  0.026900  0.099900  1.0  -0.6202
  O  O138  1  0.461800  0.019900  0.134200  1.0  -0.5834
  O  O139  1  0.624300  0.918500  0.197900  1.0  -0.7644
  O  O140  1  0.702600  0.114100  0.253600  1.0  -0.8075
  O  O141  1  0.650700  0.691400  0.960500  1.0  -0.7543
  O  O142  1  0.446800  0.715300  0.839700  1.0  -0.8481
  O  O143  1  0.618900  0.867100  0.966900  1.0  -0.5519
  O  O144  1  0.447100  0.739900  0.997700  1.0  -0.8297
  O  O145  1  0.313900  0.973100  0.900100  1.0  -0.6192
  O  O146  1  0.538200  0.980100  0.865800  1.0  -0.5862
  O  O147  1  0.375700  0.081500  0.802100  1.0  -0.7623
  O  O148  1  0.297400  0.885900  0.746400  1.0  -0.8077
