# generated using pymatgen
data_CuH10(C4N3)2
_symmetry_space_group_name_H-M   'P 1'
_cell_length_a   6.96760000
_cell_length_b   17.41130000
_cell_length_c   18.62780000
_cell_angle_alpha   90.00000000
_cell_angle_beta   90.00000000
_cell_angle_gamma   90.00000000
_symmetry_Int_Tables_number   1
_chemical_formula_structural   CuH10(C4N3)2
_chemical_formula_sum   'Cu4 H40 C32 N24'
_cell_volume   2259.83107044
_cell_formula_units_Z   4
loop_
 _symmetry_equiv_pos_site_id
 _symmetry_equiv_pos_as_xyz
  1  'x, y, z'
loop_
 _atom_site_type_symbol
 _atom_site_label
 _atom_site_symmetry_multiplicity
 _atom_site_fract_x
 _atom_site_fract_y
 _atom_site_fract_z
 _atom_site_occupancy
 _atom_site_charge
  Cu  Cu1  1  0.707790  0.250640  0.008220  1.0  0.2591
  Cu  Cu2  1  0.792210  0.749360  0.508220  1.0  0.2612
  Cu  Cu3  1  0.292210  0.750640  0.491780  1.0  0.2632
  Cu  Cu4  1  0.207790  0.249360  0.991780  1.0  0.2608
  H  H5  1  0.785500  0.589100  0.602200  1.0  0.0901
  H  H6  1  0.350500  0.593800  0.583000  1.0  0.0884
  H  H7  1  0.213700  0.401200  0.888300  1.0  0.1006
  H  H8  1  0.652300  0.406000  0.923000  1.0  0.0928
  H  H9  1  0.996800  0.534300  0.855800  1.0  0.019
  H  H10  1  0.773800  0.514500  0.846100  1.0  0.0362
  H  H11  1  0.874400  0.429200  0.745100  1.0  0.0859
  H  H12  1  0.137300  0.549300  0.745400  1.0  0.0802
  H  H13  1  0.215500  0.469300  0.638300  1.0  0.0229
  H  H14  1  0.988500  0.456400  0.630300  1.0  0.0184
  H  H15  1  0.714500  0.410900  0.102200  1.0  0.0902
  H  H16  1  0.149500  0.406200  0.083000  1.0  0.0882
  H  H17  1  0.286300  0.598800  0.388300  1.0  0.0997
  H  H18  1  0.847700  0.594000  0.423000  1.0  0.093
  H  H19  1  0.503200  0.465700  0.355800  1.0  0.0213
  H  H20  1  0.726200  0.485500  0.346100  1.0  0.0384
  H  H21  1  0.625600  0.570800  0.245100  1.0  0.0863
  H  H22  1  0.362700  0.450700  0.245400  1.0  0.0803
  H  H23  1  0.284500  0.530700  0.138300  1.0  0.0234
  H  H24  1  0.511500  0.543600  0.130300  1.0  0.0164
  H  H25  1  0.214500  0.089100  0.897800  1.0  0.0899
  H  H26  1  0.649500  0.093800  0.917000  1.0  0.0885
  H  H27  1  0.786300  0.901200  0.611700  1.0  0.1002
  H  H28  1  0.347700  0.906000  0.577000  1.0  0.093
  H  H29  1  0.003200  0.034300  0.644200  1.0  0.0189
  H  H30  1  0.226200  0.014500  0.653900  1.0  0.0414
  H  H31  1  0.125600  0.929200  0.754900  1.0  0.0862
  H  H32  1  0.862700  0.049300  0.754600  1.0  0.0808
  H  H33  1  0.784500  0.969300  0.861700  1.0  0.0273
  H  H34  1  0.011500  0.956400  0.869700  1.0  0.0189
  H  H35  1  0.285500  0.910900  0.397800  1.0  0.0902
  H  H36  1  0.850500  0.906200  0.417000  1.0  0.0881
  H  H37  1  0.713700  0.098800  0.111700  1.0  0.1001
  H  H38  1  0.152300  0.094000  0.077000  1.0  0.0925
  H  H39  1  0.496800  0.965700  0.144200  1.0  0.025
  H  H40  1  0.273800  0.985500  0.153900  1.0  0.0373
  H  H41  1  0.374400  0.070800  0.254900  1.0  0.0863
  H  H42  1  0.637300  0.950700  0.254600  1.0  0.0806
  H  H43  1  0.715500  0.030700  0.361700  1.0  0.0226
  H  H44  1  0.488500  0.043600  0.369700  1.0  0.016
  C  C45  1  0.912000  0.604670  0.589880  1.0  0.0453
  C  C46  1  0.218700  0.607260  0.579360  1.0  0.0482
  C  C47  1  0.089200  0.388500  0.905350  1.0  0.0403
  C  C48  1  0.783500  0.391170  0.924350  1.0  0.0236
  C  C49  1  0.905400  0.493620  0.841500  1.0  0.0624
  C  C50  1  0.941400  0.471780  0.764880  1.0  -0.2098
  C  C51  1  0.062700  0.509630  0.724300  1.0  -0.1959
  C  C52  1  0.088200  0.492960  0.646560  1.0  0.0597
  C  C53  1  0.588000  0.395330  0.089880  1.0  0.0477
  C  C54  1  0.281300  0.392740  0.079360  1.0  0.0384
  C  C55  1  0.410800  0.611500  0.405350  1.0  0.0391
  C  C56  1  0.716500  0.608830  0.424350  1.0  0.0248
  C  C57  1  0.594600  0.506380  0.341500  1.0  0.061
  C  C58  1  0.558600  0.528220  0.264880  1.0  -0.2082
  C  C59  1  0.437300  0.490370  0.224300  1.0  -0.1965
  C  C60  1  0.411800  0.507040  0.146560  1.0  0.059
  C  C61  1  0.088000  0.104670  0.910120  1.0  0.0474
  C  C62  1  0.781300  0.107260  0.920640  1.0  0.0394
  C  C63  1  0.910800  0.888500  0.594650  1.0  0.0416
  C  C64  1  0.216500  0.891170  0.575650  1.0  0.0248
  C  C65  1  0.094600  0.993620  0.658500  1.0  0.0603
  C  C66  1  0.058600  0.971780  0.735120  1.0  -0.2095
  C  C67  1  0.937300  0.009630  0.775700  1.0  -0.1951
  C  C68  1  0.911800  0.992960  0.853440  1.0  0.0619
  C  C69  1  0.412000  0.895330  0.410120  1.0  0.0455
  C  C70  1  0.718700  0.892740  0.420640  1.0  0.0483
  C  C71  1  0.589200  0.111500  0.094650  1.0  0.0401
  C  C72  1  0.283500  0.108830  0.075650  1.0  0.0233
  C  C73  1  0.405400  0.006380  0.158500  1.0  0.0638
  C  C74  1  0.441400  0.028220  0.235120  1.0  -0.209
  C  C75  1  0.562700  0.990370  0.275700  1.0  -0.1966
  C  C76  1  0.588200  0.007040  0.353440  1.0  0.0586
  N  N77  1  0.956600  0.667960  0.555180  1.0  -0.1837
  N  N78  1  0.072800  0.565550  0.605180  1.0  0.0003
  N  N79  1  0.047600  0.330360  0.947880  1.0  -0.1734
  N  N80  1  0.927200  0.426960  0.889950  1.0  0.004
  N  N81  1  0.152300  0.669910  0.548150  1.0  -0.2131
  N  N82  1  0.853000  0.332500  0.960150  1.0  -0.2017
  N  N83  1  0.543400  0.332040  0.055180  1.0  -0.1819
  N  N84  1  0.427200  0.434450  0.105180  1.0  0.0002
  N  N85  1  0.452400  0.669640  0.447880  1.0  -0.1741
  N  N86  1  0.572800  0.573040  0.389950  1.0  0.004
  N  N87  1  0.347700  0.330090  0.048150  1.0  -0.2161
  N  N88  1  0.647000  0.667500  0.460150  1.0  -0.2016
  N  N89  1  0.043400  0.167960  0.944820  1.0  -0.1879
  N  N90  1  0.927200  0.065550  0.894820  1.0  0.0002
  N  N91  1  0.952400  0.830360  0.552120  1.0  -0.1743
  N  N92  1  0.072800  0.926960  0.610050  1.0  0.0042
  N  N93  1  0.847700  0.169910  0.951850  1.0  -0.2147
  N  N94  1  0.147000  0.832500  0.539850  1.0  -0.202
  N  N95  1  0.456600  0.832040  0.444820  1.0  -0.186
  N  N96  1  0.572800  0.934450  0.394820  1.0  0.0002
  N  N97  1  0.547600  0.169640  0.052120  1.0  -0.1729
  N  N98  1  0.427200  0.073040  0.110050  1.0  0.0039
  N  N99  1  0.652300  0.830090  0.451850  1.0  -0.2145
  N  N100  1  0.353000  0.167500  0.039850  1.0  -0.2024
