# generated using pymatgen
data_Na2H6C14N2O11
_symmetry_space_group_name_H-M   'P 1'
_cell_length_a   8.90300000
_cell_length_b   12.37220000
_cell_length_c   12.37220000
_cell_angle_alpha   93.09490000
_cell_angle_beta   110.84400000
_cell_angle_gamma   110.84400000
_symmetry_Int_Tables_number   1
_chemical_formula_structural   Na2H6C14N2O11
_chemical_formula_sum   'Na4 H12 C28 N4 O22'
_cell_volume   1164.52417462
_cell_formula_units_Z   2
loop_
 _symmetry_equiv_pos_site_id
 _symmetry_equiv_pos_as_xyz
  1  'x, y, z'
loop_
 _atom_site_type_symbol
 _atom_site_label
 _atom_site_symmetry_multiplicity
 _atom_site_fract_x
 _atom_site_fract_y
 _atom_site_fract_z
 _atom_site_occupancy
 _atom_site_charge
  Na  Na1  1  0.167500  0.302910  0.478950  1.0  1.0074
  Na  Na2  1  0.183000  0.572900  0.589220  1.0  0.9886
  Na  Na3  1  0.667500  0.478950  0.302910  1.0  0.9815
  Na  Na4  1  0.683000  0.589220  0.572900  1.0  0.9887
  H  H5  1  0.022000  0.424000  0.364000  1.0  0.3975
  H  H6  1  0.157000  0.492000  0.352000  1.0  0.4907
  H  H7  1  0.091000  0.375000  0.685000  1.0  0.456
  H  H8  1  0.938000  0.324000  0.598000  1.0  0.3598
  H  H9  1  0.454000  0.467000  0.689000  1.0  0.4294
  H  H10  1  0.515000  0.390000  0.638000  1.0  0.4339
  H  H11  1  0.522000  0.364000  0.424000  1.0  0.3976
  H  H12  1  0.657000  0.352000  0.492000  1.0  0.4928
  H  H13  1  0.591000  0.685000  0.375000  1.0  0.458
  H  H14  1  0.438000  0.598000  0.324000  1.0  0.3611
  H  H15  1  0.954000  0.689000  0.467000  1.0  0.4297
  H  H16  1  0.015000  0.638000  0.390000  1.0  0.4349
  C  C17  1  0.498800  0.043700  0.601700  1.0  -0.0168
  C  C18  1  0.591700  0.175100  0.604300  1.0  0.7078
  C  C19  1  0.387700  0.843400  0.495400  1.0  -0.0207
  C  C20  1  0.531800  0.807000  0.569000  1.0  0.7723
  C  C21  1  0.323400  0.997200  0.388800  1.0  0.0482
  C  C22  1  0.135600  0.938000  0.382400  1.0  -0.0123
  C  C23  1  0.004500  0.966100  0.281500  1.0  0.0472
  C  C24  1  0.009300  0.926500  0.164700  1.0  0.0235
  C  C25  1  0.192400  0.988300  0.168900  1.0  -0.0075
  C  C26  1  0.331700  0.965300  0.270900  1.0  0.045
  C  C27  1  0.539800  0.961300  0.186100  1.0  -0.0189
  C  C28  1  0.554500  0.846900  0.216100  1.0  0.7089
  C  C29  1  0.551500  0.152300  0.259900  1.0  -0.0587
  C  C30  1  0.747100  0.232000  0.303800  1.0  0.6834
  C  C31  1  0.998800  0.601700  0.043700  1.0  -0.0115
  C  C32  1  0.091700  0.604300  0.175100  1.0  0.7052
  C  C33  1  0.887700  0.495400  0.843400  1.0  -0.0198
  C  C34  1  0.031800  0.569000  0.807000  1.0  0.7681
  C  C35  1  0.823400  0.388800  0.997200  1.0  0.0478
  C  C36  1  0.635600  0.382400  0.938000  1.0  -0.0088
  C  C37  1  0.504500  0.281500  0.966100  1.0  0.0454
  C  C38  1  0.509300  0.164700  0.926500  1.0  0.0253
  C  C39  1  0.692400  0.168900  0.988300  1.0  -0.0093
  C  C40  1  0.831700  0.270900  0.965300  1.0  0.0437
  C  C41  1  0.039800  0.186100  0.961300  1.0  -0.011
  C  C42  1  0.054500  0.216100  0.846900  1.0  0.7087
  C  C43  1  0.051500  0.259900  0.152300  1.0  -0.0639
  C  C44  1  0.247100  0.303800  0.232000  1.0  0.6844
  N  N45  1  0.454900  0.970400  0.487600  1.0  -0.1915
  N  N46  1  0.514300  0.028300  0.275900  1.0  -0.1888
  N  N47  1  0.954900  0.487600  0.970400  1.0  -0.1931
  N  N48  1  0.014300  0.275900  0.028300  1.0  -0.1913
  O  O49  1  0.693000  0.202500  0.550900  1.0  -0.552
  O  O50  1  0.560700  0.246200  0.659800  1.0  -0.5552
  O  O51  1  0.687400  0.872700  0.594900  1.0  -0.5039
  O  O52  1  0.481100  0.708800  0.599200  1.0  -0.6436
  O  O53  1  0.601100  0.839900  0.324900  1.0  -0.5167
  O  O54  1  0.531600  0.771000  0.134800  1.0  -0.4687
  O  O55  1  0.858800  0.194000  0.358800  1.0  -0.6102
  O  O56  1  0.780900  0.333800  0.280200  1.0  -0.6159
  O  O57  1  0.131600  0.466900  0.405300  1.0  -0.8278
  O  O58  1  0.055100  0.374000  0.614400  1.0  -0.8806
  O  O59  1  0.465500  0.442500  0.624900  1.0  -0.9072
  O  O60  1  0.193000  0.550900  0.202500  1.0  -0.5491
  O  O61  1  0.060700  0.659800  0.246200  1.0  -0.554
  O  O62  1  0.187400  0.594900  0.872700  1.0  -0.504
  O  O63  1  0.981100  0.599200  0.708800  1.0  -0.6486
  O  O64  1  0.101100  0.324900  0.839900  1.0  -0.5143
  O  O65  1  0.031600  0.134800  0.771000  1.0  -0.4599
  O  O66  1  0.358800  0.358800  0.194000  1.0  -0.6131
  O  O67  1  0.280900  0.280200  0.333800  1.0  -0.6164
  O  O68  1  0.631600  0.405300  0.466900  1.0  -0.8236
  O  O69  1  0.555100  0.614400  0.374000  1.0  -0.8773
  O  O70  1  0.965500  0.624900  0.442500  1.0  -0.9067
