# generated using pymatgen
data_Cd5H13C18N11
_symmetry_space_group_name_H-M   'P 1'
_cell_length_a   20.15000000
_cell_length_b   10.29900000
_cell_length_c   17.84900000
_cell_angle_alpha   90.00000000
_cell_angle_beta   99.88000000
_cell_angle_gamma   90.00000000
_symmetry_Int_Tables_number   1
_chemical_formula_structural   Cd5H13C18N11
_chemical_formula_sum   'Cd20 H52 C72 N44'
_cell_volume   3649.17641650
_cell_formula_units_Z   4
loop_
 _symmetry_equiv_pos_site_id
 _symmetry_equiv_pos_as_xyz
  1  'x, y, z'
loop_
 _atom_site_type_symbol
 _atom_site_label
 _atom_site_symmetry_multiplicity
 _atom_site_fract_x
 _atom_site_fract_y
 _atom_site_fract_z
 _atom_site_occupancy
 _atom_site_charge
  Cd  Cd1  1  0.411230  0.993750  0.109760  1.0  1.0122
  Cd  Cd2  1  0.181920  0.991130  0.872520  1.0  0.7263
  Cd  Cd3  1  0.647340  0.016040  0.336940  1.0  0.9299
  Cd  Cd4  1  0.259670  0.017290  0.356070  1.0  0.7096
  Cd  Cd5  1  0.911230  0.493750  0.109760  1.0  1.0122
  Cd  Cd6  1  0.681920  0.491130  0.872520  1.0  0.7263
  Cd  Cd7  1  0.147340  0.516040  0.336940  1.0  0.9299
  Cd  Cd8  1  0.759670  0.517290  0.356070  1.0  0.7096
  Cd  Cd9  1  0.588770  0.993750  0.890240  1.0  1.0129
  Cd  Cd10  1  0.818080  0.991130  0.127480  1.0  0.7299
  Cd  Cd11  1  0.352660  0.016040  0.663060  1.0  0.9282
  Cd  Cd12  1  0.740330  0.017290  0.643930  1.0  0.7045
  Cd  Cd13  1  0.088770  0.493750  0.890240  1.0  1.0129
  Cd  Cd14  1  0.318080  0.491130  0.127480  1.0  0.7299
  Cd  Cd15  1  0.852660  0.516040  0.663060  1.0  0.9282
  Cd  Cd16  1  0.240330  0.517290  0.643930  1.0  0.7045
  Cd  Cd17  1  0.550610  0.489340  0.155090  1.0  0.892
  Cd  Cd18  1  0.449390  0.489340  0.844910  1.0  0.892
  Cd  Cd19  1  0.050610  0.989340  0.155090  1.0  0.892
  Cd  Cd20  1  0.949390  0.989340  0.844910  1.0  0.892
  H  H21  1  0.570650  0.220600  0.170600  1.0  0.2711
  H  H22  1  0.554080  0.243100  0.088900  1.0  0.2618
  H  H23  1  0.651700  0.188200  0.094400  1.0  0.0635
  H  H24  1  0.671400  0.242500  0.177000  1.0  0.0686
  H  H25  1  0.656760  0.385900  0.043720  1.0  0.062
  H  H26  1  0.723760  0.363600  0.101400  1.0  0.0672
  H  H27  1  0.689890  0.494400  0.184310  1.0  0.2063
  H  H28  1  0.720240  0.633000  0.100000  1.0  0.0661
  H  H29  1  0.649690  0.616900  0.048000  1.0  0.0659
  H  H30  1  0.649800  0.809200  0.108400  1.0  0.0657
  H  H31  1  0.675200  0.744700  0.187600  1.0  0.0711
  H  H32  1  0.548160  0.751900  0.110940  1.0  0.2833
  H  H33  1  0.570200  0.753400  0.193110  1.0  0.292
  H  H34  1  0.429350  0.220600  0.829400  1.0  0.2737
  H  H35  1  0.445920  0.243100  0.911100  1.0  0.2613
  H  H36  1  0.348300  0.188200  0.905600  1.0  0.0653
  H  H37  1  0.328600  0.242500  0.823000  1.0  0.0657
  H  H38  1  0.343240  0.385900  0.956280  1.0  0.0626
  H  H39  1  0.276240  0.363600  0.898600  1.0  0.0673
  H  H40  1  0.310110  0.494400  0.815690  1.0  0.2065
  H  H41  1  0.279760  0.633000  0.900000  1.0  0.067
  H  H42  1  0.350310  0.616900  0.952000  1.0  0.0665
  H  H43  1  0.350200  0.809200  0.891600  1.0  0.0652
  H  H44  1  0.324800  0.744700  0.812400  1.0  0.0715
  H  H45  1  0.451840  0.751900  0.889060  1.0  0.282
  H  H46  1  0.429800  0.753400  0.806890  1.0  0.2907
  H  H47  1  0.070650  0.720600  0.170600  1.0  0.2711
  H  H48  1  0.054080  0.743100  0.088900  1.0  0.2618
  H  H49  1  0.151700  0.688200  0.094400  1.0  0.0635
  H  H50  1  0.171400  0.742500  0.177000  1.0  0.0686
  H  H51  1  0.156760  0.885900  0.043720  1.0  0.062
  H  H52  1  0.223760  0.863600  0.101400  1.0  0.0672
  H  H53  1  0.189890  0.994400  0.184310  1.0  0.2063
  H  H54  1  0.220240  0.133000  0.100000  1.0  0.0661
  H  H55  1  0.149690  0.116900  0.048000  1.0  0.0659
  H  H56  1  0.149800  0.309200  0.108400  1.0  0.0657
  H  H57  1  0.175200  0.244700  0.187600  1.0  0.0711
  H  H58  1  0.048160  0.251900  0.110940  1.0  0.2833
  H  H59  1  0.070200  0.253400  0.193110  1.0  0.292
  H  H60  1  0.929350  0.720600  0.829400  1.0  0.2737
  H  H61  1  0.945920  0.743100  0.911100  1.0  0.2613
  H  H62  1  0.848300  0.688200  0.905600  1.0  0.0653
  H  H63  1  0.828600  0.742500  0.823000  1.0  0.0657
  H  H64  1  0.843240  0.885900  0.956280  1.0  0.0626
  H  H65  1  0.776240  0.863600  0.898600  1.0  0.0673
  H  H66  1  0.810110  0.994400  0.815690  1.0  0.2065
  H  H67  1  0.779760  0.133000  0.900000  1.0  0.067
  H  H68  1  0.850310  0.116900  0.952000  1.0  0.0665
  H  H69  1  0.850200  0.309200  0.891600  1.0  0.0652
  H  H70  1  0.824800  0.244700  0.812400  1.0  0.0715
  H  H71  1  0.951840  0.251900  0.889060  1.0  0.282
  H  H72  1  0.929800  0.253400  0.806890  1.0  0.2907
  C  C73  1  0.483040  0.983300  0.022630  1.0  -0.0138
  C  C74  1  0.271380  0.994400  0.965830  1.0  -0.0323
  C  C75  1  0.375590  0.674800  0.126650  1.0  -0.0635
  C  C76  1  0.376810  0.311700  0.116070  1.0  -0.0312
  C  C77  1  0.551090  0.005800  0.257170  1.0  -0.0946
  C  C78  1  0.317630  0.014600  0.261870  1.0  -0.0521
  C  C79  1  0.231490  0.988000  0.768780  1.0  -0.1016
  C  C80  1  0.266920  0.994600  0.727050  1.0  -0.0959
  C  C81  1  0.665380  0.011400  0.461860  1.0  -0.1424
  C  C82  1  0.683770  0.012200  0.527460  1.0  -0.1589
  C  C83  1  0.697110  0.338200  0.346340  1.0  -0.075
  C  C84  1  0.688670  0.683900  0.351510  1.0  -0.0714
  C  C85  1  0.983040  0.483300  0.022630  1.0  -0.0138
  C  C86  1  0.771380  0.494400  0.965830  1.0  -0.0324
  C  C87  1  0.875590  0.174800  0.126650  1.0  -0.0635
  C  C88  1  0.876810  0.811700  0.116070  1.0  -0.0312
  C  C89  1  0.051090  0.505800  0.257170  1.0  -0.0946
  C  C90  1  0.817630  0.514600  0.261870  1.0  -0.0521
  C  C91  1  0.731490  0.488000  0.768780  1.0  -0.1016
  C  C92  1  0.766920  0.494600  0.727050  1.0  -0.0959
  C  C93  1  0.165380  0.511400  0.461860  1.0  -0.1424
  C  C94  1  0.183770  0.512200  0.527460  1.0  -0.1589
  C  C95  1  0.197110  0.838200  0.346340  1.0  -0.075
  C  C96  1  0.188670  0.183900  0.351510  1.0  -0.0714
  C  C97  1  0.516960  0.983300  0.977370  1.0  -0.0099
  C  C98  1  0.728620  0.994400  0.034170  1.0  -0.0325
  C  C99  1  0.624410  0.674800  0.873350  1.0  -0.0616
  C  C100  1  0.623190  0.311700  0.883930  1.0  -0.0292
  C  C101  1  0.448910  0.005800  0.742830  1.0  -0.0946
  C  C102  1  0.682370  0.014600  0.738130  1.0  -0.0513
  C  C103  1  0.768510  0.988000  0.231220  1.0  -0.0996
  C  C104  1  0.733080  0.994600  0.272950  1.0  -0.0956
  C  C105  1  0.334620  0.011400  0.538140  1.0  -0.142
  C  C106  1  0.316230  0.012200  0.472540  1.0  -0.1585
  C  C107  1  0.302890  0.338200  0.653660  1.0  -0.0763
  C  C108  1  0.311330  0.683900  0.648490  1.0  -0.0715
  C  C109  1  0.016960  0.483300  0.977370  1.0  -0.0099
  C  C110  1  0.228620  0.494400  0.034170  1.0  -0.0325
  C  C111  1  0.124410  0.174800  0.873350  1.0  -0.0615
  C  C112  1  0.123190  0.811700  0.883930  1.0  -0.0292
  C  C113  1  0.948910  0.505800  0.742830  1.0  -0.0946
  C  C114  1  0.182370  0.514600  0.738130  1.0  -0.0513
  C  C115  1  0.268510  0.488000  0.231220  1.0  -0.0996
  C  C116  1  0.233080  0.494600  0.272950  1.0  -0.0956
  C  C117  1  0.834620  0.511400  0.538140  1.0  -0.142
  C  C118  1  0.816230  0.512200  0.472540  1.0  -0.1587
  C  C119  1  0.802890  0.838200  0.653660  1.0  -0.0763
  C  C120  1  0.811330  0.183900  0.648490  1.0  -0.0715
  C  C121  1  0.504520  0.499100  0.031600  1.0  -0.0509
  C  C122  1  0.502460  0.464300  0.255660  1.0  0.0599
  C  C123  1  0.646200  0.261400  0.126900  1.0  0.0021
  C  C124  1  0.675550  0.376100  0.097200  1.0  -0.0141
  C  C125  1  0.672600  0.620300  0.100400  1.0  -0.006
  C  C126  1  0.646800  0.731700  0.138500  1.0  -0.0117
  C  C127  1  0.495480  0.499100  0.968400  1.0  -0.0503
  C  C128  1  0.497540  0.464300  0.744340  1.0  0.0595
  C  C129  1  0.353800  0.261400  0.873100  1.0  0.0013
  C  C130  1  0.324450  0.376100  0.902800  1.0  -0.0131
  C  C131  1  0.327400  0.620300  0.899600  1.0  -0.006
  C  C132  1  0.353200  0.731700  0.861500  1.0  -0.0118
  C  C133  1  0.004520  0.999100  0.031600  1.0  -0.0509
  C  C134  1  0.002460  0.964300  0.255660  1.0  0.0599
  C  C135  1  0.146200  0.761400  0.126900  1.0  0.0021
  C  C136  1  0.175550  0.876100  0.097200  1.0  -0.0141
  C  C137  1  0.172600  0.120300  0.100400  1.0  -0.006
  C  C138  1  0.146800  0.231700  0.138500  1.0  -0.0117
  C  C139  1  0.995480  0.999100  0.968400  1.0  -0.0503
  C  C140  1  0.997540  0.964300  0.744340  1.0  0.0595
  C  C141  1  0.853800  0.761400  0.873100  1.0  0.0013
  C  C142  1  0.824450  0.876100  0.902800  1.0  -0.0131
  C  C143  1  0.827400  0.120300  0.899600  1.0  -0.006
  C  C144  1  0.853200  0.231700  0.861500  1.0  -0.0118
  N  N145  1  0.316630  0.990500  0.014200  1.0  -0.4804
  N  N146  1  0.400680  0.771900  0.124380  1.0  -0.4142
  N  N147  1  0.402060  0.217800  0.109850  1.0  -0.4231
  N  N148  1  0.505270  0.003500  0.210800  1.0  -0.4146
  N  N149  1  0.344750  0.005800  0.210580  1.0  -0.4096
  N  N150  1  0.670440  0.240700  0.341290  1.0  -0.4261
  N  N151  1  0.653730  0.768600  0.347920  1.0  -0.4902
  N  N152  1  0.816630  0.490500  0.014200  1.0  -0.4804
  N  N153  1  0.900680  0.271900  0.124380  1.0  -0.4142
  N  N154  1  0.902060  0.717800  0.109850  1.0  -0.4231
  N  N155  1  0.005270  0.503500  0.210800  1.0  -0.4146
  N  N156  1  0.844750  0.505800  0.210580  1.0  -0.4096
  N  N157  1  0.170440  0.740700  0.341290  1.0  -0.4261
  N  N158  1  0.153730  0.268600  0.347920  1.0  -0.4902
  N  N159  1  0.683370  0.990500  0.985800  1.0  -0.4802
  N  N160  1  0.599320  0.771900  0.875620  1.0  -0.4153
  N  N161  1  0.597940  0.217800  0.890150  1.0  -0.4216
  N  N162  1  0.494730  0.003500  0.789200  1.0  -0.4145
  N  N163  1  0.655250  0.005800  0.789420  1.0  -0.4085
  N  N164  1  0.329560  0.240700  0.658710  1.0  -0.4267
  N  N165  1  0.346270  0.768600  0.652080  1.0  -0.4902
  N  N166  1  0.183370  0.490500  0.985800  1.0  -0.4802
  N  N167  1  0.099320  0.271900  0.875620  1.0  -0.4153
  N  N168  1  0.097940  0.717800  0.890150  1.0  -0.4216
  N  N169  1  0.994730  0.503500  0.789200  1.0  -0.4145
  N  N170  1  0.155250  0.505800  0.789420  1.0  -0.4085
  N  N171  1  0.829560  0.740700  0.658710  1.0  -0.4267
  N  N172  1  0.846270  0.268600  0.652080  1.0  -0.4902
  N  N173  1  0.477450  0.440200  0.302590  1.0  -0.3613
  N  N174  1  0.579400  0.271300  0.132400  1.0  -0.6713
  N  N175  1  0.663040  0.495300  0.137780  1.0  -0.4037
  N  N176  1  0.576180  0.714500  0.149620  1.0  -0.6722
  N  N177  1  0.522550  0.440200  0.697410  1.0  -0.3608
  N  N178  1  0.420600  0.271300  0.867600  1.0  -0.6708
  N  N179  1  0.336960  0.495300  0.862220  1.0  -0.4034
  N  N180  1  0.423820  0.714500  0.850380  1.0  -0.6724
  N  N181  1  0.977450  0.940200  0.302590  1.0  -0.3613
  N  N182  1  0.079400  0.771300  0.132400  1.0  -0.6713
  N  N183  1  0.163040  0.995300  0.137780  1.0  -0.4037
  N  N184  1  0.076180  0.214500  0.149620  1.0  -0.6722
  N  N185  1  0.022550  0.940200  0.697410  1.0  -0.3608
  N  N186  1  0.920600  0.771300  0.867600  1.0  -0.6708
  N  N187  1  0.836960  0.995300  0.862220  1.0  -0.4034
  N  N188  1  0.923820  0.214500  0.850380  1.0  -0.6724
