# generated using pymatgen
data_Al3P3O12F
_symmetry_space_group_name_H-M   'P 1'
_cell_length_a   9.11800000
_cell_length_b   9.16100000
_cell_length_c   9.33500000
_cell_angle_alpha   85.98000000
_cell_angle_beta   77.45000000
_cell_angle_gamma   89.01000000
_symmetry_Int_Tables_number   1
_chemical_formula_structural   Al3P3O12F
_chemical_formula_sum   'Al6 P6 O24 F2'
_cell_volume   759.24740640
_cell_formula_units_Z   2
loop_
 _symmetry_equiv_pos_site_id
 _symmetry_equiv_pos_as_xyz
  1  'x, y, z'
loop_
 _atom_site_type_symbol
 _atom_site_label
 _atom_site_symmetry_multiplicity
 _atom_site_fract_x
 _atom_site_fract_y
 _atom_site_fract_z
 _atom_site_occupancy
 _atom_site_charge
  Al  Al1  1  0.629600  0.157200  0.079100  1.0  1.9643
  Al  Al2  1  0.134500  0.437700  0.914800  1.0  1.8277
  Al  Al3  1  0.606200  0.378600  0.656000  1.0  1.996
  Al  Al4  1  0.370400  0.842800  0.920900  1.0  1.9644
  Al  Al5  1  0.865500  0.562300  0.085200  1.0  1.8282
  Al  Al6  1  0.393800  0.621400  0.344000  1.0  1.9955
  P  P7  1  0.381200  0.185600  0.900400  1.0  2.0649
  P  P8  1  0.830000  0.354500  0.856700  1.0  1.8189
  P  P9  1  0.627600  0.379300  0.323800  1.0  2.0483
  P  P10  1  0.618800  0.814400  0.099600  1.0  2.0667
  P  P11  1  0.170000  0.645500  0.143300  1.0  1.8212
  P  P12  1  0.372400  0.620700  0.676200  1.0  2.045
  O  O13  1  0.774400  0.202200  0.927600  1.0  -0.8659
  O  O14  1  0.457500  0.188400  0.030600  1.0  -0.9979
  O  O15  1  0.352900  0.026900  0.873500  1.0  -0.9917
  O  O16  1  0.486800  0.249400  0.761100  1.0  -1.035
  O  O17  1  0.233900  0.264800  0.930600  1.0  -0.9084
  O  O18  1  0.764700  0.469200  0.962200  1.0  -0.8363
  O  O19  1  0.774900  0.378400  0.712100  1.0  -0.9386
  O  O20  1  0.001100  0.355400  0.811900  1.0  -0.7465
  O  O21  1  0.746000  0.491900  0.258300  1.0  -0.9167
  O  O22  1  0.647600  0.324600  0.476900  1.0  -0.9767
  O  O23  1  0.637300  0.244900  0.234800  1.0  -1.002
  O  O24  1  0.470700  0.446900  0.338700  1.0  -0.941
  O  O25  1  0.225600  0.797800  0.072400  1.0  -0.8665
  O  O26  1  0.542500  0.811600  0.969400  1.0  -0.9979
  O  O27  1  0.647100  0.973100  0.126500  1.0  -0.9918
  O  O28  1  0.513200  0.750600  0.238900  1.0  -1.0357
  O  O29  1  0.766100  0.735200  0.069400  1.0  -0.91
  O  O30  1  0.235300  0.530800  0.037800  1.0  -0.8379
  O  O31  1  0.225100  0.621600  0.287900  1.0  -0.9398
  O  O32  1  0.998900  0.644600  0.188100  1.0  -0.7464
  O  O33  1  0.254000  0.508100  0.741700  1.0  -0.918
  O  O34  1  0.352400  0.675400  0.523100  1.0  -0.9781
  O  O35  1  0.362700  0.755100  0.765200  1.0  -1.0027
  O  O36  1  0.529300  0.553100  0.661300  1.0  -0.9397
  F  F37  1  0.987100  0.392400  0.082200  1.0  -0.5596
  F  F38  1  0.012900  0.607600  0.917800  1.0  -0.5603
