# generated using pymatgen
data_TbPH12(C3O)7
_symmetry_space_group_name_H-M   'P 1'
_cell_length_a   12.10000000
_cell_length_b   27.18500000
_cell_length_c   20.60500000
_cell_angle_alpha   90.00000000
_cell_angle_beta   90.00000000
_cell_angle_gamma   90.00000000
_symmetry_Int_Tables_number   1
_chemical_formula_structural   TbPH12(C3O)7
_chemical_formula_sum   'Tb8 P8 H96 C168 O56'
_cell_volume   6777.77779250
_cell_formula_units_Z   8
loop_
 _symmetry_equiv_pos_site_id
 _symmetry_equiv_pos_as_xyz
  1  'x, y, z'
loop_
 _atom_site_type_symbol
 _atom_site_label
 _atom_site_symmetry_multiplicity
 _atom_site_fract_x
 _atom_site_fract_y
 _atom_site_fract_z
 _atom_site_occupancy
 _atom_site_charge
  Tb  Tb1  1  0.889110  0.428570  0.977750  1.0  2.249
  Tb  Tb2  1  0.610890  0.071430  0.977750  1.0  2.2489
  Tb  Tb3  1  0.389110  0.571430  0.522250  1.0  2.2517
  Tb  Tb4  1  0.110890  0.928570  0.522250  1.0  2.2518
  Tb  Tb5  1  0.110890  0.571430  0.022250  1.0  2.2517
  Tb  Tb6  1  0.389110  0.928570  0.022250  1.0  2.2518
  Tb  Tb7  1  0.610890  0.428570  0.477750  1.0  2.2489
  Tb  Tb8  1  0.889110  0.071430  0.477750  1.0  2.249
  P  P9  1  0.878200  0.107940  0.904050  1.0  1.069
  P  P10  1  0.621800  0.392060  0.904050  1.0  1.0691
  P  P11  1  0.378200  0.892060  0.595950  1.0  1.069
  P  P12  1  0.121800  0.607940  0.595950  1.0  1.0702
  P  P13  1  0.121800  0.892060  0.095950  1.0  1.0698
  P  P14  1  0.378200  0.607940  0.095950  1.0  1.0695
  P  P15  1  0.621800  0.107940  0.404050  1.0  1.0695
  P  P16  1  0.878200  0.392060  0.404050  1.0  1.0684
  H  H17  1  0.079500  0.160400  0.928600  1.0  0.0957
  H  H18  1  0.263000  0.136200  0.949500  1.0  0.112
  H  H19  1  0.165100  0.995600  0.962900  1.0  0.1146
  H  H20  1  0.985900  0.019300  0.941400  1.0  0.0858
  H  H21  1  0.042300  0.089700  0.807000  1.0  0.0985
  H  H22  1  0.038600  0.079000  0.694300  1.0  0.1052
  H  H23  1  0.704600  0.083200  0.697700  1.0  0.1076
  H  H24  1  0.711700  0.091600  0.811400  1.0  0.0943
  H  H25  1  0.882900  0.195200  0.819200  1.0  0.0877
  H  H26  1  0.892700  0.279500  0.838200  1.0  0.1156
  H  H27  1  0.887500  0.253000  0.031900  1.0  0.1106
  H  H28  1  0.867100  0.168500  0.012000  1.0  0.0968
  H  H29  1  0.420500  0.339600  0.928600  1.0  0.0948
  H  H30  1  0.237000  0.363800  0.949500  1.0  0.1128
  H  H31  1  0.334900  0.504400  0.962900  1.0  0.1149
  H  H32  1  0.514100  0.480700  0.941400  1.0  0.0863
  H  H33  1  0.457700  0.410300  0.807000  1.0  0.0981
  H  H34  1  0.461400  0.421000  0.694300  1.0  0.1052
  H  H35  1  0.795400  0.416800  0.697700  1.0  0.108
  H  H36  1  0.788300  0.408400  0.811400  1.0  0.0939
  H  H37  1  0.617100  0.304800  0.819200  1.0  0.0885
  H  H38  1  0.607300  0.220500  0.838200  1.0  0.1149
  H  H39  1  0.612500  0.247000  0.031900  1.0  0.1117
  H  H40  1  0.632900  0.331500  0.012000  1.0  0.0969
  H  H41  1  0.579500  0.839600  0.571400  1.0  0.0951
  H  H42  1  0.763000  0.863800  0.550500  1.0  0.1128
  H  H43  1  0.665100  0.004400  0.537100  1.0  0.1144
  H  H44  1  0.485900  0.980700  0.558600  1.0  0.0864
  H  H45  1  0.542300  0.910300  0.693000  1.0  0.0987
  H  H46  1  0.538600  0.921000  0.805700  1.0  0.1048
  H  H47  1  0.204600  0.916800  0.802300  1.0  0.1074
  H  H48  1  0.211700  0.908400  0.688600  1.0  0.0945
  H  H49  1  0.382900  0.804800  0.680800  1.0  0.0874
  H  H50  1  0.392700  0.720500  0.661800  1.0  0.1152
  H  H51  1  0.387500  0.747000  0.468100  1.0  0.1113
  H  H52  1  0.367100  0.831500  0.488000  1.0  0.0973
  H  H53  1  0.920500  0.660400  0.571400  1.0  0.0948
  H  H54  1  0.737000  0.636200  0.550500  1.0  0.1127
  H  H55  1  0.834900  0.495600  0.537100  1.0  0.1146
  H  H56  1  0.014100  0.519300  0.558600  1.0  0.0866
  H  H57  1  0.957700  0.589700  0.693000  1.0  0.0979
  H  H58  1  0.961400  0.579000  0.805700  1.0  0.1047
  H  H59  1  0.295400  0.583200  0.802300  1.0  0.1075
  H  H60  1  0.288300  0.591600  0.688600  1.0  0.0948
  H  H61  1  0.117100  0.695200  0.680800  1.0  0.087
  H  H62  1  0.107300  0.779500  0.661800  1.0  0.116
  H  H63  1  0.112500  0.753000  0.468100  1.0  0.1108
  H  H64  1  0.132900  0.668500  0.488000  1.0  0.097
  H  H65  1  0.920500  0.839600  0.071400  1.0  0.0947
  H  H66  1  0.737000  0.863800  0.050500  1.0  0.113
  H  H67  1  0.834900  0.004400  0.037100  1.0  0.1147
  H  H68  1  0.014100  0.980700  0.058600  1.0  0.0864
  H  H69  1  0.957700  0.910300  0.193000  1.0  0.0983
  H  H70  1  0.961400  0.921000  0.305700  1.0  0.1046
  H  H71  1  0.295400  0.916800  0.302300  1.0  0.1077
  H  H72  1  0.288300  0.908400  0.188600  1.0  0.0947
  H  H73  1  0.117100  0.804800  0.180800  1.0  0.0873
  H  H74  1  0.107300  0.720500  0.161800  1.0  0.1163
  H  H75  1  0.112500  0.747000  0.968100  1.0  0.1105
  H  H76  1  0.132900  0.831500  0.988000  1.0  0.0971
  H  H77  1  0.579500  0.660400  0.071400  1.0  0.0954
  H  H78  1  0.763000  0.636200  0.050500  1.0  0.1122
  H  H79  1  0.665100  0.495600  0.037100  1.0  0.1145
  H  H80  1  0.485900  0.519300  0.058600  1.0  0.0861
  H  H81  1  0.542300  0.589700  0.193000  1.0  0.0985
  H  H82  1  0.538600  0.579000  0.305700  1.0  0.1047
  H  H83  1  0.204600  0.583200  0.302300  1.0  0.1074
  H  H84  1  0.211700  0.591600  0.188600  1.0  0.0949
  H  H85  1  0.382900  0.695200  0.180800  1.0  0.087
  H  H86  1  0.392700  0.779500  0.161800  1.0  0.115
  H  H87  1  0.387500  0.753000  0.968100  1.0  0.1115
  H  H88  1  0.367100  0.668500  0.988000  1.0  0.0977
  H  H89  1  0.420500  0.160400  0.428600  1.0  0.0948
  H  H90  1  0.237000  0.136200  0.449500  1.0  0.1125
  H  H91  1  0.334900  0.995600  0.462900  1.0  0.1148
  H  H92  1  0.514100  0.019300  0.441400  1.0  0.0863
  H  H93  1  0.457700  0.089700  0.307000  1.0  0.098
  H  H94  1  0.461400  0.079000  0.194300  1.0  0.105
  H  H95  1  0.795400  0.083200  0.197700  1.0  0.1078
  H  H96  1  0.788300  0.091600  0.311400  1.0  0.0942
  H  H97  1  0.617100  0.195200  0.319200  1.0  0.0879
  H  H98  1  0.607300  0.279500  0.338200  1.0  0.1153
  H  H99  1  0.612500  0.253000  0.531900  1.0  0.1118
  H  H100  1  0.632900  0.168500  0.512000  1.0  0.0972
  H  H101  1  0.079500  0.339600  0.428600  1.0  0.0955
  H  H102  1  0.263000  0.363800  0.449500  1.0  0.1124
  H  H103  1  0.165100  0.504400  0.462900  1.0  0.1146
  H  H104  1  0.985900  0.480700  0.441400  1.0  0.0862
  H  H105  1  0.042300  0.410300  0.307000  1.0  0.0986
  H  H106  1  0.038600  0.421000  0.194300  1.0  0.1055
  H  H107  1  0.704600  0.416800  0.197700  1.0  0.1077
  H  H108  1  0.711700  0.408400  0.311400  1.0  0.0939
  H  H109  1  0.882900  0.304800  0.319200  1.0  0.0884
  H  H110  1  0.892700  0.220500  0.338200  1.0  0.1153
  H  H111  1  0.887500  0.247000  0.531900  1.0  0.1105
  H  H112  1  0.867100  0.331500  0.512000  1.0  0.0964
  C  C113  1  0.015600  0.091500  0.929100  1.0  -0.1902
  C  C114  1  0.096900  0.126600  0.934300  1.0  -0.0909
  C  C115  1  0.205900  0.112300  0.948100  1.0  -0.0472
  C  C116  1  0.229800  0.065000  0.959200  1.0  -0.1341
  C  C117  1  0.148000  0.029200  0.955800  1.0  -0.1562
  C  C118  1  0.042600  0.043500  0.942000  1.0  -0.0676
  C  C119  1  0.347100  0.050800  0.974600  1.0  0.758
  C  C120  1  0.874800  0.096100  0.818000  1.0  -0.1302
  C  C121  1  0.973800  0.089500  0.784400  1.0  -0.0463
  C  C122  1  0.971300  0.082700  0.717600  1.0  -0.0416
  C  C123  1  0.870700  0.081100  0.684500  1.0  -0.1204
  C  C124  1  0.773900  0.084800  0.719300  1.0  -0.0858
  C  C125  1  0.778400  0.091000  0.787100  1.0  -0.0406
  C  C126  1  0.869100  0.074300  0.613100  1.0  0.6821
  C  C127  1  0.873500  0.172500  0.914400  1.0  -0.2019
  C  C128  1  0.882100  0.207000  0.862600  1.0  -0.0528
  C  C129  1  0.889400  0.257000  0.873500  1.0  -0.0864
  C  C130  1  0.891800  0.273600  0.937000  1.0  -0.1078
  C  C131  1  0.884900  0.241100  0.988600  1.0  -0.0809
  C  C132  1  0.874100  0.190600  0.976500  1.0  -0.0747
  C  C133  1  0.898700  0.328100  0.949200  1.0  0.679
  C  C134  1  0.484400  0.408500  0.929100  1.0  -0.1928
  C  C135  1  0.403100  0.373400  0.934300  1.0  -0.0898
  C  C136  1  0.294100  0.387700  0.948100  1.0  -0.0467
  C  C137  1  0.270200  0.435000  0.959200  1.0  -0.1345
  C  C138  1  0.352000  0.470800  0.955800  1.0  -0.1569
  C  C139  1  0.457400  0.456500  0.942000  1.0  -0.0698
  C  C140  1  0.152900  0.449200  0.974600  1.0  0.7594
  C  C141  1  0.625200  0.403900  0.818000  1.0  -0.1308
  C  C142  1  0.526200  0.410500  0.784400  1.0  -0.0462
  C  C143  1  0.528700  0.417300  0.717600  1.0  -0.043
  C  C144  1  0.629300  0.418900  0.684500  1.0  -0.1203
  C  C145  1  0.726100  0.415200  0.719300  1.0  -0.0836
  C  C146  1  0.721600  0.409000  0.787100  1.0  -0.0406
  C  C147  1  0.630900  0.425700  0.613100  1.0  0.6821
  C  C148  1  0.626500  0.327500  0.914400  1.0  -0.2033
  C  C149  1  0.617900  0.293000  0.862600  1.0  -0.0519
  C  C150  1  0.610600  0.243000  0.873500  1.0  -0.088
  C  C151  1  0.608200  0.226400  0.937000  1.0  -0.1082
  C  C152  1  0.615100  0.258900  0.988600  1.0  -0.0807
  C  C153  1  0.625900  0.309400  0.976500  1.0  -0.0754
  C  C154  1  0.601300  0.171900  0.949200  1.0  0.6793
  C  C155  1  0.515600  0.908500  0.570900  1.0  -0.1901
  C  C156  1  0.596900  0.873400  0.565700  1.0  -0.0891
  C  C157  1  0.705900  0.887700  0.551900  1.0  -0.048
  C  C158  1  0.729800  0.935000  0.540800  1.0  -0.1337
  C  C159  1  0.648000  0.970800  0.544200  1.0  -0.1561
  C  C160  1  0.542600  0.956500  0.558000  1.0  -0.0693
  C  C161  1  0.847100  0.949200  0.525400  1.0  0.7576
  C  C162  1  0.374800  0.903900  0.682000  1.0  -0.1314
  C  C163  1  0.473800  0.910500  0.715600  1.0  -0.0457
  C  C164  1  0.471300  0.917300  0.782400  1.0  -0.0411
  C  C165  1  0.370700  0.918900  0.815500  1.0  -0.1208
  C  C166  1  0.273900  0.915200  0.780700  1.0  -0.0857
  C  C167  1  0.278400  0.909000  0.712900  1.0  -0.0418
  C  C168  1  0.369100  0.925700  0.886900  1.0  0.6824
  C  C169  1  0.373500  0.827500  0.585600  1.0  -0.2031
  C  C170  1  0.382100  0.793000  0.637400  1.0  -0.0533
  C  C171  1  0.389400  0.743000  0.626500  1.0  -0.0869
  C  C172  1  0.391800  0.726400  0.563000  1.0  -0.1082
  C  C173  1  0.384900  0.758900  0.511400  1.0  -0.0792
  C  C174  1  0.374100  0.809400  0.523500  1.0  -0.0744
  C  C175  1  0.398700  0.671900  0.550800  1.0  0.6791
  C  C176  1  0.984400  0.591500  0.570900  1.0  -0.192
  C  C177  1  0.903100  0.626600  0.565700  1.0  -0.0908
  C  C178  1  0.794100  0.612300  0.551900  1.0  -0.0481
  C  C179  1  0.770200  0.565000  0.540800  1.0  -0.1337
  C  C180  1  0.852000  0.529200  0.544200  1.0  -0.1565
  C  C181  1  0.957400  0.543500  0.558000  1.0  -0.0685
  C  C182  1  0.652900  0.550800  0.525400  1.0  0.7592
  C  C183  1  0.125200  0.596100  0.682000  1.0  -0.1306
  C  C184  1  0.026200  0.589500  0.715600  1.0  -0.0464
  C  C185  1  0.028700  0.582700  0.782400  1.0  -0.0433
  C  C186  1  0.129300  0.581100  0.815500  1.0  -0.121
  C  C187  1  0.226100  0.584800  0.780700  1.0  -0.0826
  C  C188  1  0.221600  0.591000  0.712900  1.0  -0.0401
  C  C189  1  0.130900  0.574300  0.886900  1.0  0.6827
  C  C190  1  0.126500  0.672500  0.585600  1.0  -0.2024
  C  C191  1  0.117900  0.707000  0.637400  1.0  -0.0531
  C  C192  1  0.110600  0.757000  0.626500  1.0  -0.0891
  C  C193  1  0.108200  0.773600  0.563000  1.0  -0.1071
  C  C194  1  0.115100  0.741100  0.511400  1.0  -0.0782
  C  C195  1  0.125900  0.690600  0.523500  1.0  -0.0736
  C  C196  1  0.101300  0.828100  0.550800  1.0  0.6795
  C  C197  1  0.984400  0.908500  0.070900  1.0  -0.1922
  C  C198  1  0.903100  0.873400  0.065700  1.0  -0.0899
  C  C199  1  0.794100  0.887700  0.051900  1.0  -0.0468
  C  C200  1  0.770200  0.935000  0.040800  1.0  -0.1343
  C  C201  1  0.852000  0.970800  0.044200  1.0  -0.1565
  C  C202  1  0.957400  0.956500  0.058000  1.0  -0.0699
  C  C203  1  0.652900  0.949200  0.025400  1.0  0.759
  C  C204  1  0.125200  0.903900  0.182000  1.0  -0.1313
  C  C205  1  0.026200  0.910500  0.215600  1.0  -0.0464
  C  C206  1  0.028700  0.917300  0.282400  1.0  -0.0433
  C  C207  1  0.129300  0.918900  0.315500  1.0  -0.1208
  C  C208  1  0.226100  0.915200  0.280700  1.0  -0.0827
  C  C209  1  0.221600  0.909000  0.212900  1.0  -0.0402
  C  C210  1  0.130900  0.925700  0.386900  1.0  0.6827
  C  C211  1  0.126500  0.827500  0.085600  1.0  -0.2033
  C  C212  1  0.117900  0.793000  0.137400  1.0  -0.0538
  C  C213  1  0.110600  0.743000  0.126500  1.0  -0.0888
  C  C214  1  0.108200  0.726400  0.063000  1.0  -0.1086
  C  C215  1  0.115100  0.758900  0.011400  1.0  -0.0765
  C  C216  1  0.125900  0.809400  0.023500  1.0  -0.0737
  C  C217  1  0.101300  0.671900  0.050800  1.0  0.6792
  C  C218  1  0.515600  0.591500  0.070900  1.0  -0.19
  C  C219  1  0.596900  0.626600  0.065700  1.0  -0.0906
  C  C220  1  0.705900  0.612300  0.051900  1.0  -0.0476
  C  C221  1  0.729800  0.565000  0.040800  1.0  -0.1339
  C  C222  1  0.648000  0.529200  0.044200  1.0  -0.1562
  C  C223  1  0.542600  0.543500  0.058000  1.0  -0.0677
  C  C224  1  0.847100  0.550800  0.025400  1.0  0.7578
  C  C225  1  0.374800  0.596100  0.182000  1.0  -0.1306
  C  C226  1  0.473800  0.589500  0.215600  1.0  -0.0458
  C  C227  1  0.471300  0.582700  0.282400  1.0  -0.0411
  C  C228  1  0.370700  0.581100  0.315500  1.0  -0.1209
  C  C229  1  0.273900  0.584800  0.280700  1.0  -0.0858
  C  C230  1  0.278400  0.591000  0.212900  1.0  -0.0414
  C  C231  1  0.369100  0.574300  0.386900  1.0  0.6823
  C  C232  1  0.373500  0.672500  0.085600  1.0  -0.2019
  C  C233  1  0.382100  0.707000  0.137400  1.0  -0.0529
  C  C234  1  0.389400  0.757000  0.126500  1.0  -0.086
  C  C235  1  0.391800  0.773600  0.063000  1.0  -0.1074
  C  C236  1  0.384900  0.741100  0.011400  1.0  -0.0803
  C  C237  1  0.374100  0.690600  0.023500  1.0  -0.0741
  C  C238  1  0.398700  0.828100  0.050800  1.0  0.6788
  C  C239  1  0.484400  0.091500  0.429100  1.0  -0.1927
  C  C240  1  0.403100  0.126600  0.434300  1.0  -0.0908
  C  C241  1  0.294100  0.112300  0.448100  1.0  -0.048
  C  C242  1  0.270200  0.065000  0.459200  1.0  -0.1336
  C  C243  1  0.352000  0.029200  0.455800  1.0  -0.1564
  C  C244  1  0.457400  0.043500  0.442000  1.0  -0.0683
  C  C245  1  0.152900  0.050800  0.474600  1.0  0.7596
  C  C246  1  0.625200  0.096100  0.318000  1.0  -0.1301
  C  C247  1  0.526200  0.089500  0.284400  1.0  -0.0459
  C  C248  1  0.528700  0.082700  0.217600  1.0  -0.0429
  C  C249  1  0.629300  0.081100  0.184500  1.0  -0.1205
  C  C250  1  0.726100  0.084800  0.219300  1.0  -0.0836
  C  C251  1  0.721600  0.091000  0.287100  1.0  -0.0402
  C  C252  1  0.630900  0.074300  0.113100  1.0  0.6822
  C  C253  1  0.626500  0.172500  0.414400  1.0  -0.2023
  C  C254  1  0.617900  0.207000  0.362600  1.0  -0.052
  C  C255  1  0.610600  0.257000  0.373500  1.0  -0.0881
  C  C256  1  0.608200  0.273600  0.437000  1.0  -0.1071
  C  C257  1  0.615100  0.241100  0.488600  1.0  -0.0807
  C  C258  1  0.625900  0.190600  0.476500  1.0  -0.0749
  C  C259  1  0.601300  0.328100  0.449200  1.0  0.6796
  C  C260  1  0.015600  0.408500  0.429100  1.0  -0.1904
  C  C261  1  0.096900  0.373400  0.434300  1.0  -0.0894
  C  C262  1  0.205900  0.387700  0.448100  1.0  -0.0478
  C  C263  1  0.229800  0.435000  0.459200  1.0  -0.1341
  C  C264  1  0.148000  0.470800  0.455800  1.0  -0.1565
  C  C265  1  0.042600  0.456500  0.442000  1.0  -0.0693
  C  C266  1  0.347100  0.449200  0.474600  1.0  0.7577
  C  C267  1  0.874800  0.403900  0.318000  1.0  -0.1309
  C  C268  1  0.973800  0.410500  0.284400  1.0  -0.0463
  C  C269  1  0.971300  0.417300  0.217600  1.0  -0.0416
  C  C270  1  0.870700  0.418900  0.184500  1.0  -0.1202
  C  C271  1  0.773900  0.415200  0.219300  1.0  -0.0856
  C  C272  1  0.778400  0.409000  0.287100  1.0  -0.0413
  C  C273  1  0.869100  0.425700  0.113100  1.0  0.682
  C  C274  1  0.873500  0.327500  0.414400  1.0  -0.203
  C  C275  1  0.882100  0.293000  0.362600  1.0  -0.0524
  C  C276  1  0.889400  0.243000  0.373500  1.0  -0.087
  C  C277  1  0.891800  0.226400  0.437000  1.0  -0.1081
  C  C278  1  0.884900  0.258900  0.488600  1.0  -0.0816
  C  C279  1  0.874100  0.309400  0.476500  1.0  -0.0753
  C  C280  1  0.898700  0.171900  0.449200  1.0  0.6794
  O  O281  1  0.792100  0.079800  0.940800  1.0  -0.9154
  O  O282  1  0.420500  0.082400  0.964000  1.0  -0.7023
  O  O283  1  0.365500  0.009600  0.997600  1.0  -0.7779
  O  O284  1  0.963200  0.065200  0.586500  1.0  -0.6633
  O  O285  1  0.782700  0.079000  0.580500  1.0  -0.6076
  O  O286  1  0.901800  0.359000  0.902000  1.0  -0.6202
  O  O287  1  0.898000  0.343400  0.007800  1.0  -0.6188
  O  O288  1  0.707900  0.420200  0.940800  1.0  -0.9167
  O  O289  1  0.079500  0.417600  0.964000  1.0  -0.7005
  O  O290  1  0.134500  0.490400  0.997600  1.0  -0.7782
  O  O291  1  0.536800  0.434800  0.586500  1.0  -0.6625
  O  O292  1  0.717300  0.421000  0.580500  1.0  -0.6089
  O  O293  1  0.598200  0.141000  0.902000  1.0  -0.6199
  O  O294  1  0.602000  0.156600  0.007800  1.0  -0.6194
  O  O295  1  0.292100  0.920200  0.559200  1.0  -0.9173
  O  O296  1  0.920500  0.917600  0.536000  1.0  -0.7007
  O  O297  1  0.865500  0.990400  0.502400  1.0  -0.7783
  O  O298  1  0.463200  0.934800  0.913500  1.0  -0.6642
  O  O299  1  0.282700  0.921000  0.919500  1.0  -0.6073
  O  O300  1  0.401800  0.641000  0.598000  1.0  -0.6239
  O  O301  1  0.398000  0.656600  0.492200  1.0  -0.6167
  O  O302  1  0.207900  0.579800  0.559200  1.0  -0.9168
  O  O303  1  0.579500  0.582400  0.536000  1.0  -0.7004
  O  O304  1  0.634500  0.509600  0.502400  1.0  -0.7804
  O  O305  1  0.036800  0.565200  0.913500  1.0  -0.662
  O  O306  1  0.217300  0.579000  0.919500  1.0  -0.6098
  O  O307  1  0.098200  0.859000  0.598000  1.0  -0.6203
  O  O308  1  0.102000  0.843400  0.492200  1.0  -0.6169
  O  O309  1  0.207900  0.920200  0.059200  1.0  -0.917
  O  O310  1  0.579500  0.917600  0.036000  1.0  -0.6998
  O  O311  1  0.634500  0.990400  0.002400  1.0  -0.7795
  O  O312  1  0.036800  0.934800  0.413500  1.0  -0.6624
  O  O313  1  0.217300  0.921000  0.419500  1.0  -0.6095
  O  O314  1  0.098200  0.641000  0.098000  1.0  -0.6203
  O  O315  1  0.102000  0.656600  0.992200  1.0  -0.6168
  O  O316  1  0.292100  0.579800  0.059200  1.0  -0.9166
  O  O317  1  0.920500  0.582400  0.036000  1.0  -0.7023
  O  O318  1  0.865500  0.509600  0.002400  1.0  -0.7789
  O  O319  1  0.463200  0.565200  0.413500  1.0  -0.6641
  O  O320  1  0.282700  0.579000  0.419500  1.0  -0.608
  O  O321  1  0.401800  0.859000  0.098000  1.0  -0.6228
  O  O322  1  0.398000  0.843400  0.992200  1.0  -0.6167
  O  O323  1  0.707900  0.079800  0.440800  1.0  -0.9159
  O  O324  1  0.079500  0.082400  0.464000  1.0  -0.7008
  O  O325  1  0.134500  0.009600  0.497600  1.0  -0.7795
  O  O326  1  0.536800  0.065200  0.086500  1.0  -0.6623
  O  O327  1  0.717300  0.079000  0.080500  1.0  -0.6092
  O  O328  1  0.598200  0.359000  0.402000  1.0  -0.6195
  O  O329  1  0.602000  0.343400  0.507800  1.0  -0.6201
  O  O330  1  0.792100  0.420200  0.440800  1.0  -0.9167
  O  O331  1  0.420500  0.417600  0.464000  1.0  -0.7018
  O  O332  1  0.365500  0.490400  0.497600  1.0  -0.7771
  O  O333  1  0.963200  0.434800  0.086500  1.0  -0.6633
  O  O334  1  0.782700  0.421000  0.080500  1.0  -0.607
  O  O335  1  0.901800  0.141000  0.402000  1.0  -0.6213
  O  O336  1  0.898000  0.156600  0.507800  1.0  -0.6183
