# generated using pymatgen
data_Cu3H24C42(NO6)2
_symmetry_space_group_name_H-M   'P 1'
_cell_length_a   23.21100000
_cell_length_b   23.21100000
_cell_length_c   23.21100000
_cell_angle_alpha   90.00000000
_cell_angle_beta   90.00000000
_cell_angle_gamma   90.00000000
_symmetry_Int_Tables_number   1
_chemical_formula_structural   Cu3H24C42(NO6)2
_chemical_formula_sum   'Cu12 H96 C168 N8 O48'
_cell_volume   12504.93834293
_cell_formula_units_Z   4
loop_
 _symmetry_equiv_pos_site_id
 _symmetry_equiv_pos_as_xyz
  1  'x, y, z'
loop_
 _atom_site_type_symbol
 _atom_site_label
 _atom_site_symmetry_multiplicity
 _atom_site_fract_x
 _atom_site_fract_y
 _atom_site_fract_z
 _atom_site_occupancy
 _atom_site_charge
  Cu  Cu1  1  0.693520  0.500000  0.000000  1.0  0.9096
  Cu  Cu2  1  0.306480  0.500000  0.000000  1.0  0.912
  Cu  Cu3  1  0.000000  0.693520  0.500000  1.0  0.9147
  Cu  Cu4  1  0.000000  0.306480  0.500000  1.0  0.9134
  Cu  Cu5  1  0.500000  0.000000  0.693520  1.0  0.912
  Cu  Cu6  1  0.500000  0.000000  0.306480  1.0  0.9125
  Cu  Cu7  1  0.000000  0.193520  0.500000  1.0  0.9147
  Cu  Cu8  1  0.000000  0.806480  0.500000  1.0  0.9134
  Cu  Cu9  1  0.193520  0.500000  0.000000  1.0  0.9096
  Cu  Cu10  1  0.806480  0.500000  0.000000  1.0  0.912
  Cu  Cu11  1  0.500000  0.000000  0.806480  1.0  0.9125
  Cu  Cu12  1  0.500000  0.000000  0.193520  1.0  0.912
  H  H13  1  0.665500  0.629800  0.871100  1.0  0.0938
  H  H14  1  0.664800  0.695700  0.796700  1.0  0.1266
  H  H15  1  0.334500  0.370200  0.871100  1.0  0.093
  H  H16  1  0.335200  0.304300  0.796700  1.0  0.1255
  H  H17  1  0.334500  0.629800  0.128900  1.0  0.0935
  H  H18  1  0.335200  0.695700  0.203300  1.0  0.1256
  H  H19  1  0.665500  0.370200  0.128900  1.0  0.0943
  H  H20  1  0.664800  0.304300  0.203300  1.0  0.1256
  H  H21  1  0.871100  0.665500  0.629800  1.0  0.0937
  H  H22  1  0.796700  0.664800  0.695700  1.0  0.1251
  H  H23  1  0.871100  0.334500  0.370200  1.0  0.0932
  H  H24  1  0.796700  0.335200  0.304300  1.0  0.1255
  H  H25  1  0.128900  0.334500  0.629800  1.0  0.0937
  H  H26  1  0.203300  0.335200  0.695700  1.0  0.1252
  H  H27  1  0.128900  0.665500  0.370200  1.0  0.0932
  H  H28  1  0.203300  0.664800  0.304300  1.0  0.1261
  H  H29  1  0.629800  0.871100  0.665500  1.0  0.0938
  H  H30  1  0.695700  0.796700  0.664800  1.0  0.1254
  H  H31  1  0.370200  0.871100  0.334500  1.0  0.0933
  H  H32  1  0.304300  0.796700  0.335200  1.0  0.1242
  H  H33  1  0.629800  0.128900  0.334500  1.0  0.0936
  H  H34  1  0.695700  0.203300  0.335200  1.0  0.1247
  H  H35  1  0.370200  0.128900  0.665500  1.0  0.0941
  H  H36  1  0.304300  0.203300  0.664800  1.0  0.1253
  H  H37  1  0.129800  0.165500  0.628900  1.0  0.0938
  H  H38  1  0.195700  0.164800  0.703300  1.0  0.124
  H  H39  1  0.870200  0.834500  0.628900  1.0  0.0936
  H  H40  1  0.804300  0.835200  0.703300  1.0  0.1236
  H  H41  1  0.129800  0.834500  0.371100  1.0  0.0931
  H  H42  1  0.195700  0.835200  0.296700  1.0  0.124
  H  H43  1  0.870200  0.165500  0.371100  1.0  0.0934
  H  H44  1  0.804300  0.164800  0.296700  1.0  0.1238
  H  H45  1  0.165500  0.371100  0.870200  1.0  0.0938
  H  H46  1  0.164800  0.296700  0.804300  1.0  0.1277
  H  H47  1  0.834500  0.371100  0.129800  1.0  0.0941
  H  H48  1  0.835200  0.296700  0.195700  1.0  0.1271
  H  H49  1  0.834500  0.628900  0.870200  1.0  0.0931
  H  H50  1  0.835200  0.703300  0.804300  1.0  0.127
  H  H51  1  0.165500  0.628900  0.129800  1.0  0.0944
  H  H52  1  0.164800  0.703300  0.195700  1.0  0.1275
  H  H53  1  0.371100  0.129800  0.834500  1.0  0.0931
  H  H54  1  0.296700  0.195700  0.835200  1.0  0.1243
  H  H55  1  0.371100  0.870200  0.165500  1.0  0.0939
  H  H56  1  0.296700  0.804300  0.164800  1.0  0.1245
  H  H57  1  0.628900  0.129800  0.165500  1.0  0.0937
  H  H58  1  0.703300  0.195700  0.164800  1.0  0.1254
  H  H59  1  0.628900  0.870200  0.834500  1.0  0.0933
  H  H60  1  0.703300  0.804300  0.835200  1.0  0.1237
  H  H61  1  0.334500  0.370200  0.128900  1.0  0.0941
  H  H62  1  0.335200  0.304300  0.203300  1.0  0.125
  H  H63  1  0.665500  0.629800  0.128900  1.0  0.0939
  H  H64  1  0.664800  0.695700  0.203300  1.0  0.1265
  H  H65  1  0.665500  0.370200  0.871100  1.0  0.0938
  H  H66  1  0.664800  0.304300  0.796700  1.0  0.1258
  H  H67  1  0.334500  0.629800  0.871100  1.0  0.093
  H  H68  1  0.335200  0.695700  0.796700  1.0  0.1259
  H  H69  1  0.128900  0.334500  0.370200  1.0  0.0932
  H  H70  1  0.203300  0.335200  0.304300  1.0  0.1252
  H  H71  1  0.128900  0.665500  0.629800  1.0  0.0938
  H  H72  1  0.203300  0.664800  0.695700  1.0  0.1253
  H  H73  1  0.871100  0.665500  0.370200  1.0  0.0931
  H  H74  1  0.796700  0.664800  0.304300  1.0  0.1259
  H  H75  1  0.871100  0.334500  0.629800  1.0  0.0938
  H  H76  1  0.796700  0.335200  0.695700  1.0  0.1253
  H  H77  1  0.370200  0.128900  0.334500  1.0  0.0935
  H  H78  1  0.304300  0.203300  0.335200  1.0  0.1239
  H  H79  1  0.629800  0.128900  0.665500  1.0  0.0941
  H  H80  1  0.695700  0.203300  0.664800  1.0  0.125
  H  H81  1  0.370200  0.871100  0.665500  1.0  0.0939
  H  H82  1  0.304300  0.796700  0.664800  1.0  0.1256
  H  H83  1  0.629800  0.871100  0.334500  1.0  0.0932
  H  H84  1  0.695700  0.796700  0.335200  1.0  0.1253
  H  H85  1  0.870200  0.834500  0.371100  1.0  0.0932
  H  H86  1  0.804300  0.835200  0.296700  1.0  0.1241
  H  H87  1  0.129800  0.165500  0.371100  1.0  0.0935
  H  H88  1  0.195700  0.164800  0.296700  1.0  0.124
  H  H89  1  0.870200  0.165500  0.628900  1.0  0.0937
  H  H90  1  0.804300  0.164800  0.703300  1.0  0.1237
  H  H91  1  0.129800  0.834500  0.628900  1.0  0.0936
  H  H92  1  0.195700  0.835200  0.703300  1.0  0.1236
  H  H93  1  0.834500  0.628900  0.129800  1.0  0.0938
  H  H94  1  0.835200  0.703300  0.195700  1.0  0.1268
  H  H95  1  0.165500  0.628900  0.870200  1.0  0.094
  H  H96  1  0.164800  0.703300  0.804300  1.0  0.1274
  H  H97  1  0.165500  0.371100  0.129800  1.0  0.0945
  H  H98  1  0.164800  0.296700  0.195700  1.0  0.1275
  H  H99  1  0.834500  0.371100  0.870200  1.0  0.093
  H  H100  1  0.835200  0.296700  0.804300  1.0  0.1277
  H  H101  1  0.628900  0.870200  0.165500  1.0  0.0939
  H  H102  1  0.703300  0.804300  0.164800  1.0  0.1245
  H  H103  1  0.628900  0.129800  0.834500  1.0  0.0932
  H  H104  1  0.703300  0.195700  0.835200  1.0  0.1246
  H  H105  1  0.371100  0.870200  0.834500  1.0  0.0933
  H  H106  1  0.296700  0.804300  0.835200  1.0  0.1237
  H  H107  1  0.371100  0.129800  0.165500  1.0  0.0937
  H  H108  1  0.296700  0.195700  0.164800  1.0  0.1251
  C  C109  1  0.700400  0.642800  0.856500  1.0  -0.0365
  C  C110  1  0.699700  0.684000  0.812600  1.0  -0.2267
  C  C111  1  0.299600  0.357200  0.856500  1.0  -0.0382
  C  C112  1  0.300300  0.316000  0.812600  1.0  -0.2258
  C  C113  1  0.299600  0.642800  0.143500  1.0  -0.0399
  C  C114  1  0.300300  0.684000  0.187400  1.0  -0.2254
  C  C115  1  0.700400  0.357200  0.143500  1.0  -0.0382
  C  C116  1  0.699700  0.316000  0.187400  1.0  -0.2269
  C  C117  1  0.856500  0.700400  0.642800  1.0  -0.0427
  C  C118  1  0.812600  0.699700  0.684000  1.0  -0.2263
  C  C119  1  0.856500  0.299600  0.357200  1.0  -0.0404
  C  C120  1  0.812600  0.300300  0.316000  1.0  -0.2249
  C  C121  1  0.143500  0.299600  0.642800  1.0  -0.0406
  C  C122  1  0.187400  0.300300  0.684000  1.0  -0.2258
  C  C123  1  0.143500  0.700400  0.357200  1.0  -0.0418
  C  C124  1  0.187400  0.699700  0.316000  1.0  -0.2259
  C  C125  1  0.642800  0.856500  0.700400  1.0  -0.0401
  C  C126  1  0.684000  0.812600  0.699700  1.0  -0.2238
  C  C127  1  0.357200  0.856500  0.299600  1.0  -0.0398
  C  C128  1  0.316000  0.812600  0.300300  1.0  -0.2227
  C  C129  1  0.642800  0.143500  0.299600  1.0  -0.0396
  C  C130  1  0.684000  0.187400  0.300300  1.0  -0.2247
  C  C131  1  0.357200  0.143500  0.700400  1.0  -0.0409
  C  C132  1  0.316000  0.187400  0.699700  1.0  -0.2229
  C  C133  1  0.142800  0.200400  0.643500  1.0  -0.0405
  C  C134  1  0.184000  0.199700  0.687400  1.0  -0.225
  C  C135  1  0.857200  0.799600  0.643500  1.0  -0.0397
  C  C136  1  0.816000  0.800300  0.687400  1.0  -0.2241
  C  C137  1  0.142800  0.799600  0.356500  1.0  -0.0386
  C  C138  1  0.184000  0.800300  0.312600  1.0  -0.225
  C  C139  1  0.857200  0.200400  0.356500  1.0  -0.0408
  C  C140  1  0.816000  0.199700  0.312600  1.0  -0.2248
  C  C141  1  0.200400  0.356500  0.857200  1.0  -0.0383
  C  C142  1  0.199700  0.312600  0.816000  1.0  -0.2278
  C  C143  1  0.799600  0.356500  0.142800  1.0  -0.0392
  C  C144  1  0.800300  0.312600  0.184000  1.0  -0.2269
  C  C145  1  0.799600  0.643500  0.857200  1.0  -0.0393
  C  C146  1  0.800300  0.687400  0.816000  1.0  -0.2272
  C  C147  1  0.200400  0.643500  0.142800  1.0  -0.0378
  C  C148  1  0.199700  0.687400  0.184000  1.0  -0.2286
  C  C149  1  0.356500  0.142800  0.799600  1.0  -0.0397
  C  C150  1  0.312600  0.184000  0.800300  1.0  -0.2246
  C  C151  1  0.356500  0.857200  0.200400  1.0  -0.042
  C  C152  1  0.312600  0.816000  0.199700  1.0  -0.2234
  C  C153  1  0.643500  0.142800  0.200400  1.0  -0.0402
  C  C154  1  0.687400  0.184000  0.199700  1.0  -0.2251
  C  C155  1  0.643500  0.857200  0.799600  1.0  -0.0407
  C  C156  1  0.687400  0.816000  0.800300  1.0  -0.2253
  C  C157  1  0.299600  0.357200  0.143500  1.0  -0.0395
  C  C158  1  0.300300  0.316000  0.187400  1.0  -0.2246
  C  C159  1  0.700400  0.642800  0.143500  1.0  -0.0374
  C  C160  1  0.699700  0.684000  0.187400  1.0  -0.2267
  C  C161  1  0.700400  0.357200  0.856500  1.0  -0.0378
  C  C162  1  0.699700  0.316000  0.812600  1.0  -0.227
  C  C163  1  0.299600  0.642800  0.856500  1.0  -0.0384
  C  C164  1  0.300300  0.684000  0.812600  1.0  -0.2262
  C  C165  1  0.143500  0.299600  0.357200  1.0  -0.0399
  C  C166  1  0.187400  0.300300  0.316000  1.0  -0.2258
  C  C167  1  0.143500  0.700400  0.642800  1.0  -0.0419
  C  C168  1  0.187400  0.699700  0.684000  1.0  -0.227
  C  C169  1  0.856500  0.700400  0.357200  1.0  -0.0424
  C  C170  1  0.812600  0.699700  0.316000  1.0  -0.2251
  C  C171  1  0.856500  0.299600  0.642800  1.0  -0.0412
  C  C172  1  0.812600  0.300300  0.684000  1.0  -0.2251
  C  C173  1  0.357200  0.143500  0.299600  1.0  -0.0393
  C  C174  1  0.316000  0.187400  0.300300  1.0  -0.2233
  C  C175  1  0.642800  0.143500  0.700400  1.0  -0.0399
  C  C176  1  0.684000  0.187400  0.699700  1.0  -0.2234
  C  C177  1  0.357200  0.856500  0.700400  1.0  -0.0411
  C  C178  1  0.316000  0.812600  0.699700  1.0  -0.223
  C  C179  1  0.642800  0.856500  0.299600  1.0  -0.0402
  C  C180  1  0.684000  0.812600  0.300300  1.0  -0.2241
  C  C181  1  0.857200  0.799600  0.356500  1.0  -0.0392
  C  C182  1  0.816000  0.800300  0.312600  1.0  -0.2245
  C  C183  1  0.142800  0.200400  0.356500  1.0  -0.04
  C  C184  1  0.184000  0.199700  0.312600  1.0  -0.2255
  C  C185  1  0.857200  0.200400  0.643500  1.0  -0.0414
  C  C186  1  0.816000  0.199700  0.687400  1.0  -0.2245
  C  C187  1  0.142800  0.799600  0.643500  1.0  -0.0396
  C  C188  1  0.184000  0.800300  0.687400  1.0  -0.2244
  C  C189  1  0.799600  0.643500  0.142800  1.0  -0.0398
  C  C190  1  0.800300  0.687400  0.184000  1.0  -0.227
  C  C191  1  0.200400  0.643500  0.857200  1.0  -0.0377
  C  C192  1  0.199700  0.687400  0.816000  1.0  -0.2285
  C  C193  1  0.200400  0.356500  0.142800  1.0  -0.0381
  C  C194  1  0.199700  0.312600  0.184000  1.0  -0.2278
  C  C195  1  0.799600  0.356500  0.857200  1.0  -0.0391
  C  C196  1  0.800300  0.312600  0.816000  1.0  -0.2268
  C  C197  1  0.643500  0.857200  0.200400  1.0  -0.0406
  C  C198  1  0.687400  0.816000  0.199700  1.0  -0.2246
  C  C199  1  0.643500  0.142800  0.799600  1.0  -0.0399
  C  C200  1  0.687400  0.184000  0.800300  1.0  -0.2249
  C  C201  1  0.356500  0.857200  0.799600  1.0  -0.0404
  C  C202  1  0.312600  0.816000  0.800300  1.0  -0.2244
  C  C203  1  0.356500  0.142800  0.200400  1.0  -0.0417
  C  C204  1  0.312600  0.184000  0.199700  1.0  -0.2244
  C  C205  1  0.750000  0.577600  0.922400  1.0  0.7164
  C  C206  1  0.750000  0.621000  0.879000  1.0  -0.0275
  C  C207  1  0.750000  0.706900  0.793100  1.0  0.167
  C  C208  1  0.250000  0.422400  0.922400  1.0  0.7161
  C  C209  1  0.250000  0.379000  0.879000  1.0  -0.0284
  C  C210  1  0.250000  0.293100  0.793100  1.0  0.1673
  C  C211  1  0.250000  0.577600  0.077600  1.0  0.7167
  C  C212  1  0.250000  0.621000  0.121000  1.0  -0.029
  C  C213  1  0.250000  0.706900  0.206900  1.0  0.167
  C  C214  1  0.750000  0.422400  0.077600  1.0  0.7164
  C  C215  1  0.750000  0.379000  0.121000  1.0  -0.0286
  C  C216  1  0.750000  0.293100  0.206900  1.0  0.1674
  C  C217  1  0.922400  0.750000  0.577600  1.0  0.7173
  C  C218  1  0.879000  0.750000  0.621000  1.0  -0.0306
  C  C219  1  0.793100  0.750000  0.706900  1.0  0.1676
  C  C220  1  0.922400  0.250000  0.422400  1.0  0.7168
  C  C221  1  0.879000  0.250000  0.379000  1.0  -0.0302
  C  C222  1  0.793100  0.250000  0.293100  1.0  0.1676
  C  C223  1  0.077600  0.250000  0.577600  1.0  0.7175
  C  C224  1  0.121000  0.250000  0.621000  1.0  -0.0304
  C  C225  1  0.206900  0.250000  0.706900  1.0  0.1679
  C  C226  1  0.077600  0.750000  0.422400  1.0  0.7171
  C  C227  1  0.121000  0.750000  0.379000  1.0  -0.0299
  C  C228  1  0.206900  0.750000  0.293100  1.0  0.168
  C  C229  1  0.577600  0.922400  0.750000  1.0  0.7166
  C  C230  1  0.621000  0.879000  0.750000  1.0  -0.0278
  C  C231  1  0.706900  0.793100  0.750000  1.0  0.168
  C  C232  1  0.422400  0.922400  0.250000  1.0  0.7165
  C  C233  1  0.379000  0.879000  0.250000  1.0  -0.028
  C  C234  1  0.293100  0.793100  0.250000  1.0  0.1678
  C  C235  1  0.577600  0.077600  0.250000  1.0  0.717
  C  C236  1  0.621000  0.121000  0.250000  1.0  -0.0277
  C  C237  1  0.706900  0.206900  0.250000  1.0  0.1676
  C  C238  1  0.422400  0.077600  0.750000  1.0  0.7168
  C  C239  1  0.379000  0.121000  0.750000  1.0  -0.0275
  C  C240  1  0.293100  0.206900  0.750000  1.0  0.1675
  C  C241  1  0.250000  0.422400  0.077600  1.0  0.7164
  C  C242  1  0.250000  0.379000  0.121000  1.0  -0.0286
  C  C243  1  0.250000  0.293100  0.206900  1.0  0.1674
  C  C244  1  0.750000  0.577600  0.077600  1.0  0.7167
  C  C245  1  0.750000  0.621000  0.121000  1.0  -0.029
  C  C246  1  0.750000  0.706900  0.206900  1.0  0.167
  C  C247  1  0.750000  0.422400  0.922400  1.0  0.7161
  C  C248  1  0.750000  0.379000  0.879000  1.0  -0.0284
  C  C249  1  0.750000  0.293100  0.793100  1.0  0.1673
  C  C250  1  0.250000  0.577600  0.922400  1.0  0.7164
  C  C251  1  0.250000  0.621000  0.879000  1.0  -0.0275
  C  C252  1  0.250000  0.706900  0.793100  1.0  0.167
  C  C253  1  0.077600  0.250000  0.422400  1.0  0.7171
  C  C254  1  0.121000  0.250000  0.379000  1.0  -0.0299
  C  C255  1  0.206900  0.250000  0.293100  1.0  0.168
  C  C256  1  0.077600  0.750000  0.577600  1.0  0.7175
  C  C257  1  0.121000  0.750000  0.621000  1.0  -0.0304
  C  C258  1  0.206900  0.750000  0.706900  1.0  0.1679
  C  C259  1  0.922400  0.750000  0.422400  1.0  0.7168
  C  C260  1  0.879000  0.750000  0.379000  1.0  -0.0302
  C  C261  1  0.793100  0.750000  0.293100  1.0  0.1676
  C  C262  1  0.922400  0.250000  0.577600  1.0  0.7173
  C  C263  1  0.879000  0.250000  0.621000  1.0  -0.0306
  C  C264  1  0.793100  0.250000  0.706900  1.0  0.1676
  C  C265  1  0.422400  0.077600  0.250000  1.0  0.7168
  C  C266  1  0.379000  0.121000  0.250000  1.0  -0.0275
  C  C267  1  0.293100  0.206900  0.250000  1.0  0.1675
  C  C268  1  0.577600  0.077600  0.750000  1.0  0.717
  C  C269  1  0.621000  0.121000  0.750000  1.0  -0.0277
  C  C270  1  0.706900  0.206900  0.750000  1.0  0.1676
  C  C271  1  0.422400  0.922400  0.750000  1.0  0.7165
  C  C272  1  0.379000  0.879000  0.750000  1.0  -0.028
  C  C273  1  0.293100  0.793100  0.750000  1.0  0.1678
  C  C274  1  0.577600  0.922400  0.250000  1.0  0.7166
  C  C275  1  0.621000  0.879000  0.250000  1.0  -0.0278
  C  C276  1  0.706900  0.793100  0.250000  1.0  0.168
  N  N277  1  0.750000  0.750000  0.750000  1.0  -0.1223
  N  N278  1  0.250000  0.250000  0.750000  1.0  -0.1223
  N  N279  1  0.250000  0.750000  0.250000  1.0  -0.1223
  N  N280  1  0.750000  0.250000  0.250000  1.0  -0.1223
  N  N281  1  0.250000  0.250000  0.250000  1.0  -0.1223
  N  N282  1  0.750000  0.750000  0.250000  1.0  -0.1223
  N  N283  1  0.750000  0.250000  0.750000  1.0  -0.1223
  N  N284  1  0.250000  0.750000  0.750000  1.0  -0.1223
  O  O285  1  0.702720  0.559000  0.941030  1.0  -0.5888
  O  O286  1  0.297280  0.441000  0.941030  1.0  -0.5888
  O  O287  1  0.297280  0.559000  0.058970  1.0  -0.5889
  O  O288  1  0.702720  0.441000  0.058970  1.0  -0.5891
  O  O289  1  0.941030  0.702720  0.559000  1.0  -0.5898
  O  O290  1  0.941030  0.297280  0.441000  1.0  -0.5891
  O  O291  1  0.058970  0.297280  0.559000  1.0  -0.5897
  O  O292  1  0.058970  0.702720  0.441000  1.0  -0.5908
  O  O293  1  0.559000  0.941030  0.702720  1.0  -0.5888
  O  O294  1  0.441000  0.941030  0.297280  1.0  -0.5886
  O  O295  1  0.559000  0.058970  0.297280  1.0  -0.589
  O  O296  1  0.441000  0.058970  0.702720  1.0  -0.5886
  O  O297  1  0.059000  0.202720  0.558970  1.0  -0.5907
  O  O298  1  0.941000  0.797280  0.558970  1.0  -0.5892
  O  O299  1  0.059000  0.797280  0.441030  1.0  -0.5894
  O  O300  1  0.941000  0.202720  0.441030  1.0  -0.5898
  O  O301  1  0.202720  0.441030  0.941000  1.0  -0.5889
  O  O302  1  0.797280  0.441030  0.059000  1.0  -0.5886
  O  O303  1  0.797280  0.558970  0.941000  1.0  -0.5887
  O  O304  1  0.202720  0.558970  0.059000  1.0  -0.5893
  O  O305  1  0.441030  0.059000  0.797280  1.0  -0.5887
  O  O306  1  0.441030  0.941000  0.202720  1.0  -0.5885
  O  O307  1  0.558970  0.059000  0.202720  1.0  -0.5891
  O  O308  1  0.558970  0.941000  0.797280  1.0  -0.589
  O  O309  1  0.297280  0.441000  0.058970  1.0  -0.5888
  O  O310  1  0.702720  0.559000  0.058970  1.0  -0.5893
  O  O311  1  0.702720  0.441000  0.941030  1.0  -0.589
  O  O312  1  0.297280  0.559000  0.941030  1.0  -0.5888
  O  O313  1  0.058970  0.297280  0.441000  1.0  -0.5894
  O  O314  1  0.058970  0.702720  0.559000  1.0  -0.5908
  O  O315  1  0.941030  0.702720  0.441000  1.0  -0.5898
  O  O316  1  0.941030  0.297280  0.559000  1.0  -0.5894
  O  O317  1  0.441000  0.058970  0.297280  1.0  -0.5887
  O  O318  1  0.559000  0.058970  0.702720  1.0  -0.5891
  O  O319  1  0.441000  0.941030  0.702720  1.0  -0.5885
  O  O320  1  0.559000  0.941030  0.297280  1.0  -0.5889
  O  O321  1  0.941000  0.797280  0.441030  1.0  -0.5891
  O  O322  1  0.059000  0.202720  0.441030  1.0  -0.5907
  O  O323  1  0.941000  0.202720  0.558970  1.0  -0.5898
  O  O324  1  0.059000  0.797280  0.558970  1.0  -0.5895
  O  O325  1  0.797280  0.558970  0.059000  1.0  -0.5889
  O  O326  1  0.202720  0.558970  0.941000  1.0  -0.589
  O  O327  1  0.202720  0.441030  0.059000  1.0  -0.589
  O  O328  1  0.797280  0.441030  0.941000  1.0  -0.5887
  O  O329  1  0.558970  0.941000  0.202720  1.0  -0.5888
  O  O330  1  0.558970  0.059000  0.797280  1.0  -0.589
  O  O331  1  0.441030  0.941000  0.797280  1.0  -0.5887
  O  O332  1  0.441030  0.059000  0.202720  1.0  -0.5886
