# generated using pymatgen
data_InH7C12O5
_symmetry_space_group_name_H-M   'P 1'
_cell_length_a   21.89300000
_cell_length_b   21.89300000
_cell_length_c   7.18120000
_cell_angle_alpha   90.00000000
_cell_angle_beta   90.00000000
_cell_angle_gamma   90.00000000
_symmetry_Int_Tables_number   1
_chemical_formula_structural   InH7C12O5
_chemical_formula_sum   'In8 H56 C96 O40'
_cell_volume   3441.97392796
_cell_formula_units_Z   8
loop_
 _symmetry_equiv_pos_site_id
 _symmetry_equiv_pos_as_xyz
  1  'x, y, z'
loop_
 _atom_site_type_symbol
 _atom_site_label
 _atom_site_symmetry_multiplicity
 _atom_site_fract_x
 _atom_site_fract_y
 _atom_site_fract_z
 _atom_site_occupancy
 _atom_site_charge
  In  In1  1  0.750000  0.250000  0.000000  1.0  1.6379
  In  In2  1  0.250000  0.750000  0.000000  1.0  1.6379
  In  In3  1  0.250000  0.250000  0.000000  1.0  1.6379
  In  In4  1  0.750000  0.750000  0.000000  1.0  1.6379
  In  In5  1  0.750000  0.250000  0.500000  1.0  1.7081
  In  In6  1  0.250000  0.750000  0.500000  1.0  1.7081
  In  In7  1  0.250000  0.250000  0.500000  1.0  1.7081
  In  In8  1  0.750000  0.750000  0.500000  1.0  1.7081
  H  H9  1  0.733600  0.053300  0.511500  1.0  0.1124
  H  H10  1  0.835500  0.104800  0.958800  1.0  0.0978
  H  H11  1  0.867300  0.052700  0.694400  1.0  0.1121
  H  H12  1  0.816500  0.683500  0.254500  1.0  0.4045
  H  H13  1  0.266400  0.946700  0.511500  1.0  0.1119
  H  H14  1  0.164500  0.895200  0.958800  1.0  0.0975
  H  H15  1  0.132700  0.947300  0.694400  1.0  0.1124
  H  H16  1  0.446700  0.233600  0.511500  1.0  0.1132
  H  H17  1  0.395200  0.335500  0.958800  1.0  0.0992
  H  H18  1  0.447300  0.367300  0.694400  1.0  0.1129
  H  H19  1  0.816500  0.316500  0.254500  1.0  0.4055
  H  H20  1  0.553300  0.766400  0.511500  1.0  0.113
  H  H21  1  0.604800  0.664500  0.958800  1.0  0.0983
  H  H22  1  0.552700  0.632700  0.694400  1.0  0.1128
  H  H23  1  0.183500  0.683500  0.254500  1.0  0.4061
  H  H24  1  0.766400  0.553300  0.488500  1.0  0.1115
  H  H25  1  0.664500  0.604800  0.041200  1.0  0.0969
  H  H26  1  0.632700  0.552700  0.305600  1.0  0.1129
  H  H27  1  0.233600  0.446700  0.488500  1.0  0.1119
  H  H28  1  0.335500  0.395200  0.041200  1.0  0.0972
  H  H29  1  0.367300  0.447300  0.305600  1.0  0.1128
  H  H30  1  0.053300  0.733600  0.488500  1.0  0.1128
  H  H31  1  0.104800  0.835500  0.041200  1.0  0.0979
  H  H32  1  0.052700  0.867300  0.305600  1.0  0.1131
  H  H33  1  0.683500  0.816500  0.745500  1.0  0.408
  H  H34  1  0.946700  0.266400  0.488500  1.0  0.1129
  H  H35  1  0.895200  0.164500  0.041200  1.0  0.0987
  H  H36  1  0.947300  0.132700  0.305600  1.0  0.1136
  H  H37  1  0.316500  0.183500  0.745500  1.0  0.4043
  H  H38  1  0.766400  0.446700  0.488500  1.0  0.1116
  H  H39  1  0.664500  0.395200  0.041200  1.0  0.0971
  H  H40  1  0.632700  0.447300  0.305600  1.0  0.1133
  H  H41  1  0.233600  0.553300  0.488500  1.0  0.1119
  H  H42  1  0.335500  0.604800  0.041200  1.0  0.097
  H  H43  1  0.367300  0.552700  0.305600  1.0  0.1124
  H  H44  1  0.053300  0.266400  0.488500  1.0  0.1124
  H  H45  1  0.104800  0.164500  0.041200  1.0  0.0979
  H  H46  1  0.052700  0.132700  0.305600  1.0  0.1135
  H  H47  1  0.683500  0.183500  0.745500  1.0  0.4061
  H  H48  1  0.946700  0.733600  0.488500  1.0  0.1128
  H  H49  1  0.895200  0.835500  0.041200  1.0  0.0985
  H  H50  1  0.947300  0.867300  0.305600  1.0  0.1134
  H  H51  1  0.316500  0.816500  0.745500  1.0  0.4053
  H  H52  1  0.733600  0.946700  0.511500  1.0  0.1122
  H  H53  1  0.835500  0.895200  0.958800  1.0  0.0977
  H  H54  1  0.867300  0.947300  0.694400  1.0  0.1127
  H  H55  1  0.266400  0.053300  0.511500  1.0  0.1119
  H  H56  1  0.164500  0.104800  0.958800  1.0  0.0976
  H  H57  1  0.132700  0.052700  0.694400  1.0  0.112
  H  H58  1  0.446700  0.766400  0.511500  1.0  0.1133
  H  H59  1  0.395200  0.664500  0.958800  1.0  0.0992
  H  H60  1  0.447300  0.632700  0.694400  1.0  0.113
  H  H61  1  0.553300  0.233600  0.511500  1.0  0.1133
  H  H62  1  0.604800  0.335500  0.958800  1.0  0.0984
  H  H63  1  0.552700  0.367300  0.694400  1.0  0.1125
  H  H64  1  0.183500  0.316500  0.254500  1.0  0.4081
  C  C65  1  0.762400  0.131700  0.260600  1.0  0.7248
  C  C66  1  0.771400  0.064300  0.255500  1.0  -0.1344
  C  C67  1  0.748700  0.032100  0.409100  1.0  -0.0758
  C  C68  1  0.798800  0.033500  0.103800  1.0  0.0332
  C  C69  1  0.829900  0.062700  0.953200  1.0  -0.1016
  C  C70  1  0.852500  0.031200  0.796700  1.0  -0.0941
  C  C71  1  0.237600  0.868300  0.260600  1.0  0.7254
  C  C72  1  0.228600  0.935700  0.255500  1.0  -0.1342
  C  C73  1  0.251300  0.967900  0.409100  1.0  -0.077
  C  C74  1  0.201200  0.966500  0.103800  1.0  0.0335
  C  C75  1  0.170100  0.937300  0.953200  1.0  -0.1015
  C  C76  1  0.147500  0.968800  0.796700  1.0  -0.0945
  C  C77  1  0.368300  0.262400  0.260600  1.0  0.7237
  C  C78  1  0.435700  0.271400  0.255500  1.0  -0.1358
  C  C79  1  0.467900  0.248700  0.409100  1.0  -0.0793
  C  C80  1  0.466500  0.298800  0.103800  1.0  0.0329
  C  C81  1  0.437300  0.329900  0.953200  1.0  -0.1039
  C  C82  1  0.468800  0.352500  0.796700  1.0  -0.0933
  C  C83  1  0.631700  0.737600  0.260600  1.0  0.7242
  C  C84  1  0.564300  0.728600  0.255500  1.0  -0.1356
  C  C85  1  0.532100  0.751300  0.409100  1.0  -0.0806
  C  C86  1  0.533500  0.701200  0.103800  1.0  0.0328
  C  C87  1  0.562700  0.670100  0.953200  1.0  -0.1037
  C  C88  1  0.531200  0.647500  0.796700  1.0  -0.0939
  C  C89  1  0.737600  0.631700  0.739400  1.0  0.7249
  C  C90  1  0.728600  0.564300  0.744500  1.0  -0.1349
  C  C91  1  0.751300  0.532100  0.590900  1.0  -0.0762
  C  C92  1  0.701200  0.533500  0.896200  1.0  0.0339
  C  C93  1  0.670100  0.562700  0.046800  1.0  -0.1021
  C  C94  1  0.647500  0.531200  0.203300  1.0  -0.0941
  C  C95  1  0.262400  0.368300  0.739400  1.0  0.725
  C  C96  1  0.271400  0.435700  0.744500  1.0  -0.1341
  C  C97  1  0.248700  0.467900  0.590900  1.0  -0.076
  C  C98  1  0.298800  0.466500  0.896200  1.0  0.0329
  C  C99  1  0.329900  0.437300  0.046800  1.0  -0.1006
  C  C100  1  0.352500  0.468800  0.203300  1.0  -0.0943
  C  C101  1  0.131700  0.762400  0.739400  1.0  0.7242
  C  C102  1  0.064300  0.771400  0.744500  1.0  -0.1357
  C  C103  1  0.032100  0.748700  0.590900  1.0  -0.0798
  C  C104  1  0.033500  0.798800  0.896200  1.0  0.0329
  C  C105  1  0.062700  0.829900  0.046800  1.0  -0.1039
  C  C106  1  0.031200  0.852500  0.203300  1.0  -0.0945
  C  C107  1  0.868300  0.237600  0.739400  1.0  0.7241
  C  C108  1  0.935700  0.228600  0.744500  1.0  -0.135
  C  C109  1  0.967900  0.251300  0.590900  1.0  -0.0799
  C  C110  1  0.966500  0.201200  0.896200  1.0  0.0331
  C  C111  1  0.937300  0.170100  0.046800  1.0  -0.1038
  C  C112  1  0.968800  0.147500  0.203300  1.0  -0.094
  C  C113  1  0.737600  0.368300  0.739400  1.0  0.7255
  C  C114  1  0.728600  0.435700  0.744500  1.0  -0.1344
  C  C115  1  0.751300  0.467900  0.590900  1.0  -0.0771
  C  C116  1  0.701200  0.466500  0.896200  1.0  0.0336
  C  C117  1  0.670100  0.437300  0.046800  1.0  -0.1015
  C  C118  1  0.647500  0.468800  0.203300  1.0  -0.0935
  C  C119  1  0.262400  0.631700  0.739400  1.0  0.7247
  C  C120  1  0.271400  0.564300  0.744500  1.0  -0.1341
  C  C121  1  0.248700  0.532100  0.590900  1.0  -0.0761
  C  C122  1  0.298800  0.533500  0.896200  1.0  0.0332
  C  C123  1  0.329900  0.562700  0.046800  1.0  -0.1012
  C  C124  1  0.352500  0.531200  0.203300  1.0  -0.0931
  C  C125  1  0.131700  0.237600  0.739400  1.0  0.7243
  C  C126  1  0.064300  0.228600  0.744500  1.0  -0.1355
  C  C127  1  0.032100  0.251300  0.590900  1.0  -0.081
  C  C128  1  0.033500  0.201200  0.896200  1.0  0.0329
  C  C129  1  0.062700  0.170100  0.046800  1.0  -0.1036
  C  C130  1  0.031200  0.147500  0.203300  1.0  -0.0924
  C  C131  1  0.868300  0.762400  0.739400  1.0  0.7239
  C  C132  1  0.935700  0.771400  0.744500  1.0  -0.1359
  C  C133  1  0.967900  0.748700  0.590900  1.0  -0.08
  C  C134  1  0.966500  0.798800  0.896200  1.0  0.033
  C  C135  1  0.937300  0.829900  0.046800  1.0  -0.104
  C  C136  1  0.968800  0.852500  0.203300  1.0  -0.0938
  C  C137  1  0.762400  0.868300  0.260600  1.0  0.7251
  C  C138  1  0.771400  0.935700  0.255500  1.0  -0.1344
  C  C139  1  0.748700  0.967900  0.409100  1.0  -0.0765
  C  C140  1  0.798800  0.966500  0.103800  1.0  0.0329
  C  C141  1  0.829900  0.937300  0.953200  1.0  -0.1008
  C  C142  1  0.852500  0.968800  0.796700  1.0  -0.0933
  C  C143  1  0.237600  0.131700  0.260600  1.0  0.7249
  C  C144  1  0.228600  0.064300  0.255500  1.0  -0.1347
  C  C145  1  0.251300  0.032100  0.409100  1.0  -0.0771
  C  C146  1  0.201200  0.033500  0.103800  1.0  0.0338
  C  C147  1  0.170100  0.062700  0.953200  1.0  -0.1024
  C  C148  1  0.147500  0.031200  0.796700  1.0  -0.093
  C  C149  1  0.368300  0.737600  0.260600  1.0  0.7237
  C  C150  1  0.435700  0.728600  0.255500  1.0  -0.1352
  C  C151  1  0.467900  0.751300  0.409100  1.0  -0.0806
  C  C152  1  0.466500  0.701200  0.103800  1.0  0.033
  C  C153  1  0.437300  0.670100  0.953200  1.0  -0.1036
  C  C154  1  0.468800  0.647500  0.796700  1.0  -0.0936
  C  C155  1  0.631700  0.262400  0.260600  1.0  0.7242
  C  C156  1  0.564300  0.271400  0.255500  1.0  -0.1355
  C  C157  1  0.532100  0.248700  0.409100  1.0  -0.0802
  C  C158  1  0.533500  0.298800  0.103800  1.0  0.0327
  C  C159  1  0.562700  0.329900  0.953200  1.0  -0.1041
  C  C160  1  0.531200  0.352500  0.796700  1.0  -0.0922
  O  O161  1  0.757700  0.157400  0.405400  1.0  -0.6093
  O  O162  1  0.759500  0.157400  0.103400  1.0  -0.6454
  O  O163  1  0.242300  0.842600  0.405400  1.0  -0.6093
  O  O164  1  0.240500  0.842600  0.103400  1.0  -0.6456
  O  O165  1  0.342600  0.257700  0.405400  1.0  -0.6087
  O  O166  1  0.342600  0.259500  0.103400  1.0  -0.6454
  O  O167  1  0.657400  0.742300  0.405400  1.0  -0.6097
  O  O168  1  0.657400  0.740500  0.103400  1.0  -0.6466
  O  O169  1  0.742300  0.657400  0.594600  1.0  -0.6102
  O  O170  1  0.740500  0.657400  0.896600  1.0  -0.647
  O  O171  1  0.257700  0.342600  0.594600  1.0  -0.6107
  O  O172  1  0.259500  0.342600  0.896600  1.0  -0.6466
  O  O173  1  0.157400  0.757700  0.594600  1.0  -0.6113
  O  O174  1  0.157400  0.759500  0.896600  1.0  -0.6478
  O  O175  1  0.842600  0.242300  0.594600  1.0  -0.6094
  O  O176  1  0.842600  0.240500  0.896600  1.0  -0.6465
  O  O177  1  0.742300  0.342600  0.594600  1.0  -0.6106
  O  O178  1  0.740500  0.342600  0.896600  1.0  -0.6474
  O  O179  1  0.257700  0.657400  0.594600  1.0  -0.6104
  O  O180  1  0.259500  0.657400  0.896600  1.0  -0.6463
  O  O181  1  0.157400  0.242300  0.594600  1.0  -0.611
  O  O182  1  0.157400  0.240500  0.896600  1.0  -0.6479
  O  O183  1  0.842600  0.757700  0.594600  1.0  -0.6102
  O  O184  1  0.842600  0.759500  0.896600  1.0  -0.647
  O  O185  1  0.757700  0.842600  0.405400  1.0  -0.6094
  O  O186  1  0.759500  0.842600  0.103400  1.0  -0.6457
  O  O187  1  0.242300  0.157400  0.405400  1.0  -0.6091
  O  O188  1  0.240500  0.157400  0.103400  1.0  -0.6454
  O  O189  1  0.342600  0.742300  0.405400  1.0  -0.6086
  O  O190  1  0.342600  0.740500  0.103400  1.0  -0.6445
  O  O191  1  0.657400  0.257700  0.405400  1.0  -0.6096
  O  O192  1  0.657400  0.259500  0.103400  1.0  -0.6468
  O  O193  1  0.784200  0.284200  0.254500  1.0  -0.9074
  O  O194  1  0.215800  0.715800  0.254500  1.0  -0.9112
  O  O195  1  0.215800  0.284200  0.254500  1.0  -0.9081
  O  O196  1  0.784200  0.715800  0.254500  1.0  -0.9104
  O  O197  1  0.715800  0.784200  0.745500  1.0  -0.9082
  O  O198  1  0.284200  0.215800  0.745500  1.0  -0.9106
  O  O199  1  0.284200  0.784200  0.745500  1.0  -0.9076
  O  O200  1  0.715800  0.215800  0.745500  1.0  -0.9113
