# generated using pymatgen
data_SmH9C18(NO2)3
_symmetry_space_group_name_H-M   'P 1'
_cell_length_a   15.58640000
_cell_length_b   25.47500000
_cell_length_c   17.03010000
_cell_angle_alpha   98.42800000
_cell_angle_beta   90.00000000
_cell_angle_gamma   90.00000000
_symmetry_Int_Tables_number   1
_chemical_formula_structural   SmH9C18(NO2)3
_chemical_formula_sum   'Sm8 H72 C144 N24 O48'
_cell_volume   6689.00742923
_cell_formula_units_Z   8
loop_
 _symmetry_equiv_pos_site_id
 _symmetry_equiv_pos_as_xyz
  1  'x, y, z'
loop_
 _atom_site_type_symbol
 _atom_site_label
 _atom_site_symmetry_multiplicity
 _atom_site_fract_x
 _atom_site_fract_y
 _atom_site_fract_z
 _atom_site_occupancy
 _atom_site_charge
  Sm  Sm1  1  0.295140  0.250360  0.962440  1.0  2.3234
  Sm  Sm2  1  0.175930  0.248290  0.184930  1.0  2.3249
  Sm  Sm3  1  0.795140  0.749640  0.537560  1.0  2.3176
  Sm  Sm4  1  0.675930  0.751710  0.315070  1.0  2.3267
  Sm  Sm5  1  0.704860  0.749640  0.037560  1.0  2.3263
  Sm  Sm6  1  0.824070  0.751710  0.815070  1.0  2.3221
  Sm  Sm7  1  0.204860  0.250360  0.462440  1.0  2.3271
  Sm  Sm8  1  0.324070  0.248290  0.684930  1.0  2.3157
  H  H9  1  0.995700  0.384900  0.113300  1.0  0.0896
  H  H10  1  0.939800  0.463400  0.093300  1.0  0.1165
  H  H11  1  0.162800  0.387600  0.933300  1.0  0.1034
  H  H12  1  0.348500  0.126300  0.237500  1.0  0.1038
  H  H13  1  0.423900  0.050800  0.261200  1.0  0.1064
  H  H14  1  0.479400  0.126200  0.031800  1.0  0.1026
  H  H15  1  0.501500  0.997600  0.280500  1.0  0.1045
  H  H16  1  0.557300  0.914500  0.296200  1.0  0.0926
  H  H17  1  0.642300  0.894800  0.068900  1.0  0.0953
  H  H18  1  0.132500  0.086000  0.876800  1.0  0.1058
  H  H19  1  0.054000  0.008900  0.883000  1.0  0.1025
  H  H20  1  0.075000  0.129700  0.104800  1.0  0.0689
  H  H21  1  0.352000  0.404100  0.278300  1.0  0.109
  H  H22  1  0.441000  0.478200  0.280500  1.0  0.1122
  H  H23  1  0.407600  0.362900  0.045500  1.0  0.0786
  H  H24  1  0.488700  0.546800  0.273300  1.0  0.107
  H  H25  1  0.553300  0.625800  0.266400  1.0  0.0831
  H  H26  1  0.636800  0.574200  0.048800  1.0  0.0879
  H  H27  1  0.495700  0.615100  0.386700  1.0  0.0889
  H  H28  1  0.439800  0.536600  0.406700  1.0  0.1164
  H  H29  1  0.662800  0.612400  0.566700  1.0  0.1032
  H  H30  1  0.848500  0.873700  0.262500  1.0  0.1042
  H  H31  1  0.923900  0.949200  0.238800  1.0  0.1061
  H  H32  1  0.979400  0.873800  0.468200  1.0  0.1031
  H  H33  1  0.001500  0.002400  0.219500  1.0  0.1036
  H  H34  1  0.057300  0.085500  0.203800  1.0  0.0935
  H  H35  1  0.142300  0.105200  0.431100  1.0  0.0959
  H  H36  1  0.632500  0.914000  0.623200  1.0  0.1075
  H  H37  1  0.554000  0.991100  0.617000  1.0  0.1023
  H  H38  1  0.575000  0.870300  0.395200  1.0  0.0698
  H  H39  1  0.852000  0.595900  0.221700  1.0  0.1091
  H  H40  1  0.941000  0.521800  0.219500  1.0  0.1099
  H  H41  1  0.907600  0.637100  0.454500  1.0  0.0784
  H  H42  1  0.988700  0.453200  0.226700  1.0  0.1062
  H  H43  1  0.053300  0.374200  0.233600  1.0  0.0835
  H  H44  1  0.136800  0.425800  0.451200  1.0  0.087
  H  H45  1  0.004300  0.615100  0.886700  1.0  0.0893
  H  H46  1  0.060200  0.536600  0.906700  1.0  0.1171
  H  H47  1  0.837200  0.612400  0.066700  1.0  0.1032
  H  H48  1  0.651500  0.873700  0.762500  1.0  0.1044
  H  H49  1  0.576100  0.949200  0.738800  1.0  0.1052
  H  H50  1  0.520600  0.873800  0.968200  1.0  0.1033
  H  H51  1  0.498500  0.002400  0.719500  1.0  0.103
  H  H52  1  0.442700  0.085500  0.703800  1.0  0.0903
  H  H53  1  0.357700  0.105200  0.931100  1.0  0.0959
  H  H54  1  0.867500  0.914000  0.123200  1.0  0.107
  H  H55  1  0.946000  0.991100  0.117000  1.0  0.1026
  H  H56  1  0.925000  0.870300  0.895200  1.0  0.07
  H  H57  1  0.648000  0.595900  0.721700  1.0  0.1091
  H  H58  1  0.559000  0.521800  0.719500  1.0  0.1096
  H  H59  1  0.592400  0.637100  0.954500  1.0  0.0776
  H  H60  1  0.511300  0.453200  0.726700  1.0  0.1058
  H  H61  1  0.446700  0.374200  0.733600  1.0  0.0842
  H  H62  1  0.363200  0.425800  0.951200  1.0  0.0872
  H  H63  1  0.504300  0.384900  0.613300  1.0  0.0892
  H  H64  1  0.560200  0.463400  0.593300  1.0  0.1168
  H  H65  1  0.337200  0.387600  0.433300  1.0  0.1035
  H  H66  1  0.151500  0.126300  0.737500  1.0  0.1038
  H  H67  1  0.076100  0.050800  0.761200  1.0  0.1059
  H  H68  1  0.020600  0.126200  0.531800  1.0  0.1034
  H  H69  1  0.998500  0.997600  0.780500  1.0  0.1045
  H  H70  1  0.942700  0.914500  0.796200  1.0  0.0908
  H  H71  1  0.857700  0.894800  0.568900  1.0  0.0953
  H  H72  1  0.367500  0.086000  0.376800  1.0  0.1067
  H  H73  1  0.446000  0.008900  0.383000  1.0  0.1025
  H  H74  1  0.425000  0.129700  0.604800  1.0  0.0686
  H  H75  1  0.148000  0.404100  0.778300  1.0  0.1092
  H  H76  1  0.059000  0.478200  0.780500  1.0  0.1119
  H  H77  1  0.092400  0.362900  0.545500  1.0  0.0781
  H  H78  1  0.011300  0.546800  0.773300  1.0  0.1074
  H  H79  1  0.946700  0.625800  0.766400  1.0  0.084
  H  H80  1  0.863200  0.574200  0.548800  1.0  0.0878
  C  C81  1  0.124700  0.325400  0.042700  1.0  0.7828
  C  C82  1  0.086400  0.377800  0.027900  1.0  -0.2151
  C  C83  1  0.019300  0.402200  0.072500  1.0  0.0068
  C  C84  1  0.986200  0.448600  0.061200  1.0  -0.1667
  C  C85  1  0.017800  0.474400  0.004900  1.0  0.2182
  C  C86  1  0.118000  0.403400  0.966300  1.0  0.1768
  C  C87  1  0.352900  0.179100  0.115300  1.0  0.7801
  C  C88  1  0.406800  0.133400  0.132400  1.0  -0.2355
  C  C89  1  0.390400  0.111000  0.200600  1.0  0.0248
  C  C90  1  0.435200  0.066100  0.214700  1.0  -0.1954
  C  C91  1  0.496400  0.043600  0.160600  1.0  0.1972
  C  C92  1  0.468100  0.110900  0.078400  1.0  0.16
  C  C93  1  0.632800  0.842200  0.194200  1.0  0.8261
  C  C94  1  0.538800  0.995500  0.165400  1.0  0.2336
  C  C95  1  0.530100  0.976700  0.237500  1.0  -0.2025
  C  C96  1  0.563200  0.927400  0.246900  1.0  0.0085
  C  C97  1  0.605100  0.896800  0.184000  1.0  -0.2264
  C  C98  1  0.613700  0.915600  0.111800  1.0  0.1745
  C  C99  1  0.166700  0.165300  0.994500  1.0  0.791
  C  C100  1  0.115200  0.115400  0.992700  1.0  -0.2229
  C  C101  1  0.107000  0.079700  0.925300  1.0  0.0098
  C  C102  1  0.060000  0.034100  0.929500  1.0  -0.1629
  C  C103  1  0.025000  0.024500  0.995400  1.0  0.2339
  C  C104  1  0.073000  0.104100  0.058200  1.0  0.2085
  C  C105  1  0.312500  0.329300  0.157900  1.0  0.7855
  C  C106  1  0.370500  0.375700  0.161500  1.0  -0.2463
  C  C107  1  0.381000  0.410600  0.231300  1.0  0.0419
  C  C108  1  0.432200  0.454700  0.232500  1.0  -0.1802
  C  C109  1  0.470200  0.464100  0.164200  1.0  0.2282
  C  C110  1  0.414000  0.386400  0.094000  1.0  0.1922
  C  C111  1  0.520800  0.513400  0.163400  1.0  0.2195
  C  C112  1  0.517900  0.552300  0.226200  1.0  -0.1982
  C  C113  1  0.556000  0.598600  0.221800  1.0  0.0477
  C  C114  1  0.598900  0.608400  0.156000  1.0  -0.2377
  C  C115  1  0.605000  0.568400  0.094300  1.0  0.1879
  C  C116  1  0.635300  0.662000  0.150300  1.0  0.8007
  C  C117  1  0.624700  0.674600  0.457300  1.0  0.8024
  C  C118  1  0.586400  0.622200  0.472100  1.0  -0.2196
  C  C119  1  0.519300  0.597800  0.427500  1.0  0.0217
  C  C120  1  0.486200  0.551400  0.438800  1.0  -0.1683
  C  C121  1  0.517800  0.525600  0.495100  1.0  0.2187
  C  C122  1  0.618000  0.596600  0.533700  1.0  0.1789
  C  C123  1  0.852900  0.820900  0.384700  1.0  0.7818
  C  C124  1  0.906800  0.866600  0.367600  1.0  -0.2277
  C  C125  1  0.890400  0.889000  0.299400  1.0  0.0211
  C  C126  1  0.935200  0.933900  0.285300  1.0  -0.1604
  C  C127  1  0.996400  0.956400  0.339400  1.0  0.1978
  C  C128  1  0.968100  0.889100  0.421600  1.0  0.1579
  C  C129  1  0.132800  0.157800  0.305800  1.0  0.8256
  C  C130  1  0.038800  0.004500  0.334600  1.0  0.2322
  C  C131  1  0.030100  0.023300  0.262500  1.0  -0.2022
  C  C132  1  0.063200  0.072600  0.253100  1.0  0.0081
  C  C133  1  0.105100  0.103200  0.316000  1.0  -0.2263
  C  C134  1  0.113700  0.084400  0.388200  1.0  0.1769
  C  C135  1  0.666667  0.834700  0.505500  1.0  0.7901
  C  C136  1  0.615200  0.884600  0.507300  1.0  -0.2238
  C  C137  1  0.607000  0.920300  0.574700  1.0  0.0073
  C  C138  1  0.560000  0.965900  0.570500  1.0  -0.1623
  C  C139  1  0.525000  0.975500  0.504600  1.0  0.2355
  C  C140  1  0.573000  0.895900  0.441800  1.0  0.2086
  C  C141  1  0.812500  0.670700  0.342100  1.0  0.7885
  C  C142  1  0.870500  0.624300  0.338500  1.0  -0.2456
  C  C143  1  0.881000  0.589400  0.268700  1.0  0.0429
  C  C144  1  0.932200  0.545300  0.267500  1.0  -0.1845
  C  C145  1  0.970200  0.535900  0.335800  1.0  0.2233
  C  C146  1  0.914000  0.613600  0.406000  1.0  0.1917
  C  C147  1  0.020800  0.486600  0.336600  1.0  0.2168
  C  C148  1  0.017900  0.447700  0.273800  1.0  -0.2048
  C  C149  1  0.056000  0.401400  0.278200  1.0  0.0483
  C  C150  1  0.098900  0.391600  0.344000  1.0  -0.2375
  C  C151  1  0.105000  0.431600  0.405700  1.0  0.1873
  C  C152  1  0.135300  0.338000  0.349700  1.0  0.7802
  C  C153  1  0.875300  0.674600  0.957300  1.0  0.8033
  C  C154  1  0.913600  0.622200  0.972100  1.0  -0.2146
  C  C155  1  0.980700  0.597800  0.927500  1.0  0.006
  C  C156  1  0.013800  0.551400  0.938800  1.0  -0.1683
  C  C157  1  0.982200  0.525600  0.995100  1.0  0.219
  C  C158  1  0.882000  0.596600  0.033700  1.0  0.1862
  C  C159  1  0.647100  0.820900  0.884700  1.0  0.7781
  C  C160  1  0.593200  0.866600  0.867600  1.0  -0.2349
  C  C161  1  0.609600  0.889000  0.799400  1.0  0.0264
  C  C162  1  0.564800  0.933900  0.785300  1.0  -0.1935
  C  C163  1  0.503600  0.956400  0.839400  1.0  0.1952
  C  C164  1  0.531900  0.889100  0.921600  1.0  0.1634
  C  C165  1  0.367200  0.157800  0.805800  1.0  0.8249
  C  C166  1  0.461200  0.004500  0.834600  1.0  0.2296
  C  C167  1  0.469900  0.023300  0.762500  1.0  -0.2007
  C  C168  1  0.436800  0.072600  0.753100  1.0  0.0079
  C  C169  1  0.394900  0.103200  0.816000  1.0  -0.226
  C  C170  1  0.386300  0.084400  0.888200  1.0  0.1832
  C  C171  1  0.833300  0.834700  0.005500  1.0  0.7919
  C  C172  1  0.884800  0.884600  0.007300  1.0  -0.2233
  C  C173  1  0.893000  0.920300  0.074700  1.0  0.0065
  C  C174  1  0.940000  0.965900  0.070500  1.0  -0.1628
  C  C175  1  0.975000  0.975500  0.004600  1.0  0.2342
  C  C176  1  0.927000  0.895900  0.941800  1.0  0.2092
  C  C177  1  0.687500  0.670700  0.842100  1.0  0.79
  C  C178  1  0.629500  0.624300  0.838500  1.0  -0.2459
  C  C179  1  0.619000  0.589400  0.768700  1.0  0.0439
  C  C180  1  0.567800  0.545300  0.767500  1.0  -0.1826
  C  C181  1  0.529800  0.535900  0.835800  1.0  0.2265
  C  C182  1  0.586000  0.613600  0.906000  1.0  0.1907
  C  C183  1  0.479200  0.486600  0.836600  1.0  0.2166
  C  C184  1  0.482100  0.447700  0.773800  1.0  -0.2011
  C  C185  1  0.444000  0.401400  0.778200  1.0  0.048
  C  C186  1  0.401100  0.391600  0.844000  1.0  -0.2327
  C  C187  1  0.395000  0.431600  0.905700  1.0  0.1901
  C  C188  1  0.364700  0.338000  0.849700  1.0  0.7775
  C  C189  1  0.375300  0.325400  0.542700  1.0  0.7844
  C  C190  1  0.413600  0.377800  0.527900  1.0  -0.2204
  C  C191  1  0.480700  0.402200  0.572500  1.0  0.0199
  C  C192  1  0.513800  0.448600  0.561200  1.0  -0.1677
  C  C193  1  0.482200  0.474400  0.504900  1.0  0.2184
  C  C194  1  0.382000  0.403400  0.466300  1.0  0.1827
  C  C195  1  0.147100  0.179100  0.615300  1.0  0.7775
  C  C196  1  0.093200  0.133400  0.632400  1.0  -0.227
  C  C197  1  0.109600  0.111000  0.700600  1.0  0.0209
  C  C198  1  0.064800  0.066100  0.714700  1.0  -0.1608
  C  C199  1  0.003600  0.043600  0.660600  1.0  0.199
  C  C200  1  0.031900  0.110900  0.578400  1.0  0.1663
  C  C201  1  0.867200  0.842200  0.694200  1.0  0.8256
  C  C202  1  0.961200  0.995500  0.665400  1.0  0.2294
  C  C203  1  0.969900  0.976700  0.737500  1.0  -0.2015
  C  C204  1  0.936800  0.927400  0.746900  1.0  0.0084
  C  C205  1  0.894900  0.896800  0.684000  1.0  -0.2259
  C  C206  1  0.886300  0.915600  0.611800  1.0  0.1754
  C  C207  1  0.333333  0.165300  0.494500  1.0  0.7905
  C  C208  1  0.384800  0.115400  0.492700  1.0  -0.222
  C  C209  1  0.393000  0.079700  0.425300  1.0  0.0108
  C  C210  1  0.440000  0.034100  0.429500  1.0  -0.1642
  C  C211  1  0.475000  0.024500  0.495400  1.0  0.2336
  C  C212  1  0.427000  0.104100  0.558200  1.0  0.2092
  C  C213  1  0.187500  0.329300  0.657900  1.0  0.7863
  C  C214  1  0.129500  0.375700  0.661500  1.0  -0.2469
  C  C215  1  0.119000  0.410600  0.731300  1.0  0.043
  C  C216  1  0.067800  0.454700  0.732500  1.0  -0.1823
  C  C217  1  0.029800  0.464100  0.664200  1.0  0.2275
  C  C218  1  0.086000  0.386400  0.594000  1.0  0.1912
  C  C219  1  0.979200  0.513400  0.663400  1.0  0.2195
  C  C220  1  0.982100  0.552300  0.726200  1.0  -0.1984
  C  C221  1  0.944000  0.598600  0.721800  1.0  0.0478
  C  C222  1  0.901100  0.608400  0.656000  1.0  -0.2352
  C  C223  1  0.895000  0.568400  0.594300  1.0  0.1986
  C  C224  1  0.864700  0.662000  0.650300  1.0  0.8031
  N  N225  1  0.084000  0.452100  0.953200  1.0  -0.4195
  N  N226  1  0.512900  0.066100  0.092500  1.0  -0.3943
  N  N227  1  0.580600  0.965000  0.102500  1.0  -0.3692
  N  N228  1  0.030000  0.059800  0.061000  1.0  -0.4014
  N  N229  1  0.464500  0.429900  0.096400  1.0  -0.4162
  N  N230  1  0.566000  0.518800  0.095000  1.0  -0.3777
  N  N231  1  0.584000  0.547900  0.546800  1.0  -0.4179
  N  N232  1  0.012900  0.933900  0.407500  1.0  -0.3943
  N  N233  1  0.080600  0.035000  0.397500  1.0  -0.3663
  N  N234  1  0.530000  0.940200  0.439000  1.0  -0.4036
  N  N235  1  0.964500  0.570100  0.403600  1.0  -0.4131
  N  N236  1  0.066000  0.481200  0.405000  1.0  -0.3791
  N  N237  1  0.916000  0.547900  0.046800  1.0  -0.4177
  N  N238  1  0.487100  0.933900  0.907500  1.0  -0.3967
  N  N239  1  0.419400  0.035000  0.897500  1.0  -0.3687
  N  N240  1  0.970000  0.940200  0.939000  1.0  -0.4036
  N  N241  1  0.535500  0.570100  0.903600  1.0  -0.4167
  N  N242  1  0.434000  0.481200  0.905000  1.0  -0.3819
  N  N243  1  0.416000  0.452100  0.453200  1.0  -0.419
  N  N244  1  0.987100  0.066100  0.592500  1.0  -0.3944
  N  N245  1  0.919400  0.965000  0.602500  1.0  -0.3789
  N  N246  1  0.470000  0.059800  0.561000  1.0  -0.4001
  N  N247  1  0.035500  0.429900  0.596400  1.0  -0.4157
  N  N248  1  0.934000  0.518800  0.595000  1.0  -0.3873
  O  O249  1  0.165600  0.300300  0.985800  1.0  -0.7567
  O  O250  1  0.113700  0.313300  0.110000  1.0  -0.7335
  O  O251  1  0.356500  0.188900  0.045200  1.0  -0.7321
  O  O252  1  0.309000  0.203100  0.171100  1.0  -0.72
  O  O253  1  0.632600  0.809100  0.133600  1.0  -0.8
  O  O254  1  0.651100  0.833200  0.261500  1.0  -0.7
  O  O255  1  0.202400  0.173600  0.931900  1.0  -0.6582
  O  O256  1  0.171900  0.197300  0.058000  1.0  -0.8567
  O  O257  1  0.300100  0.300400  0.093100  1.0  -0.8311
  O  O258  1  0.274600  0.322100  0.220800  1.0  -0.6489
  O  O259  1  0.677200  0.667700  0.089300  1.0  -0.6599
  O  O260  1  0.615900  0.698600  0.205700  1.0  -0.8116
  O  O261  1  0.665600  0.699700  0.514200  1.0  -0.7549
  O  O262  1  0.613700  0.686700  0.390000  1.0  -0.735
  O  O263  1  0.856500  0.811100  0.454800  1.0  -0.7329
  O  O264  1  0.809000  0.796900  0.328900  1.0  -0.7214
  O  O265  1  0.132600  0.190900  0.366400  1.0  -0.8014
  O  O266  1  0.151100  0.166800  0.238500  1.0  -0.6995
  O  O267  1  0.702400  0.826400  0.568100  1.0  -0.6577
  O  O268  1  0.671900  0.802700  0.442000  1.0  -0.8557
  O  O269  1  0.800100  0.699600  0.406900  1.0  -0.8315
  O  O270  1  0.774600  0.677900  0.279200  1.0  -0.6483
  O  O271  1  0.177200  0.332300  0.410700  1.0  -0.6595
  O  O272  1  0.115900  0.301400  0.294300  1.0  -0.8095
  O  O273  1  0.834400  0.699700  0.014200  1.0  -0.7502
  O  O274  1  0.886300  0.686700  0.890000  1.0  -0.734
  O  O275  1  0.643500  0.811100  0.954800  1.0  -0.7345
  O  O276  1  0.691000  0.796900  0.828900  1.0  -0.7264
  O  O277  1  0.367400  0.190900  0.866400  1.0  -0.7973
  O  O278  1  0.348900  0.166800  0.738500  1.0  -0.6997
  O  O279  1  0.797600  0.826400  0.068100  1.0  -0.6577
  O  O280  1  0.828100  0.802700  0.942000  1.0  -0.8536
  O  O281  1  0.699900  0.699600  0.906900  1.0  -0.8309
  O  O282  1  0.725400  0.677900  0.779200  1.0  -0.65
  O  O283  1  0.322800  0.332300  0.910700  1.0  -0.6578
  O  O284  1  0.384100  0.301400  0.794300  1.0  -0.8104
  O  O285  1  0.334400  0.300300  0.485800  1.0  -0.7518
  O  O286  1  0.386300  0.313300  0.610000  1.0  -0.7331
  O  O287  1  0.143500  0.188900  0.545200  1.0  -0.7351
  O  O288  1  0.191000  0.203100  0.671100  1.0  -0.7286
  O  O289  1  0.867400  0.809100  0.633600  1.0  -0.7976
  O  O290  1  0.848900  0.833200  0.761500  1.0  -0.6994
  O  O291  1  0.297600  0.173600  0.431900  1.0  -0.6575
  O  O292  1  0.328100  0.197300  0.558000  1.0  -0.8569
  O  O293  1  0.199900  0.300400  0.593100  1.0  -0.8304
  O  O294  1  0.225400  0.322100  0.720800  1.0  -0.6502
  O  O295  1  0.822800  0.667700  0.589300  1.0  -0.6579
  O  O296  1  0.884100  0.698600  0.705700  1.0  -0.8111
