# generated using pymatgen
data_Zn4H42C72N6O13
_symmetry_space_group_name_H-M   'P 1'
_cell_length_a   21.24590000
_cell_length_b   21.24590000
_cell_length_c   21.24590000
_cell_angle_alpha   102.03300000
_cell_angle_beta   102.03300000
_cell_angle_gamma   102.03300000
_symmetry_Int_Tables_number   1
_chemical_formula_structural   Zn4H42C72N6O13
_chemical_formula_sum   'Zn8 H84 C144 N12 O26'
_cell_volume   8849.44344755
_cell_formula_units_Z   2
loop_
 _symmetry_equiv_pos_site_id
 _symmetry_equiv_pos_as_xyz
  1  'x, y, z'
loop_
 _atom_site_type_symbol
 _atom_site_label
 _atom_site_symmetry_multiplicity
 _atom_site_fract_x
 _atom_site_fract_y
 _atom_site_fract_z
 _atom_site_occupancy
 _atom_site_charge
  Zn  Zn1  1  0.670180  0.760660  0.768720  1.0  1.0391
  Zn  Zn2  1  0.768720  0.670180  0.760660  1.0  1.0375
  Zn  Zn3  1  0.329820  0.231280  0.239340  1.0  1.0406
  Zn  Zn4  1  0.360420  0.360420  0.360420  1.0  1.1031
  Zn  Zn5  1  0.760660  0.768720  0.670180  1.0  1.0354
  Zn  Zn6  1  0.239340  0.329820  0.231280  1.0  1.0383
  Zn  Zn7  1  0.231280  0.239340  0.329820  1.0  1.0362
  Zn  Zn8  1  0.639580  0.639580  0.639580  1.0  1.103
  H  H9  1  0.403600  0.888000  0.369000  1.0  0.1029
  H  H10  1  0.425000  0.616000  0.581900  1.0  0.0977
  H  H11  1  0.519800  0.242900  0.241200  1.0  0.0983
  H  H12  1  0.593800  0.628600  0.221100  1.0  0.1022
  H  H13  1  0.581900  0.425000  0.616000  1.0  0.0973
  H  H14  1  0.231000  0.952500  0.385900  1.0  0.102
  H  H15  1  0.142500  0.835200  0.693500  1.0  0.2481
  H  H16  1  0.630900  0.254600  0.237500  1.0  0.1009
  H  H17  1  0.745400  0.369100  0.762500  1.0  0.1004
  H  H18  1  0.369100  0.762500  0.745400  1.0  0.1019
  H  H19  1  0.384000  0.575000  0.418100  1.0  0.0976
  H  H20  1  0.596400  0.631000  0.112000  1.0  0.1017
  H  H21  1  0.679800  0.347800  0.057300  1.0  0.0945
  H  H22  1  0.306500  0.164800  0.857500  1.0  0.2498
  H  H23  1  0.385900  0.231000  0.952500  1.0  0.0996
  H  H24  1  0.952500  0.385900  0.231000  1.0  0.1022
  H  H25  1  0.616000  0.581900  0.425000  1.0  0.0977
  H  H26  1  0.619600  0.570100  0.313800  1.0  0.1066
  H  H27  1  0.234400  0.054600  0.808800  1.0  0.093
  H  H28  1  0.808800  0.234400  0.054600  1.0  0.0915
  H  H29  1  0.950100  0.287600  0.375200  1.0  0.1009
  H  H30  1  0.628600  0.221100  0.593800  1.0  0.101
  H  H31  1  0.241200  0.519800  0.242900  1.0  0.0976
  H  H32  1  0.680500  0.320300  0.831800  1.0  0.2389
  H  H33  1  0.835200  0.693500  0.142500  1.0  0.2475
  H  H34  1  0.320200  0.942700  0.652200  1.0  0.0938
  H  H35  1  0.347800  0.057300  0.679800  1.0  0.0944
  H  H36  1  0.942700  0.652200  0.320200  1.0  0.0946
  H  H37  1  0.945400  0.765600  0.191200  1.0  0.094
  H  H38  1  0.429900  0.380400  0.686200  1.0  0.1067
  H  H39  1  0.888000  0.369000  0.403600  1.0  0.1027
  H  H40  1  0.614100  0.047500  0.769000  1.0  0.1011
  H  H41  1  0.369000  0.403600  0.888000  1.0  0.1021
  H  H42  1  0.191200  0.945400  0.765600  1.0  0.0931
  H  H43  1  0.633200  0.944300  0.776300  1.0  0.0998
  H  H44  1  0.375200  0.950100  0.287600  1.0  0.1014
  H  H45  1  0.221100  0.593800  0.628600  1.0  0.1029
  H  H46  1  0.570100  0.313800  0.619600  1.0  0.1077
  H  H47  1  0.366800  0.223700  0.055700  1.0  0.0985
  H  H48  1  0.946600  0.632100  0.731300  1.0  0.1012
  H  H49  1  0.406200  0.778900  0.371400  1.0  0.1016
  H  H50  1  0.164800  0.857500  0.306500  1.0  0.248
  H  H51  1  0.223700  0.055700  0.366800  1.0  0.0997
  H  H52  1  0.944300  0.776300  0.633200  1.0  0.1002
  H  H53  1  0.237500  0.630900  0.254600  1.0  0.1021
  H  H54  1  0.268700  0.367900  0.053400  1.0  0.1013
  H  H55  1  0.418100  0.384000  0.575000  1.0  0.0979
  H  H56  1  0.254600  0.237500  0.630900  1.0  0.1016
  H  H57  1  0.575000  0.418100  0.384000  1.0  0.0987
  H  H58  1  0.112000  0.596400  0.631000  1.0  0.1027
  H  H59  1  0.168200  0.679700  0.319500  1.0  0.238
  H  H60  1  0.380400  0.686200  0.429900  1.0  0.1063
  H  H61  1  0.857500  0.306500  0.164800  1.0  0.2478
  H  H62  1  0.679700  0.319500  0.168200  1.0  0.2408
  H  H63  1  0.049900  0.624800  0.712400  1.0  0.1022
  H  H64  1  0.242900  0.241200  0.519800  1.0  0.0978
  H  H65  1  0.632100  0.731300  0.946600  1.0  0.1013
  H  H66  1  0.831800  0.680500  0.320300  1.0  0.237
  H  H67  1  0.631000  0.112000  0.596400  1.0  0.1015
  H  H68  1  0.765600  0.191200  0.945400  1.0  0.0914
  H  H69  1  0.480200  0.758800  0.757100  1.0  0.0983
  H  H70  1  0.371400  0.406200  0.778900  1.0  0.1027
  H  H71  1  0.762500  0.745400  0.369100  1.0  0.1015
  H  H72  1  0.053400  0.268700  0.367900  1.0  0.1014
  H  H73  1  0.731300  0.946600  0.632100  1.0  0.1013
  H  H74  1  0.054600  0.808800  0.234400  1.0  0.0921
  H  H75  1  0.686200  0.429900  0.380400  1.0  0.1083
  H  H76  1  0.776300  0.633200  0.944300  1.0  0.0994
  H  H77  1  0.320300  0.831800  0.680500  1.0  0.2385
  H  H78  1  0.319500  0.168200  0.679700  1.0  0.2379
  H  H79  1  0.057300  0.679800  0.347800  1.0  0.0949
  H  H80  1  0.758800  0.757100  0.480200  1.0  0.0977
  H  H81  1  0.778900  0.371400  0.406200  1.0  0.1011
  H  H82  1  0.757100  0.480200  0.758800  1.0  0.0983
  H  H83  1  0.693500  0.142500  0.835200  1.0  0.2488
  H  H84  1  0.047500  0.769000  0.614100  1.0  0.1012
  H  H85  1  0.652200  0.320200  0.942700  1.0  0.0937
  H  H86  1  0.624800  0.712400  0.049900  1.0  0.1011
  H  H87  1  0.313800  0.619600  0.570100  1.0  0.107
  H  H88  1  0.287600  0.375200  0.950100  1.0  0.1019
  H  H89  1  0.769000  0.614100  0.047500  1.0  0.1013
  H  H90  1  0.055700  0.366800  0.223700  1.0  0.0999
  H  H91  1  0.367900  0.053400  0.268700  1.0  0.1012
  H  H92  1  0.712400  0.049900  0.624800  1.0  0.1014
  C  C93  1  0.244600  0.755400  0.671200  1.0  0.1414
  C  C94  1  0.683100  0.300800  0.965700  1.0  -0.1713
  C  C95  1  0.854300  0.358800  0.363200  1.0  -0.1334
  C  C96  1  0.693200  0.237700  0.856700  1.0  0.3337
  C  C97  1  0.313000  0.537000  0.329400  1.0  -0.1566
  C  C98  1  0.756900  0.672700  0.179800  1.0  0.1649
  C  C99  1  0.741300  0.638000  0.027000  1.0  -0.1447
  C  C100  1  0.686100  0.681900  0.535700  1.0  0.7019
  C  C101  1  0.318100  0.313900  0.464300  1.0  0.7047
  C  C102  1  0.670600  0.463000  0.687000  1.0  -0.1559
  C  C103  1  0.965700  0.745500  0.649200  1.0  -0.0683
  C  C104  1  0.384900  0.354200  0.586400  1.0  -0.0586
  C  C105  1  0.648000  0.608100  0.347600  1.0  -0.1484
  C  C106  1  0.327300  0.243100  0.820200  1.0  0.1659
  C  C107  1  0.762300  0.306800  0.143300  1.0  0.3344
  C  C108  1  0.669000  0.343300  0.308700  1.0  0.0088
  C  C109  1  0.380500  0.732700  0.712200  1.0  -0.1372
  C  C110  1  0.649200  0.965700  0.745500  1.0  -0.0695
  C  C111  1  0.755400  0.671200  0.244600  1.0  0.1421
  C  C112  1  0.699600  0.867700  0.706100  1.0  0.5895
  C  C113  1  0.350800  0.254500  0.034300  1.0  -0.066
  C  C114  1  0.672700  0.179800  0.756900  1.0  0.1661
  C  C115  1  0.707600  0.967100  0.659900  1.0  -0.0686
  C  C116  1  0.328800  0.244600  0.755400  1.0  0.1444
  C  C117  1  0.347600  0.648000  0.608100  1.0  -0.1508
  C  C118  1  0.243100  0.820200  0.327300  1.0  0.1677
  C  C119  1  0.413600  0.645800  0.615100  1.0  -0.0597
  C  C120  1  0.028400  0.655500  0.696300  1.0  -0.1303
  C  C121  1  0.058400  0.696300  0.661500  1.0  -0.0096
  C  C122  1  0.965700  0.683100  0.300800  1.0  -0.1753
  C  C123  1  0.935800  0.704900  0.684000  1.0  -0.1585
  C  C124  1  0.671200  0.244600  0.755400  1.0  0.143
  C  C125  1  0.745500  0.649200  0.965700  1.0  -0.0667
  C  C126  1  0.260000  0.694600  0.654800  1.0  0.0018
  C  C127  1  0.684000  0.935800  0.704900  1.0  -0.1584
  C  C128  1  0.586400  0.384900  0.354200  1.0  -0.0602
  C  C129  1  0.130400  0.697700  0.657700  1.0  -0.0128
  C  C130  1  0.740000  0.345200  0.305400  1.0  0.0047
  C  C131  1  0.967100  0.659900  0.707600  1.0  -0.0676
  C  C132  1  0.343300  0.308700  0.669000  1.0  0.0087
  C  C133  1  0.145700  0.636800  0.641200  1.0  -0.134
  C  C134  1  0.032000  0.772400  0.247800  1.0  -0.1516
  C  C135  1  0.446500  0.730500  0.719200  1.0  -0.0729
  C  C136  1  0.391900  0.352000  0.652400  1.0  -0.1494
  C  C137  1  0.313900  0.464300  0.318100  1.0  0.7049
  C  C138  1  0.143300  0.762300  0.306800  1.0  0.331
  C  C139  1  0.656700  0.331000  0.691300  1.0  0.0086
  C  C140  1  0.338500  0.303700  0.941600  1.0  -0.0089
  C  C141  1  0.657700  0.130400  0.697700  1.0  -0.0099
  C  C142  1  0.741800  0.289700  0.069900  1.0  0.0582
  C  C143  1  0.305400  0.740000  0.345200  1.0  0.0007
  C  C144  1  0.930100  0.710300  0.258200  1.0  0.0581
  C  C145  1  0.254500  0.034300  0.350800  1.0  -0.0673
  C  C146  1  0.706100  0.699600  0.867700  1.0  0.5922
  C  C147  1  0.179800  0.756900  0.672700  1.0  0.1659
  C  C148  1  0.363200  0.854300  0.358800  1.0  -0.1317
  C  C149  1  0.269500  0.553500  0.280800  1.0  -0.0719
  C  C150  1  0.258700  0.973000  0.362000  1.0  -0.1469
  C  C151  1  0.362000  0.258700  0.973000  1.0  -0.145
  C  C152  1  0.535700  0.686100  0.681900  1.0  0.7015
  C  C153  1  0.360200  0.364600  0.789400  1.0  -0.1415
  C  C154  1  0.293900  0.132300  0.300400  1.0  0.5919
  C  C155  1  0.537000  0.329400  0.313000  1.0  -0.1571
  C  C156  1  0.941600  0.338500  0.303700  1.0  -0.0098
  C  C157  1  0.247800  0.032000  0.772400  1.0  -0.1479
  C  C158  1  0.608100  0.347600  0.648000  1.0  -0.1488
  C  C159  1  0.694600  0.654800  0.260000  1.0  0.0004
  C  C160  1  0.132300  0.300400  0.293900  1.0  0.5926
  C  C161  1  0.303700  0.941600  0.338500  1.0  -0.0096
  C  C162  1  0.027000  0.741300  0.638000  1.0  -0.1446
  C  C163  1  0.300400  0.293900  0.132300  1.0  0.5903
  C  C164  1  0.354200  0.586400  0.384900  1.0  -0.0595
  C  C165  1  0.696300  0.028400  0.655500  1.0  -0.1286
  C  C166  1  0.306800  0.143300  0.762300  1.0  0.3328
  C  C167  1  0.280800  0.269500  0.553500  1.0  -0.0712
  C  C168  1  0.034300  0.350800  0.254500  1.0  -0.071
  C  C169  1  0.687000  0.670600  0.463000  1.0  -0.1596
  C  C170  1  0.464300  0.318100  0.313900  1.0  0.7049
  C  C171  1  0.730500  0.719200  0.446500  1.0  -0.0715
  C  C172  1  0.645800  0.615100  0.413600  1.0  -0.06
  C  C173  1  0.636800  0.641200  0.145700  1.0  -0.1329
  C  C174  1  0.210600  0.635400  0.639800  1.0  -0.1442
  C  C175  1  0.615100  0.413600  0.645800  1.0  -0.0588
  C  C176  1  0.968000  0.752200  0.227600  1.0  -0.1497
  C  C177  1  0.292400  0.340100  0.032900  1.0  -0.0663
  C  C178  1  0.227600  0.968000  0.752200  1.0  -0.147
  C  C179  1  0.661500  0.058400  0.696300  1.0  -0.0086
  C  C180  1  0.654800  0.260000  0.694600  1.0  0.0029
  C  C181  1  0.258200  0.930100  0.710300  1.0  0.0583
  C  C182  1  0.237700  0.856700  0.693200  1.0  0.3336
  C  C183  1  0.032900  0.292400  0.340100  1.0  -0.0678
  C  C184  1  0.308700  0.669000  0.343300  1.0  0.0076
  C  C185  1  0.869600  0.342300  0.302300  1.0  -0.0098
  C  C186  1  0.691300  0.656700  0.331000  1.0  0.0073
  C  C187  1  0.303700  0.344500  0.971600  1.0  -0.128
  C  C188  1  0.641200  0.145700  0.636800  1.0  -0.1337
  C  C189  1  0.696300  0.661500  0.058400  1.0  -0.0095
  C  C190  1  0.344500  0.971600  0.303700  1.0  -0.128
  C  C191  1  0.329400  0.313000  0.537000  1.0  -0.1594
  C  C192  1  0.732700  0.712200  0.380500  1.0  -0.136
  C  C193  1  0.697700  0.657700  0.130400  1.0  -0.0127
  C  C194  1  0.553500  0.280800  0.269500  1.0  -0.0717
  C  C195  1  0.619500  0.287800  0.267300  1.0  -0.1365
  C  C196  1  0.704900  0.684000  0.935800  1.0  -0.1585
  C  C197  1  0.463000  0.687000  0.670600  1.0  -0.1577
  C  C198  1  0.856700  0.693200  0.237700  1.0  0.3305
  C  C199  1  0.331000  0.691300  0.656700  1.0  0.0088
  C  C200  1  0.300800  0.965700  0.683100  1.0  -0.1695
  C  C201  1  0.710300  0.258200  0.930100  1.0  0.0582
  C  C202  1  0.638000  0.027000  0.741300  1.0  -0.1454
  C  C203  1  0.973000  0.362000  0.258700  1.0  -0.1487
  C  C204  1  0.364600  0.789400  0.360200  1.0  -0.1383
  C  C205  1  0.655500  0.696300  0.028400  1.0  -0.1265
  C  C206  1  0.789400  0.360200  0.364600  1.0  -0.1436
  C  C207  1  0.639800  0.210600  0.635400  1.0  -0.1414
  C  C208  1  0.064200  0.316000  0.295100  1.0  -0.1569
  C  C209  1  0.345200  0.305400  0.740000  1.0  0.0025
  C  C210  1  0.635400  0.639800  0.210600  1.0  -0.1396
  C  C211  1  0.340100  0.032900  0.292400  1.0  -0.0685
  C  C212  1  0.820200  0.327300  0.243100  1.0  0.1667
  C  C213  1  0.772400  0.247800  0.032000  1.0  -0.1455
  C  C214  1  0.699200  0.316900  0.034300  1.0  -0.169
  C  C215  1  0.752200  0.227600  0.968000  1.0  -0.1455
  C  C216  1  0.719200  0.446500  0.730500  1.0  -0.0721
  C  C217  1  0.295100  0.064200  0.316000  1.0  -0.1575
  C  C218  1  0.652400  0.391900  0.352000  1.0  -0.1488
  C  C219  1  0.352000  0.652400  0.391900  1.0  -0.1504
  C  C220  1  0.316900  0.034300  0.699200  1.0  -0.1697
  C  C221  1  0.971600  0.303700  0.344500  1.0  -0.1283
  C  C222  1  0.867700  0.706100  0.699600  1.0  0.5914
  C  C223  1  0.244600  0.755400  0.328800  1.0  0.1439
  C  C224  1  0.287800  0.267300  0.619500  1.0  -0.1363
  C  C225  1  0.712200  0.380500  0.732700  1.0  -0.1359
  C  C226  1  0.681900  0.535700  0.686100  1.0  0.7029
  C  C227  1  0.267300  0.619500  0.287800  1.0  -0.1347
  C  C228  1  0.034300  0.699200  0.316900  1.0  -0.1689
  C  C229  1  0.659900  0.707600  0.967100  1.0  -0.0661
  C  C230  1  0.358800  0.363200  0.854300  1.0  -0.1333
  C  C231  1  0.069900  0.741800  0.289700  1.0  0.0578
  C  C232  1  0.302300  0.869600  0.342300  1.0  -0.0111
  C  C233  1  0.289700  0.069900  0.741800  1.0  0.0585
  C  C234  1  0.316000  0.295100  0.064200  1.0  -0.1604
  C  C235  1  0.755400  0.328800  0.244600  1.0  0.1424
  C  C236  1  0.342300  0.302300  0.869600  1.0  -0.0089
  N  N237  1  0.179400  0.822700  0.312000  1.0  -0.2801
  N  N238  1  0.177300  0.820600  0.688000  1.0  -0.2811
  N  N239  1  0.681400  0.278500  0.818100  1.0  -0.2794
  N  N240  1  0.312000  0.179400  0.822700  1.0  -0.2773
  N  N241  1  0.688000  0.177300  0.820600  1.0  -0.2817
  N  N242  1  0.721500  0.318600  0.181900  1.0  -0.2824
  N  N243  1  0.278500  0.818100  0.681400  1.0  -0.281
  N  N244  1  0.820600  0.688000  0.177300  1.0  -0.2791
  N  N245  1  0.822700  0.312000  0.179400  1.0  -0.2825
  N  N246  1  0.318600  0.181900  0.721500  1.0  -0.2756
  N  N247  1  0.181900  0.721500  0.318600  1.0  -0.2795
  N  N248  1  0.818100  0.681400  0.278500  1.0  -0.2753
  O  O249  1  0.755800  0.676600  0.847900  1.0  -0.5851
  O  O250  1  0.426700  0.266400  0.279600  1.0  -0.5897
  O  O251  1  0.279600  0.426700  0.266400  1.0  -0.5865
  O  O252  1  0.450600  0.365100  0.349900  1.0  -0.6086
  O  O253  1  0.259000  0.322300  0.148900  1.0  -0.5835
  O  O254  1  0.650100  0.634900  0.549400  1.0  -0.6086
  O  O255  1  0.720400  0.733600  0.573300  1.0  -0.5866
  O  O256  1  0.148900  0.259000  0.322300  1.0  -0.5896
  O  O257  1  0.349900  0.450600  0.365100  1.0  -0.6087
  O  O258  1  0.549400  0.650100  0.634900  1.0  -0.6098
  O  O259  1  0.677700  0.741000  0.851100  1.0  -0.5853
  O  O260  1  0.573300  0.720400  0.733600  1.0  -0.5884
  O  O261  1  0.733600  0.573300  0.720400  1.0  -0.5855
  O  O262  1  0.365100  0.349900  0.450600  1.0  -0.6094
  O  O263  1  0.847900  0.755800  0.676600  1.0  -0.5906
  O  O264  1  0.152100  0.323400  0.244200  1.0  -0.5849
  O  O265  1  0.323400  0.244200  0.152100  1.0  -0.5868
  O  O266  1  0.634900  0.549400  0.650100  1.0  -0.6069
  O  O267  1  0.676600  0.847900  0.755800  1.0  -0.5839
  O  O268  1  0.741000  0.851100  0.677700  1.0  -0.5831
  O  O269  1  0.707770  0.707770  0.707770  1.0  -1.2405
  O  O270  1  0.244200  0.152100  0.323400  1.0  -0.5853
  O  O271  1  0.292230  0.292230  0.292230  1.0  -1.241
  O  O272  1  0.266400  0.279600  0.426700  1.0  -0.5876
  O  O273  1  0.322300  0.148900  0.259000  1.0  -0.5854
  O  O274  1  0.851100  0.677700  0.741000  1.0  -0.5861
