# generated using pymatgen
data_CaH8C14SO6
_symmetry_space_group_name_H-M   'P 1'
_cell_length_a   11.61930000
_cell_length_b   5.56670000
_cell_length_c   22.93120000
_cell_angle_alpha   90.00000000
_cell_angle_beta   100.89700000
_cell_angle_gamma   90.00000000
_symmetry_Int_Tables_number   1
_chemical_formula_structural   CaH8C14SO6
_chemical_formula_sum   'Ca4 H32 C56 S4 O24'
_cell_volume   1456.47210187
_cell_formula_units_Z   4
loop_
 _symmetry_equiv_pos_site_id
 _symmetry_equiv_pos_as_xyz
  1  'x, y, z'
loop_
 _atom_site_type_symbol
 _atom_site_label
 _atom_site_symmetry_multiplicity
 _atom_site_fract_x
 _atom_site_fract_y
 _atom_site_fract_z
 _atom_site_occupancy
 _atom_site_charge
  Ca  Ca1  1  0.637200  0.743310  0.221170  1.0  1.5824
  Ca  Ca2  1  0.862800  0.243310  0.278830  1.0  1.5829
  Ca  Ca3  1  0.362800  0.256690  0.778830  1.0  1.5827
  Ca  Ca4  1  0.137200  0.756690  0.721170  1.0  1.5826
  H  H5  1  0.314200  0.528700  0.280400  1.0  0.1003
  H  H6  1  0.159700  0.441300  0.330400  1.0  0.1242
  H  H7  1  0.311000  0.795800  0.382000  1.0  0.1194
  H  H8  1  0.460900  0.877700  0.328600  1.0  0.1258
  H  H9  1  0.080300  0.450200  0.463000  1.0  0.1215
  H  H10  1  0.129800  0.536100  0.565200  1.0  0.1221
  H  H11  1  0.277500  0.875900  0.596200  1.0  0.1244
  H  H12  1  0.231700  0.791000  0.493900  1.0  0.1276
  H  H13  1  0.185800  0.028700  0.219600  1.0  0.1005
  H  H14  1  0.340300  0.941300  0.169600  1.0  0.1238
  H  H15  1  0.189000  0.295800  0.118000  1.0  0.1195
  H  H16  1  0.039100  0.377700  0.171400  1.0  0.1247
  H  H17  1  0.419700  0.950200  0.037000  1.0  0.121
  H  H18  1  0.370200  0.036100  0.934800  1.0  0.1217
  H  H19  1  0.222500  0.375900  0.903800  1.0  0.1234
  H  H20  1  0.268300  0.291000  0.006100  1.0  0.1275
  H  H21  1  0.685800  0.471300  0.719600  1.0  0.1008
  H  H22  1  0.840300  0.558700  0.669600  1.0  0.1241
  H  H23  1  0.689000  0.204200  0.618000  1.0  0.1196
  H  H24  1  0.539100  0.122300  0.671400  1.0  0.1256
  H  H25  1  0.919700  0.549800  0.537000  1.0  0.1213
  H  H26  1  0.870200  0.463900  0.434800  1.0  0.1212
  H  H27  1  0.722500  0.124100  0.403800  1.0  0.1238
  H  H28  1  0.768300  0.209000  0.506100  1.0  0.1277
  H  H29  1  0.814200  0.971300  0.780400  1.0  0.1003
  H  H30  1  0.659700  0.058700  0.830400  1.0  0.1247
  H  H31  1  0.811000  0.704200  0.882000  1.0  0.1192
  H  H32  1  0.960900  0.622300  0.828600  1.0  0.1254
  H  H33  1  0.580300  0.049800  0.963000  1.0  0.1211
  H  H34  1  0.629800  0.963900  0.065200  1.0  0.1217
  H  H35  1  0.777500  0.624100  0.096200  1.0  0.124
  H  H36  1  0.731700  0.709000  0.993900  1.0  0.1282
  C  C37  1  0.493200  0.258600  0.262000  1.0  0.7308
  C  C38  1  0.399800  0.211100  0.299100  1.0  -0.117
  C  C39  1  0.312100  0.378900  0.300100  1.0  -0.0328
  C  C40  1  0.220800  0.328200  0.329900  1.0  -0.0856
  C  C41  1  0.220900  0.109600  0.358900  1.0  -0.2274
  C  C42  1  0.310900  0.941300  0.360300  1.0  -0.0715
  C  C43  1  0.400200  0.991200  0.329300  1.0  -0.0234
  C  C44  1  0.149000  0.111900  0.470200  1.0  -0.22
  C  C45  1  0.119400  0.334000  0.490100  1.0  -0.0961
  C  C46  1  0.148200  0.383700  0.550800  1.0  -0.0529
  C  C47  1  0.203600  0.211400  0.590000  1.0  -0.0957
  C  C48  1  0.236700  0.990500  0.569300  1.0  -0.0588
  C  C49  1  0.209500  0.939800  0.508800  1.0  -0.065
  C  C50  1  0.227500  0.262400  0.655700  1.0  0.738
  C  C51  1  0.006800  0.758600  0.238000  1.0  0.7431
  C  C52  1  0.100200  0.711100  0.200900  1.0  -0.1181
  C  C53  1  0.187900  0.878900  0.199900  1.0  -0.033
  C  C54  1  0.279200  0.828200  0.170100  1.0  -0.085
  C  C55  1  0.279100  0.609600  0.141100  1.0  -0.2274
  C  C56  1  0.189100  0.441300  0.139700  1.0  -0.0718
  C  C57  1  0.099800  0.491200  0.170700  1.0  -0.0229
  C  C58  1  0.351000  0.611900  0.029800  1.0  -0.2212
  C  C59  1  0.380600  0.834000  0.009900  1.0  -0.0967
  C  C60  1  0.351800  0.883700  0.949200  1.0  -0.0543
  C  C61  1  0.296400  0.711400  0.910000  1.0  -0.0955
  C  C62  1  0.263300  0.490500  0.930700  1.0  -0.0585
  C  C63  1  0.290500  0.439800  0.991200  1.0  -0.0663
  C  C64  1  0.272500  0.762400  0.844300  1.0  0.7395
  C  C65  1  0.506800  0.741400  0.738000  1.0  0.7434
  C  C66  1  0.600200  0.788900  0.700900  1.0  -0.118
  C  C67  1  0.687900  0.621100  0.699900  1.0  -0.0347
  C  C68  1  0.779200  0.671800  0.670100  1.0  -0.0845
  C  C69  1  0.779100  0.890400  0.641100  1.0  -0.2274
  C  C70  1  0.689100  0.058700  0.639700  1.0  -0.0718
  C  C71  1  0.599800  0.008800  0.670700  1.0  -0.0232
  C  C72  1  0.851000  0.888100  0.529800  1.0  -0.2214
  C  C73  1  0.880600  0.666000  0.509900  1.0  -0.0969
  C  C74  1  0.851800  0.616300  0.449200  1.0  -0.055
  C  C75  1  0.796400  0.788600  0.410000  1.0  -0.0956
  C  C76  1  0.763300  0.009500  0.430700  1.0  -0.0593
  C  C77  1  0.790500  0.060200  0.491200  1.0  -0.0661
  C  C78  1  0.772500  0.737600  0.344300  1.0  0.739
  C  C79  1  0.993200  0.241400  0.762000  1.0  0.7313
  C  C80  1  0.899800  0.288900  0.799100  1.0  -0.1161
  C  C81  1  0.812100  0.121100  0.800100  1.0  -0.0344
  C  C82  1  0.720800  0.171800  0.829900  1.0  -0.0853
  C  C83  1  0.720900  0.390400  0.858900  1.0  -0.2277
  C  C84  1  0.810900  0.558700  0.860300  1.0  -0.0702
  C  C85  1  0.900200  0.508800  0.829300  1.0  -0.0235
  C  C86  1  0.649000  0.388100  0.970200  1.0  -0.22
  C  C87  1  0.619400  0.166000  0.990100  1.0  -0.0956
  C  C88  1  0.648200  0.116300  0.050800  1.0  -0.0526
  C  C89  1  0.703600  0.288600  0.090000  1.0  -0.0955
  C  C90  1  0.736700  0.509500  0.069300  1.0  -0.0594
  C  C91  1  0.709500  0.560200  0.008800  1.0  -0.0648
  C  C92  1  0.727500  0.237600  0.155700  1.0  0.7382
  S  S93  1  0.103230  0.036400  0.394140  1.0  1.1442
  S  S94  1  0.396770  0.536400  0.105860  1.0  1.1429
  S  S95  1  0.896770  0.963600  0.605860  1.0  1.1429
  S  S96  1  0.603230  0.463600  0.894140  1.0  1.1443
  O  O97  1  0.512400  0.475500  0.252210  1.0  -0.7084
  O  O98  1  0.540900  0.080800  0.243720  1.0  -0.7063
  O  O99  1  0.005400  0.195800  0.371240  1.0  -0.624
  O  O100  1  0.086600  0.779600  0.390540  1.0  -0.5537
  O  O101  1  0.237100  0.476800  0.672650  1.0  -0.6921
  O  O102  1  0.240600  0.085000  0.690660  1.0  -0.7306
  O  O103  1  0.987600  0.975500  0.247790  1.0  -0.7096
  O  O104  1  0.959100  0.580800  0.256280  1.0  -0.7053
  O  O105  1  0.494600  0.695800  0.128760  1.0  -0.6266
  O  O106  1  0.413400  0.279600  0.109460  1.0  -0.5546
  O  O107  1  0.262900  0.976800  0.827350  1.0  -0.6917
  O  O108  1  0.259400  0.585000  0.809340  1.0  -0.7318
  O  O109  1  0.487600  0.524500  0.747790  1.0  -0.7095
  O  O110  1  0.459100  0.919200  0.756280  1.0  -0.7056
  O  O111  1  0.994600  0.804200  0.628760  1.0  -0.626
  O  O112  1  0.913400  0.220400  0.609460  1.0  -0.5555
  O  O113  1  0.762900  0.523200  0.327350  1.0  -0.6913
  O  O114  1  0.759400  0.915000  0.309340  1.0  -0.731
  O  O115  1  0.012400  0.024500  0.752210  1.0  -0.7088
  O  O116  1  0.040900  0.419200  0.743720  1.0  -0.706
  O  O117  1  0.505400  0.304200  0.871240  1.0  -0.6239
  O  O118  1  0.586600  0.720400  0.890540  1.0  -0.5543
  O  O119  1  0.737100  0.023200  0.172650  1.0  -0.6906
  O  O120  1  0.740600  0.415000  0.190660  1.0  -0.7313
