# generated using pymatgen
data_Cu2H8C7N6
_symmetry_space_group_name_H-M   'P 1'
_cell_length_a   14.40340000
_cell_length_b   14.40340000
_cell_length_c   15.87900000
_cell_angle_alpha   65.47200000
_cell_angle_beta   65.47200000
_cell_angle_gamma   67.93510000
_symmetry_Int_Tables_number   1
_chemical_formula_structural   Cu2H8C7N6
_chemical_formula_sum   'Cu16 H64 C56 N48'
_cell_volume   2642.95389015
_cell_formula_units_Z   8
loop_
 _symmetry_equiv_pos_site_id
 _symmetry_equiv_pos_as_xyz
  1  'x, y, z'
loop_
 _atom_site_type_symbol
 _atom_site_label
 _atom_site_symmetry_multiplicity
 _atom_site_fract_x
 _atom_site_fract_y
 _atom_site_fract_z
 _atom_site_occupancy
 _atom_site_charge
  Cu  Cu1  1  0.915660  0.448040  0.324810  1.0  0.321
  Cu  Cu2  1  0.448040  0.915660  0.824810  1.0  0.3203
  Cu  Cu3  1  0.385100  0.090020  0.052360  1.0  0.3588
  Cu  Cu4  1  0.084340  0.551960  0.675190  1.0  0.3211
  Cu  Cu5  1  0.730700  0.269300  0.750000  1.0  0.3351
  Cu  Cu6  1  0.551960  0.084340  0.175190  1.0  0.3219
  Cu  Cu7  1  0.939080  0.060920  0.250000  1.0  0.4114
  Cu  Cu8  1  0.060920  0.939080  0.750000  1.0  0.4112
  Cu  Cu9  1  0.022850  0.833390  0.010370  1.0  0.3472
  Cu  Cu10  1  0.269300  0.730700  0.250000  1.0  0.3342
  Cu  Cu11  1  0.166610  0.977150  0.489630  1.0  0.3461
  Cu  Cu12  1  0.833390  0.022850  0.510370  1.0  0.3466
  Cu  Cu13  1  0.977150  0.166610  0.989630  1.0  0.3479
  Cu  Cu14  1  0.909980  0.614900  0.447640  1.0  0.3602
  Cu  Cu15  1  0.090020  0.385100  0.552360  1.0  0.3616
  Cu  Cu16  1  0.614900  0.909980  0.947640  1.0  0.3603
  H  H17  1  0.960600  0.403200  0.966300  1.0  0.1306
  H  H18  1  0.206000  0.273800  0.378300  1.0  0.1384
  H  H19  1  0.487500  0.275100  0.780500  1.0  0.151
  H  H20  1  0.196800  0.927600  0.273700  1.0  0.1534
  H  H21  1  0.881100  0.968900  0.699600  1.0  0.1597
  H  H22  1  0.031100  0.118900  0.800400  1.0  0.1592
  H  H23  1  0.087400  0.307400  0.376700  1.0  0.1349
  H  H24  1  0.275100  0.487500  0.280500  1.0  0.149
  H  H25  1  0.162200  0.196000  0.364400  1.0  0.1434
  H  H26  1  0.667400  0.965200  0.344900  1.0  0.1528
  H  H27  1  0.273800  0.206000  0.878300  1.0  0.1353
  H  H28  1  0.183700  0.880100  0.065200  1.0  0.1499
  H  H29  1  0.237500  0.763100  0.439100  1.0  0.1569
  H  H30  1  0.008900  0.742300  0.863100  1.0  0.1354
  H  H31  1  0.919000  0.371200  0.145400  1.0  0.1329
  H  H32  1  0.072400  0.803200  0.226300  1.0  0.1583
  H  H33  1  0.257700  0.991100  0.636900  1.0  0.1344
  H  H34  1  0.512500  0.724900  0.219500  1.0  0.1523
  H  H35  1  0.466100  0.047700  0.388500  1.0  0.1225
  H  H36  1  0.568900  0.172700  0.752500  1.0  0.1558
  H  H37  1  0.047700  0.466100  0.888500  1.0  0.1266
  H  H38  1  0.196000  0.162200  0.864400  1.0  0.1426
  H  H39  1  0.455800  0.164800  0.831300  1.0  0.1429
  H  H40  1  0.912600  0.692600  0.623300  1.0  0.134
  H  H41  1  0.803200  0.072400  0.726300  1.0  0.1533
  H  H42  1  0.307400  0.087400  0.876700  1.0  0.1347
  H  H43  1  0.880100  0.183700  0.565200  1.0  0.1503
  H  H44  1  0.083000  0.345600  0.949700  1.0  0.1325
  H  H45  1  0.596800  0.039400  0.533700  1.0  0.1286
  H  H46  1  0.345600  0.083000  0.449700  1.0  0.1329
  H  H47  1  0.991100  0.257700  0.136900  1.0  0.1343
  H  H48  1  0.172700  0.568900  0.252500  1.0  0.1569
  H  H49  1  0.164800  0.455800  0.331300  1.0  0.1454
  H  H50  1  0.119900  0.816300  0.434800  1.0  0.1497
  H  H51  1  0.726200  0.794000  0.121700  1.0  0.1352
  H  H52  1  0.544200  0.835200  0.168700  1.0  0.1438
  H  H53  1  0.762500  0.236900  0.560900  1.0  0.1595
  H  H54  1  0.835200  0.544200  0.668700  1.0  0.1451
  H  H55  1  0.816300  0.119900  0.934800  1.0  0.15
  H  H56  1  0.827300  0.431100  0.747500  1.0  0.1572
  H  H57  1  0.039400  0.596800  0.033700  1.0  0.1306
  H  H58  1  0.533900  0.952300  0.611500  1.0  0.1241
  H  H59  1  0.927600  0.196800  0.773700  1.0  0.1573
  H  H60  1  0.692600  0.912600  0.123300  1.0  0.1339
  H  H61  1  0.968900  0.881100  0.199600  1.0  0.1599
  H  H62  1  0.917000  0.654400  0.050300  1.0  0.1329
  H  H63  1  0.794000  0.726200  0.621700  1.0  0.139
  H  H64  1  0.118900  0.031100  0.300400  1.0  0.1589
  H  H65  1  0.236900  0.762500  0.060900  1.0  0.1494
  H  H66  1  0.724900  0.512500  0.719500  1.0  0.1504
  H  H67  1  0.081000  0.628800  0.854600  1.0  0.1313
  H  H68  1  0.965200  0.667400  0.844900  1.0  0.1512
  H  H69  1  0.804000  0.837800  0.135600  1.0  0.1443
  H  H70  1  0.763100  0.237500  0.939100  1.0  0.1533
  H  H71  1  0.403200  0.960600  0.466300  1.0  0.1277
  H  H72  1  0.034800  0.332600  0.155100  1.0  0.1489
  H  H73  1  0.371200  0.919000  0.645400  1.0  0.1318
  H  H74  1  0.431100  0.827300  0.247500  1.0  0.1569
  H  H75  1  0.952300  0.533900  0.111500  1.0  0.1254
  H  H76  1  0.654400  0.917000  0.550300  1.0  0.1321
  H  H77  1  0.332600  0.034800  0.655100  1.0  0.1512
  H  H78  1  0.837800  0.804000  0.635600  1.0  0.1448
  H  H79  1  0.628800  0.081000  0.354600  1.0  0.132
  H  H80  1  0.742300  0.008900  0.363100  1.0  0.1347
  C  C81  1  0.968800  0.636600  0.158700  1.0  0.4383
  C  C82  1  0.162000  0.660000  0.458200  1.0  0.3357
  C  C83  1  0.144000  0.248200  0.396700  1.0  -0.4391
  C  C84  1  0.801300  0.486300  0.694600  1.0  -0.4299
  C  C85  1  0.826400  0.441800  0.615100  1.0  0.3775
  C  C86  1  0.813700  0.995300  0.745300  1.0  -0.3576
  C  C87  1  0.826600  0.948600  0.844500  1.0  0.3712
  C  C88  1  0.108500  0.199500  0.503200  1.0  0.4321
  C  C89  1  0.173600  0.558200  0.384900  1.0  0.3774
  C  C90  1  0.441800  0.826400  0.115100  1.0  0.3794
  C  C91  1  0.972100  0.310300  0.169300  1.0  -0.4397
  C  C92  1  0.948600  0.826600  0.344500  1.0  0.373
  C  C93  1  0.891500  0.800500  0.496800  1.0  0.4319
  C  C94  1  0.263000  0.928400  0.776800  1.0  0.4457
  C  C95  1  0.969400  0.602600  0.082000  1.0  -0.4271
  C  C96  1  0.310300  0.972100  0.669300  1.0  -0.4365
  C  C97  1  0.248200  0.144000  0.896700  1.0  -0.4386
  C  C98  1  0.186300  0.004700  0.254700  1.0  -0.3563
  C  C99  1  0.198700  0.513700  0.305400  1.0  -0.432
  C  C100  1  0.689700  0.027900  0.330700  1.0  -0.4396
  C  C101  1  0.164300  0.754900  0.471000  1.0  -0.3039
  C  C102  1  0.129800  0.761400  0.571700  1.0  0.3098
  C  C103  1  0.486300  0.801300  0.194600  1.0  -0.4317
  C  C104  1  0.513700  0.198700  0.805400  1.0  -0.4321
  C  C105  1  0.363400  0.031200  0.341300  1.0  0.4384
  C  C106  1  0.976600  0.728000  0.229900  1.0  0.4123
  C  C107  1  0.660000  0.162000  0.958200  1.0  0.3373
  C  C108  1  0.754900  0.164300  0.971000  1.0  -0.3065
  C  C109  1  0.004700  0.186300  0.754700  1.0  -0.3565
  C  C110  1  0.199500  0.108500  0.003200  1.0  0.4318
  C  C111  1  0.636600  0.968800  0.658700  1.0  0.4366
  C  C112  1  0.835700  0.245100  0.529000  1.0  -0.303
  C  C113  1  0.027900  0.689700  0.830700  1.0  -0.438
  C  C114  1  0.051400  0.173400  0.655500  1.0  0.3717
  C  C115  1  0.023400  0.272000  0.770100  1.0  0.4106
  C  C116  1  0.838000  0.340000  0.541800  1.0  0.3392
  C  C117  1  0.751800  0.856000  0.103300  1.0  -0.4389
  C  C118  1  0.245100  0.835700  0.029000  1.0  -0.3071
  C  C119  1  0.030600  0.397400  0.918000  1.0  -0.4296
  C  C120  1  0.728000  0.976600  0.729900  1.0  0.4095
  C  C121  1  0.173400  0.051400  0.155500  1.0  0.372
  C  C122  1  0.995300  0.813700  0.245300  1.0  -0.3559
  C  C123  1  0.800500  0.891500  0.996800  1.0  0.4318
  C  C124  1  0.870200  0.238600  0.428300  1.0  0.3098
  C  C125  1  0.558200  0.173600  0.884900  1.0  0.3804
  C  C126  1  0.602600  0.969400  0.582000  1.0  -0.4307
  C  C127  1  0.928400  0.263000  0.276800  1.0  0.4473
  C  C128  1  0.737000  0.071600  0.223200  1.0  0.4479
  C  C129  1  0.761400  0.129800  0.071700  1.0  0.3087
  C  C130  1  0.856000  0.751800  0.603300  1.0  -0.4396
  C  C131  1  0.272000  0.023400  0.270100  1.0  0.4094
  C  C132  1  0.340000  0.838000  0.041800  1.0  0.3373
  C  C133  1  0.071600  0.737000  0.723200  1.0  0.4392
  C  C134  1  0.238600  0.870200  0.928300  1.0  0.3094
  C  C135  1  0.397400  0.030600  0.418000  1.0  -0.4297
  C  C136  1  0.031200  0.363400  0.841300  1.0  0.4369
  N  N137  1  0.832600  0.088000  0.183000  1.0  -0.3914
  N  N138  1  0.350100  0.803700  0.132400  1.0  -0.5161
  N  N139  1  0.486400  0.868200  0.021400  1.0  -0.2595
  N  N140  1  0.912000  0.167400  0.317000  1.0  -0.3893
  N  N141  1  0.131800  0.513600  0.478600  1.0  -0.2574
  N  N142  1  0.513600  0.131800  0.978600  1.0  -0.2582
  N  N143  1  0.125500  0.848700  0.583500  1.0  -0.3434
  N  N144  1  0.167400  0.912000  0.817000  1.0  -0.392
  N  N145  1  0.901400  0.897400  0.955300  1.0  -0.3317
  N  N146  1  0.249600  0.077800  0.068900  1.0  -0.5125
  N  N147  1  0.750400  0.922200  0.931100  1.0  -0.5114
  N  N148  1  0.935600  0.916800  0.355200  1.0  -0.2848
  N  N149  1  0.904200  0.311800  0.342100  1.0  -0.4881
  N  N150  1  0.688200  0.095800  0.157900  1.0  -0.4878
  N  N151  1  0.098600  0.102600  0.044700  1.0  -0.3314
  N  N152  1  0.803700  0.350100  0.632400  1.0  -0.5147
  N  N153  1  0.643200  0.948200  0.799700  1.0  -0.3057
  N  N154  1  0.868200  0.486400  0.521400  1.0  -0.2587
  N  N155  1  0.948200  0.643200  0.299700  1.0  -0.303
  N  N156  1  0.416500  0.055700  0.247600  1.0  -0.2615
  N  N157  1  0.083200  0.064400  0.144800  1.0  -0.287
  N  N158  1  0.583500  0.944300  0.752400  1.0  -0.2636
  N  N159  1  0.649900  0.196300  0.867600  1.0  -0.5199
  N  N160  1  0.848700  0.125500  0.083500  1.0  -0.3471
  N  N161  1  0.876700  0.419500  0.474200  1.0  -0.2699
  N  N162  1  0.051800  0.356800  0.700300  1.0  -0.3041
  N  N163  1  0.922200  0.750400  0.431100  1.0  -0.5082
  N  N164  1  0.010400  0.272000  0.860000  1.0  -0.4525
  N  N165  1  0.311800  0.904200  0.842100  1.0  -0.489
  N  N166  1  0.356800  0.051800  0.200300  1.0  -0.3041
  N  N167  1  0.874500  0.151300  0.416500  1.0  -0.3441
  N  N168  1  0.102600  0.098600  0.544700  1.0  -0.329
  N  N169  1  0.989600  0.728000  0.140000  1.0  -0.4514
  N  N170  1  0.055700  0.416500  0.747600  1.0  -0.26
  N  N171  1  0.580500  0.123300  0.025800  1.0  -0.27
  N  N172  1  0.088000  0.832600  0.683000  1.0  -0.3884
  N  N173  1  0.123300  0.580500  0.525800  1.0  -0.2696
  N  N174  1  0.151300  0.874500  0.916500  1.0  -0.3464
  N  N175  1  0.419500  0.876700  0.974200  1.0  -0.2707
  N  N176  1  0.095800  0.688200  0.657900  1.0  -0.4866
  N  N177  1  0.728000  0.989600  0.640000  1.0  -0.454
  N  N178  1  0.897400  0.901400  0.455300  1.0  -0.33
  N  N179  1  0.916800  0.935600  0.855200  1.0  -0.2858
  N  N180  1  0.944300  0.583500  0.252400  1.0  -0.2613
  N  N181  1  0.064400  0.083200  0.644800  1.0  -0.2842
  N  N182  1  0.196300  0.649900  0.367600  1.0  -0.5166
  N  N183  1  0.272000  0.010400  0.360000  1.0  -0.456
  N  N184  1  0.077800  0.249600  0.568900  1.0  -0.5108
