# generated using pymatgen
data_CaH8C14SO6
_symmetry_space_group_name_H-M   'P 1'
_cell_length_a   11.88190000
_cell_length_b   5.55550000
_cell_length_c   22.64110000
_cell_angle_alpha   90.00000000
_cell_angle_beta   101.30200000
_cell_angle_gamma   90.00000000
_symmetry_Int_Tables_number   1
_chemical_formula_structural   CaH8C14SO6
_chemical_formula_sum   'Ca4 H32 C56 S4 O24'
_cell_volume   1465.55431748
_cell_formula_units_Z   4
loop_
 _symmetry_equiv_pos_site_id
 _symmetry_equiv_pos_as_xyz
  1  'x, y, z'
loop_
 _atom_site_type_symbol
 _atom_site_label
 _atom_site_symmetry_multiplicity
 _atom_site_fract_x
 _atom_site_fract_y
 _atom_site_fract_z
 _atom_site_occupancy
 _atom_site_charge
  Ca  Ca1  1  0.102160  0.734760  0.042090  1.0  1.5932
  Ca  Ca2  1  0.397840  0.234760  0.457910  1.0  1.5928
  Ca  Ca3  1  0.897840  0.265240  0.957910  1.0  1.5927
  Ca  Ca4  1  0.602160  0.765240  0.542090  1.0  1.5929
  H  H5  1  0.473300  0.364800  0.314900  1.0  0.1265
  H  H6  1  0.780600  0.373100  0.089400  1.0  0.1272
  H  H7  1  0.326900  0.014400  0.267600  1.0  0.0988
  H  H8  1  0.605700  0.284000  0.118600  1.0  0.1182
  H  H9  1  0.476600  0.284400  0.213300  1.0  0.1255
  H  H10  1  0.482000  0.941400  0.058600  1.0  0.1233
  H  H11  1  0.322700  0.930000  0.165400  1.0  0.1304
  H  H12  1  0.658200  0.030600  0.031600  1.0  0.1165
  H  H13  1  0.026700  0.864800  0.185100  1.0  0.1257
  H  H14  1  0.719400  0.873100  0.410600  1.0  0.1261
  H  H15  1  0.173100  0.514400  0.232400  1.0  0.0991
  H  H16  1  0.894300  0.784000  0.381400  1.0  0.1184
  H  H17  1  0.023400  0.784400  0.286700  1.0  0.1251
  H  H18  1  0.018000  0.441400  0.441400  1.0  0.1229
  H  H19  1  0.177300  0.430000  0.334600  1.0  0.1305
  H  H20  1  0.841800  0.530600  0.468400  1.0  0.117
  H  H21  1  0.526700  0.635200  0.685100  1.0  0.1259
  H  H22  1  0.219400  0.626900  0.910600  1.0  0.1265
  H  H23  1  0.673100  0.985600  0.732400  1.0  0.0989
  H  H24  1  0.394300  0.716000  0.881400  1.0  0.1185
  H  H25  1  0.523400  0.715600  0.786700  1.0  0.1257
  H  H26  1  0.518000  0.058600  0.941400  1.0  0.1228
  H  H27  1  0.677300  0.070000  0.834600  1.0  0.1312
  H  H28  1  0.341800  0.969400  0.968400  1.0  0.1172
  H  H29  1  0.973300  0.135200  0.814900  1.0  0.1261
  H  H30  1  0.280600  0.126900  0.589400  1.0  0.1265
  H  H31  1  0.826900  0.485600  0.767600  1.0  0.0988
  H  H32  1  0.105700  0.216000  0.618600  1.0  0.118
  H  H33  1  0.976600  0.215600  0.713300  1.0  0.1255
  H  H34  1  0.982000  0.558600  0.558600  1.0  0.1231
  H  H35  1  0.822700  0.570000  0.665400  1.0  0.1303
  H  H36  1  0.158200  0.469400  0.531600  1.0  0.1163
  C  C37  1  0.398750  0.696400  0.300540  1.0  -0.1211
  C  C38  1  0.397810  0.597800  0.180830  1.0  -0.2124
  C  C39  1  0.527860  0.601500  0.089130  1.0  -0.1974
  C  C40  1  0.734300  0.708700  0.056650  1.0  -0.0957
  C  C41  1  0.443490  0.479200  0.284650  1.0  -0.0244
  C  C42  1  0.843980  0.766800  0.035730  1.0  0.74
  C  C43  1  0.719870  0.487200  0.083010  1.0  -0.0526
  C  C44  1  0.355380  0.865000  0.256280  1.0  -0.046
  C  C45  1  0.391550  0.745700  0.365570  1.0  0.7702
  C  C46  1  0.616000  0.433400  0.099950  1.0  -0.0586
  C  C47  1  0.444520  0.430200  0.224460  1.0  -0.0645
  C  C48  1  0.542230  0.826100  0.064400  1.0  -0.0993
  C  C49  1  0.353420  0.816700  0.195710  1.0  -0.0834
  C  C50  1  0.646670  0.877900  0.048400  1.0  -0.095
  C  C51  1  0.101250  0.196400  0.199460  1.0  -0.1186
  C  C52  1  0.102190  0.097800  0.319170  1.0  -0.2136
  C  C53  1  0.972140  0.101500  0.410870  1.0  -0.1953
  C  C54  1  0.765700  0.208700  0.443350  1.0  -0.0959
  C  C55  1  0.056510  0.979200  0.215350  1.0  -0.0235
  C  C56  1  0.656020  0.266800  0.464270  1.0  0.741
  C  C57  1  0.780130  0.987200  0.416990  1.0  -0.0514
  C  C58  1  0.144620  0.365000  0.243720  1.0  -0.0467
  C  C59  1  0.108450  0.245700  0.134430  1.0  0.7734
  C  C60  1  0.884000  0.933400  0.400050  1.0  -0.0585
  C  C61  1  0.055480  0.930200  0.275540  1.0  -0.0623
  C  C62  1  0.957770  0.326100  0.435600  1.0  -0.1007
  C  C63  1  0.146580  0.316700  0.304290  1.0  -0.0846
  C  C64  1  0.853330  0.377900  0.451600  1.0  -0.0944
  C  C65  1  0.601250  0.303600  0.699460  1.0  -0.1187
  C  C66  1  0.602190  0.402200  0.819170  1.0  -0.2138
  C  C67  1  0.472140  0.398500  0.910870  1.0  -0.1952
  C  C68  1  0.265700  0.291300  0.943350  1.0  -0.0959
  C  C69  1  0.556510  0.520800  0.715350  1.0  -0.0243
  C  C70  1  0.156020  0.233200  0.964270  1.0  0.7411
  C  C71  1  0.280130  0.512800  0.916990  1.0  -0.0517
  C  C72  1  0.644620  0.135000  0.743720  1.0  -0.0488
  C  C73  1  0.608450  0.254300  0.634430  1.0  0.7732
  C  C74  1  0.384000  0.566600  0.900050  1.0  -0.0576
  C  C75  1  0.555480  0.569800  0.775540  1.0  -0.0626
  C  C76  1  0.457770  0.173900  0.935600  1.0  -0.1006
  C  C77  1  0.646580  0.183300  0.804290  1.0  -0.0841
  C  C78  1  0.353330  0.122100  0.951600  1.0  -0.0947
  C  C79  1  0.898750  0.803600  0.800540  1.0  -0.1199
  C  C80  1  0.897810  0.902200  0.680830  1.0  -0.2123
  C  C81  1  0.027860  0.898500  0.589130  1.0  -0.1978
  C  C82  1  0.234300  0.791300  0.556650  1.0  -0.0956
  C  C83  1  0.943490  0.020800  0.784650  1.0  -0.0251
  C  C84  1  0.343980  0.733200  0.535730  1.0  0.74
  C  C85  1  0.219870  0.012800  0.583010  1.0  -0.0532
  C  C86  1  0.855380  0.635000  0.756280  1.0  -0.0474
  C  C87  1  0.891550  0.754300  0.865570  1.0  0.77
  C  C88  1  0.116000  0.066600  0.599950  1.0  -0.0585
  C  C89  1  0.944520  0.069800  0.724460  1.0  -0.0646
  C  C90  1  0.042230  0.673900  0.564400  1.0  -0.1
  C  C91  1  0.853420  0.683300  0.695710  1.0  -0.0834
  C  C92  1  0.146670  0.622100  0.548400  1.0  -0.0952
  S  S93  1  0.392340  0.524690  0.104580  1.0  1.1547
  S  S94  1  0.107660  0.024690  0.395420  1.0  1.1546
  S  S95  1  0.607660  0.475310  0.895420  1.0  1.1546
  S  S96  1  0.892340  0.975310  0.604580  1.0  1.1549
  O  O97  1  0.907380  0.592700  0.026800  1.0  -0.7555
  O  O98  1  0.382350  0.961600  0.380060  1.0  -0.6978
  O  O99  1  0.379000  0.267400  0.098050  1.0  -0.5601
  O  O100  1  0.867890  0.983800  0.029630  1.0  -0.7081
  O  O101  1  0.309440  0.682900  0.067740  1.0  -0.638
  O  O102  1  0.393720  0.566100  0.399200  1.0  -0.7156
  O  O103  1  0.592620  0.092700  0.473200  1.0  -0.7547
  O  O104  1  0.117650  0.461600  0.119940  1.0  -0.6991
  O  O105  1  0.121000  0.767400  0.401950  1.0  -0.5605
  O  O106  1  0.632110  0.483800  0.470370  1.0  -0.7095
  O  O107  1  0.190560  0.182900  0.432260  1.0  -0.6382
  O  O108  1  0.106280  0.066100  0.100800  1.0  -0.7171
  O  O109  1  0.092620  0.407300  0.973200  1.0  -0.7541
  O  O110  1  0.617650  0.038400  0.619940  1.0  -0.699
  O  O111  1  0.621000  0.732600  0.901950  1.0  -0.5594
  O  O112  1  0.132110  0.016200  0.970370  1.0  -0.708
  O  O113  1  0.690560  0.317100  0.932260  1.0  -0.6386
  O  O114  1  0.606280  0.433900  0.600800  1.0  -0.7173
  O  O115  1  0.407380  0.907300  0.526800  1.0  -0.755
  O  O116  1  0.882350  0.538400  0.880060  1.0  -0.6981
  O  O117  1  0.879000  0.232600  0.598050  1.0  -0.5591
  O  O118  1  0.367890  0.516200  0.529630  1.0  -0.7072
  O  O119  1  0.809440  0.817100  0.567740  1.0  -0.6384
  O  O120  1  0.893720  0.933900  0.899200  1.0  -0.7161
