# generated using pymatgen
data_Nd2C12(NO4)3
_symmetry_space_group_name_H-M   'P 1'
_cell_length_a   8.73000000
_cell_length_b   18.33000000
_cell_length_c   9.31000000
_cell_angle_alpha   90.00000000
_cell_angle_beta   105.80000000
_cell_angle_gamma   90.00000000
_symmetry_Int_Tables_number   1
_chemical_formula_structural   Nd2C12(NO4)3
_chemical_formula_sum   'Nd4 C24 N6 O24'
_cell_volume   1433.50715058
_cell_formula_units_Z   2
loop_
 _symmetry_equiv_pos_site_id
 _symmetry_equiv_pos_as_xyz
  1  'x, y, z'
loop_
 _atom_site_type_symbol
 _atom_site_label
 _atom_site_symmetry_multiplicity
 _atom_site_fract_x
 _atom_site_fract_y
 _atom_site_fract_z
 _atom_site_occupancy
 _atom_site_charge
  Nd  Nd1  1  0.008000  0.976000  0.782000  1.0  2.288
  Nd  Nd2  1  0.992000  0.476000  0.218000  1.0  2.2894
  Nd  Nd3  1  0.992000  0.024000  0.218000  1.0  2.2777
  Nd  Nd4  1  0.008000  0.524000  0.782000  1.0  2.2762
  C  C5  1  0.753000  0.044000  0.441000  1.0  0.6112
  C  C6  1  0.573000  0.081000  0.409000  1.0  -0.0015
  C  C7  1  0.297000  0.062000  0.081000  1.0  0.6744
  C  C8  1  0.487000  0.088000  0.116000  1.0  0.007
  C  C9  1  0.151000  0.881000  0.050000  1.0  0.7052
  C  C10  1  0.219000  0.819000  0.177000  1.0  -0.029
  C  C11  1  0.247000  0.544000  0.559000  1.0  0.6111
  C  C12  1  0.427000  0.581000  0.591000  1.0  -0.0009
  C  C13  1  0.703000  0.562000  0.919000  1.0  0.6761
  C  C14  1  0.513000  0.588000  0.884000  1.0  0.0051
  C  C15  1  0.849000  0.381000  0.950000  1.0  0.7049
  C  C16  1  0.781000  0.319000  0.823000  1.0  -0.03
  C  C17  1  0.247000  0.956000  0.559000  1.0  0.6114
  C  C18  1  0.427000  0.919000  0.591000  1.0  -0.0014
  C  C19  1  0.703000  0.938000  0.919000  1.0  0.6759
  C  C20  1  0.513000  0.912000  0.884000  1.0  0.0048
  C  C21  1  0.849000  0.119000  0.950000  1.0  0.7053
  C  C22  1  0.781000  0.181000  0.823000  1.0  -0.0293
  C  C23  1  0.753000  0.456000  0.441000  1.0  0.6114
  C  C24  1  0.573000  0.419000  0.409000  1.0  -0.0017
  C  C25  1  0.297000  0.438000  0.081000  1.0  0.6738
  C  C26  1  0.487000  0.412000  0.116000  1.0  0.0065
  C  C27  1  0.151000  0.619000  0.050000  1.0  0.7053
  C  C28  1  0.219000  0.681000  0.177000  1.0  -0.0292
  N  N29  1  0.534000  0.128000  0.268000  1.0  -0.2882
  N  N30  1  0.466000  0.628000  0.732000  1.0  -0.2887
  N  N31  1  0.466000  0.872000  0.732000  1.0  -0.2912
  N  N32  1  0.534000  0.372000  0.268000  1.0  -0.2911
  N  N33  1  0.218000  0.750000  0.087000  1.0  -0.3953
  N  N34  1  0.782000  0.250000  0.913000  1.0  -0.3968
  O  O35  1  0.773000  0.009000  0.566000  1.0  -0.6653
  O  O36  1  0.822000  0.050000  0.358000  1.0  -0.6202
  O  O37  1  0.256000  0.033000  0.950000  1.0  -0.671
  O  O38  1  0.227000  0.078000  0.167000  1.0  -0.5724
  O  O39  1  0.086000  0.936000  0.083000  1.0  -0.7277
  O  O40  1  0.170000  0.870000  0.929000  1.0  -0.5032
  O  O41  1  0.227000  0.509000  0.434000  1.0  -0.6677
  O  O42  1  0.178000  0.550000  0.642000  1.0  -0.6192
  O  O43  1  0.744000  0.533000  0.050000  1.0  -0.6713
  O  O44  1  0.773000  0.578000  0.833000  1.0  -0.5723
  O  O45  1  0.914000  0.436000  0.917000  1.0  -0.7282
  O  O46  1  0.830000  0.370000  0.071000  1.0  -0.5027
  O  O47  1  0.227000  0.991000  0.434000  1.0  -0.6685
  O  O48  1  0.178000  0.950000  0.642000  1.0  -0.6189
  O  O49  1  0.744000  0.967000  0.050000  1.0  -0.6705
  O  O50  1  0.773000  0.922000  0.833000  1.0  -0.5723
  O  O51  1  0.914000  0.064000  0.917000  1.0  -0.7287
  O  O52  1  0.830000  0.130000  0.071000  1.0  -0.5038
  O  O53  1  0.773000  0.491000  0.566000  1.0  -0.6662
  O  O54  1  0.822000  0.450000  0.358000  1.0  -0.6205
  O  O55  1  0.256000  0.467000  0.950000  1.0  -0.6708
  O  O56  1  0.227000  0.422000  0.167000  1.0  -0.5721
  O  O57  1  0.086000  0.564000  0.083000  1.0  -0.7294
  O  O58  1  0.170000  0.630000  0.929000  1.0  -0.5031
