# generated using pymatgen
data_ZnH14C22NO4
_symmetry_space_group_name_H-M   'P 1'
_cell_length_a   13.07350000
_cell_length_b   13.08280000
_cell_length_c   15.65840000
_cell_angle_alpha   82.74100000
_cell_angle_beta   68.05900000
_cell_angle_gamma   84.18800000
_symmetry_Int_Tables_number   1
_chemical_formula_structural   ZnH14C22NO4
_chemical_formula_sum   'Zn4 H56 C88 N4 O16'
_cell_volume   2460.03202664
_cell_formula_units_Z   4
loop_
 _symmetry_equiv_pos_site_id
 _symmetry_equiv_pos_as_xyz
  1  'x, y, z'
loop_
 _atom_site_type_symbol
 _atom_site_label
 _atom_site_symmetry_multiplicity
 _atom_site_fract_x
 _atom_site_fract_y
 _atom_site_fract_z
 _atom_site_occupancy
 _atom_site_charge
  Zn  Zn1  1  0.922630  0.699940  0.831110  1.0  0.9243
  Zn  Zn2  1  0.034860  0.698370  0.627690  1.0  0.9307
  Zn  Zn3  1  0.077370  0.300060  0.168890  1.0  0.922
  Zn  Zn4  1  0.965140  0.301630  0.372310  1.0  0.93
  H  H5  1  0.715300  0.771800  0.994600  1.0  0.0914
  H  H6  1  0.634700  0.726000  0.153300  1.0  0.1202
  H  H7  1  0.899500  0.533700  0.135400  1.0  0.1161
  H  H8  1  0.972100  0.584000  0.980400  1.0  0.0836
  H  H9  1  0.758700  0.541000  0.285400  1.0  0.088
  H  H10  1  0.557900  0.628700  0.287300  1.0  0.0942
  H  H11  1  0.401700  0.596900  0.418900  1.0  0.0908
  H  H12  1  0.690300  0.471800  0.431400  1.0  0.1194
  H  H13  1  0.184500  0.822100  0.459500  1.0  0.0931
  H  H14  1  0.302900  0.797800  0.311400  1.0  0.1328
  H  H15  1  0.201300  0.507700  0.349300  1.0  0.1253
  H  H16  1  0.087700  0.539900  0.497700  1.0  0.0843
  H  H17  1  0.403600  0.676300  0.191200  1.0  0.0968
  H  H18  1  0.276300  0.516200  0.199600  1.0  0.0976
  H  H19  1  0.547100  0.610300  0.083400  1.0  0.1105
  H  H20  1  0.322800  0.439900  0.055300  1.0  0.1029
  H  H21  1  0.919300  0.025400  0.831100  1.0  0.11
  H  H22  1  0.091100  0.203100  0.541200  1.0  0.1124
  H  H23  1  0.072600  0.028100  0.554600  1.0  0.111
  H  H24  1  0.880000  0.190500  0.904100  1.0  0.1149
  H  H25  1  0.891900  0.365900  0.892100  1.0  0.1157
  H  H26  1  0.060500  0.367600  0.616100  1.0  0.1056
  H  H27  1  0.735900  0.709600  0.563400  1.0  0.1046
  H  H28  1  0.566000  0.709800  0.550900  1.0  0.1175
  H  H29  1  0.591200  0.699600  0.841400  1.0  0.1095
  H  H30  1  0.360700  0.706600  0.624600  1.0  0.1161
  H  H31  1  0.218600  0.676500  0.903100  1.0  0.1065
  H  H32  1  0.387000  0.682000  0.916600  1.0  0.119
  H  H33  1  0.284700  0.228200  0.005400  1.0  0.0908
  H  H34  1  0.365300  0.274000  0.846700  1.0  0.12
  H  H35  1  0.100500  0.466300  0.864600  1.0  0.1159
  H  H36  1  0.027900  0.416000  0.019600  1.0  0.0834
  H  H37  1  0.241300  0.459000  0.714600  1.0  0.0872
  H  H38  1  0.442100  0.371300  0.712700  1.0  0.0938
  H  H39  1  0.598300  0.403100  0.581100  1.0  0.0906
  H  H40  1  0.309700  0.528200  0.568600  1.0  0.1192
  H  H41  1  0.815500  0.177900  0.540500  1.0  0.0925
  H  H42  1  0.697100  0.202200  0.688600  1.0  0.1322
  H  H43  1  0.798700  0.492300  0.650700  1.0  0.1254
  H  H44  1  0.912300  0.460100  0.502300  1.0  0.0843
  H  H45  1  0.596400  0.323700  0.808800  1.0  0.0983
  H  H46  1  0.723700  0.483800  0.800400  1.0  0.0972
  H  H47  1  0.452900  0.389700  0.916600  1.0  0.1102
  H  H48  1  0.677200  0.560100  0.944700  1.0  0.1027
  H  H49  1  0.080700  0.974600  0.168900  1.0  0.1101
  H  H50  1  0.908900  0.796900  0.458800  1.0  0.113
  H  H51  1  0.927400  0.971900  0.445400  1.0  0.1109
  H  H52  1  0.120000  0.809500  0.095900  1.0  0.1143
  H  H53  1  0.108100  0.634100  0.107900  1.0  0.1153
  H  H54  1  0.939500  0.632400  0.383900  1.0  0.1061
  H  H55  1  0.264100  0.290400  0.436600  1.0  0.1043
  H  H56  1  0.434000  0.290200  0.449100  1.0  0.1168
  H  H57  1  0.408800  0.300400  0.158600  1.0  0.1102
  H  H58  1  0.639300  0.293400  0.375400  1.0  0.1141
  H  H59  1  0.781400  0.323500  0.096900  1.0  0.1059
  H  H60  1  0.613000  0.318000  0.083400  1.0  0.1188
  C  C61  1  0.753400  0.722100  0.023400  1.0  0.1493
  C  C62  1  0.704000  0.694200  0.118500  1.0  -0.1867
  C  C63  1  0.756300  0.620500  0.161500  1.0  0.0769
  C  C64  1  0.858600  0.582000  0.108200  1.0  -0.2239
  C  C65  1  0.901600  0.613200  0.015800  1.0  0.1714
  C  C66  1  0.709400  0.578200  0.259400  1.0  -0.1167
  C  C67  1  0.606000  0.588100  0.312800  1.0  -0.1352
  C  C68  1  0.442500  0.557300  0.451900  1.0  -0.1233
  C  C69  1  0.556200  0.542200  0.409100  1.0  0.062
  C  C70  1  0.612500  0.483800  0.459000  1.0  -0.1244
  C  C71  1  0.188400  0.757300  0.436700  1.0  0.1649
  C  C72  1  0.258800  0.743400  0.348200  1.0  -0.1846
  C  C73  1  0.266000  0.650300  0.312400  1.0  0.0877
  C  C74  1  0.199600  0.573000  0.370500  1.0  -0.2036
  C  C75  1  0.131900  0.593100  0.458600  1.0  0.1713
  C  C76  1  0.344800  0.631500  0.219600  1.0  -0.1739
  C  C77  1  0.339100  0.556500  0.173000  1.0  -0.1443
  C  C78  1  0.527600  0.565300  0.049600  1.0  -0.121
  C  C79  1  0.420900  0.529800  0.083600  1.0  0.0009
  C  C80  1  0.394900  0.464700  0.033100  1.0  -0.115
  C  C81  1  0.986300  0.895300  0.704800  1.0  0.7029
  C  C82  1  0.994300  0.010000  0.696100  1.0  -0.1639
  C  C83  1  0.954000  0.062200  0.772400  1.0  -0.084
  C  C84  1  0.962000  0.169800  0.767100  1.0  0.0459
  C  C85  1  0.016300  0.223500  0.679600  1.0  0.0528
  C  C86  1  0.056300  0.167800  0.600500  1.0  -0.1176
  C  C87  1  0.045500  0.064200  0.608400  1.0  -0.0343
  C  C88  1  0.916600  0.226000  0.845200  1.0  -0.0937
  C  C89  1  0.923800  0.329700  0.838400  1.0  -0.0451
  C  C90  1  0.978600  0.383700  0.751700  1.0  -0.1348
  C  C91  1  0.023700  0.330900  0.674400  1.0  -0.0798
  C  C92  1  0.982000  0.499300  0.743300  1.0  0.6726
  C  C93  1  0.789900  0.706500  0.712500  1.0  0.6804
  C  C94  1  0.678900  0.706900  0.704400  1.0  -0.1442
  C  C95  1  0.670900  0.708100  0.617600  1.0  -0.0213
  C  C96  1  0.570200  0.707000  0.610400  1.0  -0.0983
  C  C97  1  0.472400  0.701800  0.689400  1.0  0.0499
  C  C98  1  0.480100  0.697400  0.777700  1.0  0.0558
  C  C99  1  0.585200  0.701100  0.782600  1.0  -0.0632
  C  C100  1  0.366900  0.700900  0.683600  1.0  -0.1373
  C  C101  1  0.274200  0.692100  0.761500  1.0  -0.1392
  C  C102  1  0.283100  0.684100  0.848900  1.0  -0.0133
  C  C103  1  0.382800  0.687000  0.856900  1.0  -0.0966
  C  C104  1  0.163600  0.691700  0.753800  1.0  0.6718
  C  C105  1  0.246600  0.277900  0.976600  1.0  0.1503
  C  C106  1  0.296000  0.305800  0.881500  1.0  -0.188
  C  C107  1  0.243700  0.379500  0.838500  1.0  0.0766
  C  C108  1  0.141400  0.418000  0.891800  1.0  -0.2264
  C  C109  1  0.098400  0.386800  0.984200  1.0  0.1723
  C  C110  1  0.290600  0.421800  0.740600  1.0  -0.1173
  C  C111  1  0.394000  0.411900  0.687200  1.0  -0.1295
  C  C112  1  0.557500  0.442700  0.548100  1.0  -0.1185
  C  C113  1  0.443800  0.457800  0.590900  1.0  0.0623
  C  C114  1  0.387500  0.516200  0.541000  1.0  -0.1231
  C  C115  1  0.811600  0.242700  0.563300  1.0  0.1653
  C  C116  1  0.741200  0.256600  0.651800  1.0  -0.1828
  C  C117  1  0.734000  0.349700  0.687600  1.0  0.0868
  C  C118  1  0.800400  0.427000  0.629500  1.0  -0.203
  C  C119  1  0.868100  0.406900  0.541400  1.0  0.1707
  C  C120  1  0.655200  0.368500  0.780400  1.0  -0.1721
  C  C121  1  0.660900  0.443500  0.827000  1.0  -0.1428
  C  C122  1  0.472400  0.434700  0.950400  1.0  -0.1218
  C  C123  1  0.579100  0.470200  0.916400  1.0  0.0002
  C  C124  1  0.605100  0.535300  0.966900  1.0  -0.1175
  C  C125  1  0.013700  0.104700  0.295200  1.0  0.7027
  C  C126  1  0.005700  0.990000  0.303900  1.0  -0.1627
  C  C127  1  0.046000  0.937800  0.227600  1.0  -0.0794
  C  C128  1  0.038000  0.830200  0.232900  1.0  0.0477
  C  C129  1  0.983700  0.776500  0.320400  1.0  0.0531
  C  C130  1  0.943700  0.832200  0.399500  1.0  -0.1201
  C  C131  1  0.954500  0.935800  0.391600  1.0  -0.0356
  C  C132  1  0.083400  0.774000  0.154800  1.0  -0.0934
  C  C133  1  0.076200  0.670300  0.161600  1.0  -0.0446
  C  C134  1  0.021400  0.616300  0.248300  1.0  -0.1353
  C  C135  1  0.976300  0.669100  0.325600  1.0  -0.0787
  C  C136  1  0.018000  0.500700  0.256700  1.0  0.6717
  C  C137  1  0.210100  0.293500  0.287500  1.0  0.6809
  C  C138  1  0.321100  0.293100  0.295600  1.0  -0.1448
  C  C139  1  0.329100  0.291900  0.382400  1.0  -0.0219
  C  C140  1  0.429800  0.293000  0.389600  1.0  -0.0966
  C  C141  1  0.527600  0.298200  0.310600  1.0  0.0491
  C  C142  1  0.519900  0.302600  0.222300  1.0  0.0531
  C  C143  1  0.414800  0.298900  0.217400  1.0  -0.0608
  C  C144  1  0.633100  0.299100  0.316400  1.0  -0.1378
  C  C145  1  0.725800  0.307900  0.238500  1.0  -0.1357
  C  C146  1  0.716900  0.315900  0.151100  1.0  -0.014
  C  C147  1  0.617200  0.313000  0.143100  1.0  -0.0965
  C  C148  1  0.836400  0.308300  0.246200  1.0  0.6718
  N  N149  1  0.851000  0.682200  0.972000  1.0  -0.3065
  N  N150  1  0.125000  0.683900  0.492300  1.0  -0.3346
  N  N151  1  0.149000  0.317800  0.028000  1.0  -0.3054
  N  N152  1  0.875000  0.316100  0.507700  1.0  -0.3382
  O  O153  1  0.944100  0.851200  0.784700  1.0  -0.5968
  O  O154  1  0.020700  0.852500  0.631500  1.0  -0.5832
  O  O155  1  0.936900  0.543800  0.815800  1.0  -0.5885
  O  O156  1  0.028600  0.543500  0.664000  1.0  -0.5746
  O  O157  1  0.789700  0.709700  0.793200  1.0  -0.5952
  O  O158  1  0.873100  0.700600  0.641400  1.0  -0.5763
  O  O159  1  0.080400  0.686100  0.827500  1.0  -0.5866
  O  O160  1  0.161100  0.696000  0.673900  1.0  -0.6019
  O  O161  1  0.055900  0.148800  0.215300  1.0  -0.5964
  O  O162  1  0.979300  0.147500  0.368500  1.0  -0.5834
  O  O163  1  0.063100  0.456200  0.184200  1.0  -0.5888
  O  O164  1  0.971400  0.456500  0.336000  1.0  -0.5746
  O  O165  1  0.210300  0.290300  0.206800  1.0  -0.5965
  O  O166  1  0.126900  0.299400  0.358600  1.0  -0.5759
  O  O167  1  0.919600  0.313900  0.172500  1.0  -0.5869
  O  O168  1  0.838900  0.304000  0.326100  1.0  -0.6016
