# generated using pymatgen
data_Be3P4(HO3)4
_symmetry_space_group_name_H-M   'P 1'
_cell_length_a   13.56090000
_cell_length_b   17.04310000
_cell_length_c   13.44250000
_cell_angle_alpha   90.00000000
_cell_angle_beta   90.93100000
_cell_angle_gamma   90.00000000
_symmetry_Int_Tables_number   1
_chemical_formula_structural   Be3P4(HO3)4
_chemical_formula_sum   'Be24 P32 H32 O96'
_cell_volume   3106.41743302
_cell_formula_units_Z   8
loop_
 _symmetry_equiv_pos_site_id
 _symmetry_equiv_pos_as_xyz
  1  'x, y, z'
loop_
 _atom_site_type_symbol
 _atom_site_label
 _atom_site_symmetry_multiplicity
 _atom_site_fract_x
 _atom_site_fract_y
 _atom_site_fract_z
 _atom_site_occupancy
 _atom_site_charge
  Be  Be1  1  0.747400  0.537300  0.381300  1.0  1.1453
  Be  Be2  1  0.753000  0.452200  0.868600  1.0  1.1261
  Be  Be3  1  0.751500  0.668700  0.000800  1.0  1.1452
  Be  Be4  1  0.599100  0.587100  0.675000  1.0  1.139
  Be  Be5  1  0.896900  0.429500  0.170200  1.0  1.1208
  Be  Be6  1  0.754000  0.330500  0.492200  1.0  1.18
  Be  Be7  1  0.252600  0.037300  0.118700  1.0  1.144
  Be  Be8  1  0.247000  0.952200  0.631400  1.0  1.1268
  Be  Be9  1  0.248500  0.168700  0.499200  1.0  1.1451
  Be  Be10  1  0.400900  0.087100  0.825000  1.0  1.1395
  Be  Be11  1  0.103100  0.929500  0.329800  1.0  1.1215
  Be  Be12  1  0.246000  0.830500  0.007800  1.0  1.1793
  Be  Be13  1  0.252600  0.462700  0.618700  1.0  1.1453
  Be  Be14  1  0.247000  0.547800  0.131400  1.0  1.1247
  Be  Be15  1  0.248500  0.331300  0.999200  1.0  1.1475
  Be  Be16  1  0.400900  0.412900  0.325000  1.0  1.1407
  Be  Be17  1  0.103100  0.570500  0.829800  1.0  1.1216
  Be  Be18  1  0.246000  0.669500  0.507800  1.0  1.1788
  Be  Be19  1  0.747400  0.962700  0.881300  1.0  1.1465
  Be  Be20  1  0.753000  0.047800  0.368600  1.0  1.1244
  Be  Be21  1  0.751500  0.831300  0.500800  1.0  1.1479
  Be  Be22  1  0.599100  0.912900  0.175000  1.0  1.1401
  Be  Be23  1  0.896900  0.070500  0.670200  1.0  1.1204
  Be  Be24  1  0.754000  0.169500  0.992200  1.0  1.1792
  P  P25  1  0.604100  0.571790  0.896440  1.0  1.611
  P  P26  1  0.773930  0.566890  0.171880  1.0  1.6743
  P  P27  1  0.741530  0.658010  0.541450  1.0  1.7267
  P  P28  1  0.901240  0.422420  0.392400  1.0  1.5733
  P  P29  1  0.753300  0.342360  0.035470  1.0  1.5783
  P  P30  1  0.616940  0.395990  0.348900  1.0  1.6974
  P  P31  1  0.890210  0.587270  0.864420  1.0  1.6099
  P  P32  1  0.723980  0.450420  0.654260  1.0  1.6669
  P  P33  1  0.395900  0.071790  0.603560  1.0  1.6121
  P  P34  1  0.226070  0.066890  0.328120  1.0  1.6771
  P  P35  1  0.258470  0.158010  0.958550  1.0  1.7245
  P  P36  1  0.098760  0.922420  0.107600  1.0  1.5728
  P  P37  1  0.246700  0.842360  0.464530  1.0  1.5788
  P  P38  1  0.383060  0.895990  0.151100  1.0  1.7005
  P  P39  1  0.109790  0.087270  0.635580  1.0  1.6115
  P  P40  1  0.276020  0.950420  0.845740  1.0  1.6656
  P  P41  1  0.395900  0.428210  0.103560  1.0  1.6124
  P  P42  1  0.226070  0.433110  0.828120  1.0  1.6795
  P  P43  1  0.258470  0.341990  0.458550  1.0  1.7257
  P  P44  1  0.098760  0.577580  0.607600  1.0  1.5725
  P  P45  1  0.246700  0.657640  0.964530  1.0  1.5786
  P  P46  1  0.383060  0.604010  0.651100  1.0  1.7001
  P  P47  1  0.109790  0.412730  0.135580  1.0  1.6131
  P  P48  1  0.276020  0.549580  0.345740  1.0  1.6647
  P  P49  1  0.604100  0.928210  0.396440  1.0  1.6113
  P  P50  1  0.773930  0.933110  0.671880  1.0  1.677
  P  P51  1  0.741530  0.841990  0.041450  1.0  1.7281
  P  P52  1  0.901240  0.077580  0.892400  1.0  1.5728
  P  P53  1  0.753300  0.157640  0.535470  1.0  1.5776
  P  P54  1  0.616940  0.104010  0.848900  1.0  1.6973
  P  P55  1  0.890210  0.912730  0.364420  1.0  1.6115
  P  P56  1  0.723980  0.049580  0.154260  1.0  1.6664
  H  H57  1  0.507000  0.559500  0.931100  1.0  -0.1159
  H  H58  1  0.693000  0.517000  0.135800  1.0  -0.1388
  H  H59  1  0.836000  0.642100  0.570000  1.0  -0.1181
  H  H60  1  0.000000  0.431800  0.425900  1.0  -0.1254
  H  H61  1  0.655000  0.359700  0.049800  1.0  -0.117
  H  H62  1  0.621200  0.380000  0.248000  1.0  -0.1488
  H  H63  1  0.875100  0.614000  0.767000  1.0  -0.1249
  H  H64  1  0.805000  0.500000  0.630700  1.0  -0.1288
  H  H65  1  0.493000  0.059500  0.568900  1.0  -0.1173
  H  H66  1  0.307000  0.017000  0.364200  1.0  -0.1379
  H  H67  1  0.164000  0.142100  0.930000  1.0  -0.1204
  H  H68  1  0.000000  0.931800  0.074100  1.0  -0.1262
  H  H69  1  0.345000  0.859700  0.450200  1.0  -0.1163
  H  H70  1  0.378800  0.880000  0.252000  1.0  -0.1527
  H  H71  1  0.124900  0.114000  0.733000  1.0  -0.1277
  H  H72  1  0.195000  0.000000  0.869300  1.0  -0.129
  H  H73  1  0.493000  0.440500  0.068900  1.0  -0.1175
  H  H74  1  0.307000  0.483000  0.864200  1.0  -0.1379
  H  H75  1  0.164000  0.357900  0.430000  1.0  -0.1199
  H  H76  1  0.000000  0.568200  0.574100  1.0  -0.1287
  H  H77  1  0.345000  0.640300  0.950200  1.0  -0.1161
  H  H78  1  0.378800  0.620000  0.752000  1.0  -0.1516
  H  H79  1  0.124900  0.386000  0.233000  1.0  -0.1279
  H  H80  1  0.195000  0.500000  0.369300  1.0  -0.1283
  H  H81  1  0.507000  0.940500  0.431100  1.0  -0.1167
  H  H82  1  0.693000  0.983000  0.635800  1.0  -0.1386
  H  H83  1  0.836000  0.857900  0.070000  1.0  -0.1187
  H  H84  1  0.000000  0.068200  0.925900  1.0  -0.1283
  H  H85  1  0.655000  0.140300  0.549800  1.0  -0.1177
  H  H86  1  0.621200  0.120000  0.748000  1.0  -0.148
  H  H87  1  0.875100  0.886000  0.267000  1.0  -0.1243
  H  H88  1  0.805000  0.000000  0.130700  1.0  -0.1282
  O  O89  1  0.647000  0.634000  0.961300  1.0  -0.7583
  O  O90  1  0.655000  0.494000  0.906000  1.0  -0.7442
  O  O91  1  0.592300  0.600780  0.792200  1.0  -0.7692
  O  O92  1  0.772800  0.642340  0.113200  1.0  -0.763
  O  O93  1  0.755100  0.588330  0.279600  1.0  -0.8286
  O  O94  1  0.869400  0.522220  0.160000  1.0  -0.8209
  O  O95  1  0.739400  0.737860  0.496800  1.0  -0.8334
  O  O96  1  0.711100  0.598530  0.464200  1.0  -0.7576
  O  O97  1  0.677700  0.652000  0.632500  1.0  -0.8291
  O  O98  1  0.860500  0.354600  0.450300  1.0  -0.7214
  O  O99  1  0.906300  0.401860  0.284400  1.0  -0.7837
  O  O100  1  0.850700  0.498950  0.413200  1.0  -0.6955
  O  O101  1  0.810000  0.377400  0.119900  1.0  -0.7646
  O  O102  1  0.763900  0.255430  0.041800  1.0  -0.7992
  O  O103  1  0.780000  0.373760  0.934600  1.0  -0.8453
  O  O104  1  0.673900  0.331510  0.401800  1.0  -0.7993
  O  O105  1  0.658900  0.476170  0.363700  1.0  -0.803
  O  O106  1  0.508600  0.393870  0.376400  1.0  -0.8967
  O  O107  1  0.843000  0.644800  0.932200  1.0  -0.8106
  O  O108  1  0.848600  0.506500  0.870200  1.0  -0.754
  O  O109  1  0.000300  0.587430  0.885100  1.0  -0.8955
  O  O110  1  0.630300  0.498730  0.648700  1.0  -0.6926
  O  O111  1  0.719000  0.385660  0.579800  1.0  -0.769
  O  O112  1  0.741700  0.416420  0.757200  1.0  -0.8419
  O  O113  1  0.353000  0.134000  0.538700  1.0  -0.7567
  O  O114  1  0.345000  0.994000  0.594000  1.0  -0.7441
  O  O115  1  0.407700  0.100780  0.707800  1.0  -0.7726
  O  O116  1  0.227200  0.142340  0.386800  1.0  -0.7623
  O  O117  1  0.244900  0.088330  0.220400  1.0  -0.828
  O  O118  1  0.130600  0.022220  0.340000  1.0  -0.8202
  O  O119  1  0.260600  0.237860  0.003200  1.0  -0.8341
  O  O120  1  0.288900  0.098530  0.035800  1.0  -0.7588
  O  O121  1  0.322300  0.152000  0.867500  1.0  -0.827
  O  O122  1  0.139500  0.854600  0.049700  1.0  -0.7205
  O  O123  1  0.093700  0.901860  0.215600  1.0  -0.782
  O  O124  1  0.149300  0.998950  0.086800  1.0  -0.6943
  O  O125  1  0.190000  0.877400  0.380100  1.0  -0.7646
  O  O126  1  0.236100  0.755430  0.458200  1.0  -0.7988
  O  O127  1  0.220000  0.873760  0.565400  1.0  -0.8462
  O  O128  1  0.326100  0.831510  0.098200  1.0  -0.7987
  O  O129  1  0.341100  0.976170  0.136300  1.0  -0.8032
  O  O130  1  0.491400  0.893870  0.123600  1.0  -0.8947
  O  O131  1  0.157000  0.144800  0.567800  1.0  -0.8082
  O  O132  1  0.151400  0.006500  0.629800  1.0  -0.7545
  O  O133  1  0.999700  0.087430  0.614900  1.0  -0.8945
  O  O134  1  0.369700  0.998730  0.851300  1.0  -0.6954
  O  O135  1  0.281000  0.885660  0.920200  1.0  -0.7717
  O  O136  1  0.258300  0.916420  0.742800  1.0  -0.8404
  O  O137  1  0.353000  0.366000  0.038700  1.0  -0.7571
  O  O138  1  0.345000  0.506000  0.094000  1.0  -0.7442
  O  O139  1  0.407700  0.399220  0.207800  1.0  -0.7722
  O  O140  1  0.227200  0.357660  0.886800  1.0  -0.7626
  O  O141  1  0.244900  0.411670  0.720400  1.0  -0.8274
  O  O142  1  0.130600  0.477780  0.840000  1.0  -0.821
  O  O143  1  0.260600  0.262140  0.503200  1.0  -0.8351
  O  O144  1  0.288900  0.401470  0.535800  1.0  -0.7587
  O  O145  1  0.322300  0.348000  0.367500  1.0  -0.8275
  O  O146  1  0.139500  0.645400  0.549700  1.0  -0.7231
  O  O147  1  0.093700  0.598140  0.715600  1.0  -0.7822
  O  O148  1  0.149300  0.501050  0.586800  1.0  -0.696
  O  O149  1  0.190000  0.622600  0.880100  1.0  -0.763
  O  O150  1  0.236100  0.744570  0.958200  1.0  -0.8002
  O  O151  1  0.220000  0.626240  0.065400  1.0  -0.8473
  O  O152  1  0.326100  0.668490  0.598200  1.0  -0.7998
  O  O153  1  0.341100  0.523830  0.636300  1.0  -0.8012
  O  O154  1  0.491400  0.606130  0.623600  1.0  -0.8942
  O  O155  1  0.157000  0.355200  0.067800  1.0  -0.8058
  O  O156  1  0.151400  0.493500  0.129800  1.0  -0.7564
  O  O157  1  0.999700  0.412570  0.114900  1.0  -0.8943
  O  O158  1  0.369700  0.501270  0.351300  1.0  -0.6959
  O  O159  1  0.281000  0.614340  0.420200  1.0  -0.7706
  O  O160  1  0.258300  0.583580  0.242800  1.0  -0.8418
  O  O161  1  0.647000  0.866000  0.461300  1.0  -0.7575
  O  O162  1  0.655000  0.006000  0.406000  1.0  -0.7439
  O  O163  1  0.592300  0.899220  0.292200  1.0  -0.7684
  O  O164  1  0.772800  0.857660  0.613200  1.0  -0.7633
  O  O165  1  0.755100  0.911670  0.779600  1.0  -0.8281
  O  O166  1  0.869400  0.977780  0.660000  1.0  -0.8224
  O  O167  1  0.739400  0.762140  0.996800  1.0  -0.8345
  O  O168  1  0.711100  0.901470  0.964200  1.0  -0.7565
  O  O169  1  0.677700  0.848000  0.132500  1.0  -0.8286
  O  O170  1  0.860500  0.145400  0.950300  1.0  -0.7228
  O  O171  1  0.906300  0.098140  0.784400  1.0  -0.7832
  O  O172  1  0.850700  0.001050  0.913200  1.0  -0.6966
  O  O173  1  0.810000  0.122600  0.619900  1.0  -0.7631
  O  O174  1  0.763900  0.244570  0.541800  1.0  -0.8007
  O  O175  1  0.780000  0.126240  0.434600  1.0  -0.8467
  O  O176  1  0.673900  0.168490  0.901800  1.0  -0.8005
  O  O177  1  0.658900  0.023830  0.863700  1.0  -0.8011
  O  O178  1  0.508600  0.106130  0.876400  1.0  -0.8965
  O  O179  1  0.843000  0.855200  0.432200  1.0  -0.8094
  O  O180  1  0.848600  0.993500  0.370200  1.0  -0.7564
  O  O181  1  0.000300  0.912570  0.385100  1.0  -0.8952
  O  O182  1  0.630300  0.001270  0.148700  1.0  -0.6929
  O  O183  1  0.719000  0.114340  0.079800  1.0  -0.7683
  O  O184  1  0.741700  0.083580  0.257200  1.0  -0.8429
