# generated using pymatgen
data_CsKMo6P4H22C10N2O23
_symmetry_space_group_name_H-M   'P 1'
_cell_length_a   17.06270000
_cell_length_b   18.88610000
_cell_length_c   31.64380000
_cell_angle_alpha   90.00000000
_cell_angle_beta   90.00000000
_cell_angle_gamma   90.00000000
_symmetry_Int_Tables_number   1
_chemical_formula_structural   CsKMo6P4H22C10N2O23
_chemical_formula_sum   'Cs8 K8 Mo48 P32 H176 C80 N16 O184'
_cell_volume   10197.14678385
_cell_formula_units_Z   8
loop_
 _symmetry_equiv_pos_site_id
 _symmetry_equiv_pos_as_xyz
  1  'x, y, z'
loop_
 _atom_site_type_symbol
 _atom_site_label
 _atom_site_symmetry_multiplicity
 _atom_site_fract_x
 _atom_site_fract_y
 _atom_site_fract_z
 _atom_site_occupancy
 _atom_site_charge
  Cs  Cs1  1  0.561310  0.600490  0.813800  1.0  0.9706
  Cs  Cs2  1  0.438690  0.899510  0.313800  1.0  0.9719
  Cs  Cs3  1  0.061310  0.399510  0.686200  1.0  0.9714
  Cs  Cs4  1  0.938690  0.100490  0.186200  1.0  0.9712
  Cs  Cs5  1  0.438690  0.399510  0.186200  1.0  0.972
  Cs  Cs6  1  0.561310  0.100490  0.686200  1.0  0.9707
  Cs  Cs7  1  0.938690  0.600490  0.313800  1.0  0.971
  Cs  Cs8  1  0.061310  0.899510  0.813800  1.0  0.9714
  K  K9  1  0.860900  0.280670  0.778940  1.0  0.9493
  K  K10  1  0.139100  0.219330  0.278940  1.0  0.9491
  K  K11  1  0.360900  0.719330  0.721060  1.0  0.9479
  K  K12  1  0.639100  0.780670  0.221060  1.0  0.9485
  K  K13  1  0.139100  0.719330  0.221060  1.0  0.948
  K  K14  1  0.860900  0.780670  0.721060  1.0  0.948
  K  K15  1  0.639100  0.280670  0.278940  1.0  0.9499
  K  K16  1  0.360900  0.219330  0.778940  1.0  0.9489
  Mo  Mo17  1  0.737140  0.448470  0.799740  1.0  1.3786
  Mo  Mo18  1  0.918110  0.476270  0.780010  1.0  1.4135
  Mo  Mo19  1  0.925450  0.584940  0.679780  1.0  1.3525
  Mo  Mo20  1  0.869790  0.721980  0.606540  1.0  0.7926
  Mo  Mo21  1  0.877180  0.816540  0.501330  1.0  0.7689
  Mo  Mo22  1  0.610790  0.698320  0.929510  1.0  1.3623
  Mo  Mo23  1  0.262860  0.051530  0.299740  1.0  1.3767
  Mo  Mo24  1  0.081890  0.023730  0.280010  1.0  1.4136
  Mo  Mo25  1  0.074560  0.915060  0.179780  1.0  1.3525
  Mo  Mo26  1  0.130210  0.778020  0.106540  1.0  0.7895
  Mo  Mo27  1  0.122820  0.683460  0.001330  1.0  0.7729
  Mo  Mo28  1  0.389210  0.801680  0.429510  1.0  1.3627
  Mo  Mo29  1  0.237140  0.551530  0.700260  1.0  1.3761
  Mo  Mo30  1  0.418110  0.523730  0.719990  1.0  1.4159
  Mo  Mo31  1  0.425440  0.415060  0.820220  1.0  1.3551
  Mo  Mo32  1  0.369790  0.278020  0.893460  1.0  0.7912
  Mo  Mo33  1  0.377180  0.183460  0.998670  1.0  0.7744
  Mo  Mo34  1  0.110790  0.301680  0.570490  1.0  1.3587
  Mo  Mo35  1  0.762860  0.948470  0.200260  1.0  1.3797
  Mo  Mo36  1  0.581890  0.976270  0.219990  1.0  1.4172
  Mo  Mo37  1  0.574550  0.084940  0.320220  1.0  1.3549
  Mo  Mo38  1  0.630210  0.221980  0.393460  1.0  0.7897
  Mo  Mo39  1  0.622820  0.316540  0.498670  1.0  0.7681
  Mo  Mo40  1  0.889210  0.198320  0.070490  1.0  1.3569
  Mo  Mo41  1  0.262860  0.551530  0.200260  1.0  1.3759
  Mo  Mo42  1  0.081890  0.523730  0.219990  1.0  1.4166
  Mo  Mo43  1  0.074560  0.415060  0.320220  1.0  1.3548
  Mo  Mo44  1  0.130210  0.278020  0.393460  1.0  0.7918
  Mo  Mo45  1  0.122820  0.183460  0.498670  1.0  0.7729
  Mo  Mo46  1  0.389210  0.301680  0.070490  1.0  1.3565
  Mo  Mo47  1  0.737140  0.948470  0.700260  1.0  1.3803
  Mo  Mo48  1  0.918110  0.976270  0.719990  1.0  1.4164
  Mo  Mo49  1  0.925450  0.084940  0.820220  1.0  1.3548
  Mo  Mo50  1  0.869790  0.221980  0.893460  1.0  0.7893
  Mo  Mo51  1  0.877180  0.316540  0.998670  1.0  0.7688
  Mo  Mo52  1  0.610790  0.198320  0.570490  1.0  1.3588
  Mo  Mo53  1  0.762860  0.448470  0.299740  1.0  1.379
  Mo  Mo54  1  0.581890  0.476270  0.280010  1.0  1.4138
  Mo  Mo55  1  0.574550  0.584940  0.179780  1.0  1.352
  Mo  Mo56  1  0.630210  0.721980  0.106540  1.0  0.7916
  Mo  Mo57  1  0.622820  0.816540  0.001330  1.0  0.7682
  Mo  Mo58  1  0.889210  0.698320  0.429510  1.0  1.3633
  Mo  Mo59  1  0.237140  0.051530  0.799740  1.0  1.3755
  Mo  Mo60  1  0.418110  0.023730  0.780010  1.0  1.4135
  Mo  Mo61  1  0.425440  0.915060  0.679780  1.0  1.3535
  Mo  Mo62  1  0.369790  0.778020  0.606540  1.0  0.7898
  Mo  Mo63  1  0.377180  0.683460  0.501330  1.0  0.7744
  Mo  Mo64  1  0.110790  0.801680  0.929510  1.0  1.3624
  P  P65  1  0.770590  0.598950  0.750250  1.0  1.4662
  P  P66  1  0.779160  0.464750  0.699320  1.0  1.4344
  P  P67  1  0.792940  0.649420  0.514410  1.0  1.4947
  P  P68  1  0.968150  0.655340  0.521460  1.0  1.4595
  P  P69  1  0.229410  0.901050  0.250250  1.0  1.4647
  P  P70  1  0.220840  0.035250  0.199320  1.0  1.4343
  P  P71  1  0.207060  0.850580  0.014410  1.0  1.4936
  P  P72  1  0.031850  0.844660  0.021460  1.0  1.4588
  P  P73  1  0.270590  0.401050  0.749750  1.0  1.4654
  P  P74  1  0.279160  0.535250  0.800680  1.0  1.4333
  P  P75  1  0.292940  0.350580  0.985590  1.0  1.4947
  P  P76  1  0.468150  0.344660  0.978540  1.0  1.4585
  P  P77  1  0.729410  0.098950  0.249750  1.0  1.4672
  P  P78  1  0.720840  0.964750  0.300680  1.0  1.4352
  P  P79  1  0.707060  0.149420  0.485590  1.0  1.4958
  P  P80  1  0.531850  0.155340  0.478540  1.0  1.4581
  P  P81  1  0.229410  0.401050  0.249750  1.0  1.4662
  P  P82  1  0.220840  0.535250  0.300680  1.0  1.4338
  P  P83  1  0.207060  0.350580  0.485590  1.0  1.4952
  P  P84  1  0.031850  0.344660  0.478540  1.0  1.458
  P  P85  1  0.770590  0.098950  0.749750  1.0  1.4661
  P  P86  1  0.779160  0.964750  0.800680  1.0  1.4346
  P  P87  1  0.792940  0.149420  0.985590  1.0  1.4952
  P  P88  1  0.968150  0.155340  0.978540  1.0  1.459
  P  P89  1  0.729410  0.598950  0.250250  1.0  1.4655
  P  P90  1  0.720840  0.464750  0.199320  1.0  1.435
  P  P91  1  0.707060  0.649420  0.014410  1.0  1.4945
  P  P92  1  0.531850  0.655340  0.021460  1.0  1.4588
  P  P93  1  0.270590  0.901050  0.750250  1.0  1.4656
  P  P94  1  0.279160  0.035250  0.699320  1.0  1.4337
  P  P95  1  0.292940  0.850580  0.514410  1.0  1.4939
  P  P96  1  0.468150  0.844660  0.521460  1.0  1.4593
  H  H97  1  0.625100  0.519100  0.678400  1.0  0.1391
  H  H98  1  0.610700  0.583700  0.708400  1.0  0.1405
  H  H99  1  0.699100  0.652700  0.670800  1.0  0.1046
  H  H100  1  0.724300  0.587400  0.643200  1.0  0.1211
  H  H101  1  0.603300  0.583300  0.611100  1.0  0.0946
  H  H102  1  0.569900  0.640600  0.642100  1.0  0.0977
  H  H103  1  0.687600  0.671100  0.586600  1.0  0.2757
  H  H104  1  0.645100  0.722800  0.611700  1.0  0.2594
  H  H105  1  0.582400  0.651500  0.544700  1.0  0.139
  H  H106  1  0.603500  0.732300  0.544600  1.0  0.1374
  H  H107  1  0.534100  0.704600  0.572500  1.0  0.1405
  H  H108  1  0.848700  0.498600  0.499100  1.0  0.1178
  H  H109  1  0.937400  0.506000  0.510700  1.0  0.1293
  H  H110  1  0.895400  0.544500  0.580000  1.0  0.1193
  H  H111  1  0.810900  0.520100  0.567200  1.0  0.1173
  H  H112  1  0.941400  0.430200  0.576700  1.0  0.0999
  H  H113  1  0.867600  0.431200  0.606200  1.0  0.1146
  H  H114  1  0.873300  0.380100  0.525800  1.0  0.2347
  H  H115  1  0.798000  0.396800  0.544600  1.0  0.2734
  H  H116  1  0.895700  0.294500  0.575700  1.0  0.1349
  H  H117  1  0.820300  0.278300  0.549100  1.0  0.1382
  H  H118  1  0.812600  0.311300  0.594300  1.0  0.1467
  H  H119  1  0.374900  0.980900  0.178400  1.0  0.1392
  H  H120  1  0.389300  0.916300  0.208400  1.0  0.1404
  H  H121  1  0.300900  0.847300  0.170800  1.0  0.1033
  H  H122  1  0.275700  0.912600  0.143200  1.0  0.121
  H  H123  1  0.396700  0.916700  0.111100  1.0  0.0968
  H  H124  1  0.430100  0.859400  0.142100  1.0  0.0993
  H  H125  1  0.312400  0.828900  0.086600  1.0  0.2743
  H  H126  1  0.354900  0.777200  0.111700  1.0  0.2603
  H  H127  1  0.417600  0.848500  0.044700  1.0  0.1388
  H  H128  1  0.396500  0.767700  0.044600  1.0  0.1369
  H  H129  1  0.465900  0.795400  0.072500  1.0  0.1407
  H  H130  1  0.151300  0.001400  0.999100  1.0  0.1184
  H  H131  1  0.062600  0.994000  0.010700  1.0  0.1266
  H  H132  1  0.104600  0.955500  0.080000  1.0  0.1202
  H  H133  1  0.189100  0.979900  0.067200  1.0  0.1217
  H  H134  1  0.058600  0.069800  0.076700  1.0  0.0974
  H  H135  1  0.132400  0.068800  0.106200  1.0  0.1142
  H  H136  1  0.126700  0.119900  0.025800  1.0  0.2348
  H  H137  1  0.202000  0.103200  0.044600  1.0  0.2753
  H  H138  1  0.104300  0.205500  0.075700  1.0  0.1368
  H  H139  1  0.179700  0.221700  0.049100  1.0  0.1392
  H  H140  1  0.187400  0.188700  0.094300  1.0  0.1444
  H  H141  1  0.125100  0.480900  0.821600  1.0  0.1401
  H  H142  1  0.110700  0.416300  0.791600  1.0  0.1416
  H  H143  1  0.199100  0.347300  0.829200  1.0  0.1009
  H  H144  1  0.224300  0.412600  0.856800  1.0  0.1205
  H  H145  1  0.103300  0.416700  0.888900  1.0  0.0965
  H  H146  1  0.069900  0.359400  0.857900  1.0  0.0974
  H  H147  1  0.187600  0.328900  0.913400  1.0  0.276
  H  H148  1  0.145100  0.277200  0.888300  1.0  0.261
  H  H149  1  0.082400  0.348500  0.955300  1.0  0.1384
  H  H150  1  0.103500  0.267700  0.955400  1.0  0.1365
  H  H151  1  0.034100  0.295400  0.927500  1.0  0.1407
  H  H152  1  0.348700  0.501400  0.000900  1.0  0.1184
  H  H153  1  0.437400  0.494000  0.989300  1.0  0.129
  H  H154  1  0.395400  0.455500  0.920000  1.0  0.1196
  H  H155  1  0.310900  0.479900  0.932800  1.0  0.1172
  H  H156  1  0.441400  0.569800  0.923300  1.0  0.1001
  H  H157  1  0.367600  0.568800  0.893800  1.0  0.1153
  H  H158  1  0.373300  0.619900  0.974200  1.0  0.2328
  H  H159  1  0.298000  0.603200  0.955400  1.0  0.2728
  H  H160  1  0.395700  0.705500  0.924300  1.0  0.1357
  H  H161  1  0.320300  0.721700  0.950900  1.0  0.1387
  H  H162  1  0.312600  0.688700  0.905700  1.0  0.1442
  H  H163  1  0.874900  0.019100  0.321600  1.0  0.1391
  H  H164  1  0.889300  0.083700  0.291600  1.0  0.1418
  H  H165  1  0.800900  0.152700  0.329200  1.0  0.1046
  H  H166  1  0.775700  0.087400  0.356800  1.0  0.1206
  H  H167  1  0.896700  0.083300  0.388900  1.0  0.0976
  H  H168  1  0.930100  0.140600  0.357900  1.0  0.0983
  H  H169  1  0.812400  0.171100  0.413400  1.0  0.2742
  H  H170  1  0.854900  0.222800  0.388300  1.0  0.2603
  H  H171  1  0.917600  0.151500  0.455300  1.0  0.1392
  H  H172  1  0.896500  0.232300  0.455400  1.0  0.1368
  H  H173  1  0.965900  0.204600  0.427500  1.0  0.1411
  H  H174  1  0.651300  0.998600  0.500900  1.0  0.1176
  H  H175  1  0.562600  0.006000  0.489300  1.0  0.1259
  H  H176  1  0.604600  0.044500  0.420000  1.0  0.12
  H  H177  1  0.689100  0.020100  0.432800  1.0  0.1213
  H  H178  1  0.558600  0.930200  0.423300  1.0  0.0968
  H  H179  1  0.632400  0.931200  0.393800  1.0  0.1153
  H  H180  1  0.626700  0.880100  0.474200  1.0  0.2332
  H  H181  1  0.702000  0.896800  0.455400  1.0  0.2741
  H  H182  1  0.604300  0.794500  0.424300  1.0  0.1367
  H  H183  1  0.679700  0.778300  0.450900  1.0  0.1377
  H  H184  1  0.687400  0.811300  0.405700  1.0  0.1443
  H  H185  1  0.374900  0.480900  0.321600  1.0  0.139
  H  H186  1  0.389300  0.416300  0.291600  1.0  0.1408
  H  H187  1  0.300900  0.347300  0.329200  1.0  0.1016
  H  H188  1  0.275700  0.412600  0.356800  1.0  0.1202
  H  H189  1  0.396700  0.416700  0.388900  1.0  0.0969
  H  H190  1  0.430100  0.359400  0.357900  1.0  0.0982
  H  H191  1  0.312400  0.328900  0.413400  1.0  0.2741
  H  H192  1  0.354900  0.277200  0.388300  1.0  0.2605
  H  H193  1  0.417600  0.348500  0.455300  1.0  0.1383
  H  H194  1  0.396500  0.267700  0.455400  1.0  0.1366
  H  H195  1  0.465900  0.295400  0.427500  1.0  0.1409
  H  H196  1  0.151300  0.501400  0.500900  1.0  0.1175
  H  H197  1  0.062600  0.494000  0.489300  1.0  0.126
  H  H198  1  0.104600  0.455500  0.420000  1.0  0.1195
  H  H199  1  0.189100  0.479900  0.432800  1.0  0.1211
  H  H200  1  0.058600  0.569800  0.423300  1.0  0.0969
  H  H201  1  0.132400  0.568800  0.393800  1.0  0.1158
  H  H202  1  0.126700  0.619900  0.474200  1.0  0.2318
  H  H203  1  0.202000  0.603200  0.455400  1.0  0.2739
  H  H204  1  0.104300  0.705500  0.424300  1.0  0.136
  H  H205  1  0.179700  0.721700  0.450900  1.0  0.1384
  H  H206  1  0.187400  0.688700  0.405700  1.0  0.1444
  H  H207  1  0.625100  0.019100  0.821600  1.0  0.1396
  H  H208  1  0.610700  0.083700  0.791600  1.0  0.1424
  H  H209  1  0.699100  0.152700  0.829200  1.0  0.1041
  H  H210  1  0.724300  0.087400  0.856800  1.0  0.1213
  H  H211  1  0.603300  0.083300  0.888900  1.0  0.0957
  H  H212  1  0.569900  0.140600  0.857900  1.0  0.0974
  H  H213  1  0.687600  0.171100  0.913400  1.0  0.2752
  H  H214  1  0.645100  0.222800  0.888300  1.0  0.2608
  H  H215  1  0.582400  0.151500  0.955300  1.0  0.1394
  H  H216  1  0.603500  0.232300  0.955400  1.0  0.1364
  H  H217  1  0.534100  0.204600  0.927500  1.0  0.1402
  H  H218  1  0.848700  0.998600  0.000900  1.0  0.1188
  H  H219  1  0.937400  0.006000  0.989300  1.0  0.1293
  H  H220  1  0.895400  0.044500  0.920000  1.0  0.1204
  H  H221  1  0.810900  0.020100  0.932800  1.0  0.1173
  H  H222  1  0.941400  0.930200  0.923300  1.0  0.0997
  H  H223  1  0.867600  0.931200  0.893800  1.0  0.1147
  H  H224  1  0.873300  0.880100  0.974200  1.0  0.2349
  H  H225  1  0.798000  0.896800  0.955400  1.0  0.2725
  H  H226  1  0.895700  0.794500  0.924300  1.0  0.1346
  H  H227  1  0.820300  0.778300  0.950900  1.0  0.1381
  H  H228  1  0.812600  0.811300  0.905700  1.0  0.144
  H  H229  1  0.874900  0.519100  0.178400  1.0  0.1386
  H  H230  1  0.889300  0.583700  0.208400  1.0  0.1399
  H  H231  1  0.800900  0.652700  0.170800  1.0  0.1044
  H  H232  1  0.775700  0.587400  0.143200  1.0  0.1209
  H  H233  1  0.896700  0.583300  0.111100  1.0  0.0962
  H  H234  1  0.930100  0.640600  0.142100  1.0  0.0994
  H  H235  1  0.812400  0.671100  0.086600  1.0  0.2748
  H  H236  1  0.854900  0.722800  0.111700  1.0  0.2583
  H  H237  1  0.917600  0.651500  0.044700  1.0  0.1391
  H  H238  1  0.896500  0.732300  0.044600  1.0  0.1379
  H  H239  1  0.965900  0.704600  0.072500  1.0  0.1411
  H  H240  1  0.651300  0.498600  0.999100  1.0  0.1184
  H  H241  1  0.562600  0.506000  0.010700  1.0  0.1264
  H  H242  1  0.604600  0.544500  0.080000  1.0  0.1193
  H  H243  1  0.689100  0.520100  0.067200  1.0  0.1218
  H  H244  1  0.558600  0.430200  0.076700  1.0  0.0976
  H  H245  1  0.632400  0.431200  0.106200  1.0  0.1147
  H  H246  1  0.626700  0.380100  0.025800  1.0  0.2342
  H  H247  1  0.702000  0.396800  0.044600  1.0  0.2758
  H  H248  1  0.604300  0.294500  0.075700  1.0  0.1378
  H  H249  1  0.679700  0.278300  0.049100  1.0  0.1378
  H  H250  1  0.687400  0.311300  0.094300  1.0  0.1445
  H  H251  1  0.125100  0.980900  0.678400  1.0  0.1402
  H  H252  1  0.110700  0.916300  0.708400  1.0  0.141
  H  H253  1  0.199100  0.847300  0.670800  1.0  0.1034
  H  H254  1  0.224300  0.912600  0.643200  1.0  0.121
  H  H255  1  0.103300  0.916700  0.611100  1.0  0.0968
  H  H256  1  0.069900  0.859400  0.642100  1.0  0.0981
  H  H257  1  0.187600  0.828900  0.586600  1.0  0.2758
  H  H258  1  0.145100  0.777200  0.611700  1.0  0.2613
  H  H259  1  0.082400  0.848500  0.544700  1.0  0.1388
  H  H260  1  0.103500  0.767700  0.544600  1.0  0.1365
  H  H261  1  0.034100  0.795400  0.572500  1.0  0.1403
  H  H262  1  0.348700  0.001400  0.499100  1.0  0.1181
  H  H263  1  0.437400  0.994000  0.510700  1.0  0.1291
  H  H264  1  0.395400  0.955500  0.580000  1.0  0.1199
  H  H265  1  0.310900  0.979900  0.567200  1.0  0.1173
  H  H266  1  0.441400  0.069800  0.576700  1.0  0.0997
  H  H267  1  0.367600  0.068800  0.606200  1.0  0.1137
  H  H268  1  0.373300  0.119900  0.525800  1.0  0.2347
  H  H269  1  0.298000  0.103200  0.544600  1.0  0.2735
  H  H270  1  0.395700  0.205500  0.575700  1.0  0.1354
  H  H271  1  0.320300  0.221700  0.549100  1.0  0.1396
  H  H272  1  0.312600  0.188700  0.594300  1.0  0.147
  C  C273  1  0.712900  0.531000  0.722270  1.0  -0.1436
  C  C274  1  0.650300  0.559100  0.691990  1.0  -0.2474
  C  C275  1  0.680600  0.609200  0.657850  1.0  -0.0761
  C  C276  1  0.616400  0.625700  0.626880  1.0  0.0495
  C  C277  1  0.585200  0.693600  0.561620  1.0  -0.1592
  C  C278  1  0.883700  0.602440  0.502780  1.0  -0.1448
  C  C279  1  0.885600  0.524790  0.516420  1.0  -0.1625
  C  C280  1  0.866300  0.511200  0.562750  1.0  -0.0906
  C  C281  1  0.885100  0.437000  0.577290  1.0  0.0152
  C  C282  1  0.843600  0.310300  0.569030  1.0  -0.1511
  C  C283  1  0.287100  0.969000  0.222270  1.0  -0.1433
  C  C284  1  0.349700  0.940900  0.191990  1.0  -0.2469
  C  C285  1  0.319400  0.890800  0.157850  1.0  -0.0752
  C  C286  1  0.383600  0.874300  0.126880  1.0  0.0505
  C  C287  1  0.414800  0.806400  0.061620  1.0  -0.1597
  C  C288  1  0.116300  0.897560  0.002780  1.0  -0.1431
  C  C289  1  0.114400  0.975210  0.016420  1.0  -0.1628
  C  C290  1  0.133700  0.988800  0.062750  1.0  -0.09
  C  C291  1  0.114900  0.063000  0.077290  1.0  0.0149
  C  C292  1  0.156400  0.189700  0.069030  1.0  -0.1524
  C  C293  1  0.212900  0.469000  0.777730  1.0  -0.1417
  C  C294  1  0.150300  0.440900  0.808010  1.0  -0.2469
  C  C295  1  0.180600  0.390800  0.842150  1.0  -0.075
  C  C296  1  0.116400  0.374300  0.873120  1.0  0.05
  C  C297  1  0.085200  0.306400  0.938380  1.0  -0.1591
  C  C298  1  0.383700  0.397560  0.997220  1.0  -0.144
  C  C299  1  0.385600  0.475210  0.983580  1.0  -0.1637
  C  C300  1  0.366300  0.488800  0.937250  1.0  -0.0889
  C  C301  1  0.385100  0.563000  0.922710  1.0  0.0149
  C  C302  1  0.343600  0.689700  0.930970  1.0  -0.152
  C  C303  1  0.787100  0.031000  0.277730  1.0  -0.144
  C  C304  1  0.849700  0.059100  0.308010  1.0  -0.2461
  C  C305  1  0.819400  0.109200  0.342150  1.0  -0.075
  C  C306  1  0.883600  0.125700  0.373120  1.0  0.0505
  C  C307  1  0.914800  0.193600  0.438380  1.0  -0.1593
  C  C308  1  0.616300  0.102440  0.497220  1.0  -0.1429
  C  C309  1  0.614400  0.024790  0.483580  1.0  -0.1643
  C  C310  1  0.633700  0.011200  0.437250  1.0  -0.0896
  C  C311  1  0.614900  0.937000  0.422710  1.0  0.0158
  C  C312  1  0.656400  0.810300  0.430970  1.0  -0.1505
  C  C313  1  0.287100  0.469000  0.277730  1.0  -0.1427
  C  C314  1  0.349700  0.440900  0.308010  1.0  -0.2456
  C  C315  1  0.319400  0.390800  0.342150  1.0  -0.0749
  C  C316  1  0.383600  0.374300  0.373120  1.0  0.0505
  C  C317  1  0.414800  0.306400  0.438380  1.0  -0.1594
  C  C318  1  0.116300  0.397560  0.497220  1.0  -0.1424
  C  C319  1  0.114400  0.475210  0.483580  1.0  -0.1634
  C  C320  1  0.133700  0.488800  0.437250  1.0  -0.0888
  C  C321  1  0.114900  0.563000  0.422710  1.0  0.0154
  C  C322  1  0.156400  0.689700  0.430970  1.0  -0.152
  C  C323  1  0.712900  0.031000  0.777730  1.0  -0.1429
  C  C324  1  0.650300  0.059100  0.808010  1.0  -0.2472
  C  C325  1  0.680600  0.109200  0.842150  1.0  -0.0758
  C  C326  1  0.616400  0.125700  0.873120  1.0  0.0497
  C  C327  1  0.585200  0.193600  0.938380  1.0  -0.1598
  C  C328  1  0.883700  0.102440  0.997220  1.0  -0.145
  C  C329  1  0.885600  0.024790  0.983580  1.0  -0.1638
  C  C330  1  0.866300  0.011200  0.937250  1.0  -0.0892
  C  C331  1  0.885100  0.937000  0.922710  1.0  0.0154
  C  C332  1  0.843600  0.810300  0.930970  1.0  -0.1504
  C  C333  1  0.787100  0.531000  0.222270  1.0  -0.1438
  C  C334  1  0.849700  0.559100  0.191990  1.0  -0.2465
  C  C335  1  0.819400  0.609200  0.157850  1.0  -0.0752
  C  C336  1  0.883600  0.625700  0.126880  1.0  0.0502
  C  C337  1  0.914800  0.693600  0.061620  1.0  -0.1597
  C  C338  1  0.616300  0.602440  0.002780  1.0  -0.1431
  C  C339  1  0.614400  0.524790  0.016420  1.0  -0.1628
  C  C340  1  0.633700  0.511200  0.062750  1.0  -0.0901
  C  C341  1  0.614900  0.437000  0.077290  1.0  0.0151
  C  C342  1  0.656400  0.310300  0.069030  1.0  -0.1508
  C  C343  1  0.212900  0.969000  0.722270  1.0  -0.1432
  C  C344  1  0.150300  0.940900  0.691990  1.0  -0.2481
  C  C345  1  0.180600  0.890800  0.657850  1.0  -0.0753
  C  C346  1  0.116400  0.874300  0.626880  1.0  0.0499
  C  C347  1  0.085200  0.806400  0.561620  1.0  -0.1591
  C  C348  1  0.383700  0.897560  0.502780  1.0  -0.1448
  C  C349  1  0.385600  0.975210  0.516420  1.0  -0.1632
  C  C350  1  0.366300  0.988800  0.562750  1.0  -0.0902
  C  C351  1  0.385100  0.063000  0.577290  1.0  0.0151
  C  C352  1  0.343600  0.189700  0.569030  1.0  -0.153
  N  N353  1  0.640190  0.682060  0.597200  1.0  -0.0181
  N  N354  1  0.847200  0.382540  0.550440  1.0  -0.0278
  N  N355  1  0.359810  0.817940  0.097200  1.0  -0.0222
  N  N356  1  0.152800  0.117460  0.050440  1.0  -0.0254
  N  N357  1  0.140190  0.317940  0.902800  1.0  -0.0187
  N  N358  1  0.347200  0.617460  0.949560  1.0  -0.0257
  N  N359  1  0.859810  0.182060  0.402800  1.0  -0.0226
  N  N360  1  0.652800  0.882540  0.449560  1.0  -0.0263
  N  N361  1  0.359810  0.317940  0.402800  1.0  -0.0224
  N  N362  1  0.152800  0.617460  0.449560  1.0  -0.0255
  N  N363  1  0.640190  0.182060  0.902800  1.0  -0.0184
  N  N364  1  0.847200  0.882540  0.949560  1.0  -0.0267
  N  N365  1  0.859810  0.682060  0.097200  1.0  -0.0224
  N  N366  1  0.652800  0.382540  0.050440  1.0  -0.0268
  N  N367  1  0.140190  0.817940  0.597200  1.0  -0.0184
  N  N368  1  0.347200  0.117460  0.550440  1.0  -0.0258
  O  O369  1  0.691100  0.485300  0.842090  1.0  -0.6901
  O  O370  1  0.838630  0.432280  0.819260  1.0  -0.7482
  O  O371  1  0.673760  0.493450  0.755840  1.0  -0.6457
  O  O372  1  0.816530  0.434110  0.740520  1.0  -0.8771
  O  O373  1  0.808720  0.552170  0.785380  1.0  -0.8748
  O  O374  1  0.971080  0.400250  0.772930  1.0  -0.7359
  O  O375  1  0.945210  0.528170  0.733590  1.0  -0.7324
  O  O376  1  0.989350  0.536130  0.649840  1.0  -0.724
  O  O377  1  0.872020  0.634450  0.637040  1.0  -0.6689
  O  O378  1  0.839140  0.502100  0.671760  1.0  -0.79
  O  O379  1  0.831710  0.629590  0.720590  1.0  -0.8918
  O  O380  1  0.872480  0.790020  0.557450  1.0  -0.6815
  O  O381  1  0.956320  0.671040  0.567920  1.0  -0.8036
  O  O382  1  0.789160  0.665980  0.561150  1.0  -0.7939
  O  O383  1  0.614550  0.795880  0.939190  1.0  -0.6616
  O  O384  1  0.959410  0.721870  0.492890  1.0  -0.8594
  O  O385  1  0.804880  0.717400  0.487260  1.0  -0.8884
  O  O386  1  0.528700  0.689100  0.898930  1.0  -0.6757
  O  O387  1  0.890730  0.606030  0.457320  1.0  -0.6466
  O  O388  1  0.717830  0.653960  0.769560  1.0  -0.7117
  O  O389  1  0.732200  0.408680  0.677450  1.0  -0.5727
  O  O390  1  0.724210  0.606940  0.499150  1.0  -0.5815
  O  O391  1  0.044300  0.617850  0.513060  1.0  -0.6995
  O  O392  1  0.308900  0.014700  0.342090  1.0  -0.6891
  O  O393  1  0.161370  0.067720  0.319260  1.0  -0.7495
  O  O394  1  0.326240  0.006550  0.255840  1.0  -0.6457
  O  O395  1  0.183470  0.065890  0.240520  1.0  -0.8791
  O  O396  1  0.191280  0.947830  0.285380  1.0  -0.874
  O  O397  1  0.028920  0.099750  0.272930  1.0  -0.7365
  O  O398  1  0.054790  0.971830  0.233590  1.0  -0.7329
  O  O399  1  0.010650  0.963870  0.149840  1.0  -0.7292
  O  O400  1  0.127980  0.865550  0.137040  1.0  -0.6675
  O  O401  1  0.160860  0.997900  0.171760  1.0  -0.7889
  O  O402  1  0.168290  0.870410  0.220590  1.0  -0.891
  O  O403  1  0.127520  0.709980  0.057450  1.0  -0.6856
  O  O404  1  0.043680  0.828960  0.067920  1.0  -0.8054
  O  O405  1  0.210840  0.834020  0.061150  1.0  -0.7952
  O  O406  1  0.385450  0.704120  0.439190  1.0  -0.6608
  O  O407  1  0.040590  0.778130  0.992890  1.0  -0.8582
  O  O408  1  0.195120  0.782600  0.987260  1.0  -0.8888
  O  O409  1  0.471300  0.810900  0.398930  1.0  -0.6726
  O  O410  1  0.109270  0.893970  0.957320  1.0  -0.6455
  O  O411  1  0.282170  0.846040  0.269560  1.0  -0.7136
  O  O412  1  0.267800  0.091320  0.177450  1.0  -0.5725
  O  O413  1  0.275790  0.893060  0.999150  1.0  -0.5868
  O  O414  1  0.955700  0.882150  0.013060  1.0  -0.6998
  O  O415  1  0.191100  0.514700  0.657910  1.0  -0.6868
  O  O416  1  0.338630  0.567720  0.680740  1.0  -0.754
  O  O417  1  0.173760  0.506550  0.744160  1.0  -0.6451
  O  O418  1  0.316530  0.565890  0.759480  1.0  -0.8778
  O  O419  1  0.308720  0.447830  0.714620  1.0  -0.8796
  O  O420  1  0.471080  0.599750  0.727070  1.0  -0.7365
  O  O421  1  0.445210  0.471830  0.766410  1.0  -0.733
  O  O422  1  0.489350  0.463870  0.850160  1.0  -0.7254
  O  O423  1  0.372020  0.365550  0.862960  1.0  -0.6678
  O  O424  1  0.339140  0.497900  0.828240  1.0  -0.7901
  O  O425  1  0.331710  0.370410  0.779410  1.0  -0.8906
  O  O426  1  0.372480  0.209980  0.942550  1.0  -0.6844
  O  O427  1  0.456320  0.328960  0.932080  1.0  -0.8077
  O  O428  1  0.289160  0.334020  0.938850  1.0  -0.7937
  O  O429  1  0.114550  0.204120  0.560810  1.0  -0.6634
  O  O430  1  0.459410  0.278130  0.007110  1.0  -0.8588
  O  O431  1  0.304880  0.282600  0.012740  1.0  -0.887
  O  O432  1  0.028700  0.310900  0.601070  1.0  -0.6692
  O  O433  1  0.390730  0.393970  0.042680  1.0  -0.6491
  O  O434  1  0.217830  0.346040  0.730440  1.0  -0.7108
  O  O435  1  0.232200  0.591320  0.822550  1.0  -0.5709
  O  O436  1  0.224210  0.393060  0.000850  1.0  -0.578
  O  O437  1  0.544300  0.382150  0.986940  1.0  -0.6992
  O  O438  1  0.808900  0.985300  0.157910  1.0  -0.6873
  O  O439  1  0.661370  0.932280  0.180740  1.0  -0.7521
  O  O440  1  0.826240  0.993450  0.244160  1.0  -0.6455
  O  O441  1  0.683470  0.934110  0.259480  1.0  -0.8765
  O  O442  1  0.691280  0.052170  0.214620  1.0  -0.8814
  O  O443  1  0.528920  0.900250  0.227070  1.0  -0.7366
  O  O444  1  0.554790  0.028170  0.266410  1.0  -0.7336
  O  O445  1  0.510650  0.036130  0.350160  1.0  -0.7297
  O  O446  1  0.627980  0.134450  0.362960  1.0  -0.6689
  O  O447  1  0.660860  0.002100  0.328240  1.0  -0.7888
  O  O448  1  0.668290  0.129590  0.279410  1.0  -0.8923
  O  O449  1  0.627520  0.290020  0.442550  1.0  -0.6794
  O  O450  1  0.543680  0.171040  0.432080  1.0  -0.8075
  O  O451  1  0.710840  0.165980  0.438850  1.0  -0.795
  O  O452  1  0.885450  0.295880  0.060810  1.0  -0.6608
  O  O453  1  0.540590  0.221870  0.507110  1.0  -0.8586
  O  O454  1  0.695120  0.217400  0.512740  1.0  -0.8871
  O  O455  1  0.971300  0.189100  0.101070  1.0  -0.6696
  O  O456  1  0.609270  0.106030  0.542680  1.0  -0.6495
  O  O457  1  0.782170  0.153960  0.230440  1.0  -0.7138
  O  O458  1  0.767800  0.908680  0.322550  1.0  -0.5734
  O  O459  1  0.775790  0.106940  0.500850  1.0  -0.5851
  O  O460  1  0.455700  0.117850  0.486940  1.0  -0.7009
  O  O461  1  0.308900  0.514700  0.157910  1.0  -0.687
  O  O462  1  0.161370  0.567720  0.180740  1.0  -0.7538
  O  O463  1  0.326240  0.506550  0.244160  1.0  -0.6461
  O  O464  1  0.183470  0.565890  0.259480  1.0  -0.8783
  O  O465  1  0.191280  0.447830  0.214620  1.0  -0.8798
  O  O466  1  0.028920  0.599750  0.227070  1.0  -0.7365
  O  O467  1  0.054790  0.471830  0.266410  1.0  -0.7336
  O  O468  1  0.010650  0.463870  0.350160  1.0  -0.7304
  O  O469  1  0.127980  0.365550  0.362960  1.0  -0.6676
  O  O470  1  0.160860  0.497900  0.328240  1.0  -0.7889
  O  O471  1  0.168290  0.370410  0.279410  1.0  -0.8908
  O  O472  1  0.127520  0.209980  0.442550  1.0  -0.6838
  O  O473  1  0.043680  0.328960  0.432080  1.0  -0.8084
  O  O474  1  0.210840  0.334020  0.438850  1.0  -0.795
  O  O475  1  0.385450  0.204120  0.060810  1.0  -0.6632
  O  O476  1  0.040590  0.278130  0.507110  1.0  -0.858
  O  O477  1  0.195120  0.282600  0.512740  1.0  -0.8872
  O  O478  1  0.471300  0.310900  0.101070  1.0  -0.6705
  O  O479  1  0.109270  0.393970  0.542680  1.0  -0.6494
  O  O480  1  0.282170  0.346040  0.230440  1.0  -0.7107
  O  O481  1  0.267800  0.591320  0.322550  1.0  -0.571
  O  O482  1  0.275790  0.393060  0.500850  1.0  -0.5837
  O  O483  1  0.955700  0.382150  0.486940  1.0  -0.7005
  O  O484  1  0.691100  0.985300  0.657910  1.0  -0.687
  O  O485  1  0.838630  0.932280  0.680740  1.0  -0.7525
  O  O486  1  0.673760  0.993450  0.744160  1.0  -0.6439
  O  O487  1  0.816530  0.934110  0.759480  1.0  -0.8756
  O  O488  1  0.808720  0.052170  0.714620  1.0  -0.8811
  O  O489  1  0.971080  0.900250  0.727070  1.0  -0.7363
  O  O490  1  0.945210  0.028170  0.766410  1.0  -0.7331
  O  O491  1  0.989350  0.036130  0.850160  1.0  -0.7251
  O  O492  1  0.872020  0.134450  0.862960  1.0  -0.6702
  O  O493  1  0.839140  0.002100  0.828240  1.0  -0.7901
  O  O494  1  0.831710  0.129590  0.779410  1.0  -0.8929
  O  O495  1  0.872480  0.290020  0.942550  1.0  -0.6804
  O  O496  1  0.956320  0.171040  0.932080  1.0  -0.8067
  O  O497  1  0.789160  0.165980  0.938850  1.0  -0.7941
  O  O498  1  0.614550  0.295880  0.560810  1.0  -0.6611
  O  O499  1  0.959410  0.221870  0.007110  1.0  -0.8592
  O  O500  1  0.804880  0.217400  0.012740  1.0  -0.8878
  O  O501  1  0.528700  0.189100  0.601070  1.0  -0.6687
  O  O502  1  0.890730  0.106030  0.042680  1.0  -0.6489
  O  O503  1  0.717830  0.153960  0.730440  1.0  -0.7133
  O  O504  1  0.732200  0.908680  0.822550  1.0  -0.5727
  O  O505  1  0.724210  0.106940  0.000850  1.0  -0.5786
  O  O506  1  0.044300  0.117850  0.986940  1.0  -0.6996
  O  O507  1  0.808900  0.485300  0.342090  1.0  -0.6895
  O  O508  1  0.661370  0.432280  0.319260  1.0  -0.748
  O  O509  1  0.826240  0.493450  0.255840  1.0  -0.6466
  O  O510  1  0.683470  0.434110  0.240520  1.0  -0.8778
  O  O511  1  0.691280  0.552170  0.285380  1.0  -0.875
  O  O512  1  0.528920  0.400250  0.272930  1.0  -0.7367
  O  O513  1  0.554790  0.528170  0.233590  1.0  -0.7327
  O  O514  1  0.510650  0.536130  0.149840  1.0  -0.7285
  O  O515  1  0.627980  0.634450  0.137040  1.0  -0.6675
  O  O516  1  0.660860  0.502100  0.171760  1.0  -0.7887
  O  O517  1  0.668290  0.629590  0.220590  1.0  -0.8923
  O  O518  1  0.627520  0.790020  0.057450  1.0  -0.6809
  O  O519  1  0.543680  0.671040  0.067920  1.0  -0.8051
  O  O520  1  0.710840  0.665980  0.061150  1.0  -0.7946
  O  O521  1  0.885450  0.795880  0.439190  1.0  -0.6624
  O  O522  1  0.540590  0.721870  0.992890  1.0  -0.8586
  O  O523  1  0.695120  0.717400  0.987260  1.0  -0.8883
  O  O524  1  0.971300  0.689100  0.398930  1.0  -0.6756
  O  O525  1  0.609270  0.606030  0.957320  1.0  -0.6457
  O  O526  1  0.782170  0.653960  0.269560  1.0  -0.7118
  O  O527  1  0.767800  0.408680  0.177450  1.0  -0.5735
  O  O528  1  0.775790  0.606940  0.999150  1.0  -0.5858
  O  O529  1  0.455700  0.617850  0.013060  1.0  -0.7001
  O  O530  1  0.191100  0.014700  0.842090  1.0  -0.6897
  O  O531  1  0.338630  0.067720  0.819260  1.0  -0.7497
  O  O532  1  0.173760  0.006550  0.755840  1.0  -0.6459
  O  O533  1  0.316530  0.065890  0.740520  1.0  -0.8783
  O  O534  1  0.308720  0.947830  0.785380  1.0  -0.8739
  O  O535  1  0.471080  0.099750  0.772930  1.0  -0.7361
  O  O536  1  0.445210  0.971830  0.733590  1.0  -0.7324
  O  O537  1  0.489350  0.963870  0.649840  1.0  -0.7241
  O  O538  1  0.372020  0.865550  0.637040  1.0  -0.6685
  O  O539  1  0.339140  0.997900  0.671760  1.0  -0.7901
  O  O540  1  0.331710  0.870410  0.720590  1.0  -0.8904
  O  O541  1  0.372480  0.709980  0.557450  1.0  -0.6864
  O  O542  1  0.456320  0.828960  0.567920  1.0  -0.8039
  O  O543  1  0.289160  0.834020  0.561150  1.0  -0.7942
  O  O544  1  0.114550  0.704120  0.939190  1.0  -0.6604
  O  O545  1  0.459410  0.778130  0.492890  1.0  -0.859
  O  O546  1  0.304880  0.782600  0.487260  1.0  -0.888
  O  O547  1  0.028700  0.810900  0.898930  1.0  -0.6729
  O  O548  1  0.390730  0.893970  0.457320  1.0  -0.646
  O  O549  1  0.217830  0.846040  0.769560  1.0  -0.714
  O  O550  1  0.232200  0.091320  0.677450  1.0  -0.572
  O  O551  1  0.224210  0.893060  0.499150  1.0  -0.583
  O  O552  1  0.544300  0.882150  0.513060  1.0  -0.6991
