# generated using pymatgen
data_Zn3P4(HO3)4
_symmetry_space_group_name_H-M   'P 1'
_cell_length_a   8.78200000
_cell_length_b   14.94170000
_cell_length_c   15.49430000
_cell_angle_alpha   90.00000000
_cell_angle_beta   92.94000000
_cell_angle_gamma   90.00000000
_symmetry_Int_Tables_number   1
_chemical_formula_structural   Zn3P4(HO3)4
_chemical_formula_sum   'Zn12 P16 H16 O48'
_cell_volume   2030.45518207
_cell_formula_units_Z   4
loop_
 _symmetry_equiv_pos_site_id
 _symmetry_equiv_pos_as_xyz
  1  'x, y, z'
loop_
 _atom_site_type_symbol
 _atom_site_label
 _atom_site_symmetry_multiplicity
 _atom_site_fract_x
 _atom_site_fract_y
 _atom_site_fract_z
 _atom_site_occupancy
 _atom_site_charge
  Zn  Zn1  1  0.650330  0.619090  0.010320  1.0  1.1659
  Zn  Zn2  1  0.150330  0.119090  0.010320  1.0  1.1659
  Zn  Zn3  1  0.349670  0.619090  0.489680  1.0  1.166
  Zn  Zn4  1  0.849670  0.119090  0.489680  1.0  1.166
  Zn  Zn5  1  0.349670  0.380910  0.989680  1.0  1.1662
  Zn  Zn6  1  0.849670  0.880910  0.989680  1.0  1.1662
  Zn  Zn7  1  0.650330  0.380910  0.510320  1.0  1.166
  Zn  Zn8  1  0.150330  0.880910  0.510320  1.0  1.166
  Zn  Zn9  1  0.500000  0.632030  0.750000  1.0  1.1328
  Zn  Zn10  1  0.000000  0.132030  0.750000  1.0  1.1328
  Zn  Zn11  1  0.500000  0.367970  0.250000  1.0  1.1329
  Zn  Zn12  1  0.000000  0.867970  0.250000  1.0  1.1329
  P  P13  1  0.789900  0.720180  0.850230  1.0  1.517
  P  P14  1  0.661270  0.580300  0.583750  1.0  1.477
  P  P15  1  0.289900  0.220180  0.850230  1.0  1.517
  P  P16  1  0.161270  0.080300  0.583750  1.0  1.477
  P  P17  1  0.210100  0.720180  0.649770  1.0  1.5079
  P  P18  1  0.338730  0.580300  0.916250  1.0  1.4706
  P  P19  1  0.710100  0.220180  0.649770  1.0  1.5079
  P  P20  1  0.838730  0.080300  0.916250  1.0  1.4706
  P  P21  1  0.210100  0.279820  0.149770  1.0  1.512
  P  P22  1  0.338730  0.419700  0.416250  1.0  1.47
  P  P23  1  0.710100  0.779820  0.149770  1.0  1.512
  P  P24  1  0.838730  0.919700  0.416250  1.0  1.47
  P  P25  1  0.789900  0.279820  0.350230  1.0  1.5149
  P  P26  1  0.661270  0.419700  0.083750  1.0  1.4756
  P  P27  1  0.289900  0.779820  0.350230  1.0  1.5149
  P  P28  1  0.161270  0.919700  0.083750  1.0  1.4756
  H  H29  1  0.910000  0.699000  0.807000  1.0  -0.0506
  H  H30  1  0.782000  0.630300  0.607200  1.0  -0.0511
  H  H31  1  0.410000  0.199000  0.807000  1.0  -0.0506
  H  H32  1  0.282000  0.130300  0.607200  1.0  -0.0511
  H  H33  1  0.090000  0.699000  0.693000  1.0  -0.0512
  H  H34  1  0.218000  0.630300  0.892800  1.0  -0.0525
  H  H35  1  0.590000  0.199000  0.693000  1.0  -0.0512
  H  H36  1  0.718000  0.130300  0.892800  1.0  -0.0525
  H  H37  1  0.090000  0.301000  0.193000  1.0  -0.0516
  H  H38  1  0.218000  0.369700  0.392800  1.0  -0.0526
  H  H39  1  0.590000  0.801000  0.193000  1.0  -0.0516
  H  H40  1  0.718000  0.869700  0.392800  1.0  -0.0526
  H  H41  1  0.910000  0.301000  0.307000  1.0  -0.0501
  H  H42  1  0.782000  0.369700  0.107200  1.0  -0.0511
  H  H43  1  0.410000  0.801000  0.307000  1.0  -0.0501
  H  H44  1  0.282000  0.869700  0.107200  1.0  -0.0511
  O  O45  1  0.780600  0.647600  0.916430  1.0  -0.8017
  O  O46  1  0.815000  0.812900  0.884480  1.0  -0.7836
  O  O47  1  0.725000  0.499220  0.540440  1.0  -0.7625
  O  O48  1  0.561300  0.637970  0.524140  1.0  -0.7711
  O  O49  1  0.655000  0.722230  0.783970  1.0  -0.7411
  O  O50  1  0.584500  0.555040  0.666090  1.0  -0.7561
  O  O51  1  0.280600  0.147600  0.916430  1.0  -0.8017
  O  O52  1  0.315000  0.312900  0.884480  1.0  -0.7836
  O  O53  1  0.225000  0.999220  0.540440  1.0  -0.7625
  O  O54  1  0.061300  0.137970  0.524140  1.0  -0.7711
  O  O55  1  0.155000  0.222230  0.783970  1.0  -0.7411
  O  O56  1  0.084500  0.055040  0.666090  1.0  -0.7561
  O  O57  1  0.219400  0.647600  0.583570  1.0  -0.8024
  O  O58  1  0.185000  0.812900  0.615520  1.0  -0.7824
  O  O59  1  0.275000  0.499220  0.959560  1.0  -0.7613
  O  O60  1  0.438700  0.637970  0.975860  1.0  -0.7726
  O  O61  1  0.345000  0.722230  0.716030  1.0  -0.7399
  O  O62  1  0.415500  0.555040  0.833910  1.0  -0.7568
  O  O63  1  0.719400  0.147600  0.583570  1.0  -0.8024
  O  O64  1  0.685000  0.312900  0.615520  1.0  -0.7824
  O  O65  1  0.775000  0.999220  0.959560  1.0  -0.7613
  O  O66  1  0.938700  0.137970  0.975860  1.0  -0.7726
  O  O67  1  0.845000  0.222230  0.716030  1.0  -0.7399
  O  O68  1  0.915500  0.055040  0.833910  1.0  -0.7568
  O  O69  1  0.219400  0.352400  0.083570  1.0  -0.8038
  O  O70  1  0.185000  0.187100  0.115520  1.0  -0.7833
  O  O71  1  0.275000  0.500780  0.459560  1.0  -0.7614
  O  O72  1  0.438700  0.362030  0.475860  1.0  -0.7728
  O  O73  1  0.345000  0.277770  0.216030  1.0  -0.7387
  O  O74  1  0.415500  0.444960  0.333910  1.0  -0.7568
  O  O75  1  0.719400  0.852400  0.083570  1.0  -0.8038
  O  O76  1  0.685000  0.687100  0.115520  1.0  -0.7833
  O  O77  1  0.775000  0.000780  0.459560  1.0  -0.7614
  O  O78  1  0.938700  0.862030  0.475860  1.0  -0.7728
  O  O79  1  0.845000  0.777770  0.216030  1.0  -0.7387
  O  O80  1  0.915500  0.944960  0.333910  1.0  -0.7568
  O  O81  1  0.780600  0.352400  0.416430  1.0  -0.8029
  O  O82  1  0.815000  0.187100  0.384480  1.0  -0.7834
  O  O83  1  0.725000  0.500780  0.040440  1.0  -0.7616
  O  O84  1  0.561300  0.362030  0.024140  1.0  -0.7711
  O  O85  1  0.655000  0.277770  0.283970  1.0  -0.7393
  O  O86  1  0.584500  0.444960  0.166090  1.0  -0.7575
  O  O87  1  0.280600  0.852400  0.416430  1.0  -0.8029
  O  O88  1  0.315000  0.687100  0.384480  1.0  -0.7834
  O  O89  1  0.225000  0.000780  0.040440  1.0  -0.7616
  O  O90  1  0.061300  0.862030  0.024140  1.0  -0.7711
  O  O91  1  0.155000  0.777770  0.283970  1.0  -0.7393
  O  O92  1  0.084500  0.944960  0.166090  1.0  -0.7575
