# generated using pymatgen
data_MnCu3H48(C11O4)6
_symmetry_space_group_name_H-M   'P 1'
_cell_length_a   12.65830000
_cell_length_b   15.54090000
_cell_length_c   16.40940000
_cell_angle_alpha   108.44600000
_cell_angle_beta   98.65100000
_cell_angle_gamma   109.52600000
_symmetry_Int_Tables_number   1
_chemical_formula_structural   MnCu3H48(C11O4)6
_chemical_formula_sum   'Mn1 Cu3 H48 C66 O24'
_cell_volume   2765.11402264
_cell_formula_units_Z   1
loop_
 _symmetry_equiv_pos_site_id
 _symmetry_equiv_pos_as_xyz
  1  'x, y, z'
loop_
 _atom_site_type_symbol
 _atom_site_label
 _atom_site_symmetry_multiplicity
 _atom_site_fract_x
 _atom_site_fract_y
 _atom_site_fract_z
 _atom_site_occupancy
 _atom_site_charge
  Mn  Mn1  1  0.500000  0.500000  0.500000  1.0  1.1393
  Cu  Cu2  1  0.808600  0.629280  0.578390  1.0  0.9802
  Cu  Cu3  1  0.191400  0.370720  0.421610  1.0  0.9806
  Cu  Cu4  1  0.000000  0.500000  0.500000  1.0  0.5784
  H  H5  1  0.248500  0.607700  0.910800  1.0  0.1253
  H  H6  1  0.549300  0.798200  0.027200  1.0  0.0677
  H  H7  1  0.668300  0.883300  0.099700  1.0  0.0821
  H  H8  1  0.814400  0.864800  0.813400  1.0  0.1248
  H  H9  1  0.592000  0.055100  0.135300  1.0  0.0636
  H  H10  1  0.673000  0.032000  0.203400  1.0  0.0718
  H  H11  1  0.468500  0.778900  0.147100  1.0  0.065
  H  H12  1  0.453400  0.869100  0.218500  1.0  0.0809
  H  H13  1  0.829600  0.813600  0.426300  1.0  0.1146
  H  H14  1  0.797800  0.902700  0.340100  1.0  0.1163
  H  H15  1  0.220400  0.868600  0.952200  1.0  0.1302
  H  H16  1  0.786300  0.951100  0.944300  1.0  0.0924
  H  H17  1  0.113900  0.533500  0.771000  1.0  0.1133
  H  H18  1  0.416000  0.919600  0.020100  1.0  0.0611
  H  H19  1  0.361800  0.915700  0.101900  1.0  0.0855
  H  H20  1  0.462000  0.752400  0.874900  1.0  0.1153
  H  H21  1  0.486500  0.668500  0.740000  1.0  0.0957
  H  H22  1  0.781100  0.363200  0.348000  1.0  0.0802
  H  H23  1  0.466000  0.117700  0.371100  1.0  0.1418
  H  H24  1  0.538700  0.284100  0.473900  1.0  0.0935
  H  H25  1  0.485000  0.647400  0.345800  1.0  0.101
  H  H26  1  0.711800  0.203400  0.245600  1.0  0.1109
  H  H27  1  0.454100  0.732800  0.257500  1.0  0.1346
  H  H28  1  0.062700  0.778800  0.805800  1.0  0.1256
  H  H29  1  0.751500  0.392300  0.089200  1.0  0.1253
  H  H30  1  0.450700  0.201800  0.972800  1.0  0.07
  H  H31  1  0.331700  0.116700  0.900300  1.0  0.0839
  H  H32  1  0.185600  0.135200  0.186600  1.0  0.1243
  H  H33  1  0.408000  0.944900  0.864700  1.0  0.0636
  H  H34  1  0.327000  0.968000  0.796600  1.0  0.0733
  H  H35  1  0.531500  0.221100  0.852900  1.0  0.0655
  H  H36  1  0.546600  0.130900  0.781500  1.0  0.0806
  H  H37  1  0.170400  0.186400  0.573700  1.0  0.1148
  H  H38  1  0.202200  0.097300  0.659900  1.0  0.1156
  H  H39  1  0.779600  0.131400  0.047800  1.0  0.1301
  H  H40  1  0.213700  0.048900  0.055700  1.0  0.092
  H  H41  1  0.886100  0.466500  0.229000  1.0  0.1135
  H  H42  1  0.584000  0.080400  0.979900  1.0  0.0606
  H  H43  1  0.638200  0.084300  0.898100  1.0  0.0856
  H  H44  1  0.538000  0.247600  0.125100  1.0  0.1149
  H  H45  1  0.513500  0.331500  0.260000  1.0  0.0953
  H  H46  1  0.218900  0.636800  0.652000  1.0  0.081
  H  H47  1  0.534000  0.882300  0.628900  1.0  0.1409
  H  H48  1  0.461300  0.715900  0.526100  1.0  0.0929
  H  H49  1  0.515000  0.352600  0.654200  1.0  0.1019
  H  H50  1  0.288200  0.796600  0.754400  1.0  0.1107
  H  H51  1  0.545900  0.267200  0.742500  1.0  0.1351
  H  H52  1  0.937300  0.221200  0.194200  1.0  0.1252
  C  C53  1  0.215700  0.645800  0.889100  1.0  -0.1414
  C  C54  1  0.667500  0.693600  0.679800  1.0  0.7074
  C  C55  1  0.985700  0.607100  0.683000  1.0  0.4708
  C  C56  1  0.652700  0.753800  0.765500  1.0  -0.1437
  C  C57  1  0.522300  0.907700  0.120300  1.0  -0.0208
  C  C58  1  0.591800  0.870800  0.061600  1.0  0.0716
  C  C59  1  0.741300  0.840400  0.825300  1.0  -0.1578
  C  C60  1  0.591200  0.018000  0.174500  1.0  0.0756
  C  C61  1  0.505100  0.851400  0.182800  1.0  0.0729
  C  C62  1  0.711400  0.444200  0.485600  1.0  0.6674
  C  C63  1  0.752700  0.796000  0.391700  1.0  -0.0632
  C  C64  1  0.733400  0.848800  0.339600  1.0  -0.2065
  C  C65  1  0.252000  0.745100  0.940400  1.0  0.327
  C  C66  1  0.199100  0.800700  0.915900  1.0  -0.0842
  C  C67  1  0.625000  0.824200  0.288700  1.0  0.3312
  C  C68  1  0.723300  0.891600  0.902700  1.0  -0.0983
  C  C69  1  0.133800  0.600900  0.807800  1.0  -0.0794
  C  C70  1  0.405600  0.887900  0.063700  1.0  0.0606
  C  C71  1  0.534700  0.777100  0.862700  1.0  -0.154
  C  C72  1  0.550700  0.725800  0.783400  1.0  -0.0959
  C  C73  1  0.716700  0.314500  0.353900  1.0  -0.0566
  C  C74  1  0.660300  0.719100  0.392500  1.0  -0.1364
  C  C75  1  0.083800  0.650600  0.781800  1.0  -0.0468
  C  C76  1  0.622800  0.863300  0.923400  1.0  0.3955
  C  C77  1  0.677100  0.661200  0.446600  1.0  0.7164
  C  C78  1  0.672300  0.345300  0.422000  1.0  -0.0647
  C  C79  1  0.530300  0.167300  0.366200  1.0  -0.21
  C  C80  1  0.574200  0.267400  0.427600  1.0  -0.0495
  C  C81  1  0.583700  0.142100  0.297200  1.0  0.3274
  C  C82  1  0.550300  0.698500  0.343600  1.0  -0.0263
  C  C83  1  0.676200  0.218200  0.292200  1.0  -0.2501
  C  C84  1  0.531100  0.749400  0.291200  1.0  -0.3269
  C  C85  1  0.105200  0.746900  0.828000  1.0  -0.0737
  C  C86  1  0.784300  0.354200  0.110900  1.0  -0.138
  C  C87  1  0.332500  0.306400  0.320200  1.0  0.7087
  C  C88  1  0.014300  0.392900  0.317000  1.0  0.4714
  C  C89  1  0.347300  0.246200  0.234500  1.0  -0.1449
  C  C90  1  0.477700  0.092300  0.879700  1.0  -0.022
  C  C91  1  0.408200  0.129200  0.938400  1.0  0.0697
  C  C92  1  0.258700  0.159600  0.174700  1.0  -0.1594
  C  C93  1  0.408800  0.982000  0.825500  1.0  0.0776
  C  C94  1  0.494900  0.148600  0.817200  1.0  0.0725
  C  C95  1  0.288600  0.555800  0.514400  1.0  0.6673
  C  C96  1  0.247300  0.204000  0.608300  1.0  -0.0612
  C  C97  1  0.266600  0.151200  0.660400  1.0  -0.2072
  C  C98  1  0.748000  0.254900  0.059600  1.0  0.3283
  C  C99  1  0.800900  0.199300  0.084100  1.0  -0.0798
  C  C100  1  0.375000  0.175800  0.711300  1.0  0.3302
  C  C101  1  0.276700  0.108400  0.097300  1.0  -0.1001
  C  C102  1  0.866200  0.399100  0.192200  1.0  -0.0757
  C  C103  1  0.594400  0.112100  0.936300  1.0  0.0599
  C  C104  1  0.465300  0.222900  0.137300  1.0  -0.1602
  C  C105  1  0.449300  0.274200  0.216600  1.0  -0.097
  C  C106  1  0.283300  0.685500  0.646100  1.0  -0.0552
  C  C107  1  0.339700  0.280900  0.607500  1.0  -0.136
  C  C108  1  0.916200  0.349400  0.218200  1.0  -0.0494
  C  C109  1  0.377200  0.136700  0.076600  1.0  0.3961
  C  C110  1  0.322900  0.338800  0.553400  1.0  0.7165
  C  C111  1  0.327700  0.654700  0.578000  1.0  -0.0646
  C  C112  1  0.469700  0.832700  0.633800  1.0  -0.211
  C  C113  1  0.425800  0.732600  0.572400  1.0  -0.0487
  C  C114  1  0.416300  0.857900  0.702800  1.0  0.3282
  C  C115  1  0.449700  0.301500  0.656400  1.0  -0.028
  C  C116  1  0.323800  0.781800  0.707800  1.0  -0.2506
  C  C117  1  0.468900  0.250600  0.708800  1.0  -0.3243
  C  C118  1  0.894800  0.253100  0.172000  1.0  -0.0713
  O  O119  1  0.651000  0.465800  0.536400  1.0  -0.6236
  O  O120  1  0.342800  0.783300  0.017700  1.0  -0.2747
  O  O121  1  0.924600  0.640900  0.675900  1.0  -0.5795
  O  O122  1  0.576400  0.620100  0.626000  1.0  -0.645
  O  O123  1  0.768800  0.716100  0.670000  1.0  -0.5678
  O  O124  1  0.590000  0.587400  0.437100  1.0  -0.6192
  O  O125  1  0.007100  0.531300  0.627100  1.0  -0.6203
  O  O126  1  0.778000  0.687700  0.494900  1.0  -0.5901
  O  O127  1  0.617200  0.879000  0.240400  1.0  -0.2644
  O  O128  1  0.534900  0.046800  0.240700  1.0  -0.2604
  O  O129  1  0.805200  0.506400  0.486200  1.0  -0.6505
  O  O130  1  0.610500  0.919400  0.001000  1.0  -0.2757
  O  O131  1  0.349000  0.534200  0.463600  1.0  -0.6237
  O  O132  1  0.657200  0.216700  0.982300  1.0  -0.2768
  O  O133  1  0.075400  0.359100  0.324100  1.0  -0.5804
  O  O134  1  0.423600  0.379900  0.374000  1.0  -0.644
  O  O135  1  0.231200  0.283900  0.330000  1.0  -0.568
  O  O136  1  0.410000  0.412600  0.562900  1.0  -0.6198
  O  O137  1  0.992900  0.468700  0.372900  1.0  -0.622
  O  O138  1  0.222000  0.312300  0.505100  1.0  -0.5878
  O  O139  1  0.382800  0.121000  0.759600  1.0  -0.2655
  O  O140  1  0.465100  0.953200  0.759300  1.0  -0.2578
  O  O141  1  0.194800  0.493600  0.513800  1.0  -0.6532
  O  O142  1  0.389500  0.080600  0.999000  1.0  -0.2772
