# generated using pymatgen
data_Mn3H60C70(NO12)2
_symmetry_space_group_name_H-M   'P 1'
_cell_length_a   11.72580000
_cell_length_b   15.44890000
_cell_length_c   16.71070000
_cell_angle_alpha   106.78700000
_cell_angle_beta   98.06400000
_cell_angle_gamma   107.78800000
_symmetry_Int_Tables_number   1
_chemical_formula_structural   Mn3H60C70(NO12)2
_chemical_formula_sum   'Mn3 H60 C70 N2 O24'
_cell_volume   2671.49839333
_cell_formula_units_Z   1
loop_
 _symmetry_equiv_pos_site_id
 _symmetry_equiv_pos_as_xyz
  1  'x, y, z'
loop_
 _atom_site_type_symbol
 _atom_site_label
 _atom_site_symmetry_multiplicity
 _atom_site_fract_x
 _atom_site_fract_y
 _atom_site_fract_z
 _atom_site_occupancy
 _atom_site_charge
  Mn  Mn1  1  0.180160  0.880540  0.899230  1.0  1.1058
  Mn  Mn2  1  0.819840  0.119460  0.100770  1.0  1.1055
  Mn  Mn3  1  0.500000  0.000000  0.000000  1.0  1.1959
  H  H4  1  0.240200  0.726200  0.663500  1.0  0.1047
  H  H5  1  0.280300  0.652800  0.531600  1.0  0.1306
  H  H6  1  0.643100  0.826900  0.631100  1.0  0.116
  H  H7  1  0.600200  0.900600  0.762400  1.0  0.1059
  H  H8  1  0.375700  0.572500  0.450800  1.0  0.0788
  H  H9  1  0.352400  0.645900  0.405900  1.0  0.0838
  H  H10  1  0.146400  0.153200  0.112000  1.0  0.1045
  H  H11  1  0.222700  0.313000  0.212000  1.0  0.1264
  H  H12  1  0.543300  0.362700  0.137400  1.0  0.1378
  H  H13  1  0.470100  0.202700  0.042100  1.0  0.1083
  H  H14  1  0.304000  0.475400  0.280300  1.0  0.073
  H  H15  1  0.379000  0.439100  0.343600  1.0  0.0714
  H  H16  1  0.496700  0.816300  0.106100  1.0  0.1083
  H  H17  1  0.531200  0.738500  0.202800  1.0  0.1357
  H  H18  1  0.164300  0.638600  0.187300  1.0  0.1362
  H  H19  1  0.130400  0.711300  0.087900  1.0  0.1101
  H  H20  1  0.520900  0.618300  0.253100  1.0  0.0765
  H  H21  1  0.534000  0.711900  0.332800  1.0  0.0818
  H  H22  1  0.891400  0.646400  0.655100  1.0  0.1133
  H  H23  1  0.762300  0.584200  0.517100  1.0  0.1231
  H  H24  1  0.795900  0.855100  0.528000  1.0  0.1406
  H  H25  1  0.932000  0.918100  0.663200  1.0  0.1113
  H  H26  1  0.626700  0.548400  0.349700  1.0  0.0908
  H  H27  1  0.593000  0.555600  0.440500  1.0  0.0862
  H  H28  1  0.759800  0.273800  0.336500  1.0  0.1052
  H  H29  1  0.719700  0.347200  0.468400  1.0  0.1295
  H  H30  1  0.356900  0.173100  0.368900  1.0  0.1164
  H  H31  1  0.399800  0.099400  0.237600  1.0  0.1067
  H  H32  1  0.624300  0.427500  0.549200  1.0  0.08
  H  H33  1  0.647600  0.354100  0.594100  1.0  0.0835
  H  H34  1  0.853600  0.846800  0.888000  1.0  0.1047
  H  H35  1  0.777300  0.687000  0.788000  1.0  0.1263
  H  H36  1  0.456700  0.637300  0.862600  1.0  0.1368
  H  H37  1  0.529900  0.797300  0.957900  1.0  0.1087
  H  H38  1  0.696000  0.524600  0.719700  1.0  0.0732
  H  H39  1  0.621000  0.560900  0.656400  1.0  0.0718
  H  H40  1  0.503300  0.183700  0.893900  1.0  0.1083
  H  H41  1  0.468800  0.261500  0.797200  1.0  0.1351
  H  H42  1  0.835700  0.361400  0.812700  1.0  0.1364
  H  H43  1  0.869600  0.288700  0.912100  1.0  0.1101
  H  H44  1  0.479100  0.381700  0.746900  1.0  0.0759
  H  H45  1  0.466000  0.288100  0.667200  1.0  0.0799
  H  H46  1  0.108600  0.353600  0.344900  1.0  0.114
  H  H47  1  0.237700  0.415800  0.482900  1.0  0.1221
  H  H48  1  0.204100  0.144900  0.472000  1.0  0.1416
  H  H49  1  0.068000  0.081900  0.336800  1.0  0.1101
  H  H50  1  0.373300  0.451600  0.650300  1.0  0.0913
  H  H51  1  0.407000  0.444400  0.559500  1.0  0.0866
  H  H52  1  0.955100  0.822400  0.137900  1.0  0.1164
  H  H53  1  0.880400  0.832700  0.055500  1.0  0.1328
  H  H54  1  0.004900  0.810800  0.052500  1.0  0.1112
  H  H55  1  0.208700  0.948700  0.150200  1.0  0.1352
  H  H56  1  0.192300  0.043900  0.209400  1.0  0.1267
  H  H57  1  0.140800  0.943900  0.226400  1.0  0.133
  H  H58  1  0.044900  0.177600  0.862100  1.0  0.1162
  H  H59  1  0.119600  0.167300  0.944500  1.0  0.1325
  H  H60  1  0.995100  0.189200  0.947500  1.0  0.1108
  H  H61  1  0.791300  0.051300  0.849800  1.0  0.1325
  H  H62  1  0.807700  0.956100  0.790600  1.0  0.1271
  H  H63  1  0.859200  0.056100  0.773600  1.0  0.1338
  C  C64  1  0.392000  0.863700  0.808200  1.0  0.7384
  C  C65  1  0.415700  0.819400  0.725600  1.0  -0.1577
  C  C66  1  0.322200  0.746600  0.656800  1.0  -0.0321
  C  C67  1  0.344900  0.702300  0.578300  1.0  -0.2672
  C  C68  1  0.464000  0.733600  0.571900  1.0  0.2526
  C  C69  1  0.561400  0.806900  0.638500  1.0  -0.1816
  C  C70  1  0.535700  0.850200  0.716200  1.0  -0.0056
  C  C71  1  0.416800  0.624700  0.429800  1.0  0.0146
  C  C72  1  0.255500  0.060300  0.007900  1.0  0.6513
  C  C73  1  0.302000  0.162900  0.068900  1.0  -0.0972
  C  C74  1  0.227900  0.195500  0.118300  1.0  -0.0674
  C  C75  1  0.272700  0.290500  0.177300  1.0  -0.2373
  C  C76  1  0.390800  0.351200  0.184600  1.0  0.299
  C  C77  1  0.463300  0.319500  0.133300  1.0  -0.1841
  C  C78  1  0.419600  0.225000  0.076200  1.0  0.0023
  C  C79  1  0.387400  0.479000  0.306300  1.0  0.0854
  C  C80  1  0.292000  0.818300  0.023000  1.0  0.7201
  C  C81  1  0.309800  0.768800  0.085200  1.0  -0.1423
  C  C82  1  0.428700  0.778500  0.121400  1.0  0.0032
  C  C83  1  0.449800  0.733600  0.179800  1.0  -0.2264
  C  C84  1  0.349900  0.681400  0.204200  1.0  0.3071
  C  C85  1  0.232100  0.673800  0.170000  1.0  -0.23
  C  C86  1  0.212200  0.717000  0.111200  1.0  -0.0387
  C  C87  1  0.482100  0.643200  0.299100  1.0  0.0748
  C  C88  1  0.006300  0.827700  0.762500  1.0  0.6439
  C  C89  1  0.923700  0.788500  0.673800  1.0  -0.1551
  C  C90  1  0.872500  0.689300  0.629300  1.0  -0.0638
  C  C91  1  0.794300  0.652200  0.547800  1.0  -0.2006
  C  C92  1  0.762600  0.712100  0.510900  1.0  0.2783
  C  C93  1  0.815400  0.812700  0.554100  1.0  -0.2123
  C  C94  1  0.895500  0.849700  0.634300  1.0  -0.0674
  C  C95  1  0.597800  0.585900  0.395700  1.0  0.0588
  C  C96  1  0.469800  0.582700  0.357930  1.0  -0.0259
  C  C97  1  0.608000  0.136300  0.191800  1.0  0.7374
  C  C98  1  0.584300  0.180600  0.274400  1.0  -0.1592
  C  C99  1  0.677800  0.253400  0.343200  1.0  -0.0324
  C  C100  1  0.655100  0.297700  0.421700  1.0  -0.2659
  C  C101  1  0.536000  0.266400  0.428100  1.0  0.2545
  C  C102  1  0.438600  0.193100  0.361500  1.0  -0.1838
  C  C103  1  0.464300  0.149800  0.283800  1.0  -0.0039
  C  C104  1  0.583200  0.375300  0.570200  1.0  0.0139
  C  C105  1  0.744500  0.939700  0.992100  1.0  0.651
  C  C106  1  0.698000  0.837100  0.931100  1.0  -0.0974
  C  C107  1  0.772100  0.804500  0.881700  1.0  -0.0686
  C  C108  1  0.727300  0.709500  0.822700  1.0  -0.2362
  C  C109  1  0.609200  0.648800  0.815400  1.0  0.2987
  C  C110  1  0.536700  0.680500  0.866700  1.0  -0.1844
  C  C111  1  0.580400  0.775000  0.923800  1.0  0.0013
  C  C112  1  0.612600  0.521000  0.693700  1.0  0.0845
  C  C113  1  0.708000  0.181700  0.977000  1.0  0.7196
  C  C114  1  0.690200  0.231200  0.914800  1.0  -0.1417
  C  C115  1  0.571300  0.221500  0.878600  1.0  0.0034
  C  C116  1  0.550200  0.266400  0.820200  1.0  -0.2295
  C  C117  1  0.650100  0.318600  0.795800  1.0  0.3088
  C  C118  1  0.767900  0.326200  0.830000  1.0  -0.2286
  C  C119  1  0.787800  0.283000  0.888800  1.0  -0.04
  C  C120  1  0.517900  0.356800  0.700900  1.0  0.0748
  C  C121  1  0.993700  0.172300  0.237500  1.0  0.6452
  C  C122  1  0.076300  0.211500  0.326200  1.0  -0.155
  C  C123  1  0.127500  0.310700  0.370700  1.0  -0.0633
  C  C124  1  0.205700  0.347800  0.452200  1.0  -0.2032
  C  C125  1  0.237400  0.287900  0.489100  1.0  0.2789
  C  C126  1  0.184600  0.187300  0.445900  1.0  -0.2109
  C  C127  1  0.104500  0.150300  0.365700  1.0  -0.0683
  C  C128  1  0.402200  0.414100  0.604300  1.0  0.0596
  C  C129  1  0.530200  0.417300  0.642070  1.0  -0.0258
  C  C130  1  0.962900  0.845300  0.089300  1.0  -0.108
  C  C131  1  0.154100  0.973100  0.182000  1.0  -0.1672
  C  C132  1  0.037100  0.154700  0.910700  1.0  -0.1066
  C  C133  1  0.845900  0.026900  0.818000  1.0  -0.1665
  N  N134  1  0.033100  0.946800  0.121100  1.0  -0.371
  N  N135  1  0.966900  0.053200  0.878900  1.0  -0.3698
  O  O136  1  0.484700  0.928300  0.865930  1.0  -0.5917
  O  O137  1  0.282800  0.843120  0.813000  1.0  -0.6265
  O  O138  1  0.497700  0.699500  0.497000  1.0  -0.272
  O  O139  1  0.145700  0.004480  0.996320  1.0  -0.5678
  O  O140  1  0.327800  0.030470  0.967010  1.0  -0.6638
  O  O141  1  0.444900  0.445300  0.240800  1.0  -0.2694
  O  O142  1  0.385400  0.866930  0.005600  1.0  -0.6254
  O  O143  1  0.182900  0.808800  0.989660  1.0  -0.5911
  O  O144  1  0.360500  0.635000  0.262280  1.0  -0.2628
  O  O145  1  0.065700  0.917970  0.798450  1.0  -0.5718
  O  O146  1  0.016800  0.769950  0.800610  1.0  -0.5806
  O  O147  1  0.682600  0.682400  0.432480  1.0  -0.279
  O  O148  1  0.515300  0.071700  0.134070  1.0  -0.59
  O  O149  1  0.717200  0.156880  0.187000  1.0  -0.6264
  O  O150  1  0.502300  0.300500  0.503000  1.0  -0.2745
  O  O151  1  0.854300  0.995520  0.003680  1.0  -0.567
  O  O152  1  0.672200  0.969530  0.032990  1.0  -0.6641
  O  O153  1  0.555100  0.554700  0.759200  1.0  -0.2701
  O  O154  1  0.614600  0.133070  0.994400  1.0  -0.6231
  O  O155  1  0.817100  0.191200  0.010340  1.0  -0.5913
  O  O156  1  0.639500  0.365000  0.737720  1.0  -0.2621
  O  O157  1  0.934300  0.082030  0.201550  1.0  -0.5745
  O  O158  1  0.983200  0.230050  0.199390  1.0  -0.5821
  O  O159  1  0.317400  0.317600  0.567520  1.0  -0.2792
