# generated using pymatgen
data_MnNi3H48(C11O4)6
_symmetry_space_group_name_H-M   'P 1'
_cell_length_a   15.68020000
_cell_length_b   16.61870000
_cell_length_c   16.86310000
_cell_angle_alpha   98.78200000
_cell_angle_beta   109.21500000
_cell_angle_gamma   114.85800000
_symmetry_Int_Tables_number   1
_chemical_formula_structural   MnNi3H48(C11O4)6
_chemical_formula_sum   'Mn1 Ni3 H48 C66 O24'
_cell_volume   3541.18028223
_cell_formula_units_Z   1
loop_
 _symmetry_equiv_pos_site_id
 _symmetry_equiv_pos_as_xyz
  1  'x, y, z'
loop_
 _atom_site_type_symbol
 _atom_site_label
 _atom_site_symmetry_multiplicity
 _atom_site_fract_x
 _atom_site_fract_y
 _atom_site_fract_z
 _atom_site_occupancy
 _atom_site_charge
  Mn  Mn1  1  0.500000  0.500000  0.500000  1.0  1.2624
  Ni  Ni2  1  0.332560  0.250610  0.406360  1.0  0.8944
  Ni  Ni3  1  0.667440  0.749390  0.593640  1.0  0.8948
  Ni  Ni4  1  0.500000  0.000000  0.500000  1.0  0.6127
  H  H5  1  0.167800  0.242300  0.571900  1.0  0.1158
  H  H6  1  0.089600  0.259300  0.661200  1.0  0.1232
  H  H7  1  0.258000  0.538800  0.736200  1.0  0.1189
  H  H8  1  0.334600  0.524100  0.643600  1.0  0.1117
  H  H9  1  0.124000  0.528400  0.777500  1.0  0.075
  H  H10  1  0.220800  0.533000  0.855000  1.0  0.0729
  H  H11  1  0.949500  0.350200  0.777600  1.0  0.0781
  H  H12  1  0.927500  0.404100  0.849400  1.0  0.0662
  H  H13  1  0.776200  0.305300  0.732600  1.0  0.1135
  H  H14  1  0.600700  0.245900  0.631600  1.0  0.0962
  H  H15  1  0.693200  0.468200  0.544900  1.0  0.1065
  H  H16  1  0.864900  0.527900  0.646800  1.0  0.134
  H  H17  1  0.099900  0.359500  0.894700  1.0  0.077
  H  H18  1  0.198800  0.458800  0.965500  1.0  0.0725
  H  H19  1  0.035700  0.265700  0.035100  1.0  0.1267
  H  H20  1  0.131900  0.253200  0.165300  1.0  0.0992
  H  H21  1  0.336500  0.527200  0.259000  1.0  0.0987
  H  H22  1  0.245200  0.544500  0.129500  1.0  0.115
  H  H23  1  0.087500  0.602500  0.889900  1.0  0.0777
  H  H24  1  0.067200  0.557300  0.964100  1.0  0.0623
  H  H25  1  0.393400  0.713600  0.117800  1.0  0.1301
  H  H26  1  0.455300  0.833900  0.246100  1.0  0.1081
  H  H27  1  0.181300  0.828600  0.153800  1.0  0.1054
  H  H28  1  0.118300  0.708100  0.027300  1.0  0.1102
  H  H29  1  0.832200  0.757700  0.428100  1.0  0.1159
  H  H30  1  0.910400  0.740700  0.338800  1.0  0.1266
  H  H31  1  0.742000  0.461200  0.263800  1.0  0.1201
  H  H32  1  0.665400  0.475900  0.356400  1.0  0.111
  H  H33  1  0.876000  0.471600  0.222500  1.0  0.0753
  H  H34  1  0.779200  0.467000  0.145000  1.0  0.0719
  H  H35  1  0.050500  0.649800  0.222400  1.0  0.0768
  H  H36  1  0.072500  0.595900  0.150600  1.0  0.0671
  H  H37  1  0.223800  0.694700  0.267400  1.0  0.1134
  H  H38  1  0.399300  0.754100  0.368400  1.0  0.097
  H  H39  1  0.306800  0.531800  0.455100  1.0  0.1065
  H  H40  1  0.135100  0.472100  0.353200  1.0  0.1339
  H  H41  1  0.900100  0.640500  0.105300  1.0  0.0801
  H  H42  1  0.801200  0.541200  0.034500  1.0  0.0728
  H  H43  1  0.964300  0.734300  0.964900  1.0  0.1253
  H  H44  1  0.868100  0.746800  0.834700  1.0  0.0995
  H  H45  1  0.663500  0.472800  0.741000  1.0  0.098
  H  H46  1  0.754800  0.455500  0.870500  1.0  0.1159
  H  H47  1  0.912500  0.397500  0.110100  1.0  0.0785
  H  H48  1  0.932800  0.442700  0.035900  1.0  0.0627
  H  H49  1  0.606600  0.286400  0.882200  1.0  0.1304
  H  H50  1  0.544700  0.166100  0.753900  1.0  0.1078
  H  H51  1  0.818700  0.171400  0.846200  1.0  0.1055
  H  H52  1  0.881700  0.291900  0.972700  1.0  0.111
  C  C53  1  0.311000  0.371300  0.538900  1.0  0.7422
  C  C54  1  0.258600  0.381300  0.597400  1.0  -0.1872
  C  C55  1  0.186400  0.303600  0.604800  1.0  -0.003
  C  C56  1  0.141700  0.313800  0.658600  1.0  -0.2372
  C  C57  1  0.170400  0.402200  0.710200  1.0  0.3199
  C  C58  1  0.239600  0.477800  0.702700  1.0  -0.2637
  C  C59  1  0.284700  0.469200  0.647500  1.0  -0.0231
  C  C60  1  0.144700  0.494200  0.816100  1.0  0.0767
  C  C61  1  0.084600  0.475000  0.872100  1.0  -0.0358
  C  C62  1  0.966400  0.412900  0.812600  1.0  0.0785
  C  C63  1  0.836000  0.419000  0.697100  1.0  0.3156
  C  C64  1  0.759300  0.338000  0.694100  1.0  -0.257
  C  C65  1  0.654500  0.302600  0.633800  1.0  0.0229
  C  C66  1  0.629400  0.350000  0.577600  1.0  -0.1932
  C  C67  1  0.709600  0.434800  0.582800  1.0  0.0192
  C  C68  1  0.811200  0.469600  0.642400  1.0  -0.2338
  C  C69  1  0.519700  0.312700  0.516400  1.0  0.6843
  C  C70  1  0.121600  0.423100  0.931900  1.0  0.0587
  C  C71  1  0.130700  0.406100  0.067700  1.0  0.2882
  C  C72  1  0.097900  0.320000  0.079900  1.0  -0.2566
  C  C73  1  0.155600  0.313000  0.157700  1.0  0.0107
  C  C74  1  0.244100  0.387500  0.222900  1.0  -0.1695
  C  C75  1  0.275600  0.473400  0.212400  1.0  0.0076
  C  C76  1  0.221100  0.484100  0.135800  1.0  -0.2231
  C  C77  1  0.306100  0.378400  0.307400  1.0  0.7129
  C  C78  1  0.107900  0.568300  0.928800  1.0  0.0712
  C  C79  1  0.249400  0.696900  0.059900  1.0  0.3078
  C  C80  1  0.349100  0.736100  0.125600  1.0  -0.2163
  C  C81  1  0.385500  0.806900  0.202000  1.0  0.0011
  C  C82  1  0.322000  0.840300  0.216500  1.0  -0.0751
  C  C83  1  0.224200  0.803500  0.147800  1.0  -0.0165
  C  C84  1  0.187200  0.733200  0.072400  1.0  -0.2531
  C  C85  1  0.357500  0.909900  0.304400  1.0  0.6997
  C  C86  1  0.689000  0.628700  0.461100  1.0  0.7432
  C  C87  1  0.741400  0.618700  0.402600  1.0  -0.1845
  C  C88  1  0.813600  0.696400  0.395200  1.0  -0.0016
  C  C89  1  0.858300  0.686200  0.341400  1.0  -0.236
  C  C90  1  0.829600  0.597800  0.289800  1.0  0.3224
  C  C91  1  0.760400  0.522200  0.297300  1.0  -0.2632
  C  C92  1  0.715300  0.530800  0.352500  1.0  -0.0206
  C  C93  1  0.855300  0.505800  0.183900  1.0  0.0777
  C  C94  1  0.915400  0.525000  0.127900  1.0  -0.0369
  C  C95  1  0.033600  0.587100  0.187400  1.0  0.0743
  C  C96  1  0.164000  0.581000  0.302900  1.0  0.3206
  C  C97  1  0.240700  0.662000  0.305900  1.0  -0.2578
  C  C98  1  0.345500  0.697400  0.366200  1.0  0.0209
  C  C99  1  0.370600  0.650000  0.422400  1.0  -0.1937
  C  C100  1  0.290400  0.565200  0.417200  1.0  0.0198
  C  C101  1  0.188800  0.530400  0.357600  1.0  -0.2337
  C  C102  1  0.480300  0.687300  0.483600  1.0  0.6852
  C  C103  1  0.878400  0.576900  0.068100  1.0  0.0589
  C  C104  1  0.869300  0.593900  0.932300  1.0  0.2857
  C  C105  1  0.902100  0.680000  0.920100  1.0  -0.2541
  C  C106  1  0.844400  0.687000  0.842300  1.0  0.0143
  C  C107  1  0.755900  0.612500  0.777100  1.0  -0.1703
  C  C108  1  0.724400  0.526600  0.787600  1.0  0.0057
  C  C109  1  0.778900  0.515900  0.864200  1.0  -0.2244
  C  C110  1  0.693900  0.621600  0.692600  1.0  0.7125
  C  C111  1  0.892100  0.431700  0.071200  1.0  0.0693
  C  C112  1  0.750600  0.303100  0.940100  1.0  0.3061
  C  C113  1  0.650900  0.263900  0.874400  1.0  -0.2178
  C  C114  1  0.614500  0.193100  0.798000  1.0  -0.001
  C  C115  1  0.678000  0.159700  0.783500  1.0  -0.0993
  C  C116  1  0.775800  0.196500  0.852200  1.0  -0.0383
  C  C117  1  0.812800  0.266800  0.927600  1.0  -0.251
  C  C118  1  0.642500  0.090100  0.695600  1.0  0.7026
  O  O119  1  0.372900  0.445100  0.535400  1.0  -0.6031
  O  O120  1  0.288200  0.290300  0.499200  1.0  -0.6096
  O  O121  1  0.119200  0.404200  0.762600  1.0  -0.2812
  O  O122  1  0.939300  0.460900  0.754700  1.0  -0.2645
  O  O123  1  0.448800  0.232200  0.504200  1.0  -0.5687
  O  O124  1  0.494600  0.363500  0.474700  1.0  -0.6597
  O  O125  1  0.074500  0.415800  0.992600  1.0  -0.3004
  O  O126  1  0.264500  0.299600  0.317500  1.0  -0.6354
  O  O127  1  0.393100  0.449500  0.361300  1.0  -0.6238
  O  O128  1  0.217700  0.623600  0.987500  1.0  -0.2791
  O  O129  1  0.301500  0.947200  0.306700  1.0  -0.5569
  O  O130  1  0.438600  0.925500  0.366500  1.0  -0.6053
  O  O131  1  0.627100  0.554900  0.464600  1.0  -0.602
  O  O132  1  0.711800  0.709700  0.500800  1.0  -0.6098
  O  O133  1  0.880800  0.595800  0.237400  1.0  -0.2819
  O  O134  1  0.060700  0.539100  0.245300  1.0  -0.2652
  O  O135  1  0.551200  0.767800  0.495800  1.0  -0.5672
  O  O136  1  0.505400  0.636500  0.525300  1.0  -0.6603
  O  O137  1  0.925500  0.584200  0.007400  1.0  -0.3021
  O  O138  1  0.735500  0.700400  0.682500  1.0  -0.6363
  O  O139  1  0.606900  0.550500  0.638700  1.0  -0.6204
  O  O140  1  0.782300  0.376400  0.012500  1.0  -0.2791
  O  O141  1  0.698500  0.052800  0.693300  1.0  -0.5547
  O  O142  1  0.561400  0.074500  0.633500  1.0  -0.6037
