# generated using pymatgen
data_MnH16(C11O4)2
_symmetry_space_group_name_H-M   'P 1'
_cell_length_a   13.43190000
_cell_length_b   16.21600000
_cell_length_c   16.29110000
_cell_angle_alpha   108.09900000
_cell_angle_beta   102.65200000
_cell_angle_gamma   106.18800000
_symmetry_Int_Tables_number   1
_chemical_formula_structural   MnH16(C11O4)2
_chemical_formula_sum   'Mn3 H48 C66 O24'
_cell_volume   3052.13964861
_cell_formula_units_Z   3
loop_
 _symmetry_equiv_pos_site_id
 _symmetry_equiv_pos_as_xyz
  1  'x, y, z'
loop_
 _atom_site_type_symbol
 _atom_site_label
 _atom_site_symmetry_multiplicity
 _atom_site_fract_x
 _atom_site_fract_y
 _atom_site_fract_z
 _atom_site_occupancy
 _atom_site_charge
  Mn  Mn1  1  0.204880  0.377990  0.399360  1.0  1.2026
  Mn  Mn2  1  0.795120  0.622010  0.600640  1.0  1.2016
  Mn  Mn3  1  0.500000  0.500000  0.500000  1.0  1.2558
  H  H4  1  0.329800  0.108000  0.874600  1.0  0.0822
  H  H5  1  0.445500  0.188800  0.943100  1.0  0.0747
  H  H6  1  0.540500  0.329900  0.250600  1.0  0.0951
  H  H7  1  0.551400  0.223900  0.119100  1.0  0.1173
  H  H8  1  0.224100  0.095400  0.027200  1.0  0.128
  H  H9  1  0.537900  0.217700  0.703900  1.0  0.134
  H  H10  1  0.203100  0.641600  0.630600  1.0  0.1062
  H  H11  1  0.517700  0.305100  0.617200  1.0  0.1041
  H  H12  1  0.611000  0.054200  0.882200  1.0  0.0769
  H  H13  1  0.559800  0.053700  0.962400  1.0  0.0573
  H  H14  1  0.525300  0.095400  0.757500  1.0  0.0747
  H  H15  1  0.525000  0.189200  0.829400  1.0  0.0684
  H  H16  1  0.266200  0.799300  0.725900  1.0  0.1137
  H  H17  1  0.726900  0.082400  0.040100  1.0  0.1165
  H  H18  1  0.460100  0.695200  0.537600  1.0  0.0949
  H  H19  1  0.525300  0.850700  0.635700  1.0  0.1323
  H  H20  1  0.882300  0.144200  0.169600  1.0  0.1027
  H  H21  1  0.319100  0.960600  0.768300  1.0  0.0718
  H  H22  1  0.386200  0.937400  0.847100  1.0  0.0662
  H  H23  1  0.215500  0.198900  0.157100  1.0  0.1069
  H  H24  1  0.752600  0.343700  0.068200  1.0  0.1267
  H  H25  1  0.914800  0.405700  0.192700  1.0  0.1177
  H  H26  1  0.209500  0.107000  0.637100  1.0  0.1208
  H  H27  1  0.188300  0.198500  0.554200  1.0  0.1185
  H  H28  1  0.670200  0.892000  0.125400  1.0  0.0814
  H  H29  1  0.554500  0.811200  0.056900  1.0  0.0732
  H  H30  1  0.459500  0.670100  0.749400  1.0  0.0963
  H  H31  1  0.448600  0.776100  0.880900  1.0  0.1176
  H  H32  1  0.775900  0.904600  0.972800  1.0  0.1278
  H  H33  1  0.462100  0.782300  0.296100  1.0  0.1332
  H  H34  1  0.796900  0.358400  0.369400  1.0  0.1068
  H  H35  1  0.482300  0.694900  0.382800  1.0  0.1037
  H  H36  1  0.389000  0.945800  0.117800  1.0  0.0761
  H  H37  1  0.440200  0.946300  0.037600  1.0  0.0576
  H  H38  1  0.474700  0.904600  0.242500  1.0  0.0755
  H  H39  1  0.475000  0.810800  0.170600  1.0  0.0672
  H  H40  1  0.733800  0.200700  0.274100  1.0  0.1156
  H  H41  1  0.273100  0.917600  0.959900  1.0  0.1174
  H  H42  1  0.539900  0.304800  0.462400  1.0  0.0954
  H  H43  1  0.474700  0.149300  0.364300  1.0  0.1338
  H  H44  1  0.117700  0.855800  0.830400  1.0  0.1028
  H  H45  1  0.680900  0.039400  0.231700  1.0  0.0719
  H  H46  1  0.613800  0.062600  0.152900  1.0  0.0657
  H  H47  1  0.784500  0.801100  0.842900  1.0  0.1068
  H  H48  1  0.247400  0.656300  0.931800  1.0  0.1258
  H  H49  1  0.085200  0.594300  0.807300  1.0  0.1184
  H  H50  1  0.790500  0.893000  0.362900  1.0  0.1211
  H  H51  1  0.811700  0.801500  0.445800  1.0  0.1177
  C  C52  1  0.368900  0.345100  0.299700  1.0  0.7414
  C  C53  1  0.404000  0.120300  0.914600  1.0  0.0601
  C  C54  1  0.475000  0.282300  0.204800  1.0  -0.0216
  C  C55  1  0.481900  0.218400  0.126400  1.0  -0.2286
  C  C56  1  0.388500  0.148900  0.061200  1.0  0.2959
  C  C57  1  0.289900  0.143000  0.072600  1.0  -0.2134
  C  C58  1  0.466800  0.214300  0.674000  1.0  -0.2915
  C  C59  1  0.374900  0.157700  0.681800  1.0  0.3139
  C  C60  1  0.725500  0.208700  0.042400  1.0  0.3037
  C  C61  1  0.325900  0.651500  0.574500  1.0  -0.2086
  C  C62  1  0.268600  0.684200  0.631400  1.0  0.0105
  C  C63  1  0.462900  0.072800  0.858000  1.0  -0.0376
  C  C64  1  0.454200  0.265800  0.622300  1.0  0.0079
  C  C65  1  0.571600  0.084000  0.919300  1.0  0.0747
  C  C66  1  0.482700  0.121400  0.793800  1.0  0.0759
  C  C67  1  0.306300  0.777700  0.688500  1.0  -0.2566
  C  C68  1  0.764000  0.148200  0.071900  1.0  -0.2654
  C  C69  1  0.402300  0.839300  0.691000  1.0  0.3168
  C  C70  1  0.421100  0.715700  0.576700  1.0  -0.0039
  C  C71  1  0.459500  0.807900  0.634400  1.0  -0.2418
  C  C72  1  0.856900  0.185400  0.148200  1.0  0.0066
  C  C73  1  0.017700  0.320000  0.274800  1.0  0.6438
  C  C74  1  0.913700  0.279900  0.194000  1.0  -0.1558
  C  C75  1  0.378100  0.276900  0.215700  1.0  -0.1639
  C  C76  1  0.286300  0.552100  0.516100  1.0  0.6875
  C  C77  1  0.340000  0.322700  0.526300  1.0  0.7235
  C  C78  1  0.352400  0.262100  0.577900  1.0  -0.1887
  C  C79  1  0.393500  0.969400  0.804600  1.0  0.0703
  C  C80  1  0.284900  0.205200  0.149400  1.0  0.0012
  C  C81  1  0.780300  0.302700  0.088000  1.0  -0.2091
  C  C82  1  0.875800  0.339900  0.163000  1.0  -0.0329
  C  C83  1  0.272700  0.149700  0.634900  1.0  -0.2446
  C  C84  1  0.259700  0.202600  0.584300  1.0  -0.0074
  C  C85  1  0.631100  0.654900  0.700300  1.0  0.7411
  C  C86  1  0.596000  0.879700  0.085400  1.0  0.0601
  C  C87  1  0.525000  0.717700  0.795200  1.0  -0.0042
  C  C88  1  0.518100  0.781600  0.873600  1.0  -0.2284
  C  C89  1  0.611500  0.851100  0.938800  1.0  0.2962
  C  C90  1  0.710100  0.857000  0.927400  1.0  -0.2151
  C  C91  1  0.533200  0.785700  0.326000  1.0  -0.294
  C  C92  1  0.625100  0.842300  0.318200  1.0  0.3135
  C  C93  1  0.274500  0.791300  0.957600  1.0  0.3036
  C  C94  1  0.674100  0.348500  0.425500  1.0  -0.2094
  C  C95  1  0.731400  0.315800  0.368600  1.0  0.0092
  C  C96  1  0.537100  0.927200  0.142000  1.0  -0.0374
  C  C97  1  0.545800  0.734200  0.377700  1.0  0.0085
  C  C98  1  0.428400  0.916000  0.080700  1.0  0.0757
  C  C99  1  0.517300  0.878600  0.206200  1.0  0.0773
  C  C100  1  0.693700  0.222300  0.311500  1.0  -0.2558
  C  C101  1  0.236000  0.851800  0.928100  1.0  -0.2678
  C  C102  1  0.597700  0.160700  0.309000  1.0  0.3181
  C  C103  1  0.578900  0.284300  0.423300  1.0  -0.0124
  C  C104  1  0.540500  0.192100  0.365600  1.0  -0.243
  C  C105  1  0.143100  0.814600  0.851800  1.0  0.0077
  C  C106  1  0.982300  0.680000  0.725200  1.0  0.6429
  C  C107  1  0.086300  0.720100  0.806000  1.0  -0.1576
  C  C108  1  0.621900  0.723100  0.784300  1.0  -0.1642
  C  C109  1  0.713700  0.447900  0.483900  1.0  0.6862
  C  C110  1  0.660000  0.677300  0.473700  1.0  0.7226
  C  C111  1  0.647600  0.737900  0.422100  1.0  -0.1875
  C  C112  1  0.606500  0.030600  0.195400  1.0  0.0677
  C  C113  1  0.715100  0.794800  0.850600  1.0  0.0005
  C  C114  1  0.219700  0.697300  0.912000  1.0  -0.2213
  C  C115  1  0.124200  0.660100  0.837000  1.0  -0.0362
  C  C116  1  0.727300  0.850300  0.365100  1.0  -0.2441
  C  C117  1  0.740300  0.797400  0.415700  1.0  -0.0062
  O  O118  1  0.456400  0.407940  0.358250  1.0  -0.6117
  O  O119  1  0.634800  0.181610  0.968810  1.0  -0.2687
  O  O120  1  0.394100  0.085090  0.985990  1.0  -0.3133
  O  O121  1  0.448300  0.931790  0.745450  1.0  -0.2653
  O  O122  1  0.377700  0.106070  0.734260  1.0  -0.2741
  O  O123  1  0.196600  0.496060  0.509840  1.0  -0.538
  O  O124  1  0.275900  0.331400  0.304010  1.0  -0.6033
  O  O125  1  0.341200  0.521660  0.466980  1.0  -0.6567
  O  O126  1  0.425700  0.382630  0.531830  1.0  -0.6082
  O  O127  1  0.038200  0.268800  0.314630  1.0  -0.5516
  O  O128  1  0.084200  0.402800  0.298380  1.0  -0.5295
  O  O129  1  0.243000  0.308900  0.483040  1.0  -0.5734
  O  O130  1  0.543600  0.592060  0.641750  1.0  -0.6118
  O  O131  1  0.365200  0.818390  0.031190  1.0  -0.2675
  O  O132  1  0.605900  0.914910  0.014010  1.0  -0.3124
  O  O133  1  0.551700  0.068210  0.254550  1.0  -0.2667
  O  O134  1  0.622300  0.893930  0.265740  1.0  -0.2739
  O  O135  1  0.803400  0.503940  0.490160  1.0  -0.5388
  O  O136  1  0.724100  0.668600  0.695990  1.0  -0.6027
  O  O137  1  0.658800  0.478340  0.533020  1.0  -0.6554
  O  O138  1  0.574300  0.617370  0.468170  1.0  -0.607
  O  O139  1  0.961800  0.731200  0.685370  1.0  -0.5513
  O  O140  1  0.915800  0.597200  0.701620  1.0  -0.5291
  O  O141  1  0.757000  0.691100  0.516960  1.0  -0.5742
