# generated using pymatgen
data_MnCo3H48(C11O4)6
_symmetry_space_group_name_H-M   'P 1'
_cell_length_a   12.65940000
_cell_length_b   15.02710000
_cell_length_c   17.03170000
_cell_angle_alpha   108.00900000
_cell_angle_beta   101.05000000
_cell_angle_gamma   106.05000000
_symmetry_Int_Tables_number   1
_chemical_formula_structural   MnCo3H48(C11O4)6
_chemical_formula_sum   'Mn1 Co3 H48 C66 O24'
_cell_volume   2821.74031752
_cell_formula_units_Z   1
loop_
 _symmetry_equiv_pos_site_id
 _symmetry_equiv_pos_as_xyz
  1  'x, y, z'
loop_
 _atom_site_type_symbol
 _atom_site_label
 _atom_site_symmetry_multiplicity
 _atom_site_fract_x
 _atom_site_fract_y
 _atom_site_fract_z
 _atom_site_occupancy
 _atom_site_charge
  Mn  Mn1  1  0.500000  0.500000  0.500000  1.0  1.2519
  Co  Co2  1  0.215090  0.372450  0.414780  1.0  1.1037
  Co  Co3  1  0.784910  0.627550  0.585220  1.0  1.1033
  Co  Co4  1  0.000000  0.500000  0.500000  1.0  0.9961
  H  H5  1  0.217500  0.642700  0.663900  1.0  0.0779
  H  H6  1  0.301300  0.806100  0.767900  1.0  0.1161
  H  H7  1  0.541300  0.866500  0.646100  1.0  0.1355
  H  H8  1  0.456800  0.702400  0.542300  1.0  0.1071
  H  H9  1  0.181900  0.182900  0.570200  1.0  0.1087
  H  H10  1  0.215300  0.112400  0.672000  1.0  0.1319
  H  H11  1  0.560400  0.123500  0.782500  1.0  0.0738
  H  H12  1  0.554800  0.223200  0.849500  1.0  0.069
  H  H13  1  0.661700  0.084700  0.898200  1.0  0.0801
  H  H14  1  0.613200  0.080600  0.978100  1.0  0.0619
  H  H15  1  0.756100  0.393400  0.092300  1.0  0.1407
  H  H16  1  0.880200  0.457700  0.232900  1.0  0.1119
  H  H17  1  0.937200  0.197900  0.187700  1.0  0.1064
  H  H18  1  0.798800  0.126800  0.048300  1.0  0.1291
  H  H19  1  0.360000  0.135900  0.904800  1.0  0.0761
  H  H20  1  0.480500  0.220500  0.969100  1.0  0.0605
  H  H21  1  0.558400  0.249300  0.727200  1.0  0.1314
  H  H22  1  0.523600  0.327700  0.630900  1.0  0.1034
  H  H23  1  0.534900  0.382200  0.240800  1.0  0.109
  H  H24  1  0.557700  0.287000  0.110800  1.0  0.1253
  H  H25  1  0.262400  0.063700  0.069000  1.0  0.1311
  H  H26  1  0.237200  0.160000  0.194800  1.0  0.1103
  H  H27  1  0.350900  0.976400  0.807400  1.0  0.0657
  H  H28  1  0.432300  0.954100  0.877900  1.0  0.068
  H  H29  1  0.782500  0.357300  0.336100  1.0  0.0777
  H  H30  1  0.698700  0.193900  0.232100  1.0  0.1164
  H  H31  1  0.458700  0.133500  0.353900  1.0  0.1359
  H  H32  1  0.543200  0.297600  0.457700  1.0  0.1069
  H  H33  1  0.818100  0.817100  0.429800  1.0  0.1088
  H  H34  1  0.784700  0.887600  0.328000  1.0  0.1316
  H  H35  1  0.439600  0.876500  0.217500  1.0  0.0741
  H  H36  1  0.445200  0.776800  0.150500  1.0  0.0681
  H  H37  1  0.338300  0.915300  0.101800  1.0  0.0799
  H  H38  1  0.386800  0.919400  0.021900  1.0  0.0628
  H  H39  1  0.243900  0.606600  0.907700  1.0  0.1381
  H  H40  1  0.119800  0.542300  0.767100  1.0  0.1119
  H  H41  1  0.062800  0.802100  0.812300  1.0  0.1072
  H  H42  1  0.201200  0.873200  0.951700  1.0  0.1278
  H  H43  1  0.640000  0.864100  0.095200  1.0  0.0729
  H  H44  1  0.519500  0.779500  0.030900  1.0  0.0603
  H  H45  1  0.441600  0.750700  0.272800  1.0  0.1317
  H  H46  1  0.476400  0.672300  0.369100  1.0  0.103
  H  H47  1  0.465100  0.617800  0.759200  1.0  0.109
  H  H48  1  0.442300  0.713000  0.889200  1.0  0.1252
  H  H49  1  0.737600  0.936300  0.931000  1.0  0.1308
  H  H50  1  0.762800  0.840000  0.805200  1.0  0.1111
  H  H51  1  0.649100  0.023600  0.192600  1.0  0.0635
  H  H52  1  0.567700  0.045900  0.122100  1.0  0.0686
  C  C53  1  0.325700  0.656100  0.593100  1.0  -0.2057
  C  C54  1  0.283200  0.688200  0.659700  1.0  0.0068
  C  C55  1  0.332800  0.785500  0.722000  1.0  -0.286
  C  C56  1  0.475000  0.820700  0.649400  1.0  -0.2427
  C  C57  1  0.425000  0.723600  0.587800  1.0  0.0209
  C  C58  1  0.500800  0.099300  0.883100  1.0  -0.0414
  C  C59  1  0.350100  0.264700  0.591700  1.0  -0.1944
  C  C60  1  0.258700  0.198500  0.603500  1.0  -0.0047
  C  C61  1  0.278400  0.155200  0.662700  1.0  -0.2535
  C  C62  1  0.389900  0.174400  0.708500  1.0  0.3067
  C  C63  1  0.514700  0.149800  0.818500  1.0  0.0752
  C  C64  1  0.619900  0.113900  0.936500  1.0  0.0675
  C  C65  1  0.762500  0.253300  0.060200  1.0  0.2835
  C  C66  1  0.789500  0.352400  0.112800  1.0  -0.2168
  C  C67  1  0.865200  0.391000  0.195300  1.0  -0.0024
  C  C68  1  0.919300  0.333900  0.223600  1.0  -0.1674
  C  C69  1  0.897400  0.236400  0.169000  1.0  -0.0062
  C  C70  1  0.816100  0.194100  0.085600  1.0  -0.2348
  C  C71  1  0.437700  0.147300  0.940600  1.0  0.0649
  C  C72  1  0.481500  0.237200  0.696400  1.0  -0.3012
  C  C73  1  0.460300  0.282900  0.638400  1.0  -0.0006
  C  C74  1  0.369000  0.342400  0.312400  1.0  0.6965
  C  C75  1  0.385300  0.281500  0.230100  1.0  -0.1731
  C  C76  1  0.478700  0.317700  0.205400  1.0  0.0155
  C  C77  1  0.492900  0.261100  0.128400  1.0  -0.2358
  C  C78  1  0.411600  0.167600  0.078800  1.0  0.2793
  C  C79  1  0.317200  0.129100  0.103600  1.0  -0.227
  C  C80  1  0.302900  0.185600  0.178200  1.0  -0.0078
  C  C81  1  0.428000  0.851200  0.716300  1.0  0.3114
  C  C82  1  0.431900  0.987700  0.836200  1.0  0.0691
  C  C83  1  0.999100  0.376300  0.315800  1.0  0.7149
  C  C84  1  0.273100  0.552900  0.529500  1.0  0.6996
  C  C85  1  0.328200  0.314500  0.531300  1.0  0.7305
  C  C86  1  0.674300  0.343900  0.406900  1.0  -0.2048
  C  C87  1  0.716800  0.311800  0.340300  1.0  0.0114
  C  C88  1  0.667200  0.214500  0.278000  1.0  -0.2912
  C  C89  1  0.525000  0.179300  0.350600  1.0  -0.2424
  C  C90  1  0.575000  0.276400  0.412200  1.0  0.0234
  C  C91  1  0.499200  0.900700  0.116900  1.0  -0.0409
  C  C92  1  0.649900  0.735300  0.408300  1.0  -0.1933
  C  C93  1  0.741300  0.801500  0.396500  1.0  -0.0034
  C  C94  1  0.721600  0.844800  0.337300  1.0  -0.2435
  C  C95  1  0.610100  0.825600  0.291500  1.0  0.3149
  C  C96  1  0.485300  0.850200  0.181500  1.0  0.0767
  C  C97  1  0.380100  0.886100  0.063500  1.0  0.0686
  C  C98  1  0.237500  0.746700  0.939800  1.0  0.2836
  C  C99  1  0.210500  0.647600  0.887200  1.0  -0.2218
  C  C100  1  0.134800  0.609000  0.804700  1.0  -0.0137
  C  C101  1  0.080700  0.666100  0.776400  1.0  -0.1604
  C  C102  1  0.102600  0.763600  0.831000  1.0  -0.015
  C  C103  1  0.183900  0.805900  0.914400  1.0  -0.2395
  C  C104  1  0.562300  0.852700  0.059400  1.0  0.0671
  C  C105  1  0.518500  0.762800  0.303600  1.0  -0.3015
  C  C106  1  0.539700  0.717100  0.361600  1.0  0.005
  C  C107  1  0.631000  0.657600  0.687600  1.0  0.6958
  C  C108  1  0.614700  0.718500  0.769900  1.0  -0.1725
  C  C109  1  0.521300  0.682300  0.794600  1.0  0.0147
  C  C110  1  0.507100  0.738900  0.871600  1.0  -0.2318
  C  C111  1  0.588400  0.832400  0.921200  1.0  0.2848
  C  C112  1  0.682800  0.870900  0.896400  1.0  -0.2242
  C  C113  1  0.697100  0.814400  0.821800  1.0  -0.0081
  C  C114  1  0.572000  0.148800  0.283700  1.0  0.302
  C  C115  1  0.568100  0.012300  0.163800  1.0  0.069
  C  C116  1  0.000900  0.623700  0.684200  1.0  0.7264
  C  C117  1  0.726900  0.447100  0.470500  1.0  0.6988
  C  C118  1  0.671800  0.685500  0.468700  1.0  0.727
  O  O119  1  0.326690  0.517620  0.477730  1.0  -0.6615
  O  O120  1  0.412700  0.367510  0.517790  1.0  -0.6517
  O  O121  1  0.992700  0.452400  0.367180  1.0  -0.6272
  O  O122  1  0.401100  0.127800  0.765330  1.0  -0.276
  O  O123  1  0.681200  0.221000  0.982260  1.0  -0.2917
  O  O124  1  0.062100  0.329900  0.332830  1.0  -0.6183
  O  O125  1  0.225000  0.301500  0.495940  1.0  -0.5976
  O  O126  1  0.452800  0.421220  0.364820  1.0  -0.6368
  O  O127  1  0.274000  0.307660  0.324150  1.0  -0.594
  O  O128  1  0.176080  0.495430  0.525160  1.0  -0.6671
  O  O129  1  0.426900  0.105900  0.004610  1.0  -0.3091
  O  O130  1  0.485000  0.948070  0.773020  1.0  -0.276
  O  O131  1  0.673310  0.482380  0.522270  1.0  -0.6599
  O  O132  1  0.587300  0.632490  0.482210  1.0  -0.651
  O  O133  1  0.007300  0.547600  0.632820  1.0  -0.6255
  O  O134  1  0.598900  0.872200  0.234670  1.0  -0.2761
  O  O135  1  0.318800  0.779000  0.017740  1.0  -0.293
  O  O136  1  0.937900  0.670100  0.667170  1.0  -0.6209
  O  O137  1  0.775000  0.698500  0.504060  1.0  -0.5976
  O  O138  1  0.547200  0.578780  0.635180  1.0  -0.6382
  O  O139  1  0.726000  0.692340  0.675850  1.0  -0.595
  O  O140  1  0.823920  0.504570  0.474840  1.0  -0.6631
  O  O141  1  0.573100  0.894100  0.995390  1.0  -0.3088
  O  O142  1  0.515000  0.051930  0.226980  1.0  -0.2749
