# generated using pymatgen
data_ZnPH11C13(NO2)2
_symmetry_space_group_name_H-M   'P 1'
_cell_length_a   9.26710000
_cell_length_b   17.11980000
_cell_length_c   24.84160000
_cell_angle_alpha   90.00000000
_cell_angle_beta   90.00000000
_cell_angle_gamma   90.00000000
_symmetry_Int_Tables_number   1
_chemical_formula_structural   ZnPH11C13(NO2)2
_chemical_formula_sum   'Zn8 P8 H88 C104 N16 O32'
_cell_volume   3941.14216216
_cell_formula_units_Z   8
loop_
 _symmetry_equiv_pos_site_id
 _symmetry_equiv_pos_as_xyz
  1  'x, y, z'
loop_
 _atom_site_type_symbol
 _atom_site_label
 _atom_site_symmetry_multiplicity
 _atom_site_fract_x
 _atom_site_fract_y
 _atom_site_fract_z
 _atom_site_occupancy
 _atom_site_charge
  Zn  Zn1  1  0.181460  0.199980  0.249120  1.0  0.9359
  Zn  Zn2  1  0.818540  0.800020  0.249120  1.0  0.9354
  Zn  Zn3  1  0.318540  0.699980  0.250880  1.0  0.936
  Zn  Zn4  1  0.681460  0.300020  0.250880  1.0  0.9354
  Zn  Zn5  1  0.818540  0.800020  0.750880  1.0  0.9355
  Zn  Zn6  1  0.181460  0.199980  0.750880  1.0  0.9359
  Zn  Zn7  1  0.681460  0.300020  0.749120  1.0  0.9354
  Zn  Zn8  1  0.318540  0.699980  0.749120  1.0  0.936
  P  P9  1  0.844960  0.142130  0.245680  1.0  1.7162
  P  P10  1  0.155040  0.857870  0.245680  1.0  1.7168
  P  P11  1  0.655040  0.642130  0.254320  1.0  1.7165
  P  P12  1  0.344960  0.357870  0.254320  1.0  1.7169
  P  P13  1  0.155040  0.857870  0.754320  1.0  1.7172
  P  P14  1  0.844960  0.142130  0.754320  1.0  1.7164
  P  P15  1  0.344960  0.357870  0.745680  1.0  1.7166
  P  P16  1  0.655040  0.642130  0.745680  1.0  1.7162
  H  H17  1  0.173700  0.059200  0.426000  1.0  0.0914
  H  H18  1  0.579900  0.090600  0.361700  1.0  0.0747
  H  H19  1  0.464100  0.156600  0.288700  1.0  0.0511
  H  H20  1  0.079600  0.119200  0.348400  1.0  0.0569
  H  H21  1  0.179000  0.049100  0.201500  1.0  0.0328
  H  H22  1  0.307200  0.976700  0.127700  1.0  0.0721
  H  H23  1  0.492200  0.180400  0.085000  1.0  0.0861
  H  H24  1  0.395400  0.234900  0.164700  1.0  0.0461
  H  H25  1  0.839500  0.091500  0.317300  1.0  0.3727
  H  H26  1  0.879100  0.131300  0.160200  1.0  0.2815
  H  H27  1  0.826300  0.940800  0.426000  1.0  0.0911
  H  H28  1  0.420100  0.909400  0.361700  1.0  0.0738
  H  H29  1  0.535900  0.843400  0.288700  1.0  0.0513
  H  H30  1  0.920400  0.880800  0.348400  1.0  0.0555
  H  H31  1  0.821000  0.950900  0.201500  1.0  0.0332
  H  H32  1  0.692800  0.023300  0.127700  1.0  0.0731
  H  H33  1  0.507800  0.819600  0.085000  1.0  0.0856
  H  H34  1  0.604600  0.765100  0.164700  1.0  0.0462
  H  H35  1  0.160500  0.908500  0.317300  1.0  0.3725
  H  H36  1  0.120900  0.868700  0.160200  1.0  0.281
  H  H37  1  0.326300  0.559200  0.074000  1.0  0.0908
  H  H38  1  0.920100  0.590600  0.138300  1.0  0.0734
  H  H39  1  0.035900  0.656600  0.211300  1.0  0.0509
  H  H40  1  0.420400  0.619200  0.151600  1.0  0.0555
  H  H41  1  0.321000  0.549100  0.298500  1.0  0.0338
  H  H42  1  0.192800  0.476700  0.372300  1.0  0.072
  H  H43  1  0.007800  0.680400  0.415000  1.0  0.0864
  H  H44  1  0.104600  0.734900  0.335300  1.0  0.0461
  H  H45  1  0.660500  0.591500  0.182700  1.0  0.374
  H  H46  1  0.620900  0.631300  0.339800  1.0  0.2836
  H  H47  1  0.673700  0.440800  0.074000  1.0  0.0911
  H  H48  1  0.079900  0.409400  0.138300  1.0  0.0748
  H  H49  1  0.964100  0.343400  0.211300  1.0  0.0513
  H  H50  1  0.579600  0.380800  0.151600  1.0  0.0573
  H  H51  1  0.679000  0.450900  0.298500  1.0  0.0338
  H  H52  1  0.807200  0.523300  0.372300  1.0  0.0725
  H  H53  1  0.992200  0.319600  0.415000  1.0  0.0859
  H  H54  1  0.895400  0.265100  0.335300  1.0  0.0459
  H  H55  1  0.339500  0.408500  0.182700  1.0  0.3736
  H  H56  1  0.379100  0.368700  0.339800  1.0  0.2813
  H  H57  1  0.826300  0.940800  0.574000  1.0  0.091
  H  H58  1  0.420100  0.909400  0.638300  1.0  0.0734
  H  H59  1  0.535900  0.843400  0.711300  1.0  0.0513
  H  H60  1  0.920400  0.880800  0.651600  1.0  0.0555
  H  H61  1  0.821000  0.950900  0.798500  1.0  0.0339
  H  H62  1  0.692800  0.023300  0.872300  1.0  0.0724
  H  H63  1  0.507800  0.819600  0.915000  1.0  0.0859
  H  H64  1  0.604600  0.765100  0.835300  1.0  0.0462
  H  H65  1  0.160500  0.908500  0.682700  1.0  0.3734
  H  H66  1  0.120900  0.868700  0.839800  1.0  0.2828
  H  H67  1  0.173700  0.059200  0.574000  1.0  0.0908
  H  H68  1  0.579900  0.090600  0.638300  1.0  0.0747
  H  H69  1  0.464100  0.156600  0.711300  1.0  0.051
  H  H70  1  0.079600  0.119200  0.651600  1.0  0.0574
  H  H71  1  0.179000  0.049100  0.798500  1.0  0.0335
  H  H72  1  0.307200  0.976700  0.872300  1.0  0.0727
  H  H73  1  0.492200  0.180400  0.915000  1.0  0.0863
  H  H74  1  0.395400  0.234900  0.835300  1.0  0.0456
  H  H75  1  0.839500  0.091500  0.682700  1.0  0.3743
  H  H76  1  0.879100  0.131300  0.839800  1.0  0.2819
  H  H77  1  0.673700  0.440800  0.926000  1.0  0.0912
  H  H78  1  0.079900  0.409400  0.861700  1.0  0.075
  H  H79  1  0.964100  0.343400  0.788700  1.0  0.0511
  H  H80  1  0.579600  0.380800  0.848400  1.0  0.057
  H  H81  1  0.679000  0.450900  0.701500  1.0  0.0328
  H  H82  1  0.807200  0.523300  0.627700  1.0  0.0725
  H  H83  1  0.992200  0.319600  0.585000  1.0  0.0855
  H  H84  1  0.895400  0.265100  0.664700  1.0  0.046
  H  H85  1  0.339500  0.408500  0.817300  1.0  0.3725
  H  H86  1  0.379100  0.368700  0.660200  1.0  0.2808
  H  H87  1  0.326300  0.559200  0.926000  1.0  0.0913
  H  H88  1  0.920100  0.590600  0.861700  1.0  0.0736
  H  H89  1  0.035900  0.656600  0.788700  1.0  0.0513
  H  H90  1  0.420400  0.619200  0.848400  1.0  0.0552
  H  H91  1  0.321000  0.549100  0.701500  1.0  0.0333
  H  H92  1  0.192800  0.476700  0.627700  1.0  0.0723
  H  H93  1  0.007800  0.680400  0.585000  1.0  0.0864
  H  H94  1  0.104600  0.734900  0.664700  1.0  0.0465
  H  H95  1  0.660500  0.591500  0.817300  1.0  0.3726
  H  H96  1  0.620900  0.631300  0.660200  1.0  0.2821
  H  H97  1  0.326600  0.091400  0.500000  1.0  0.1248
  H  H98  1  0.673400  0.908600  0.500000  1.0  0.1239
  H  H99  1  0.173400  0.591400  0.000000  1.0  0.1232
  H  H100  1  0.826600  0.408600  0.000000  1.0  0.1251
  H  H101  1  0.364200  0.113800  0.000000  1.0  0.0797
  H  H102  1  0.635800  0.886200  0.000000  1.0  0.0791
  H  H103  1  0.135800  0.613800  0.500000  1.0  0.0791
  H  H104  1  0.864200  0.386200  0.500000  1.0  0.0788
  C  C105  1  0.180300  0.115000  0.352720  1.0  0.1337
  C  C106  1  0.234300  0.075100  0.396550  1.0  -0.1968
  C  C107  1  0.383100  0.064610  0.401200  1.0  0.0424
  C  C108  1  0.469600  0.092000  0.359760  1.0  -0.1541
  C  C109  1  0.408400  0.130800  0.316960  1.0  0.1119
  C  C110  1  0.444300  0.028080  0.450670  1.0  -0.0253
  C  C111  1  0.250200  0.072400  0.175060  1.0  0.0826
  C  C112  1  0.311500  0.034000  0.132420  1.0  -0.1335
  C  C113  1  0.404100  0.072520  0.098810  1.0  0.0541
  C  C114  1  0.436500  0.149900  0.110920  1.0  -0.1972
  C  C115  1  0.371200  0.184800  0.154250  1.0  0.129
  C  C116  1  0.461000  0.034980  0.048950  1.0  -0.0008
  C  C117  1  0.819700  0.885000  0.352720  1.0  0.1329
  C  C118  1  0.765700  0.924900  0.396550  1.0  -0.197
  C  C119  1  0.616900  0.935390  0.401200  1.0  0.0418
  C  C120  1  0.530400  0.908000  0.359760  1.0  -0.1554
  C  C121  1  0.591600  0.869200  0.316960  1.0  0.1128
  C  C122  1  0.555700  0.971920  0.450670  1.0  -0.0228
  C  C123  1  0.749800  0.927600  0.175060  1.0  0.0828
  C  C124  1  0.688500  0.966000  0.132420  1.0  -0.134
  C  C125  1  0.595900  0.927480  0.098810  1.0  0.0532
  C  C126  1  0.563500  0.850100  0.110920  1.0  -0.1979
  C  C127  1  0.628800  0.815200  0.154250  1.0  0.1298
  C  C128  1  0.539000  0.965020  0.048950  1.0  0.0
  C  C129  1  0.319700  0.615000  0.147280  1.0  0.1323
  C  C130  1  0.265700  0.575100  0.103450  1.0  -0.1968
  C  C131  1  0.116900  0.564610  0.098800  1.0  0.0418
  C  C132  1  0.030400  0.592000  0.140240  1.0  -0.1567
  C  C133  1  0.091600  0.630800  0.183040  1.0  0.1133
  C  C134  1  0.055700  0.528080  0.049330  1.0  -0.0255
  C  C135  1  0.249800  0.572400  0.324940  1.0  0.0809
  C  C136  1  0.188500  0.534000  0.367580  1.0  -0.1329
  C  C137  1  0.095900  0.572520  0.401190  1.0  0.0544
  C  C138  1  0.063500  0.649900  0.389080  1.0  -0.1989
  C  C139  1  0.128800  0.684800  0.345750  1.0  0.129
  C  C140  1  0.039000  0.534980  0.451050  1.0  0.0003
  C  C141  1  0.680300  0.385000  0.147280  1.0  0.1333
  C  C142  1  0.734300  0.424900  0.103450  1.0  -0.1969
  C  C143  1  0.883100  0.435390  0.098800  1.0  0.0415
  C  C144  1  0.969600  0.408000  0.140240  1.0  -0.1543
  C  C145  1  0.908400  0.369200  0.183040  1.0  0.1135
  C  C146  1  0.944300  0.471920  0.049330  1.0  -0.0217
  C  C147  1  0.750200  0.427600  0.324940  1.0  0.0817
  C  C148  1  0.811500  0.466000  0.367580  1.0  -0.1334
  C  C149  1  0.904100  0.427480  0.401190  1.0  0.056
  C  C150  1  0.936500  0.350100  0.389080  1.0  -0.1967
  C  C151  1  0.871200  0.315200  0.345750  1.0  0.1296
  C  C152  1  0.961000  0.465020  0.451050  1.0  -0.0008
  C  C153  1  0.819700  0.885000  0.647280  1.0  0.1323
  C  C154  1  0.765700  0.924900  0.603450  1.0  -0.197
  C  C155  1  0.616900  0.935390  0.598800  1.0  0.041
  C  C156  1  0.530400  0.908000  0.640240  1.0  -0.1557
  C  C157  1  0.591600  0.869200  0.683040  1.0  0.1138
  C  C158  1  0.555700  0.971920  0.549330  1.0  -0.0257
  C  C159  1  0.749800  0.927600  0.824940  1.0  0.0812
  C  C160  1  0.688500  0.966000  0.867580  1.0  -0.1332
  C  C161  1  0.595900  0.927480  0.901190  1.0  0.0547
  C  C162  1  0.563500  0.850100  0.889080  1.0  -0.1981
  C  C163  1  0.628800  0.815200  0.845750  1.0  0.1295
  C  C164  1  0.539000  0.965020  0.951050  1.0  0.0002
  C  C165  1  0.180300  0.115000  0.647280  1.0  0.133
  C  C166  1  0.234300  0.075100  0.603450  1.0  -0.1966
  C  C167  1  0.383100  0.064610  0.598800  1.0  0.042
  C  C168  1  0.469600  0.092000  0.640240  1.0  -0.1546
  C  C169  1  0.408400  0.130800  0.683040  1.0  0.1129
  C  C170  1  0.444300  0.028080  0.549330  1.0  -0.0249
  C  C171  1  0.250200  0.072400  0.824940  1.0  0.0813
  C  C172  1  0.311500  0.034000  0.867580  1.0  -0.1338
  C  C173  1  0.404100  0.072520  0.901190  1.0  0.0556
  C  C174  1  0.436500  0.149900  0.889080  1.0  -0.1971
  C  C175  1  0.371200  0.184800  0.845750  1.0  0.1292
  C  C176  1  0.461000  0.034980  0.951050  1.0  -0.0007
  C  C177  1  0.680300  0.385000  0.852720  1.0  0.1341
  C  C178  1  0.734300  0.424900  0.896550  1.0  -0.1971
  C  C179  1  0.883100  0.435390  0.901200  1.0  0.0422
  C  C180  1  0.969600  0.408000  0.859760  1.0  -0.154
  C  C181  1  0.908400  0.369200  0.816960  1.0  0.1121
  C  C182  1  0.944300  0.471920  0.950670  1.0  -0.0254
  C  C183  1  0.750200  0.427600  0.675060  1.0  0.0828
  C  C184  1  0.811500  0.466000  0.632420  1.0  -0.1337
  C  C185  1  0.904100  0.427480  0.598810  1.0  0.0545
  C  C186  1  0.936500  0.350100  0.610920  1.0  -0.1971
  C  C187  1  0.871200  0.315200  0.654250  1.0  0.1298
  C  C188  1  0.961000  0.465020  0.548950  1.0  -0.0009
  C  C189  1  0.319700  0.615000  0.852720  1.0  0.133
  C  C190  1  0.265700  0.575100  0.896550  1.0  -0.1968
  C  C191  1  0.116900  0.564610  0.901200  1.0  0.0425
  C  C192  1  0.030400  0.592000  0.859760  1.0  -0.1562
  C  C193  1  0.091600  0.630800  0.816960  1.0  0.1127
  C  C194  1  0.055700  0.528080  0.950670  1.0  -0.026
  C  C195  1  0.249800  0.572400  0.675060  1.0  0.0826
  C  C196  1  0.188500  0.534000  0.632420  1.0  -0.1331
  C  C197  1  0.095900  0.572520  0.598810  1.0  0.0529
  C  C198  1  0.063500  0.649900  0.610920  1.0  -0.1983
  C  C199  1  0.128800  0.684800  0.654250  1.0  0.129
  C  C200  1  0.039000  0.534980  0.548950  1.0  0.0
  C  C201  1  0.390800  0.053300  0.500000  1.0  -0.0535
  C  C202  1  0.609200  0.946700  0.500000  1.0  -0.0532
  C  C203  1  0.109200  0.553300  0.000000  1.0  -0.053
  C  C204  1  0.890800  0.446700  0.000000  1.0  -0.0537
  C  C205  1  0.422400  0.068300  0.000000  1.0  -0.1599
  C  C206  1  0.577600  0.931700  0.000000  1.0  -0.1603
  C  C207  1  0.077600  0.568300  0.500000  1.0  -0.16
  C  C208  1  0.922400  0.431700  0.500000  1.0  -0.1608
  N  N209  1  0.264900  0.143240  0.313140  1.0  -0.3732
  N  N210  1  0.277800  0.147070  0.186150  1.0  -0.3397
  N  N211  1  0.735100  0.856760  0.313140  1.0  -0.3744
  N  N212  1  0.722200  0.852930  0.186150  1.0  -0.3392
  N  N213  1  0.235100  0.643240  0.186860  1.0  -0.3736
  N  N214  1  0.222200  0.647070  0.313850  1.0  -0.3397
  N  N215  1  0.764900  0.356760  0.186860  1.0  -0.3745
  N  N216  1  0.777800  0.352930  0.313850  1.0  -0.3399
  N  N217  1  0.735100  0.856760  0.686860  1.0  -0.3745
  N  N218  1  0.722200  0.852930  0.813850  1.0  -0.3396
  N  N219  1  0.264900  0.143240  0.686860  1.0  -0.3737
  N  N220  1  0.277800  0.147070  0.813850  1.0  -0.3397
  N  N221  1  0.764900  0.356760  0.813140  1.0  -0.3743
  N  N222  1  0.777800  0.352930  0.686150  1.0  -0.3399
  N  N223  1  0.235100  0.643240  0.813140  1.0  -0.373
  N  N224  1  0.222200  0.647070  0.686150  1.0  -0.3391
  O  O225  1  0.976600  0.191370  0.255230  1.0  -0.8562
  O  O226  1  0.838300  0.071090  0.285210  1.0  -0.6469
  O  O227  1  0.854700  0.099780  0.190750  1.0  -0.5839
  O  O228  1  0.710100  0.189860  0.250910  1.0  -0.8575
  O  O229  1  0.023400  0.808630  0.255230  1.0  -0.8557
  O  O230  1  0.161700  0.928910  0.285210  1.0  -0.6463
  O  O231  1  0.145300  0.900220  0.190750  1.0  -0.584
  O  O232  1  0.289900  0.810140  0.250910  1.0  -0.8578
  O  O233  1  0.523400  0.691370  0.244770  1.0  -0.8555
  O  O234  1  0.661700  0.571090  0.214790  1.0  -0.6464
  O  O235  1  0.645300  0.599780  0.309250  1.0  -0.5858
  O  O236  1  0.789900  0.689860  0.249090  1.0  -0.8581
  O  O237  1  0.476600  0.308630  0.244770  1.0  -0.8563
  O  O238  1  0.338300  0.428910  0.214790  1.0  -0.646
  O  O239  1  0.354700  0.400220  0.309250  1.0  -0.5862
  O  O240  1  0.210100  0.310140  0.249090  1.0  -0.8569
  O  O241  1  0.023400  0.808630  0.744770  1.0  -0.8555
  O  O242  1  0.161700  0.928910  0.714790  1.0  -0.6463
  O  O243  1  0.145300  0.900220  0.809250  1.0  -0.5864
  O  O244  1  0.289900  0.810140  0.749090  1.0  -0.8578
  O  O245  1  0.976600  0.191370  0.744770  1.0  -0.8559
  O  O246  1  0.838300  0.071090  0.714790  1.0  -0.6463
  O  O247  1  0.854700  0.099780  0.809250  1.0  -0.5857
  O  O248  1  0.710100  0.189860  0.749090  1.0  -0.8573
  O  O249  1  0.476600  0.308630  0.755230  1.0  -0.8566
  O  O250  1  0.338300  0.428910  0.785210  1.0  -0.646
  O  O251  1  0.354700  0.400220  0.690750  1.0  -0.5841
  O  O252  1  0.210100  0.310140  0.750910  1.0  -0.8571
  O  O253  1  0.523400  0.691370  0.755230  1.0  -0.8557
  O  O254  1  0.661700  0.571090  0.785210  1.0  -0.6471
  O  O255  1  0.645300  0.599780  0.690750  1.0  -0.5836
  O  O256  1  0.789900  0.689860  0.750910  1.0  -0.8582
