# generated using pymatgen
data_CoH20C24N11
_symmetry_space_group_name_H-M   'P 1'
_cell_length_a   16.81300000
_cell_length_b   12.98600000
_cell_length_c   11.84500000
_cell_angle_alpha   90.00000000
_cell_angle_beta   107.64000000
_cell_angle_gamma   90.00000000
_symmetry_Int_Tables_number   1
_chemical_formula_structural   CoH20C24N11
_chemical_formula_sum   'Co4 H80 C96 N44'
_cell_volume   2464.55867889
_cell_formula_units_Z   4
loop_
 _symmetry_equiv_pos_site_id
 _symmetry_equiv_pos_as_xyz
  1  'x, y, z'
loop_
 _atom_site_type_symbol
 _atom_site_label
 _atom_site_symmetry_multiplicity
 _atom_site_fract_x
 _atom_site_fract_y
 _atom_site_fract_z
 _atom_site_occupancy
 _atom_site_charge
  Co  Co1  1  0.000000  0.000000  0.000000  1.0  0.5196
  Co  Co2  1  0.500000  0.500000  0.000000  1.0  0.5196
  Co  Co3  1  0.000000  0.000000  0.500000  1.0  0.5196
  Co  Co4  1  0.500000  0.500000  0.500000  1.0  0.5196
  H  H5  1  0.893200  0.162200  0.114400  1.0  0.1038
  H  H6  1  0.641400  0.041900  0.087300  1.0  0.1072
  H  H7  1  0.581100  0.122600  0.449600  1.0  0.1255
  H  H8  1  0.608600  0.403900  0.342300  1.0  0.0809
  H  H9  1  0.577000  0.095700  0.223500  1.0  0.1188
  H  H10  1  0.514900  0.243700  0.550000  1.0  0.0986
  H  H11  1  0.801900  0.975300  0.848200  1.0  0.1023
  H  H12  1  0.686000  0.024600  0.919700  1.0  0.1305
  H  H13  1  0.748400  0.317200  0.331700  1.0  0.109
  H  H14  1  0.813000  0.263000  0.195400  1.0  0.1164
  H  H15  1  0.393200  0.662200  0.114400  1.0  0.1038
  H  H16  1  0.141400  0.541900  0.087300  1.0  0.1072
  H  H17  1  0.081100  0.622600  0.449600  1.0  0.1255
  H  H18  1  0.108600  0.903900  0.342300  1.0  0.0809
  H  H19  1  0.077000  0.595700  0.223500  1.0  0.1188
  H  H20  1  0.014900  0.743700  0.550000  1.0  0.0986
  H  H21  1  0.301900  0.475300  0.848200  1.0  0.1023
  H  H22  1  0.186000  0.524600  0.919700  1.0  0.1305
  H  H23  1  0.248400  0.817200  0.331700  1.0  0.109
  H  H24  1  0.313000  0.763000  0.195400  1.0  0.1164
  H  H25  1  0.106800  0.162200  0.385600  1.0  0.1044
  H  H26  1  0.358600  0.041900  0.412700  1.0  0.1076
  H  H27  1  0.418900  0.122600  0.050400  1.0  0.1251
  H  H28  1  0.391400  0.403900  0.157700  1.0  0.0811
  H  H29  1  0.423000  0.095700  0.276500  1.0  0.1191
  H  H30  1  0.485100  0.243700  0.950000  1.0  0.0993
  H  H31  1  0.198100  0.975300  0.651800  1.0  0.1026
  H  H32  1  0.314000  0.024600  0.580300  1.0  0.1312
  H  H33  1  0.251600  0.317200  0.168300  1.0  0.1094
  H  H34  1  0.187000  0.263000  0.304600  1.0  0.1164
  H  H35  1  0.606800  0.662200  0.385600  1.0  0.1044
  H  H36  1  0.858600  0.541900  0.412700  1.0  0.1076
  H  H37  1  0.918900  0.622600  0.050400  1.0  0.1251
  H  H38  1  0.891400  0.903900  0.157700  1.0  0.0811
  H  H39  1  0.923000  0.595700  0.276500  1.0  0.1191
  H  H40  1  0.985100  0.743700  0.950000  1.0  0.0993
  H  H41  1  0.698100  0.475300  0.651800  1.0  0.1026
  H  H42  1  0.814000  0.524600  0.580300  1.0  0.1312
  H  H43  1  0.751600  0.817200  0.168300  1.0  0.1094
  H  H44  1  0.687000  0.763000  0.304600  1.0  0.1164
  H  H45  1  0.106800  0.837800  0.885600  1.0  0.1042
  H  H46  1  0.358600  0.958100  0.912700  1.0  0.1077
  H  H47  1  0.418900  0.877400  0.550400  1.0  0.1253
  H  H48  1  0.391400  0.596100  0.657700  1.0  0.0814
  H  H49  1  0.423000  0.904300  0.776500  1.0  0.1193
  H  H50  1  0.485100  0.756300  0.450000  1.0  0.0993
  H  H51  1  0.198100  0.024700  0.151800  1.0  0.1024
  H  H52  1  0.314000  0.975400  0.080300  1.0  0.1311
  H  H53  1  0.251600  0.682800  0.668300  1.0  0.1092
  H  H54  1  0.187000  0.737000  0.804600  1.0  0.1174
  H  H55  1  0.606800  0.337800  0.885600  1.0  0.1042
  H  H56  1  0.858600  0.458100  0.912700  1.0  0.1077
  H  H57  1  0.918900  0.377400  0.550400  1.0  0.1253
  H  H58  1  0.891400  0.096100  0.657700  1.0  0.0814
  H  H59  1  0.923000  0.404300  0.776500  1.0  0.1193
  H  H60  1  0.985100  0.256300  0.450000  1.0  0.0993
  H  H61  1  0.698100  0.524700  0.151800  1.0  0.1024
  H  H62  1  0.814000  0.475400  0.080300  1.0  0.1311
  H  H63  1  0.751600  0.182800  0.668300  1.0  0.1092
  H  H64  1  0.687000  0.237000  0.804600  1.0  0.1174
  H  H65  1  0.893200  0.837800  0.614400  1.0  0.1041
  H  H66  1  0.641400  0.958100  0.587300  1.0  0.1079
  H  H67  1  0.581100  0.877400  0.949600  1.0  0.125
  H  H68  1  0.608600  0.596100  0.842300  1.0  0.0808
  H  H69  1  0.577000  0.904300  0.723500  1.0  0.119
  H  H70  1  0.514900  0.756300  0.050000  1.0  0.0986
  H  H71  1  0.801900  0.024700  0.348200  1.0  0.1027
  H  H72  1  0.686000  0.975400  0.419700  1.0  0.1307
  H  H73  1  0.748400  0.682800  0.831700  1.0  0.1092
  H  H74  1  0.813000  0.737000  0.695400  1.0  0.1182
  H  H75  1  0.393200  0.337800  0.614400  1.0  0.1041
  H  H76  1  0.141400  0.458100  0.587300  1.0  0.1079
  H  H77  1  0.081100  0.377400  0.949600  1.0  0.125
  H  H78  1  0.108600  0.096100  0.842300  1.0  0.0808
  H  H79  1  0.077000  0.404300  0.723500  1.0  0.119
  H  H80  1  0.014900  0.256300  0.050000  1.0  0.0986
  H  H81  1  0.301900  0.524700  0.348200  1.0  0.1027
  H  H82  1  0.186000  0.475400  0.419700  1.0  0.1307
  H  H83  1  0.248400  0.182800  0.831700  1.0  0.1092
  H  H84  1  0.313000  0.237000  0.695400  1.0  0.1182
  C  C85  1  0.856560  0.121100  0.057600  1.0  0.1319
  C  C86  1  0.655230  0.213800  0.288500  1.0  0.1242
  C  C87  1  0.733040  0.148500  0.127200  1.0  0.0705
  C  C88  1  0.662590  0.097800  0.136200  1.0  -0.1447
  C  C89  1  0.578900  0.193800  0.440400  1.0  -0.1262
  C  C90  1  0.593340  0.349100  0.381800  1.0  0.1574
  C  C91  1  0.623950  0.130100  0.217000  1.0  -0.1775
  C  C92  1  0.541970  0.261100  0.494800  1.0  0.0471
  C  C93  1  0.805680  0.019000  0.911800  1.0  0.0473
  C  C94  1  0.741190  0.045700  0.950400  1.0  -0.1364
  C  C95  1  0.726360  0.262300  0.281600  1.0  -0.1478
  C  C96  1  0.765160  0.229800  0.200300  1.0  -0.1396
  C  C97  1  0.356560  0.621100  0.057600  1.0  0.1319
  C  C98  1  0.155230  0.713800  0.288500  1.0  0.1242
  C  C99  1  0.233040  0.648500  0.127200  1.0  0.0705
  C  C100  1  0.162590  0.597800  0.136200  1.0  -0.1447
  C  C101  1  0.078900  0.693800  0.440400  1.0  -0.1262
  C  C102  1  0.093340  0.849100  0.381800  1.0  0.1574
  C  C103  1  0.123950  0.630100  0.217000  1.0  -0.1775
  C  C104  1  0.041970  0.761100  0.494800  1.0  0.0471
  C  C105  1  0.305680  0.519000  0.911800  1.0  0.0473
  C  C106  1  0.241190  0.545700  0.950400  1.0  -0.1364
  C  C107  1  0.226360  0.762300  0.281600  1.0  -0.1478
  C  C108  1  0.265160  0.729800  0.200300  1.0  -0.1396
  C  C109  1  0.143440  0.121100  0.442400  1.0  0.1321
  C  C110  1  0.344770  0.213800  0.211500  1.0  0.1249
  C  C111  1  0.266960  0.148500  0.372800  1.0  0.0703
  C  C112  1  0.337410  0.097800  0.363800  1.0  -0.145
  C  C113  1  0.421100  0.193800  0.059600  1.0  -0.1269
  C  C114  1  0.406660  0.349100  0.118200  1.0  0.1572
  C  C115  1  0.376050  0.130100  0.283000  1.0  -0.1795
  C  C116  1  0.458030  0.261100  0.005200  1.0  0.0475
  C  C117  1  0.194320  0.019000  0.588200  1.0  0.0477
  C  C118  1  0.258810  0.045700  0.549600  1.0  -0.1381
  C  C119  1  0.273640  0.262300  0.218400  1.0  -0.1469
  C  C120  1  0.234840  0.229800  0.299700  1.0  -0.1383
  C  C121  1  0.643440  0.621100  0.442400  1.0  0.1321
  C  C122  1  0.844770  0.713800  0.211500  1.0  0.1249
  C  C123  1  0.766960  0.648500  0.372800  1.0  0.0703
  C  C124  1  0.837410  0.597800  0.363800  1.0  -0.145
  C  C125  1  0.921100  0.693800  0.059600  1.0  -0.1269
  C  C126  1  0.906660  0.849100  0.118200  1.0  0.1572
  C  C127  1  0.876050  0.630100  0.283000  1.0  -0.1795
  C  C128  1  0.958030  0.761100  0.005200  1.0  0.0475
  C  C129  1  0.694320  0.519000  0.588200  1.0  0.0477
  C  C130  1  0.758810  0.545700  0.549600  1.0  -0.1381
  C  C131  1  0.773640  0.762300  0.218400  1.0  -0.1469
  C  C132  1  0.734840  0.729800  0.299700  1.0  -0.1383
  C  C133  1  0.143440  0.878900  0.942400  1.0  0.1326
  C  C134  1  0.344770  0.786200  0.711500  1.0  0.1244
  C  C135  1  0.266960  0.851500  0.872800  1.0  0.0702
  C  C136  1  0.337410  0.902200  0.863800  1.0  -0.1446
  C  C137  1  0.421100  0.806200  0.559600  1.0  -0.126
  C  C138  1  0.406660  0.650900  0.618200  1.0  0.1575
  C  C139  1  0.376050  0.869900  0.783000  1.0  -0.1787
  C  C140  1  0.458030  0.738900  0.505200  1.0  0.0478
  C  C141  1  0.194320  0.981000  0.088200  1.0  0.0485
  C  C142  1  0.258810  0.954300  0.049600  1.0  -0.138
  C  C143  1  0.273640  0.737700  0.718400  1.0  -0.1467
  C  C144  1  0.234840  0.770200  0.799700  1.0  -0.1384
  C  C145  1  0.643440  0.378900  0.942400  1.0  0.1326
  C  C146  1  0.844770  0.286200  0.711500  1.0  0.1244
  C  C147  1  0.766960  0.351500  0.872800  1.0  0.0702
  C  C148  1  0.837410  0.402200  0.863800  1.0  -0.1446
  C  C149  1  0.921100  0.306200  0.559600  1.0  -0.126
  C  C150  1  0.906660  0.150900  0.618200  1.0  0.1575
  C  C151  1  0.876050  0.369900  0.783000  1.0  -0.1787
  C  C152  1  0.958030  0.238900  0.505200  1.0  0.0478
  C  C153  1  0.694320  0.481000  0.088200  1.0  0.0485
  C  C154  1  0.758810  0.454300  0.049600  1.0  -0.138
  C  C155  1  0.773640  0.237700  0.718400  1.0  -0.1467
  C  C156  1  0.734840  0.270200  0.799700  1.0  -0.1384
  C  C157  1  0.856560  0.878900  0.557600  1.0  0.1322
  C  C158  1  0.655230  0.786200  0.788500  1.0  0.1237
  C  C159  1  0.733040  0.851500  0.627200  1.0  0.0704
  C  C160  1  0.662590  0.902200  0.636200  1.0  -0.1433
  C  C161  1  0.578900  0.806200  0.940400  1.0  -0.1262
  C  C162  1  0.593340  0.650900  0.881800  1.0  0.1576
  C  C163  1  0.623950  0.869900  0.717000  1.0  -0.1765
  C  C164  1  0.541970  0.738900  0.994800  1.0  0.0475
  C  C165  1  0.805680  0.981000  0.411800  1.0  0.0479
  C  C166  1  0.741190  0.954300  0.450400  1.0  -0.1363
  C  C167  1  0.726360  0.737700  0.781600  1.0  -0.147
  C  C168  1  0.765160  0.770200  0.700300  1.0  -0.1401
  C  C169  1  0.356560  0.378900  0.557600  1.0  0.1322
  C  C170  1  0.155230  0.286200  0.788500  1.0  0.1237
  C  C171  1  0.233040  0.351500  0.627200  1.0  0.0704
  C  C172  1  0.162590  0.402200  0.636200  1.0  -0.1433
  C  C173  1  0.078900  0.306200  0.940400  1.0  -0.1262
  C  C174  1  0.093340  0.150900  0.881800  1.0  0.1576
  C  C175  1  0.123950  0.369900  0.717000  1.0  -0.1765
  C  C176  1  0.041970  0.238900  0.994800  1.0  0.0475
  C  C177  1  0.305680  0.481000  0.411800  1.0  0.0479
  C  C178  1  0.241190  0.454300  0.450400  1.0  -0.1363
  C  C179  1  0.226360  0.237700  0.781600  1.0  -0.147
  C  C180  1  0.265160  0.270200  0.700300  1.0  -0.1401
  N  N181  1  0.039370  0.047080  0.183220  1.0  -0.5153
  N  N182  1  0.878300  0.065350  0.979300  1.0  -0.4058
  N  N183  1  0.774080  0.111420  0.045600  1.0  0.035
  N  N184  1  0.612680  0.250490  0.368640  1.0  0.0369
  N  N185  1  0.550150  0.359030  0.457050  1.0  -0.3778
  N  N186  1  0.539370  0.547080  0.183220  1.0  -0.5153
  N  N187  1  0.378300  0.565350  0.979300  1.0  -0.4058
  N  N188  1  0.274080  0.611420  0.045600  1.0  0.035
  N  N189  1  0.112680  0.750490  0.368640  1.0  0.0369
  N  N190  1  0.050150  0.859030  0.457050  1.0  -0.3778
  N  N191  1  0.960630  0.047080  0.316780  1.0  -0.5144
  N  N192  1  0.121700  0.065350  0.520700  1.0  -0.4061
  N  N193  1  0.225920  0.111420  0.454400  1.0  0.0355
  N  N194  1  0.387320  0.250490  0.131360  1.0  0.0368
  N  N195  1  0.449850  0.359030  0.042950  1.0  -0.3775
  N  N196  1  0.460630  0.547080  0.316780  1.0  -0.5144
  N  N197  1  0.621700  0.565350  0.520700  1.0  -0.4061
  N  N198  1  0.725920  0.611420  0.454400  1.0  0.0355
  N  N199  1  0.887320  0.750490  0.131360  1.0  0.0368
  N  N200  1  0.949850  0.859030  0.042950  1.0  -0.3775
  N  N201  1  0.960630  0.952920  0.816780  1.0  -0.5145
  N  N202  1  0.121700  0.934650  0.020700  1.0  -0.4062
  N  N203  1  0.225920  0.888580  0.954400  1.0  0.0354
  N  N204  1  0.387320  0.749510  0.631360  1.0  0.0367
  N  N205  1  0.449850  0.640970  0.542950  1.0  -0.3781
  N  N206  1  0.460630  0.452920  0.816780  1.0  -0.5145
  N  N207  1  0.621700  0.434650  0.020700  1.0  -0.4062
  N  N208  1  0.725920  0.388580  0.954400  1.0  0.0354
  N  N209  1  0.887320  0.249510  0.631360  1.0  0.0367
  N  N210  1  0.949850  0.140970  0.542950  1.0  -0.3781
  N  N211  1  0.039370  0.952920  0.683220  1.0  -0.5158
  N  N212  1  0.878300  0.934650  0.479300  1.0  -0.4058
  N  N213  1  0.774080  0.888580  0.545600  1.0  0.0348
  N  N214  1  0.612680  0.749510  0.868640  1.0  0.0367
  N  N215  1  0.550150  0.640970  0.957050  1.0  -0.378
  N  N216  1  0.539370  0.452920  0.683220  1.0  -0.5158
  N  N217  1  0.378300  0.434650  0.479300  1.0  -0.4058
  N  N218  1  0.274080  0.388580  0.545600  1.0  0.0348
  N  N219  1  0.112680  0.249510  0.868640  1.0  0.0367
  N  N220  1  0.050150  0.140970  0.957050  1.0  -0.378
  N  N221  1  0.000000  0.046100  0.250000  1.0  0.3284
  N  N222  1  0.500000  0.546100  0.250000  1.0  0.3284
  N  N223  1  0.000000  0.953900  0.750000  1.0  0.3273
  N  N224  1  0.500000  0.453900  0.750000  1.0  0.3273
