# generated using pymatgen
data_CuH6(C2N)6
_symmetry_space_group_name_H-M   'P 1'
_cell_length_a   11.49920000
_cell_length_b   11.49920000
_cell_length_c   12.73410000
_cell_angle_alpha   90.00000000
_cell_angle_beta   90.00000000
_cell_angle_gamma   90.00000000
_symmetry_Int_Tables_number   1
_chemical_formula_structural   CuH6(C2N)6
_chemical_formula_sum   'Cu4 H24 C48 N24'
_cell_volume   1683.85042571
_cell_formula_units_Z   4
loop_
 _symmetry_equiv_pos_site_id
 _symmetry_equiv_pos_as_xyz
  1  'x, y, z'
loop_
 _atom_site_type_symbol
 _atom_site_label
 _atom_site_symmetry_multiplicity
 _atom_site_fract_x
 _atom_site_fract_y
 _atom_site_fract_z
 _atom_site_occupancy
 _atom_site_charge
  Cu  Cu1  1  0.647340  0.352660  0.750000  1.0  0.4222
  Cu  Cu2  1  0.352660  0.647340  0.250000  1.0  0.4223
  Cu  Cu3  1  0.147340  0.147340  0.500000  1.0  0.4218
  Cu  Cu4  1  0.852660  0.852660  0.000000  1.0  0.4227
  H  H5  1  0.823800  0.525700  0.720200  1.0  0.0663
  H  H6  1  0.901300  0.691300  0.793200  1.0  0.0763
  H  H7  1  0.377700  0.287900  0.929200  1.0  0.0813
  H  H8  1  0.176200  0.474300  0.220200  1.0  0.0666
  H  H9  1  0.098700  0.308700  0.293200  1.0  0.0769
  H  H10  1  0.622300  0.712100  0.429200  1.0  0.0818
  H  H11  1  0.974300  0.323800  0.470200  1.0  0.0667
  H  H12  1  0.808700  0.401300  0.543200  1.0  0.0766
  H  H13  1  0.212100  0.877700  0.679200  1.0  0.081
  H  H14  1  0.025700  0.676200  0.970200  1.0  0.0663
  H  H15  1  0.191300  0.598700  0.043200  1.0  0.0761
  H  H16  1  0.787900  0.122300  0.179200  1.0  0.0809
  H  H17  1  0.676200  0.025700  0.029800  1.0  0.0668
  H  H18  1  0.598700  0.191300  0.956800  1.0  0.0771
  H  H19  1  0.122300  0.787900  0.820800  1.0  0.0805
  H  H20  1  0.323800  0.974300  0.529800  1.0  0.0663
  H  H21  1  0.401300  0.808700  0.456800  1.0  0.0771
  H  H22  1  0.877700  0.212100  0.320800  1.0  0.0821
  H  H23  1  0.525700  0.823800  0.279800  1.0  0.0666
  H  H24  1  0.691300  0.901300  0.206800  1.0  0.0769
  H  H25  1  0.287900  0.377700  0.070800  1.0  0.0813
  H  H26  1  0.474300  0.176200  0.779800  1.0  0.0669
  H  H27  1  0.308700  0.098700  0.706800  1.0  0.0766
  H  H28  1  0.712100  0.622300  0.570800  1.0  0.0809
  C  C29  1  0.789900  0.555600  0.780700  1.0  0.1496
  C  C30  1  0.837400  0.656400  0.824900  1.0  0.104
  C  C31  1  0.699000  0.648800  0.952800  1.0  0.1203
  C  C32  1  0.549000  0.652500  0.090900  1.0  0.0841
  C  C33  1  0.496300  0.549900  0.043400  1.0  0.0625
  C  C34  1  0.355300  0.410400  0.043300  1.0  0.1296
  C  C35  1  0.210100  0.444400  0.280700  1.0  0.1504
  C  C36  1  0.162600  0.343600  0.324900  1.0  0.1042
  C  C37  1  0.301000  0.351200  0.452800  1.0  0.1213
  C  C38  1  0.451000  0.347500  0.590900  1.0  0.0832
  C  C39  1  0.503700  0.450100  0.543400  1.0  0.0623
  C  C40  1  0.644700  0.589600  0.543300  1.0  0.1291
  C  C41  1  0.944400  0.289900  0.530700  1.0  0.1501
  C  C42  1  0.843600  0.337400  0.574900  1.0  0.1043
  C  C43  1  0.851200  0.199000  0.702800  1.0  0.1201
  C  C44  1  0.847500  0.049000  0.840900  1.0  0.0826
  C  C45  1  0.950100  0.996300  0.793400  1.0  0.0626
  C  C46  1  0.089600  0.855300  0.793300  1.0  0.1293
  C  C47  1  0.055600  0.710100  0.030700  1.0  0.1493
  C  C48  1  0.156400  0.662600  0.074900  1.0  0.1053
  C  C49  1  0.148800  0.801000  0.202800  1.0  0.1202
  C  C50  1  0.152500  0.951000  0.340900  1.0  0.0825
  C  C51  1  0.049900  0.003700  0.293400  1.0  0.0626
  C  C52  1  0.910400  0.144700  0.293300  1.0  0.1294
  C  C53  1  0.710100  0.055600  0.969300  1.0  0.1507
  C  C54  1  0.662600  0.156400  0.925100  1.0  0.1046
  C  C55  1  0.801000  0.148800  0.797200  1.0  0.1198
  C  C56  1  0.951000  0.152500  0.659100  1.0  0.0833
  C  C57  1  0.003700  0.049900  0.706600  1.0  0.0603
  C  C58  1  0.144700  0.910400  0.706700  1.0  0.1289
  C  C59  1  0.289900  0.944400  0.469300  1.0  0.15
  C  C60  1  0.337400  0.843600  0.425100  1.0  0.1041
  C  C61  1  0.199000  0.851200  0.297200  1.0  0.1196
  C  C62  1  0.049000  0.847500  0.159100  1.0  0.0836
  C  C63  1  0.996300  0.950100  0.206600  1.0  0.0608
  C  C64  1  0.855300  0.089600  0.206700  1.0  0.1285
  C  C65  1  0.555600  0.789900  0.219300  1.0  0.1496
  C  C66  1  0.656400  0.837400  0.175100  1.0  0.1053
  C  C67  1  0.648800  0.699000  0.047200  1.0  0.1191
  C  C68  1  0.652500  0.549000  0.909100  1.0  0.0827
  C  C69  1  0.549900  0.496300  0.956600  1.0  0.0607
  C  C70  1  0.410400  0.355300  0.956700  1.0  0.1293
  C  C71  1  0.444400  0.210100  0.719300  1.0  0.1508
  C  C72  1  0.343600  0.162600  0.675100  1.0  0.1047
  C  C73  1  0.351200  0.301000  0.547200  1.0  0.119
  C  C74  1  0.347500  0.451000  0.409100  1.0  0.082
  C  C75  1  0.450100  0.503700  0.456600  1.0  0.0607
  C  C76  1  0.589600  0.644700  0.456700  1.0  0.1286
  N  N77  1  0.698700  0.500500  0.821000  1.0  -0.358
  N  N78  1  0.792800  0.702900  0.911000  1.0  -0.3277
  N  N79  1  0.396600  0.505700  0.085500  1.0  -0.3986
  N  N80  1  0.301300  0.499500  0.321000  1.0  -0.3584
  N  N81  1  0.207200  0.297100  0.411000  1.0  -0.3269
  N  N82  1  0.603400  0.494300  0.585500  1.0  -0.3983
  N  N83  1  0.999500  0.198700  0.571000  1.0  -0.3572
  N  N84  1  0.797100  0.292800  0.661000  1.0  -0.3267
  N  N85  1  0.994300  0.896600  0.835500  1.0  -0.399
  N  N86  1  0.000500  0.801300  0.071000  1.0  -0.3588
  N  N87  1  0.202900  0.707200  0.161000  1.0  -0.3265
  N  N88  1  0.005700  0.103400  0.335500  1.0  -0.3983
  N  N89  1  0.801300  0.000500  0.929000  1.0  -0.3577
  N  N90  1  0.707200  0.202900  0.839000  1.0  -0.3268
  N  N91  1  0.103400  0.005700  0.664500  1.0  -0.3989
  N  N92  1  0.198700  0.999500  0.429000  1.0  -0.3586
  N  N93  1  0.292800  0.797100  0.339000  1.0  -0.3272
  N  N94  1  0.896600  0.994300  0.164500  1.0  -0.3993
  N  N95  1  0.500500  0.698700  0.179000  1.0  -0.3588
  N  N96  1  0.702900  0.792800  0.089000  1.0  -0.3263
  N  N97  1  0.505700  0.396600  0.914500  1.0  -0.399
  N  N98  1  0.499500  0.301300  0.679000  1.0  -0.3572
  N  N99  1  0.297100  0.207200  0.589000  1.0  -0.3267
  N  N100  1  0.494300  0.603400  0.414500  1.0  -0.3994
