# generated using pymatgen
data_GdH4RuC13N6(OF3)2
_symmetry_space_group_name_H-M   'P 1'
_cell_length_a   13.04900000
_cell_length_b   13.90090000
_cell_length_c   13.90090000
_cell_angle_alpha   90.00000000
_cell_angle_beta   90.00000000
_cell_angle_gamma   90.00000000
_symmetry_Int_Tables_number   1
_chemical_formula_structural   GdH4RuC13N6(OF3)2
_chemical_formula_sum   'Gd4 H16 Ru4 C52 N24 O8 F24'
_cell_volume   2521.52378655
_cell_formula_units_Z   4
loop_
 _symmetry_equiv_pos_site_id
 _symmetry_equiv_pos_as_xyz
  1  'x, y, z'
loop_
 _atom_site_type_symbol
 _atom_site_label
 _atom_site_symmetry_multiplicity
 _atom_site_fract_x
 _atom_site_fract_y
 _atom_site_fract_z
 _atom_site_occupancy
 _atom_site_charge
  Gd  Gd1  1  0.883820  0.713080  0.213070  1.0  1.8859
  Gd  Gd2  1  0.883820  0.286920  0.786930  1.0  1.8858
  Gd  Gd3  1  0.116180  0.213070  0.286920  1.0  1.8849
  Gd  Gd4  1  0.116180  0.786930  0.713080  1.0  1.8851
  H  H5  1  0.765900  0.838900  0.660300  1.0  0.1086
  H  H6  1  0.610200  0.778100  0.719600  1.0  0.117
  H  H7  1  0.458200  0.839900  0.660900  1.0  0.0794
  H  H8  1  0.552400  0.816500  0.318500  1.0  0.105
  H  H9  1  0.765900  0.161100  0.339700  1.0  0.1092
  H  H10  1  0.610200  0.221900  0.280400  1.0  0.1157
  H  H11  1  0.458200  0.160100  0.339100  1.0  0.0794
  H  H12  1  0.552400  0.183500  0.681500  1.0  0.1053
  H  H13  1  0.234100  0.660300  0.161100  1.0  0.1086
  H  H14  1  0.389800  0.719600  0.221900  1.0  0.1168
  H  H15  1  0.541800  0.660900  0.160100  1.0  0.0813
  H  H16  1  0.447600  0.318500  0.183500  1.0  0.1048
  H  H17  1  0.234100  0.339700  0.838900  1.0  0.1089
  H  H18  1  0.389800  0.280400  0.778100  1.0  0.1177
  H  H19  1  0.541800  0.339100  0.839900  1.0  0.0816
  H  H20  1  0.447600  0.681500  0.816500  1.0  0.1051
  Ru  Ru21  1  0.830300  0.000000  0.500000  1.0  0.0823
  Ru  Ru22  1  0.392320  0.000000  0.500000  1.0  0.2624
  Ru  Ru23  1  0.169700  0.500000  0.000000  1.0  0.083
  Ru  Ru24  1  0.607680  0.500000  0.000000  1.0  0.2614
  C  C25  1  0.612300  0.962300  0.537200  1.0  0.3382
  C  C26  1  0.702700  0.862900  0.636200  1.0  0.1765
  C  C27  1  0.610700  0.826900  0.671800  1.0  -0.1651
  C  C28  1  0.521300  0.863500  0.636200  1.0  0.1565
  C  C29  1  0.841700  0.898800  0.394500  1.0  0.0149
  C  C30  1  0.933400  0.925200  0.573900  1.0  0.2738
  C  C31  1  0.377100  0.103700  0.602400  1.0  0.0599
  C  C32  1  0.714300  0.572100  0.066700  1.0  0.1884
  C  C33  1  0.659900  0.712000  0.336500  1.0  0.3101
  C  C34  1  0.614200  0.791300  0.292500  1.0  -0.1225
  C  C35  1  0.656700  0.834600  0.211600  1.0  0.319
  C  C36  1  0.600700  0.665300  0.421500  1.0  0.5044
  C  C37  1  0.598100  0.918400  0.164800  1.0  0.4592
  C  C38  1  0.612300  0.037700  0.462800  1.0  0.3387
  C  C39  1  0.702700  0.137100  0.363800  1.0  0.1771
  C  C40  1  0.610700  0.173100  0.328200  1.0  -0.166
  C  C41  1  0.521300  0.136500  0.363800  1.0  0.1563
  C  C42  1  0.841700  0.101200  0.605500  1.0  0.0143
  C  C43  1  0.933400  0.074800  0.426100  1.0  0.2736
  C  C44  1  0.377100  0.896300  0.397600  1.0  0.0661
  C  C45  1  0.714300  0.427900  0.933300  1.0  0.1913
  C  C46  1  0.659900  0.288000  0.663500  1.0  0.3103
  C  C47  1  0.614200  0.208700  0.707500  1.0  -0.1218
  C  C48  1  0.656700  0.165400  0.788400  1.0  0.3188
  C  C49  1  0.600700  0.334700  0.578500  1.0  0.5036
  C  C50  1  0.598100  0.081600  0.835200  1.0  0.4619
  C  C51  1  0.387700  0.537200  0.037700  1.0  0.3385
  C  C52  1  0.297300  0.636200  0.137100  1.0  0.1764
  C  C53  1  0.389300  0.671800  0.173100  1.0  -0.1662
  C  C54  1  0.478700  0.636200  0.136500  1.0  0.1573
  C  C55  1  0.158300  0.394500  0.101200  1.0  0.0148
  C  C56  1  0.066600  0.573900  0.074800  1.0  0.2698
  C  C57  1  0.622900  0.602400  0.896300  1.0  0.0661
  C  C58  1  0.285700  0.066700  0.427900  1.0  0.2006
  C  C59  1  0.340100  0.336500  0.288000  1.0  0.3085
  C  C60  1  0.385800  0.292500  0.208700  1.0  -0.1218
  C  C61  1  0.343300  0.211600  0.165400  1.0  0.3144
  C  C62  1  0.399300  0.421500  0.334700  1.0  0.5032
  C  C63  1  0.401900  0.164800  0.081600  1.0  0.4626
  C  C64  1  0.387700  0.462800  0.962300  1.0  0.3384
  C  C65  1  0.297300  0.363800  0.862900  1.0  0.1758
  C  C66  1  0.389300  0.328200  0.826900  1.0  -0.1657
  C  C67  1  0.478700  0.363800  0.863500  1.0  0.1583
  C  C68  1  0.158300  0.605500  0.898800  1.0  0.0146
  C  C69  1  0.066600  0.426100  0.925200  1.0  0.268
  C  C70  1  0.622900  0.397600  0.103700  1.0  0.0666
  C  C71  1  0.285700  0.933300  0.572100  1.0  0.1997
  C  C72  1  0.340100  0.663500  0.712000  1.0  0.3107
  C  C73  1  0.385800  0.707500  0.791300  1.0  -0.1223
  C  C74  1  0.343300  0.788400  0.834600  1.0  0.3146
  C  C75  1  0.399300  0.578500  0.665300  1.0  0.5054
  C  C76  1  0.401900  0.835200  0.918400  1.0  0.4642
  N  N77  1  0.703000  0.931100  0.568100  1.0  -0.2809
  N  N78  1  0.519200  0.931700  0.567400  1.0  -0.3246
  N  N79  1  0.776100  0.616800  0.105900  1.0  -0.4659
  N  N80  1  0.859500  0.844600  0.335300  1.0  -0.4319
  N  N81  1  0.990200  0.882500  0.620000  1.0  -0.5441
  N  N82  1  0.356500  0.158900  0.661500  1.0  -0.4574
  N  N83  1  0.703000  0.068900  0.431900  1.0  -0.2815
  N  N84  1  0.519200  0.068300  0.432600  1.0  -0.3247
  N  N85  1  0.776100  0.383200  0.894100  1.0  -0.4656
  N  N86  1  0.859500  0.155400  0.664700  1.0  -0.4329
  N  N87  1  0.990200  0.117500  0.380000  1.0  -0.5465
  N  N88  1  0.356500  0.841100  0.338500  1.0  -0.4583
  N  N89  1  0.297000  0.568100  0.068900  1.0  -0.2829
  N  N90  1  0.480800  0.567400  0.068300  1.0  -0.3243
  N  N91  1  0.223900  0.105900  0.383200  1.0  -0.462
  N  N92  1  0.140500  0.335300  0.155400  1.0  -0.4295
  N  N93  1  0.009800  0.620000  0.117500  1.0  -0.5454
  N  N94  1  0.643500  0.661500  0.841100  1.0  -0.4539
  N  N95  1  0.297000  0.431900  0.931100  1.0  -0.2821
  N  N96  1  0.480800  0.432600  0.931700  1.0  -0.3253
  N  N97  1  0.223900  0.894100  0.616800  1.0  -0.4628
  N  N98  1  0.140500  0.664700  0.844600  1.0  -0.4303
  N  N99  1  0.009800  0.380000  0.882500  1.0  -0.5459
  N  N100  1  0.643500  0.338500  0.158900  1.0  -0.4555
  O  O101  1  0.741300  0.668300  0.315500  1.0  -0.6223
  O  O102  1  0.739400  0.814200  0.169500  1.0  -0.6592
  O  O103  1  0.741300  0.331700  0.684500  1.0  -0.6226
  O  O104  1  0.739400  0.185800  0.830500  1.0  -0.6586
  O  O105  1  0.258700  0.315500  0.331700  1.0  -0.6229
  O  O106  1  0.260600  0.169500  0.185800  1.0  -0.658
  O  O107  1  0.258700  0.684500  0.668300  1.0  -0.6256
  O  O108  1  0.260600  0.830500  0.814200  1.0  -0.6579
  F  F109  1  0.661800  0.663700  0.503300  1.0  -0.2522
  F  F110  1  0.521800  0.713100  0.452700  1.0  -0.1941
  F  F111  1  0.586300  0.571200  0.415400  1.0  -0.1917
  F  F112  1  0.506300  0.883800  0.135100  1.0  -0.2286
  F  F113  1  0.644900  0.958000  0.099100  1.0  -0.14
  F  F114  1  0.573900  0.982900  0.233800  1.0  -0.2089
  F  F115  1  0.661800  0.336300  0.496700  1.0  -0.2495
  F  F116  1  0.521800  0.286900  0.547300  1.0  -0.1945
  F  F117  1  0.586300  0.428800  0.584600  1.0  -0.1892
  F  F118  1  0.506300  0.116200  0.864900  1.0  -0.2283
  F  F119  1  0.644900  0.042000  0.900900  1.0  -0.1417
  F  F120  1  0.573900  0.017100  0.766200  1.0  -0.2089
  F  F121  1  0.338200  0.503300  0.336300  1.0  -0.2478
  F  F122  1  0.478200  0.452700  0.286900  1.0  -0.1896
  F  F123  1  0.413700  0.415400  0.428800  1.0  -0.1905
  F  F124  1  0.493700  0.135100  0.116200  1.0  -0.2299
  F  F125  1  0.355100  0.099100  0.042000  1.0  -0.1325
  F  F126  1  0.426100  0.233800  0.017100  1.0  -0.2074
  F  F127  1  0.338200  0.496700  0.663700  1.0  -0.2474
  F  F128  1  0.478200  0.547300  0.713100  1.0  -0.1903
  F  F129  1  0.413700  0.584600  0.571200  1.0  -0.1915
  F  F130  1  0.493700  0.864900  0.883800  1.0  -0.2293
  F  F131  1  0.355100  0.900900  0.958000  1.0  -0.1316
  F  F132  1  0.426100  0.766200  0.982900  1.0  -0.2086
