# generated using pymatgen
data_V5Zn3H6C6N9O10
_symmetry_space_group_name_H-M   'P 1'
_cell_length_a   17.29990000
_cell_length_b   18.03960000
_cell_length_c   24.67700000
_cell_angle_alpha   90.00000000
_cell_angle_beta   90.00000000
_cell_angle_gamma   90.00000000
_symmetry_Int_Tables_number   1
_chemical_formula_structural   V5Zn3H6C6N9O10
_chemical_formula_sum   'V40 Zn24 H48 C48 N72 O80'
_cell_volume   7701.27900284
_cell_formula_units_Z   8
loop_
 _symmetry_equiv_pos_site_id
 _symmetry_equiv_pos_as_xyz
  1  'x, y, z'
loop_
 _atom_site_type_symbol
 _atom_site_label
 _atom_site_symmetry_multiplicity
 _atom_site_fract_x
 _atom_site_fract_y
 _atom_site_fract_z
 _atom_site_occupancy
 _atom_site_charge
  V  V1  1  0.836830  0.305520  0.907680  1.0  1.4395
  V  V2  1  0.904200  0.301750  0.023130  1.0  1.4522
  V  V3  1  0.681790  0.386370  0.884940  1.0  1.3777
  V  V4  1  0.682060  0.216700  0.885560  1.0  1.4093
  V  V5  1  0.336830  0.194480  0.592320  1.0  1.4383
  V  V6  1  0.404200  0.198250  0.476870  1.0  1.4513
  V  V7  1  0.181790  0.113630  0.615060  1.0  1.3625
  V  V8  1  0.182060  0.283300  0.614440  1.0  1.4227
  V  V9  1  0.663170  0.305520  0.092320  1.0  1.4429
  V  V10  1  0.595800  0.301750  0.976870  1.0  1.4528
  V  V11  1  0.818210  0.386370  0.115060  1.0  1.3758
  V  V12  1  0.817940  0.216700  0.114440  1.0  1.4048
  V  V13  1  0.163170  0.194480  0.407680  1.0  1.4453
  V  V14  1  0.095800  0.198250  0.523130  1.0  1.4537
  V  V15  1  0.318210  0.113630  0.384940  1.0  1.3645
  V  V16  1  0.317940  0.283300  0.385560  1.0  1.421
  V  V17  1  0.163170  0.694480  0.092320  1.0  1.4436
  V  V18  1  0.095800  0.698250  0.976870  1.0  1.4528
  V  V19  1  0.318210  0.613630  0.115060  1.0  1.3627
  V  V20  1  0.317940  0.783300  0.114440  1.0  1.4188
  V  V21  1  0.663170  0.805520  0.407680  1.0  1.4447
  V  V22  1  0.595800  0.801750  0.523130  1.0  1.4537
  V  V23  1  0.818210  0.886370  0.384940  1.0  1.3767
  V  V24  1  0.817940  0.716700  0.385560  1.0  1.4065
  V  V25  1  0.336830  0.694480  0.907680  1.0  1.4398
  V  V26  1  0.404200  0.698250  0.023130  1.0  1.4527
  V  V27  1  0.181790  0.613630  0.884940  1.0  1.3643
  V  V28  1  0.182060  0.783300  0.885560  1.0  1.4236
  V  V29  1  0.836830  0.805520  0.592320  1.0  1.4371
  V  V30  1  0.904200  0.801750  0.476870  1.0  1.4506
  V  V31  1  0.681790  0.886370  0.615060  1.0  1.3768
  V  V32  1  0.682060  0.716700  0.614440  1.0  1.408
  V  V33  1  0.750000  0.392990  0.000000  1.0  1.8347
  V  V34  1  0.750000  0.211930  0.000000  1.0  1.8063
  V  V35  1  0.250000  0.107010  0.500000  1.0  1.837
  V  V36  1  0.250000  0.288070  0.500000  1.0  1.8038
  V  V37  1  0.250000  0.607010  0.000000  1.0  1.837
  V  V38  1  0.250000  0.788070  0.000000  1.0  1.8038
  V  V39  1  0.750000  0.892990  0.500000  1.0  1.8347
  V  V40  1  0.750000  0.711930  0.500000  1.0  1.8063
  Zn  Zn41  1  0.698610  0.349220  0.667290  1.0  0.3962
  Zn  Zn42  1  0.850810  0.150520  0.832250  1.0  0.9676
  Zn  Zn43  1  0.904360  0.070780  0.703710  1.0  0.7221
  Zn  Zn44  1  0.198610  0.150780  0.832710  1.0  0.3985
  Zn  Zn45  1  0.350810  0.349480  0.667750  1.0  0.967
  Zn  Zn46  1  0.404360  0.429220  0.796290  1.0  0.7285
  Zn  Zn47  1  0.801390  0.349220  0.332710  1.0  0.3984
  Zn  Zn48  1  0.649190  0.150520  0.167750  1.0  0.9673
  Zn  Zn49  1  0.595640  0.070780  0.296290  1.0  0.726
  Zn  Zn50  1  0.301390  0.150780  0.167290  1.0  0.3966
  Zn  Zn51  1  0.149190  0.349480  0.332250  1.0  0.9677
  Zn  Zn52  1  0.095640  0.429220  0.203710  1.0  0.7209
  Zn  Zn53  1  0.301390  0.650780  0.332710  1.0  0.3987
  Zn  Zn54  1  0.149190  0.849480  0.167750  1.0  0.9676
  Zn  Zn55  1  0.095640  0.929220  0.296290  1.0  0.7264
  Zn  Zn56  1  0.801390  0.849220  0.167290  1.0  0.3963
  Zn  Zn57  1  0.649190  0.650520  0.332250  1.0  0.9676
  Zn  Zn58  1  0.595640  0.570780  0.203710  1.0  0.721
  Zn  Zn59  1  0.198610  0.650780  0.667290  1.0  0.3966
  Zn  Zn60  1  0.350810  0.849480  0.832250  1.0  0.9676
  Zn  Zn61  1  0.404360  0.929220  0.703710  1.0  0.7217
  Zn  Zn62  1  0.698610  0.849220  0.832710  1.0  0.3982
  Zn  Zn63  1  0.850810  0.650520  0.667750  1.0  0.9669
  Zn  Zn64  1  0.904360  0.570780  0.796290  1.0  0.7284
  H  H65  1  0.747500  0.008900  0.871800  1.0  0.0806
  H  H66  1  0.747500  0.282500  0.776000  1.0  0.0703
  H  H67  1  0.799900  0.918000  0.732900  1.0  0.0616
  H  H68  1  0.090500  0.095400  0.732700  1.0  0.0715
  H  H69  1  0.800200  0.200300  0.633900  1.0  0.1136
  H  H70  1  0.028400  0.189800  0.868800  1.0  0.0904
  H  H71  1  0.247500  0.491100  0.628200  1.0  0.0806
  H  H72  1  0.247500  0.217500  0.724000  1.0  0.071
  H  H73  1  0.299900  0.582000  0.767100  1.0  0.0616
  H  H74  1  0.590500  0.404600  0.767300  1.0  0.0725
  H  H75  1  0.300200  0.299700  0.866100  1.0  0.1119
  H  H76  1  0.528400  0.310200  0.631200  1.0  0.0918
  H  H77  1  0.752500  0.008900  0.128200  1.0  0.0811
  H  H78  1  0.752500  0.282500  0.224000  1.0  0.0704
  H  H79  1  0.700100  0.918000  0.267100  1.0  0.0615
  H  H80  1  0.409500  0.095400  0.267300  1.0  0.0721
  H  H81  1  0.699800  0.200300  0.366100  1.0  0.1113
  H  H82  1  0.471600  0.189800  0.131200  1.0  0.0907
  H  H83  1  0.252500  0.491100  0.371800  1.0  0.0801
  H  H84  1  0.252500  0.217500  0.276000  1.0  0.0705
  H  H85  1  0.200100  0.582000  0.232900  1.0  0.0615
  H  H86  1  0.909500  0.404600  0.232700  1.0  0.072
  H  H87  1  0.199800  0.299700  0.133900  1.0  0.1134
  H  H88  1  0.971600  0.310200  0.368800  1.0  0.0919
  H  H89  1  0.252500  0.991100  0.128200  1.0  0.081
  H  H90  1  0.252500  0.717500  0.224000  1.0  0.0706
  H  H91  1  0.200100  0.082000  0.267100  1.0  0.0616
  H  H92  1  0.909500  0.904600  0.267300  1.0  0.0726
  H  H93  1  0.199800  0.799700  0.366100  1.0  0.111
  H  H94  1  0.971600  0.810200  0.131200  1.0  0.092
  H  H95  1  0.752500  0.508900  0.371800  1.0  0.0804
  H  H96  1  0.752500  0.782500  0.276000  1.0  0.0701
  H  H97  1  0.700100  0.418000  0.232900  1.0  0.0617
  H  H98  1  0.409500  0.595400  0.232700  1.0  0.0712
  H  H99  1  0.699800  0.700300  0.133900  1.0  0.113
  H  H100  1  0.471600  0.689800  0.368800  1.0  0.0908
  H  H101  1  0.247500  0.991100  0.871800  1.0  0.0805
  H  H102  1  0.247500  0.717500  0.776000  1.0  0.0708
  H  H103  1  0.299900  0.082000  0.732900  1.0  0.0618
  H  H104  1  0.590500  0.904600  0.732700  1.0  0.0718
  H  H105  1  0.300200  0.799700  0.633900  1.0  0.1141
  H  H106  1  0.528400  0.810200  0.868800  1.0  0.0913
  H  H107  1  0.747500  0.508900  0.628200  1.0  0.0807
  H  H108  1  0.747500  0.782500  0.724000  1.0  0.0707
  H  H109  1  0.799900  0.418000  0.767100  1.0  0.0617
  H  H110  1  0.090500  0.595400  0.767300  1.0  0.0723
  H  H111  1  0.800200  0.700300  0.866100  1.0  0.1121
  H  H112  1  0.028400  0.689800  0.631200  1.0  0.0904
  C  C113  1  0.768900  0.000500  0.836860  1.0  0.1574
  C  C114  1  0.768700  0.251900  0.748340  1.0  0.1555
  C  C115  1  0.797300  0.951700  0.762390  1.0  0.1881
  C  C116  1  0.060100  0.115300  0.761290  1.0  0.2126
  C  C117  1  0.797100  0.207700  0.672000  1.0  0.2342
  C  C118  1  0.026900  0.166100  0.834450  1.0  0.2398
  C  C119  1  0.268900  0.499500  0.663140  1.0  0.1597
  C  C120  1  0.268700  0.248100  0.751660  1.0  0.1551
  C  C121  1  0.297300  0.548300  0.737610  1.0  0.1867
  C  C122  1  0.560100  0.384700  0.738710  1.0  0.2123
  C  C123  1  0.297100  0.292300  0.828000  1.0  0.2348
  C  C124  1  0.526900  0.333900  0.665550  1.0  0.2422
  C  C125  1  0.731100  0.000500  0.163140  1.0  0.1579
  C  C126  1  0.731300  0.251900  0.251660  1.0  0.1543
  C  C127  1  0.702700  0.951700  0.237610  1.0  0.1871
  C  C128  1  0.439900  0.115300  0.238710  1.0  0.2125
  C  C129  1  0.702900  0.207700  0.328000  1.0  0.2345
  C  C130  1  0.473100  0.166100  0.165550  1.0  0.2417
  C  C131  1  0.231100  0.499500  0.336860  1.0  0.1576
  C  C132  1  0.231300  0.248100  0.248340  1.0  0.1549
  C  C133  1  0.202700  0.548300  0.262390  1.0  0.188
  C  C134  1  0.939900  0.384700  0.261290  1.0  0.213
  C  C135  1  0.202900  0.292300  0.172000  1.0  0.2354
  C  C136  1  0.973100  0.333900  0.334450  1.0  0.2401
  C  C137  1  0.231100  0.999500  0.163140  1.0  0.1582
  C  C138  1  0.231300  0.748100  0.251660  1.0  0.1544
  C  C139  1  0.202700  0.048300  0.237610  1.0  0.1865
  C  C140  1  0.939900  0.884700  0.238710  1.0  0.212
  C  C141  1  0.202900  0.792300  0.328000  1.0  0.2346
  C  C142  1  0.973100  0.833900  0.165550  1.0  0.242
  C  C143  1  0.731100  0.500500  0.336860  1.0  0.1571
  C  C144  1  0.731300  0.751900  0.248340  1.0  0.1548
  C  C145  1  0.702700  0.451700  0.262390  1.0  0.1884
  C  C146  1  0.439900  0.615300  0.261290  1.0  0.213
  C  C147  1  0.702900  0.707700  0.172000  1.0  0.2348
  C  C148  1  0.473100  0.666100  0.334450  1.0  0.2395
  C  C149  1  0.268900  0.999500  0.836860  1.0  0.158
  C  C150  1  0.268700  0.748100  0.748340  1.0  0.1557
  C  C151  1  0.297300  0.048300  0.762390  1.0  0.1876
  C  C152  1  0.560100  0.884700  0.761290  1.0  0.2125
  C  C153  1  0.297100  0.792300  0.672000  1.0  0.2347
  C  C154  1  0.526900  0.833900  0.834450  1.0  0.2405
  C  C155  1  0.768900  0.500500  0.663140  1.0  0.1594
  C  C156  1  0.768700  0.751900  0.751660  1.0  0.1549
  C  C157  1  0.797300  0.451700  0.737610  1.0  0.1873
  C  C158  1  0.060100  0.615300  0.738710  1.0  0.2127
  C  C159  1  0.797100  0.707700  0.828000  1.0  0.2348
  C  C160  1  0.026900  0.666100  0.665550  1.0  0.2419
  N  N161  1  0.756200  0.262650  0.695510  1.0  -0.4266
  N  N162  1  0.755700  0.939000  0.807720  1.0  -0.4375
  N  N163  1  0.814000  0.047320  0.812380  1.0  -0.2287
  N  N164  1  0.962910  0.149000  0.809040  1.0  -0.2257
  N  N165  1  0.833500  0.015200  0.763360  1.0  -0.3428
  N  N166  1  0.832250  0.165560  0.707970  1.0  -0.319
  N  N167  1  0.813100  0.194800  0.757910  1.0  -0.3087
  N  N168  1  0.984150  0.115840  0.761370  1.0  -0.2887
  N  N169  1  0.090100  0.146500  0.806530  1.0  -0.4231
  N  N170  1  0.256200  0.237350  0.804490  1.0  -0.4264
  N  N171  1  0.255700  0.561000  0.692280  1.0  -0.4368
  N  N172  1  0.314000  0.452680  0.687620  1.0  -0.2292
  N  N173  1  0.462910  0.351000  0.690960  1.0  -0.2269
  N  N174  1  0.333500  0.484800  0.736640  1.0  -0.3427
  N  N175  1  0.332250  0.334440  0.792030  1.0  -0.3186
  N  N176  1  0.313100  0.305200  0.742090  1.0  -0.308
  N  N177  1  0.484150  0.384160  0.738630  1.0  -0.2873
  N  N178  1  0.590100  0.353500  0.693470  1.0  -0.4227
  N  N179  1  0.743800  0.262650  0.304490  1.0  -0.426
  N  N180  1  0.744300  0.939000  0.192280  1.0  -0.4371
  N  N181  1  0.686000  0.047320  0.187620  1.0  -0.2311
  N  N182  1  0.537090  0.149000  0.190960  1.0  -0.2257
  N  N183  1  0.666500  0.015200  0.236640  1.0  -0.3442
  N  N184  1  0.667750  0.165560  0.292030  1.0  -0.3187
  N  N185  1  0.686900  0.194800  0.242090  1.0  -0.3082
  N  N186  1  0.515850  0.115840  0.238630  1.0  -0.2859
  N  N187  1  0.409900  0.146500  0.193470  1.0  -0.4213
  N  N188  1  0.243800  0.237350  0.195510  1.0  -0.4278
  N  N189  1  0.244300  0.561000  0.307720  1.0  -0.4367
  N  N190  1  0.186000  0.452680  0.312380  1.0  -0.2291
  N  N191  1  0.037090  0.351000  0.309040  1.0  -0.225
  N  N192  1  0.166500  0.484800  0.263360  1.0  -0.3442
  N  N193  1  0.167750  0.334440  0.207970  1.0  -0.3202
  N  N194  1  0.186900  0.305200  0.257910  1.0  -0.3098
  N  N195  1  0.015850  0.384160  0.261370  1.0  -0.2879
  N  N196  1  0.909900  0.353500  0.306530  1.0  -0.4217
  N  N197  1  0.243800  0.737350  0.304490  1.0  -0.4263
  N  N198  1  0.244300  0.061000  0.192280  1.0  -0.4371
  N  N199  1  0.186000  0.952680  0.187620  1.0  -0.2298
  N  N200  1  0.037090  0.851000  0.190960  1.0  -0.2263
  N  N201  1  0.166500  0.984800  0.236640  1.0  -0.345
  N  N202  1  0.167750  0.834440  0.292030  1.0  -0.3194
  N  N203  1  0.186900  0.805200  0.242090  1.0  -0.3083
  N  N204  1  0.015850  0.884160  0.238630  1.0  -0.2862
  N  N205  1  0.909900  0.853500  0.193470  1.0  -0.4216
  N  N206  1  0.743800  0.762650  0.195510  1.0  -0.4271
  N  N207  1  0.744300  0.439000  0.307720  1.0  -0.4362
  N  N208  1  0.686000  0.547320  0.312380  1.0  -0.2296
  N  N209  1  0.537090  0.649000  0.309040  1.0  -0.2248
  N  N210  1  0.666500  0.515200  0.263360  1.0  -0.3432
  N  N211  1  0.667750  0.665560  0.207970  1.0  -0.32
  N  N212  1  0.686900  0.694800  0.257910  1.0  -0.3098
  N  N213  1  0.515850  0.615840  0.261370  1.0  -0.2885
  N  N214  1  0.409900  0.646500  0.306530  1.0  -0.4215
  N  N215  1  0.256200  0.737350  0.695510  1.0  -0.4273
  N  N216  1  0.255700  0.061000  0.807720  1.0  -0.437
  N  N217  1  0.314000  0.952680  0.812380  1.0  -0.2282
  N  N218  1  0.462910  0.851000  0.809040  1.0  -0.226
  N  N219  1  0.333500  0.984800  0.763360  1.0  -0.3433
  N  N220  1  0.332250  0.834440  0.707970  1.0  -0.32
  N  N221  1  0.313100  0.805200  0.757910  1.0  -0.309
  N  N222  1  0.484150  0.884160  0.761370  1.0  -0.2875
  N  N223  1  0.590100  0.853500  0.806530  1.0  -0.4232
  N  N224  1  0.756200  0.762650  0.804490  1.0  -0.4261
  N  N225  1  0.755700  0.439000  0.692280  1.0  -0.4378
  N  N226  1  0.814000  0.547320  0.687620  1.0  -0.2304
  N  N227  1  0.962910  0.649000  0.690960  1.0  -0.226
  N  N228  1  0.833500  0.515200  0.736640  1.0  -0.342
  N  N229  1  0.832250  0.665560  0.792030  1.0  -0.3173
  N  N230  1  0.813100  0.694800  0.742090  1.0  -0.3078
  N  N231  1  0.984150  0.615840  0.738630  1.0  -0.2875
  N  N232  1  0.090100  0.646500  0.693470  1.0  -0.4225
  O  O233  1  0.720520  0.155130  0.949610  1.0  -0.7669
  O  O234  1  0.851170  0.234200  0.971200  1.0  -0.8943
  O  O235  1  0.720340  0.448840  0.949130  1.0  -0.7548
  O  O236  1  0.661260  0.301540  0.847600  1.0  -0.8094
  O  O237  1  0.851650  0.371030  0.971240  1.0  -0.9846
  O  O238  1  0.907790  0.375970  0.073480  1.0  -0.7319
  O  O239  1  0.721310  0.302270  0.949570  1.0  -0.8532
  O  O240  1  0.907510  0.227190  0.073200  1.0  -0.7251
  O  O241  1  0.789830  0.377360  0.869940  1.0  -0.7095
  O  O242  1  0.790610  0.226640  0.871400  1.0  -1.0391
  O  O243  1  0.220520  0.344870  0.550390  1.0  -0.7676
  O  O244  1  0.351170  0.265800  0.528800  1.0  -0.8921
  O  O245  1  0.220340  0.051160  0.550870  1.0  -0.7507
  O  O246  1  0.161260  0.198460  0.652400  1.0  -0.8073
  O  O247  1  0.351650  0.128970  0.528760  1.0  -0.9863
  O  O248  1  0.407790  0.124030  0.426520  1.0  -0.732
  O  O249  1  0.221310  0.197730  0.550430  1.0  -0.8523
  O  O250  1  0.407510  0.272810  0.426800  1.0  -0.7243
  O  O251  1  0.289830  0.122640  0.630060  1.0  -0.7105
  O  O252  1  0.290610  0.273360  0.628600  1.0  -1.0399
  O  O253  1  0.779480  0.155130  0.050390  1.0  -0.7663
  O  O254  1  0.648830  0.234200  0.028800  1.0  -0.8931
  O  O255  1  0.779660  0.448840  0.050870  1.0  -0.7536
  O  O256  1  0.838740  0.301540  0.152400  1.0  -0.8105
  O  O257  1  0.648350  0.371030  0.028760  1.0  -0.9856
  O  O258  1  0.592210  0.375970  0.926520  1.0  -0.7285
  O  O259  1  0.778690  0.302270  0.050430  1.0  -0.8542
  O  O260  1  0.592490  0.227190  0.926800  1.0  -0.7271
  O  O261  1  0.710170  0.377360  0.130060  1.0  -0.7086
  O  O262  1  0.709390  0.226640  0.128600  1.0  -1.0404
  O  O263  1  0.279480  0.344870  0.449610  1.0  -0.7667
  O  O264  1  0.148830  0.265800  0.471200  1.0  -0.8907
  O  O265  1  0.279660  0.051160  0.449130  1.0  -0.7511
  O  O266  1  0.338740  0.198460  0.347600  1.0  -0.8114
  O  O267  1  0.148350  0.128970  0.471240  1.0  -0.9856
  O  O268  1  0.092210  0.124030  0.573480  1.0  -0.7305
  O  O269  1  0.278690  0.197730  0.449570  1.0  -0.8539
  O  O270  1  0.092490  0.272810  0.573200  1.0  -0.7239
  O  O271  1  0.210170  0.122640  0.369940  1.0  -0.7103
  O  O272  1  0.209390  0.273360  0.371400  1.0  -1.0386
  O  O273  1  0.279480  0.844870  0.050390  1.0  -0.7667
  O  O274  1  0.148830  0.765800  0.028800  1.0  -0.8908
  O  O275  1  0.279660  0.551160  0.050870  1.0  -0.7508
  O  O276  1  0.338740  0.698460  0.152400  1.0  -0.8099
  O  O277  1  0.148350  0.628970  0.028760  1.0  -0.9868
  O  O278  1  0.092210  0.624030  0.926520  1.0  -0.7303
  O  O279  1  0.278690  0.697730  0.050430  1.0  -0.8538
  O  O280  1  0.092490  0.772810  0.926800  1.0  -0.7245
  O  O281  1  0.210170  0.622640  0.130060  1.0  -0.7106
  O  O282  1  0.209390  0.773360  0.128600  1.0  -1.0397
  O  O283  1  0.779480  0.655130  0.449610  1.0  -0.7656
  O  O284  1  0.648830  0.734200  0.471200  1.0  -0.8931
  O  O285  1  0.779660  0.948840  0.449130  1.0  -0.7551
  O  O286  1  0.838740  0.801540  0.347600  1.0  -0.8118
  O  O287  1  0.648350  0.871030  0.471240  1.0  -0.9863
  O  O288  1  0.592210  0.875970  0.573480  1.0  -0.729
  O  O289  1  0.778690  0.802270  0.449570  1.0  -0.8544
  O  O290  1  0.592490  0.727190  0.573200  1.0  -0.7272
  O  O291  1  0.710170  0.877360  0.369940  1.0  -0.7095
  O  O292  1  0.709390  0.726640  0.371400  1.0  -1.039
  O  O293  1  0.220520  0.844870  0.949610  1.0  -0.7674
  O  O294  1  0.351170  0.765800  0.971200  1.0  -0.8919
  O  O295  1  0.220340  0.551160  0.949130  1.0  -0.7511
  O  O296  1  0.161260  0.698460  0.847600  1.0  -0.8088
  O  O297  1  0.351650  0.628970  0.971240  1.0  -0.9845
  O  O298  1  0.407790  0.624030  0.073480  1.0  -0.7324
  O  O299  1  0.221310  0.697730  0.949570  1.0  -0.8528
  O  O300  1  0.407510  0.772810  0.073200  1.0  -0.7231
  O  O301  1  0.289830  0.622640  0.869940  1.0  -0.7101
  O  O302  1  0.290610  0.773360  0.871400  1.0  -1.0389
  O  O303  1  0.720520  0.655130  0.550390  1.0  -0.7678
  O  O304  1  0.851170  0.734200  0.528800  1.0  -0.895
  O  O305  1  0.720340  0.948840  0.550870  1.0  -0.7529
  O  O306  1  0.661260  0.801540  0.652400  1.0  -0.808
  O  O307  1  0.851650  0.871030  0.528760  1.0  -0.9835
  O  O308  1  0.907790  0.875970  0.426520  1.0  -0.7315
  O  O309  1  0.721310  0.802270  0.550430  1.0  -0.8526
  O  O310  1  0.907510  0.727190  0.426800  1.0  -0.7251
  O  O311  1  0.789830  0.877360  0.630060  1.0  -0.7086
  O  O312  1  0.790610  0.726640  0.628600  1.0  -1.0403
