# generated using pymatgen
data_CdH3(C3O2)3
_symmetry_space_group_name_H-M   'P 1'
_cell_length_a   15.11290000
_cell_length_b   12.49660000
_cell_length_c   16.84800000
_cell_angle_alpha   90.00000000
_cell_angle_beta   90.00000000
_cell_angle_gamma   90.00000000
_symmetry_Int_Tables_number   1
_chemical_formula_structural   CdH3(C3O2)3
_chemical_formula_sum   'Cd8 H24 C72 O48'
_cell_volume   3181.91102473
_cell_formula_units_Z   8
loop_
 _symmetry_equiv_pos_site_id
 _symmetry_equiv_pos_as_xyz
  1  'x, y, z'
loop_
 _atom_site_type_symbol
 _atom_site_label
 _atom_site_symmetry_multiplicity
 _atom_site_fract_x
 _atom_site_fract_y
 _atom_site_fract_z
 _atom_site_occupancy
 _atom_site_charge
  Cd  Cd1  1  0.103590  0.012640  0.425930  1.0  1.1
  Cd  Cd2  1  0.396410  0.987360  0.925930  1.0  1.0993
  Cd  Cd3  1  0.896410  0.512640  0.074070  1.0  1.0998
  Cd  Cd4  1  0.603590  0.487360  0.574070  1.0  1.1003
  Cd  Cd5  1  0.896410  0.987360  0.574070  1.0  1.0998
  Cd  Cd6  1  0.603590  0.012640  0.074070  1.0  1.1003
  Cd  Cd7  1  0.103590  0.487360  0.925930  1.0  1.1001
  Cd  Cd8  1  0.396410  0.512640  0.425930  1.0  1.0993
  H  H9  1  0.344300  0.752300  0.494500  1.0  0.133
  H  H10  1  0.443600  0.736000  0.715700  1.0  0.1386
  H  H11  1  0.272000  0.967700  0.657900  1.0  0.1363
  H  H12  1  0.155700  0.247700  0.994500  1.0  0.1329
  H  H13  1  0.056400  0.264000  0.215700  1.0  0.1385
  H  H14  1  0.228000  0.032300  0.157900  1.0  0.1363
  H  H15  1  0.655700  0.252300  0.005500  1.0  0.1326
  H  H16  1  0.556400  0.236000  0.784300  1.0  0.1385
  H  H17  1  0.728000  0.467700  0.842100  1.0  0.1362
  H  H18  1  0.844300  0.747700  0.505500  1.0  0.1329
  H  H19  1  0.943600  0.764000  0.284300  1.0  0.1386
  H  H20  1  0.772000  0.532300  0.342100  1.0  0.1361
  H  H21  1  0.655700  0.247700  0.505500  1.0  0.1329
  H  H22  1  0.556400  0.264000  0.284300  1.0  0.1385
  H  H23  1  0.728000  0.032300  0.342100  1.0  0.1364
  H  H24  1  0.844300  0.752300  0.005500  1.0  0.133
  H  H25  1  0.943600  0.736000  0.784300  1.0  0.1385
  H  H26  1  0.772000  0.967700  0.842100  1.0  0.1361
  H  H27  1  0.344300  0.747700  0.994500  1.0  0.133
  H  H28  1  0.443600  0.764000  0.215700  1.0  0.1385
  H  H29  1  0.272000  0.532300  0.157900  1.0  0.1362
  H  H30  1  0.155700  0.252300  0.494500  1.0  0.1331
  H  H31  1  0.056400  0.236000  0.715700  1.0  0.1387
  H  H32  1  0.228000  0.467700  0.657900  1.0  0.1363
  C  C33  1  0.232000  0.915800  0.510200  1.0  0.7293
  C  C34  1  0.297600  0.867100  0.566600  1.0  -0.1333
  C  C35  1  0.347900  0.779200  0.545900  1.0  0.0314
  C  C36  1  0.464300  0.639700  0.577500  1.0  0.7451
  C  C37  1  0.404500  0.729600  0.600900  1.0  -0.1331
  C  C38  1  0.407500  0.769000  0.678300  1.0  0.066
  C  C39  1  0.361800  0.900600  0.783800  1.0  0.6806
  C  C40  1  0.357100  0.857200  0.700000  1.0  -0.136
  C  C41  1  0.303900  0.906900  0.643900  1.0  0.0627
  C  C42  1  0.268000  0.084200  0.010200  1.0  0.729
  C  C43  1  0.202400  0.132900  0.066600  1.0  -0.1344
  C  C44  1  0.152100  0.220800  0.045900  1.0  0.0297
  C  C45  1  0.035700  0.360300  0.077500  1.0  0.7469
  C  C46  1  0.095500  0.270400  0.100900  1.0  -0.1323
  C  C47  1  0.092500  0.231000  0.178300  1.0  0.0647
  C  C48  1  0.138200  0.099400  0.283800  1.0  0.6808
  C  C49  1  0.142900  0.142800  0.200000  1.0  -0.1357
  C  C50  1  0.196100  0.093100  0.143900  1.0  0.0642
  C  C51  1  0.768000  0.415800  0.989800  1.0  0.7284
  C  C52  1  0.702400  0.367100  0.933400  1.0  -0.1349
  C  C53  1  0.652100  0.279200  0.954100  1.0  0.0304
  C  C54  1  0.535700  0.139700  0.922500  1.0  0.7479
  C  C55  1  0.595500  0.229600  0.899100  1.0  -0.1326
  C  C56  1  0.592500  0.269000  0.821700  1.0  0.0657
  C  C57  1  0.638200  0.400600  0.716200  1.0  0.6809
  C  C58  1  0.642900  0.357200  0.800000  1.0  -0.1354
  C  C59  1  0.696100  0.406900  0.856100  1.0  0.0638
  C  C60  1  0.732000  0.584200  0.489800  1.0  0.7275
  C  C61  1  0.797600  0.632900  0.433400  1.0  -0.1343
  C  C62  1  0.847900  0.720800  0.454100  1.0  0.0301
  C  C63  1  0.964300  0.860300  0.422500  1.0  0.7459
  C  C64  1  0.904500  0.770400  0.399100  1.0  -0.133
  C  C65  1  0.907500  0.731000  0.321700  1.0  0.0652
  C  C66  1  0.861800  0.599400  0.216200  1.0  0.6807
  C  C67  1  0.857100  0.642800  0.300000  1.0  -0.1358
  C  C68  1  0.803900  0.593100  0.356100  1.0  0.0627
  C  C69  1  0.768000  0.084200  0.489800  1.0  0.7282
  C  C70  1  0.702400  0.132900  0.433400  1.0  -0.1346
  C  C71  1  0.652100  0.220800  0.454100  1.0  0.0298
  C  C72  1  0.535700  0.360300  0.422500  1.0  0.7477
  C  C73  1  0.595500  0.270400  0.399100  1.0  -0.1321
  C  C74  1  0.592500  0.231000  0.321700  1.0  0.0649
  C  C75  1  0.638200  0.099400  0.216200  1.0  0.6806
  C  C76  1  0.642900  0.142800  0.300000  1.0  -0.1358
  C  C77  1  0.696100  0.093100  0.356100  1.0  0.0636
  C  C78  1  0.732000  0.915800  0.989800  1.0  0.7278
  C  C79  1  0.797600  0.867100  0.933400  1.0  -0.1342
  C  C80  1  0.847900  0.779200  0.954100  1.0  0.0307
  C  C81  1  0.964300  0.639700  0.922500  1.0  0.7459
  C  C82  1  0.904500  0.729600  0.899100  1.0  -0.133
  C  C83  1  0.907500  0.769000  0.821700  1.0  0.0662
  C  C84  1  0.861800  0.900600  0.716200  1.0  0.6811
  C  C85  1  0.857100  0.857200  0.800000  1.0  -0.1353
  C  C86  1  0.803900  0.906900  0.856100  1.0  0.0628
  C  C87  1  0.232000  0.584200  0.010200  1.0  0.729
  C  C88  1  0.297600  0.632900  0.066600  1.0  -0.1342
  C  C89  1  0.347900  0.720800  0.045900  1.0  0.0306
  C  C90  1  0.464300  0.860300  0.077500  1.0  0.7452
  C  C91  1  0.404500  0.770400  0.100900  1.0  -0.133
  C  C92  1  0.407500  0.731000  0.178300  1.0  0.065
  C  C93  1  0.361800  0.599400  0.283800  1.0  0.6807
  C  C94  1  0.357100  0.642800  0.200000  1.0  -0.1357
  C  C95  1  0.303900  0.593100  0.143900  1.0  0.0635
  C  C96  1  0.268000  0.415800  0.510200  1.0  0.7294
  C  C97  1  0.202400  0.367100  0.566600  1.0  -0.1339
  C  C98  1  0.152100  0.279200  0.545900  1.0  0.0306
  C  C99  1  0.035700  0.139700  0.577500  1.0  0.747
  C  C100  1  0.095500  0.229600  0.600900  1.0  -0.1329
  C  C101  1  0.092500  0.269000  0.678300  1.0  0.0656
  C  C102  1  0.138200  0.400600  0.783800  1.0  0.6808
  C  C103  1  0.142900  0.357200  0.700000  1.0  -0.1361
  C  C104  1  0.196100  0.406900  0.643900  1.0  0.0636
  O  O105  1  0.208600  0.865100  0.451200  1.0  -0.5375
  O  O106  1  0.203000  0.006800  0.525700  1.0  -0.531
  O  O107  1  0.480700  0.624300  0.505600  1.0  -0.6681
  O  O108  1  0.498000  0.584700  0.633000  1.0  -0.5528
  O  O109  1  0.404700  0.848800  0.834400  1.0  -0.5606
  O  O110  1  0.325500  0.987200  0.797900  1.0  -0.5716
  O  O111  1  0.291400  0.134900  0.951200  1.0  -0.5381
  O  O112  1  0.297000  0.993200  0.025700  1.0  -0.5306
  O  O113  1  0.019300  0.375700  0.005600  1.0  -0.6676
  O  O114  1  0.002000  0.415300  0.133000  1.0  -0.5535
  O  O115  1  0.095300  0.151200  0.334400  1.0  -0.562
  O  O116  1  0.174500  0.012800  0.297900  1.0  -0.5715
  O  O117  1  0.791400  0.365100  0.048800  1.0  -0.5367
  O  O118  1  0.797000  0.506800  0.974300  1.0  -0.5312
  O  O119  1  0.519300  0.124300  0.994400  1.0  -0.6683
  O  O120  1  0.502000  0.084700  0.867000  1.0  -0.5528
  O  O121  1  0.595300  0.348800  0.665600  1.0  -0.5618
  O  O122  1  0.674500  0.487200  0.702100  1.0  -0.5691
  O  O123  1  0.708600  0.634900  0.548800  1.0  -0.5364
  O  O124  1  0.703000  0.493200  0.474300  1.0  -0.53
  O  O125  1  0.980700  0.875700  0.494400  1.0  -0.6673
  O  O126  1  0.998000  0.915300  0.367000  1.0  -0.552
  O  O127  1  0.904700  0.651200  0.165600  1.0  -0.5605
  O  O128  1  0.825500  0.512800  0.202100  1.0  -0.5674
  O  O129  1  0.791400  0.134900  0.548800  1.0  -0.5368
  O  O130  1  0.797000  0.993200  0.474300  1.0  -0.5305
  O  O131  1  0.519300  0.375700  0.494400  1.0  -0.6675
  O  O132  1  0.502000  0.415300  0.367000  1.0  -0.5534
  O  O133  1  0.595300  0.151200  0.165600  1.0  -0.5621
  O  O134  1  0.674500  0.012800  0.202100  1.0  -0.5723
  O  O135  1  0.708600  0.865100  0.048800  1.0  -0.5361
  O  O136  1  0.703000  0.006800  0.974300  1.0  -0.5307
  O  O137  1  0.980700  0.624300  0.994400  1.0  -0.6678
  O  O138  1  0.998000  0.584700  0.867000  1.0  -0.552
  O  O139  1  0.904700  0.848800  0.665600  1.0  -0.5613
  O  O140  1  0.825500  0.987200  0.702100  1.0  -0.5707
  O  O141  1  0.208600  0.634900  0.951200  1.0  -0.5373
  O  O142  1  0.203000  0.493200  0.025700  1.0  -0.5301
  O  O143  1  0.480700  0.875700  0.005600  1.0  -0.6681
  O  O144  1  0.498000  0.915300  0.133000  1.0  -0.5524
  O  O145  1  0.404700  0.651200  0.334400  1.0  -0.5611
  O  O146  1  0.325500  0.512800  0.297900  1.0  -0.5676
  O  O147  1  0.291400  0.365100  0.451200  1.0  -0.5386
  O  O148  1  0.297000  0.506800  0.525700  1.0  -0.5315
  O  O149  1  0.019300  0.124300  0.505600  1.0  -0.668
  O  O150  1  0.002000  0.084700  0.633000  1.0  -0.5536
  O  O151  1  0.095300  0.348800  0.834400  1.0  -0.5621
  O  O152  1  0.174500  0.487200  0.797900  1.0  -0.569
