# generated using pymatgen
data_ZnH10C12(NO)4
_symmetry_space_group_name_H-M   'P 1'
_cell_length_a   17.11930000
_cell_length_b   17.11930000
_cell_length_c   17.11930000
_cell_angle_alpha   98.28570000
_cell_angle_beta   115.33700000
_cell_angle_gamma   115.33700000
_symmetry_Int_Tables_number   1
_chemical_formula_structural   ZnH10C12(NO)4
_chemical_formula_sum   'Zn8 H80 C96 N32 O32'
_cell_volume   3755.10893690
_cell_formula_units_Z   8
loop_
 _symmetry_equiv_pos_site_id
 _symmetry_equiv_pos_as_xyz
  1  'x, y, z'
loop_
 _atom_site_type_symbol
 _atom_site_label
 _atom_site_symmetry_multiplicity
 _atom_site_fract_x
 _atom_site_fract_y
 _atom_site_fract_z
 _atom_site_occupancy
 _atom_site_charge
  Zn  Zn1  1  0.384490  0.786870  0.848000  1.0  0.8948
  Zn  Zn2  1  0.884490  0.036490  0.597620  1.0  0.894
  Zn  Zn3  1  0.115510  0.963510  0.402380  1.0  0.894
  Zn  Zn4  1  0.615510  0.213130  0.152000  1.0  0.8957
  Zn  Zn5  1  0.061130  0.848000  0.963510  1.0  0.8926
  Zn  Zn6  1  0.561130  0.597620  0.213130  1.0  0.8953
  Zn  Zn7  1  0.438870  0.402380  0.786870  1.0  0.8951
  Zn  Zn8  1  0.938870  0.152000  0.036490  1.0  0.8945
  H  H9  1  0.324000  0.886100  0.960900  1.0  0.0949
  H  H10  1  0.222400  0.815800  0.692800  1.0  0.1155
  H  H11  1  0.096400  0.883000  0.644800  1.0  0.0937
  H  H12  1  0.109800  0.981700  0.795700  1.0  0.1222
  H  H13  1  0.531900  0.990200  0.875500  1.0  0.0941
  H  H14  1  0.471800  0.758600  0.714800  1.0  0.1212
  H  H15  1  0.614900  0.837200  0.668500  1.0  0.1012
  H  H16  1  0.712400  0.029700  0.733500  1.0  0.1315
  H  H17  1  0.211500  0.936600  0.894700  1.0  0.2908
  H  H18  1  0.641600  0.032400  0.820000  1.0  0.3032
  H  H19  1  0.824000  0.863100  0.437900  1.0  0.0959
  H  H20  1  0.722400  0.029600  0.406600  1.0  0.1138
  H  H21  1  0.596400  0.951600  0.213400  1.0  0.0931
  H  H22  1  0.609800  0.814100  0.128100  1.0  0.1197
  H  H23  1  0.031900  0.156400  0.541700  1.0  0.0945
  H  H24  1  0.971800  0.257000  0.713200  1.0  0.1204
  H  H25  1  0.114900  0.446400  0.777700  1.0  0.1059
  H  H26  1  0.212400  0.478900  0.682700  1.0  0.1333
  H  H27  1  0.711500  0.816800  0.274900  1.0  0.2901
  H  H28  1  0.141600  0.321600  0.609200  1.0  0.3059
  H  H29  1  0.176000  0.136900  0.562100  1.0  0.0945
  H  H30  1  0.277600  0.970400  0.593400  1.0  0.1133
  H  H31  1  0.403600  0.048400  0.786600  1.0  0.093
  H  H32  1  0.390200  0.185900  0.871900  1.0  0.1194
  H  H33  1  0.968100  0.843600  0.458300  1.0  0.094
  H  H34  1  0.028200  0.743000  0.286800  1.0  0.1196
  H  H35  1  0.885100  0.553600  0.222300  1.0  0.1068
  H  H36  1  0.787600  0.521100  0.317300  1.0  0.133
  H  H37  1  0.288500  0.183200  0.725100  1.0  0.2904
  H  H38  1  0.858400  0.678400  0.390800  1.0  0.3052
  H  H39  1  0.676000  0.113900  0.039100  1.0  0.0943
  H  H40  1  0.777600  0.184200  0.307200  1.0  0.1154
  H  H41  1  0.903600  0.117000  0.355200  1.0  0.0928
  H  H42  1  0.890200  0.018300  0.204300  1.0  0.1223
  H  H43  1  0.468100  0.009800  0.124500  1.0  0.095
  H  H44  1  0.528200  0.241400  0.285200  1.0  0.1213
  H  H45  1  0.385100  0.162800  0.331500  1.0  0.1041
  H  H46  1  0.287600  0.970300  0.266500  1.0  0.1307
  H  H47  1  0.788500  0.063400  0.105300  1.0  0.2913
  H  H48  1  0.358400  0.967600  0.180000  1.0  0.3033
  H  H49  1  0.074800  0.960900  0.136900  1.0  0.0963
  H  H50  1  0.877000  0.692800  0.970400  1.0  0.1157
  H  H51  1  0.761800  0.644800  0.048400  1.0  0.0945
  H  H52  1  0.814000  0.795700  0.185900  1.0  0.1207
  H  H53  1  0.885300  0.875500  0.843600  1.0  0.0942
  H  H54  1  0.956200  0.714800  0.743000  1.0  0.1216
  H  H55  1  0.831300  0.668500  0.553600  1.0  0.1049
  H  H56  1  0.703800  0.733500  0.521100  1.0  0.1327
  H  H57  1  0.958100  0.894700  0.183200  1.0  0.2901
  H  H58  1  0.787600  0.820000  0.678400  1.0  0.3046
  H  H59  1  0.574800  0.437900  0.113900  1.0  0.0956
  H  H60  1  0.377000  0.406600  0.184200  1.0  0.1152
  H  H61  1  0.261800  0.213400  0.117000  1.0  0.0935
  H  H62  1  0.314000  0.128100  0.018300  1.0  0.1194
  H  H63  1  0.385300  0.541700  0.009800  1.0  0.0946
  H  H64  1  0.456200  0.713200  0.241400  1.0  0.1207
  H  H65  1  0.331300  0.777700  0.162800  1.0  0.1037
  H  H66  1  0.203800  0.682700  0.970300  1.0  0.1312
  H  H67  1  0.458100  0.274900  0.063400  1.0  0.2907
  H  H68  1  0.287600  0.609200  0.967600  1.0  0.3049
  H  H69  1  0.425200  0.562100  0.886100  1.0  0.0951
  H  H70  1  0.623000  0.593400  0.815800  1.0  0.1145
  H  H71  1  0.738200  0.786600  0.883000  1.0  0.0937
  H  H72  1  0.686000  0.871900  0.981700  1.0  0.1207
  H  H73  1  0.614700  0.458300  0.990200  1.0  0.0943
  H  H74  1  0.543800  0.286800  0.758600  1.0  0.1214
  H  H75  1  0.668700  0.222300  0.837200  1.0  0.1052
  H  H76  1  0.796200  0.317300  0.029700  1.0  0.1313
  H  H77  1  0.541900  0.725100  0.936600  1.0  0.2898
  H  H78  1  0.712400  0.390800  0.032400  1.0  0.3041
  H  H79  1  0.925200  0.039100  0.863100  1.0  0.095
  H  H80  1  0.123000  0.307200  0.029600  1.0  0.1153
  H  H81  1  0.238200  0.355200  0.951600  1.0  0.0941
  H  H82  1  0.186000  0.204300  0.814100  1.0  0.1216
  H  H83  1  0.114700  0.124500  0.156400  1.0  0.0948
  H  H84  1  0.043800  0.285200  0.257000  1.0  0.1215
  H  H85  1  0.168700  0.331500  0.446400  1.0  0.1048
  H  H86  1  0.296200  0.266500  0.478900  1.0  0.1272
  H  H87  1  0.041900  0.105300  0.816800  1.0  0.2911
  H  H88  1  0.212400  0.180000  0.321600  1.0  0.3036
  C  C89  1  0.289700  0.878730  0.898430  1.0  0.2663
  C  C90  1  0.233700  0.840520  0.751420  1.0  0.0102
  C  C91  1  0.189300  0.884440  0.768940  1.0  0.0596
  C  C92  1  0.120200  0.906320  0.708320  1.0  -0.0383
  C  C93  1  0.086700  0.955770  0.732670  1.0  -0.2917
  C  C94  1  0.013300  0.970680  0.661980  1.0  0.6849
  C  C95  1  0.533700  0.948620  0.835920  1.0  0.2298
  C  C96  1  0.501000  0.822060  0.747660  1.0  -0.004
  C  C97  1  0.576900  0.895050  0.748350  1.0  0.0704
  C  C98  1  0.629600  0.895070  0.701270  1.0  -0.0617
  C  C99  1  0.697300  0.971440  0.701140  1.0  -0.275
  C  C100  1  0.750000  0.968530  0.651930  1.0  0.6955
  C  C101  1  0.789700  0.891270  0.410970  1.0  0.2658
  C  C102  1  0.733700  0.982280  0.393180  1.0  0.0087
  C  C103  1  0.689300  0.920360  0.304860  1.0  0.0597
  C  C104  1  0.620200  0.911880  0.213880  1.0  -0.0353
  C  C105  1  0.586700  0.854030  0.130930  1.0  -0.2905
  C  C106  1  0.513300  0.851320  0.042620  1.0  0.6842
  C  C107  1  0.033700  0.197780  0.585080  1.0  0.2267
  C  C108  1  0.001000  0.253340  0.678940  1.0  -0.004
  C  C109  1  0.076900  0.328550  0.681850  1.0  0.0704
  C  C110  1  0.129600  0.428330  0.734530  1.0  -0.0616
  C  C111  1  0.197300  0.496160  0.725860  1.0  -0.2716
  C  C112  1  0.250000  0.598070  0.781470  1.0  0.6909
  C  C113  1  0.210300  0.108730  0.589030  1.0  0.2662
  C  C114  1  0.266300  0.017720  0.606820  1.0  0.009
  C  C115  1  0.310700  0.079640  0.695140  1.0  0.0588
  C  C116  1  0.379800  0.088120  0.786120  1.0  -0.0374
  C  C117  1  0.413300  0.145970  0.869070  1.0  -0.2926
  C  C118  1  0.486700  0.148680  0.957380  1.0  0.6852
  C  C119  1  0.966300  0.802220  0.414920  1.0  0.229
  C  C120  1  0.999000  0.746660  0.321060  1.0  -0.0034
  C  C121  1  0.923100  0.671450  0.318150  1.0  0.0703
  C  C122  1  0.870400  0.571670  0.265470  1.0  -0.0633
  C  C123  1  0.802700  0.503840  0.274140  1.0  -0.2741
  C  C124  1  0.750000  0.401930  0.218530  1.0  0.6919
  C  C125  1  0.710300  0.121270  0.101570  1.0  0.2672
  C  C126  1  0.766300  0.159480  0.248580  1.0  0.0093
  C  C127  1  0.810700  0.115560  0.231060  1.0  0.0608
  C  C128  1  0.879800  0.093680  0.291680  1.0  -0.0366
  C  C129  1  0.913300  0.044230  0.267330  1.0  -0.2946
  C  C130  1  0.986700  0.029320  0.338020  1.0  0.6846
  C  C131  1  0.466300  0.051380  0.164080  1.0  0.2287
  C  C132  1  0.499000  0.177940  0.252340  1.0  -0.0055
  C  C133  1  0.423100  0.104950  0.251650  1.0  0.073
  C  C134  1  0.370400  0.104930  0.298730  1.0  -0.0618
  C  C135  1  0.302700  0.028560  0.298860  1.0  -0.2708
  C  C136  1  0.250000  0.031470  0.348070  1.0  0.6976
  C  C137  1  0.019700  0.898430  0.108730  1.0  0.2645
  C  C138  1  0.910900  0.751420  0.017720  1.0  0.0103
  C  C139  1  0.884500  0.768940  0.079640  1.0  0.0589
  C  C140  1  0.802000  0.708320  0.088120  1.0  -0.037
  C  C141  1  0.776900  0.732670  0.145970  1.0  -0.2929
  C  C142  1  0.691300  0.661980  0.148680  1.0  0.6877
  C  C143  1  0.887300  0.835920  0.802220  1.0  0.2272
  C  C144  1  0.925600  0.747660  0.746660  1.0  -0.0044
  C  C145  1  0.853300  0.748350  0.671450  1.0  0.072
  C  C146  1  0.806200  0.701270  0.571670  1.0  -0.0663
  C  C147  1  0.729700  0.701140  0.503840  1.0  -0.2723
  C  C148  1  0.683400  0.651930  0.401930  1.0  0.6886
  C  C149  1  0.519700  0.410970  0.121270  1.0  0.2677
  C  C150  1  0.410900  0.393180  0.159480  1.0  0.0107
  C  C151  1  0.384500  0.304860  0.115560  1.0  0.0601
  C  C152  1  0.302000  0.213880  0.093680  1.0  -0.0352
  C  C153  1  0.276900  0.130930  0.044230  1.0  -0.292
  C  C154  1  0.191300  0.042620  0.029320  1.0  0.6864
  C  C155  1  0.387300  0.585080  0.051380  1.0  0.2269
  C  C156  1  0.425600  0.678940  0.177940  1.0  0.0011
  C  C157  1  0.353300  0.681850  0.104950  1.0  0.0718
  C  C158  1  0.306200  0.734530  0.104930  1.0  -0.0603
  C  C159  1  0.229700  0.725860  0.028560  1.0  -0.2674
  C  C160  1  0.183400  0.781470  0.031470  1.0  0.6905
  C  C161  1  0.480300  0.589030  0.878730  1.0  0.2671
  C  C162  1  0.589100  0.606820  0.840520  1.0  0.0118
  C  C163  1  0.615500  0.695140  0.884440  1.0  0.0598
  C  C164  1  0.698000  0.786120  0.906320  1.0  -0.0366
  C  C165  1  0.723100  0.869070  0.955770  1.0  -0.2938
  C  C166  1  0.808700  0.957380  0.970680  1.0  0.6869
  C  C167  1  0.612700  0.414920  0.948620  1.0  0.2279
  C  C168  1  0.574400  0.321060  0.822060  1.0  -0.0027
  C  C169  1  0.646700  0.318150  0.895050  1.0  0.0721
  C  C170  1  0.693800  0.265470  0.895070  1.0  -0.0598
  C  C171  1  0.770300  0.274140  0.971440  1.0  -0.2674
  C  C172  1  0.816600  0.218530  0.968530  1.0  0.6924
  C  C173  1  0.980300  0.101570  0.891270  1.0  0.2654
  C  C174  1  0.089100  0.248580  0.982280  1.0  0.0097
  C  C175  1  0.115500  0.231060  0.920360  1.0  0.0595
  C  C176  1  0.198000  0.291680  0.911880  1.0  -0.036
  C  C177  1  0.223100  0.267330  0.854030  1.0  -0.2924
  C  C178  1  0.308700  0.338020  0.851320  1.0  0.6873
  C  C179  1  0.112700  0.164080  0.197780  1.0  0.2265
  C  C180  1  0.074400  0.252340  0.253340  1.0  -0.0069
  C  C181  1  0.146700  0.251650  0.328550  1.0  0.0717
  C  C182  1  0.193800  0.298730  0.428330  1.0  -0.0619
  C  C183  1  0.270300  0.298860  0.496160  1.0  -0.2705
  C  C184  1  0.316600  0.348070  0.598070  1.0  0.6903
  N  N185  1  0.297500  0.838000  0.832620  1.0  -0.3953
  N  N186  1  0.226530  0.907940  0.863550  1.0  -0.2186
  N  N187  1  0.473880  0.856030  0.802950  1.0  -0.4021
  N  N188  1  0.596450  0.975200  0.805950  1.0  -0.2213
  N  N189  1  0.797500  0.964880  0.459500  1.0  -0.3955
  N  N190  1  0.726530  0.862980  0.318590  1.0  -0.219
  N  N191  1  0.973880  0.170930  0.617850  1.0  -0.4031
  N  N192  1  0.096450  0.290500  0.621250  1.0  -0.2172
  N  N193  1  0.202500  0.035120  0.540500  1.0  -0.3978
  N  N194  1  0.273470  0.137020  0.681410  1.0  -0.2186
  N  N195  1  0.026120  0.829070  0.382150  1.0  -0.4007
  N  N196  1  0.903550  0.709500  0.378750  1.0  -0.2163
  N  N197  1  0.702500  0.162000  0.167380  1.0  -0.395
  N  N198  1  0.773470  0.092060  0.136450  1.0  -0.2188
  N  N199  1  0.526120  0.143970  0.197050  1.0  -0.3991
  N  N200  1  0.403550  0.024800  0.194050  1.0  -0.2202
  N  N201  1  0.994620  0.832620  0.035120  1.0  -0.3952
  N  N202  1  0.955610  0.863550  0.137020  1.0  -0.2171
  N  N203  1  0.946920  0.802950  0.829070  1.0  -0.4009
  N  N204  1  0.830750  0.805950  0.709500  1.0  -0.2199
  N  N205  1  0.494620  0.459500  0.162000  1.0  -0.3982
  N  N206  1  0.455610  0.318590  0.092060  1.0  -0.2169
  N  N207  1  0.446920  0.617850  0.143970  1.0  -0.4027
  N  N208  1  0.330750  0.621250  0.024800  1.0  -0.2207
  N  N209  1  0.505380  0.540500  0.838000  1.0  -0.3965
  N  N210  1  0.544390  0.681410  0.907940  1.0  -0.2176
  N  N211  1  0.553080  0.382150  0.856030  1.0  -0.4023
  N  N212  1  0.669250  0.378750  0.975200  1.0  -0.22
  N  N213  1  0.005380  0.167380  0.964880  1.0  -0.3953
  N  N214  1  0.044390  0.136450  0.862980  1.0  -0.2181
  N  N215  1  0.053080  0.197050  0.170930  1.0  -0.4033
  N  N216  1  0.169250  0.194050  0.290500  1.0  -0.2195
  O  O217  1  0.984910  0.019710  0.693480  1.0  -0.6436
  O  O218  1  0.982480  0.940720  0.578800  1.0  -0.5843
  O  O219  1  0.807980  0.047480  0.653860  1.0  -0.6185
  O  O220  1  0.737240  0.893360  0.612380  1.0  -0.634
  O  O221  1  0.484910  0.791430  0.965200  1.0  -0.6438
  O  O222  1  0.482480  0.903680  0.041760  1.0  -0.5849
  O  O223  1  0.307980  0.654120  0.760500  1.0  -0.6195
  O  O224  1  0.237240  0.624860  0.843880  1.0  -0.6318
  O  O225  1  0.515090  0.208570  0.034800  1.0  -0.6423
  O  O226  1  0.517520  0.096320  0.958240  1.0  -0.5842
  O  O227  1  0.692020  0.345880  0.239500  1.0  -0.616
  O  O228  1  0.762760  0.375140  0.156120  1.0  -0.6318
  O  O229  1  0.015090  0.980290  0.306520  1.0  -0.6434
  O  O230  1  0.017520  0.059280  0.421200  1.0  -0.5852
  O  O231  1  0.192020  0.952520  0.346140  1.0  -0.6172
  O  O232  1  0.262760  0.106640  0.387620  1.0  -0.6331
  O  O233  1  0.673770  0.693480  0.208570  1.0  -0.6424
  O  O234  1  0.638080  0.578800  0.096320  1.0  -0.5829
  O  O235  1  0.606380  0.653860  0.345880  1.0  -0.6173
  O  O236  1  0.719020  0.612380  0.375140  1.0  -0.6321
  O  O237  1  0.173770  0.965200  0.980290  1.0  -0.6434
  O  O238  1  0.138080  0.041760  0.059280  1.0  -0.5847
  O  O239  1  0.106380  0.760500  0.952520  1.0  -0.616
  O  O240  1  0.219020  0.843880  0.106640  1.0  -0.6328
  O  O241  1  0.826230  0.034800  0.019710  1.0  -0.6434
  O  O242  1  0.861920  0.958240  0.940720  1.0  -0.5845
  O  O243  1  0.893620  0.239500  0.047480  1.0  -0.6119
  O  O244  1  0.780980  0.156120  0.893360  1.0  -0.6333
  O  O245  1  0.326230  0.306520  0.791430  1.0  -0.6445
  O  O246  1  0.361920  0.421200  0.903680  1.0  -0.584
  O  O247  1  0.393620  0.346140  0.654120  1.0  -0.6173
  O  O248  1  0.280980  0.387620  0.624860  1.0  -0.6311
