# generated using pymatgen
data_CuH8C13NO4
_symmetry_space_group_name_H-M   'P 1'
_cell_length_a   10.81110000
_cell_length_b   10.84750000
_cell_length_c   14.02100000
_cell_angle_alpha   87.53100000
_cell_angle_beta   89.03900000
_cell_angle_gamma   85.99700000
_symmetry_Int_Tables_number   1
_chemical_formula_structural   CuH8C13NO4
_chemical_formula_sum   'Cu4 H32 C52 N4 O16'
_cell_volume   1638.60001596
_cell_formula_units_Z   4
loop_
 _symmetry_equiv_pos_site_id
 _symmetry_equiv_pos_as_xyz
  1  'x, y, z'
loop_
 _atom_site_type_symbol
 _atom_site_label
 _atom_site_symmetry_multiplicity
 _atom_site_fract_x
 _atom_site_fract_y
 _atom_site_fract_z
 _atom_site_occupancy
 _atom_site_charge
  Cu  Cu1  1  0.775710  0.652110  0.386260  1.0  0.8253
  Cu  Cu2  1  0.779080  0.663220  0.197380  1.0  0.8374
  Cu  Cu3  1  0.224290  0.347890  0.613740  1.0  0.8248
  Cu  Cu4  1  0.220920  0.336780  0.802620  1.0  0.8367
  H  H5  1  0.769300  0.254800  0.434400  1.0  0.0994
  H  H6  1  0.764500  0.043000  0.432900  1.0  0.1131
  H  H7  1  0.784500  0.058700  0.147300  1.0  0.1099
  H  H8  1  0.788700  0.271800  0.147900  1.0  0.1059
  H  H9  1  0.381700  0.639800  0.435700  1.0  0.1028
  H  H10  1  0.168100  0.633400  0.435400  1.0  0.1102
  H  H11  1  0.173300  0.675300  0.147700  1.0  0.1057
  H  H12  1  0.386100  0.681000  0.148700  1.0  0.1077
  H  H13  1  0.595400  0.662600  0.558900  1.0  0.0829
  H  H14  1  0.590900  0.669900  0.722200  1.0  0.1212
  H  H15  1  0.962700  0.660500  0.714800  1.0  0.1095
  H  H16  1  0.955900  0.655400  0.553000  1.0  0.076
  H  H17  1  0.947200  0.588900  0.027800  1.0  0.0713
  H  H18  1  0.951600  0.584500  0.864500  1.0  0.1256
  H  H19  1  0.612500  0.759900  0.864200  1.0  0.1281
  H  H20  1  0.617100  0.754700  0.027400  1.0  0.0816
  H  H21  1  0.230700  0.745200  0.565600  1.0  0.0985
  H  H22  1  0.235500  0.957000  0.567100  1.0  0.1131
  H  H23  1  0.215500  0.941300  0.852700  1.0  0.1101
  H  H24  1  0.211300  0.728200  0.852100  1.0  0.106
  H  H25  1  0.618300  0.360200  0.564300  1.0  0.1027
  H  H26  1  0.831900  0.366600  0.564600  1.0  0.1102
  H  H27  1  0.826700  0.324700  0.852300  1.0  0.1055
  H  H28  1  0.613900  0.319000  0.851300  1.0  0.1082
  H  H29  1  0.404600  0.337400  0.441100  1.0  0.0824
  H  H30  1  0.409100  0.330100  0.277800  1.0  0.1213
  H  H31  1  0.037300  0.339500  0.285200  1.0  0.1092
  H  H32  1  0.044100  0.344600  0.447000  1.0  0.0758
  H  H33  1  0.052800  0.411100  0.972200  1.0  0.0712
  H  H34  1  0.048400  0.415500  0.135500  1.0  0.125
  H  H35  1  0.387500  0.240100  0.135800  1.0  0.1277
  H  H36  1  0.382900  0.245300  0.972600  1.0  0.0817
  C  C37  1  0.780100  0.424200  0.292600  1.0  0.6639
  C  C38  1  0.543400  0.663300  0.292490  1.0  0.6721
  C  C39  1  0.772100  0.891100  0.289600  1.0  0.6876
  C  C40  1  0.011100  0.651700  0.291010  1.0  0.6504
  C  C41  1  0.776400  0.285900  0.291600  1.0  -0.133
  C  C42  1  0.771200  0.215700  0.375800  1.0  -0.06
  C  C43  1  0.768800  0.089300  0.374900  1.0  -0.0609
  C  C44  1  0.772400  0.029800  0.290100  1.0  -0.1157
  C  C45  1  0.780500  0.098600  0.205600  1.0  -0.073
  C  C46  1  0.782800  0.225700  0.205900  1.0  -0.0689
  C  C47  1  0.405500  0.661400  0.292060  1.0  -0.1162
  C  C48  1  0.339300  0.647100  0.377500  1.0  -0.0399
  C  C49  1  0.212200  0.643500  0.377600  1.0  -0.048
  C  C50  1  0.148900  0.655100  0.290890  1.0  -0.1232
  C  C51  1  0.215300  0.668500  0.206000  1.0  -0.058
  C  C52  1  0.342100  0.671700  0.206600  1.0  -0.0622
  C  C53  1  0.670900  0.662200  0.591200  1.0  0.1792
  C  C54  1  0.667400  0.666300  0.689200  1.0  -0.2094
  C  C55  1  0.776900  0.665200  0.739130  1.0  0.1029
  C  C56  1  0.885600  0.661000  0.684700  1.0  -0.1917
  C  C57  1  0.880900  0.657800  0.587900  1.0  0.1837
  C  C58  1  0.877000  0.621400  0.994000  1.0  0.1757
  C  C59  1  0.880800  0.618500  0.896200  1.0  -0.2172
  C  C60  1  0.777700  0.667000  0.844500  1.0  0.1138
  C  C61  1  0.681400  0.721000  0.896000  1.0  -0.2114
  C  C62  1  0.685400  0.718400  0.993900  1.0  0.1712
  C  C63  1  0.219900  0.575800  0.707400  1.0  0.6637
  C  C64  1  0.456600  0.336700  0.707510  1.0  0.6716
  C  C65  1  0.227900  0.108900  0.710400  1.0  0.6893
  C  C66  1  0.988900  0.348300  0.708990  1.0  0.6509
  C  C67  1  0.223600  0.714100  0.708400  1.0  -0.1315
  C  C68  1  0.228800  0.784300  0.624200  1.0  -0.0619
  C  C69  1  0.231200  0.910700  0.625100  1.0  -0.0601
  C  C70  1  0.227600  0.970200  0.709900  1.0  -0.1134
  C  C71  1  0.219500  0.901400  0.794400  1.0  -0.0744
  C  C72  1  0.217200  0.774300  0.794100  1.0  -0.0712
  C  C73  1  0.594500  0.338600  0.707940  1.0  -0.1156
  C  C74  1  0.660700  0.352900  0.622500  1.0  -0.0398
  C  C75  1  0.787800  0.356500  0.622400  1.0  -0.0486
  C  C76  1  0.851100  0.344900  0.709110  1.0  -0.1236
  C  C77  1  0.784700  0.331500  0.794000  1.0  -0.0594
  C  C78  1  0.657900  0.328300  0.793400  1.0  -0.0639
  C  C79  1  0.329100  0.337800  0.408800  1.0  0.18
  C  C80  1  0.332600  0.333700  0.310800  1.0  -0.2091
  C  C81  1  0.223100  0.334800  0.260870  1.0  0.1027
  C  C82  1  0.114400  0.339000  0.315300  1.0  -0.1922
  C  C83  1  0.119100  0.342200  0.412100  1.0  0.1835
  C  C84  1  0.123000  0.378600  0.006000  1.0  0.1747
  C  C85  1  0.119200  0.381500  0.103800  1.0  -0.2172
  C  C86  1  0.222300  0.333000  0.155500  1.0  0.1128
  C  C87  1  0.318600  0.279000  0.104000  1.0  -0.2116
  C  C88  1  0.314600  0.281600  0.006100  1.0  0.17
  N  N89  1  0.775600  0.657800  0.540010  1.0  -0.3286
  N  N90  1  0.780000  0.667400  0.043800  1.0  -0.3216
  N  N91  1  0.224400  0.342200  0.459990  1.0  -0.3283
  N  N92  1  0.220000  0.332600  0.956200  1.0  -0.3215
  O  O93  1  0.782200  0.471370  0.371880  1.0  -0.5521
  O  O94  1  0.780500  0.481620  0.213190  1.0  -0.5627
  O  O95  1  0.595850  0.655900  0.372400  1.0  -0.557
  O  O96  1  0.598670  0.671100  0.213060  1.0  -0.5631
  O  O97  1  0.768100  0.834140  0.368590  1.0  -0.5591
  O  O98  1  0.775300  0.843100  0.210150  1.0  -0.5625
  O  O99  1  0.955920  0.648800  0.370610  1.0  -0.5511
  O  O100  1  0.959550  0.653000  0.211330  1.0  -0.5633
  O  O101  1  0.217800  0.528630  0.628120  1.0  -0.5516
  O  O102  1  0.219500  0.518380  0.786810  1.0  -0.5615
  O  O103  1  0.404150  0.344100  0.627600  1.0  -0.5567
  O  O104  1  0.401330  0.328900  0.786940  1.0  -0.5626
  O  O105  1  0.231900  0.165860  0.631410  1.0  -0.5609
  O  O106  1  0.224700  0.156900  0.789850  1.0  -0.5623
  O  O107  1  0.044080  0.351200  0.629390  1.0  -0.5514
  O  O108  1  0.040450  0.347000  0.788670  1.0  -0.5636
