# generated using pymatgen
data_CuH8C13NO4
_symmetry_space_group_name_H-M   'P 1'
_cell_length_a   10.81950000
_cell_length_b   14.00400000
_cell_length_c   21.68200000
_cell_angle_alpha   87.57000000
_cell_angle_beta   86.55700000
_cell_angle_gamma   88.08300000
_symmetry_Int_Tables_number   1
_chemical_formula_structural   CuH8C13NO4
_chemical_formula_sum   'Cu8 H64 C104 N8 O32'
_cell_volume   3274.72397429
_cell_formula_units_Z   8
loop_
 _symmetry_equiv_pos_site_id
 _symmetry_equiv_pos_as_xyz
  1  'x, y, z'
loop_
 _atom_site_type_symbol
 _atom_site_label
 _atom_site_symmetry_multiplicity
 _atom_site_fract_x
 _atom_site_fract_y
 _atom_site_fract_z
 _atom_site_occupancy
 _atom_site_charge
  Cu  Cu1  1  0.228740  0.304900  0.667770  1.0  0.8364
  Cu  Cu2  1  0.237000  0.115670  0.672910  1.0  0.8294
  Cu  Cu3  1  0.198320  0.302780  0.168790  1.0  0.8279
  Cu  Cu4  1  0.207150  0.113350  0.173920  1.0  0.8104
  Cu  Cu5  1  0.771260  0.695100  0.332230  1.0  0.8364
  Cu  Cu6  1  0.763000  0.884330  0.327090  1.0  0.8324
  Cu  Cu7  1  0.801680  0.697220  0.831210  1.0  0.8248
  Cu  Cu8  1  0.792850  0.886650  0.826080  1.0  0.811
  H  H9  1  0.205600  0.353800  0.863600  1.0  0.1065
  H  H10  1  0.193100  0.354100  0.970100  1.0  0.1089
  H  H11  1  0.246000  0.068100  0.977600  1.0  0.1135
  H  H12  1  0.255600  0.069500  0.870900  1.0  0.0943
  H  H13  1  0.845900  0.067400  0.681200  1.0  0.0953
  H  H14  1  0.632400  0.065400  0.677100  1.0  0.1083
  H  H15  1  0.618600  0.352100  0.659600  1.0  0.1075
  H  H16  1  0.832200  0.355600  0.665600  1.0  0.1092
  H  H17  1  0.259200  0.069900  0.475200  1.0  0.1158
  H  H18  1  0.244300  0.069400  0.370800  1.0  0.0908
  H  H19  1  0.168800  0.353400  0.365700  1.0  0.1074
  H  H20  1  0.178900  0.353500  0.472200  1.0  0.1084
  H  H21  1  0.816400  0.063300  0.182000  1.0  0.1014
  H  H22  1  0.601500  0.061900  0.183200  1.0  0.1062
  H  H23  1  0.588700  0.350700  0.159600  1.0  0.1096
  H  H24  1  0.803600  0.351400  0.161900  1.0  0.103
  H  H25  1  0.382900  0.472000  0.616800  1.0  0.0754
  H  H26  1  0.390300  0.634700  0.613400  1.0  0.1305
  H  H27  1  0.072700  0.639500  0.717100  1.0  0.1218
  H  H28  1  0.073800  0.476600  0.715100  1.0  0.0759
  H  H29  1  0.418700  0.940100  0.664400  1.0  0.0831
  H  H30  1  0.420100  0.776900  0.661700  1.0  0.1261
  H  H31  1  0.049000  0.790000  0.671600  1.0  0.1121
  H  H32  1  0.057000  0.952000  0.675200  1.0  0.0802
  H  H33  1  0.387400  0.938200  0.167200  1.0  0.0853
  H  H34  1  0.390100  0.774800  0.161900  1.0  0.1188
  H  H35  1  0.020200  0.788400  0.167400  1.0  0.1076
  H  H36  1  0.029000  0.950200  0.169400  1.0  0.0744
  H  H37  1  0.357300  0.470000  0.115000  1.0  0.0953
  H  H38  1  0.368300  0.632600  0.116400  1.0  0.1264
  H  H39  1  0.034000  0.639700  0.207200  1.0  0.1254
  H  H40  1  0.038200  0.475500  0.208300  1.0  0.0804
  H  H41  1  0.794400  0.646200  0.136400  1.0  0.1062
  H  H42  1  0.806900  0.645900  0.029900  1.0  0.1089
  H  H43  1  0.754000  0.931900  0.022400  1.0  0.1139
  H  H44  1  0.744400  0.930500  0.129100  1.0  0.0943
  H  H45  1  0.154100  0.932600  0.318800  1.0  0.0958
  H  H46  1  0.367600  0.934600  0.322900  1.0  0.1085
  H  H47  1  0.381400  0.647900  0.340400  1.0  0.1079
  H  H48  1  0.167800  0.644400  0.334400  1.0  0.1092
  H  H49  1  0.740800  0.930100  0.524800  1.0  0.116
  H  H50  1  0.755700  0.930600  0.629200  1.0  0.0899
  H  H51  1  0.831200  0.646600  0.634300  1.0  0.1077
  H  H52  1  0.821100  0.646500  0.527800  1.0  0.1093
  H  H53  1  0.183600  0.936700  0.818000  1.0  0.1016
  H  H54  1  0.398500  0.938100  0.816800  1.0  0.1071
  H  H55  1  0.411300  0.649300  0.840400  1.0  0.1103
  H  H56  1  0.196400  0.648600  0.838100  1.0  0.103
  H  H57  1  0.617100  0.528000  0.383200  1.0  0.0754
  H  H58  1  0.609700  0.365300  0.386600  1.0  0.1309
  H  H59  1  0.927300  0.360500  0.282900  1.0  0.1217
  H  H60  1  0.926200  0.523400  0.284900  1.0  0.0762
  H  H61  1  0.581300  0.059900  0.335600  1.0  0.0831
  H  H62  1  0.579900  0.223100  0.338300  1.0  0.1265
  H  H63  1  0.951000  0.210000  0.328400  1.0  0.1124
  H  H64  1  0.943000  0.048000  0.324800  1.0  0.0797
  H  H65  1  0.612600  0.061800  0.832800  1.0  0.085
  H  H66  1  0.609900  0.225200  0.838100  1.0  0.1191
  H  H67  1  0.979800  0.211600  0.832600  1.0  0.1073
  H  H68  1  0.971000  0.049800  0.830600  1.0  0.075
  H  H69  1  0.642700  0.530000  0.885000  1.0  0.0946
  H  H70  1  0.631700  0.367400  0.883600  1.0  0.1259
  H  H71  1  0.966000  0.360300  0.792800  1.0  0.1256
  H  H72  1  0.961800  0.524500  0.791700  1.0  0.0823
  C  C73  1  0.233600  0.210800  0.786830  1.0  0.6616
  C  C74  1  0.998400  0.211300  0.674240  1.0  0.6529
  C  C75  1  0.229600  0.212600  0.553750  1.0  0.6749
  C  C76  1  0.466300  0.208800  0.667000  1.0  0.6686
  C  C77  1  0.200800  0.210500  0.288170  1.0  0.6613
  C  C78  1  0.968700  0.208800  0.172930  1.0  0.6647
  C  C79  1  0.212700  0.209900  0.053860  1.0  0.6838
  C  C80  1  0.436100  0.204400  0.169060  1.0  0.6584
  C  C81  1  0.232000  0.211600  0.856510  1.0  -0.109
  C  C82  1  0.213600  0.295800  0.886600  1.0  -0.0579
  C  C83  1  0.206900  0.296000  0.950200  1.0  -0.0729
  C  C84  1  0.220400  0.211500  0.985380  1.0  -0.1353
  C  C85  1  0.238000  0.126400  0.954800  1.0  -0.0649
  C  C86  1  0.243600  0.127500  0.891100  1.0  -0.0536
  C  C87  1  0.861200  0.211100  0.672930  1.0  -0.1231
  C  C88  1  0.800100  0.125300  0.676900  1.0  -0.041
  C  C89  1  0.672900  0.123900  0.674600  1.0  -0.0555
  C  C90  1  0.605500  0.208500  0.668670  1.0  -0.1147
  C  C91  1  0.665000  0.294600  0.664500  1.0  -0.0646
  C  C92  1  0.792400  0.296800  0.667400  1.0  -0.0452
  C  C93  1  0.220500  0.213000  0.484700  1.0  -0.1096
  C  C94  1  0.240300  0.127200  0.453100  1.0  -0.0615
  C  C95  1  0.232300  0.127200  0.391200  1.0  -0.0394
  C  C96  1  0.206500  0.210700  0.356860  1.0  -0.1342
  C  C97  1  0.186600  0.296100  0.388000  1.0  -0.0601
  C  C98  1  0.193200  0.296200  0.451500  1.0  -0.0576
  C  C99  1  0.830700  0.207900  0.171620  1.0  -0.1226
  C  C100  1  0.770200  0.121100  0.177800  1.0  -0.0522
  C  C101  1  0.642400  0.120100  0.177800  1.0  -0.0397
  C  C102  1  0.574400  0.205700  0.169770  1.0  -0.1132
  C  C103  1  0.634600  0.292900  0.164100  1.0  -0.0557
  C  C104  1  0.762700  0.293100  0.165300  1.0  -0.0443
  C  C105  1  0.318000  0.506700  0.637200  1.0  0.1838
  C  C106  1  0.323800  0.604300  0.635200  1.0  -0.2207
  C  C107  1  0.232600  0.657000  0.665000  1.0  0.1047
  C  C108  1  0.137900  0.606700  0.695500  1.0  -0.2123
  C  C109  1  0.139400  0.509400  0.694300  1.0  0.1776
  C  C110  1  0.342700  0.909200  0.666200  1.0  0.1782
  C  C111  1  0.344100  0.811400  0.664400  1.0  -0.2086
  C  C112  1  0.234600  0.763500  0.666500  1.0  0.0963
  C  C113  1  0.126200  0.819100  0.670400  1.0  -0.1918
  C  C114  1  0.131700  0.915800  0.672400  1.0  0.1802
  C  C115  1  0.311700  0.907000  0.167500  1.0  0.1753
  C  C116  1  0.313800  0.809000  0.164200  1.0  -0.2005
  C  C117  1  0.205400  0.760700  0.164220  1.0  0.1009
  C  C118  1  0.097600  0.817000  0.167000  1.0  -0.1937
  C  C119  1  0.103500  0.913700  0.169100  1.0  0.1841
  C  C120  1  0.292800  0.504800  0.135600  1.0  0.1586
  C  C121  1  0.299000  0.602000  0.135400  1.0  -0.2046
  C  C122  1  0.202800  0.655500  0.163300  1.0  0.104
  C  C123  1  0.103200  0.606400  0.189400  1.0  -0.218
  C  C124  1  0.106100  0.507700  0.189200  1.0  0.1839
  C  C125  1  0.766400  0.789200  0.213170  1.0  0.6628
  C  C126  1  0.001600  0.788700  0.325760  1.0  0.6511
  C  C127  1  0.770400  0.787400  0.446250  1.0  0.6767
  C  C128  1  0.533700  0.791200  0.333000  1.0  0.6687
  C  C129  1  0.799200  0.789500  0.711830  1.0  0.6634
  C  C130  1  0.031300  0.791200  0.827070  1.0  0.6666
  C  C131  1  0.787300  0.790100  0.946140  1.0  0.6837
  C  C132  1  0.563900  0.795600  0.830940  1.0  0.6579
  C  C133  1  0.768000  0.788400  0.143490  1.0  -0.1095
  C  C134  1  0.786400  0.704200  0.113400  1.0  -0.059
  C  C135  1  0.793100  0.704000  0.049800  1.0  -0.0744
  C  C136  1  0.779600  0.788500  0.014620  1.0  -0.1321
  C  C137  1  0.762000  0.873600  0.045200  1.0  -0.0666
  C  C138  1  0.756400  0.872500  0.108900  1.0  -0.0528
  C  C139  1  0.138800  0.788900  0.327070  1.0  -0.1239
  C  C140  1  0.199900  0.874700  0.323100  1.0  -0.0422
  C  C141  1  0.327100  0.876100  0.325400  1.0  -0.057
  C  C142  1  0.394500  0.791500  0.331330  1.0  -0.1105
  C  C143  1  0.335000  0.705400  0.335500  1.0  -0.0645
  C  C144  1  0.207600  0.703200  0.332600  1.0  -0.0437
  C  C145  1  0.779500  0.787000  0.515300  1.0  -0.109
  C  C146  1  0.759700  0.872800  0.546900  1.0  -0.0612
  C  C147  1  0.767700  0.872800  0.608800  1.0  -0.038
  C  C148  1  0.793500  0.789300  0.643140  1.0  -0.139
  C  C149  1  0.813400  0.703900  0.612000  1.0  -0.0603
  C  C150  1  0.806800  0.703800  0.548500  1.0  -0.0573
  C  C151  1  0.169300  0.792100  0.828380  1.0  -0.1248
  C  C152  1  0.229800  0.878900  0.822200  1.0  -0.0545
  C  C153  1  0.357600  0.879900  0.822200  1.0  -0.0459
  C  C154  1  0.425600  0.794300  0.830230  1.0  -0.1123
  C  C155  1  0.365400  0.707100  0.835900  1.0  -0.0554
  C  C156  1  0.237300  0.706900  0.834700  1.0  -0.0427
  C  C157  1  0.682000  0.493300  0.362800  1.0  0.1837
  C  C158  1  0.676200  0.395700  0.364800  1.0  -0.2218
  C  C159  1  0.767400  0.343000  0.335000  1.0  0.1041
  C  C160  1  0.862100  0.393300  0.304500  1.0  -0.214
  C  C161  1  0.860600  0.490600  0.305700  1.0  0.1734
  C  C162  1  0.657300  0.090800  0.333800  1.0  0.1792
  C  C163  1  0.655900  0.188600  0.335600  1.0  -0.21
  C  C164  1  0.765400  0.236500  0.333500  1.0  0.0987
  C  C165  1  0.873800  0.180900  0.329600  1.0  -0.1924
  C  C166  1  0.868300  0.084200  0.327600  1.0  0.1805
  C  C167  1  0.688300  0.093000  0.832500  1.0  0.1744
  C  C168  1  0.686200  0.191000  0.835800  1.0  -0.2011
  C  C169  1  0.794600  0.239300  0.835780  1.0  0.1032
  C  C170  1  0.902400  0.183000  0.833000  1.0  -0.1937
  C  C171  1  0.896500  0.086300  0.830900  1.0  0.1834
  C  C172  1  0.707200  0.495200  0.864400  1.0  0.159
  C  C173  1  0.701000  0.398000  0.864600  1.0  -0.2057
  C  C174  1  0.797200  0.344500  0.836700  1.0  0.1052
  C  C175  1  0.896800  0.393600  0.810600  1.0  -0.2178
  C  C176  1  0.893900  0.492300  0.810800  1.0  0.1822
  N  N177  1  0.229100  0.458900  0.665270  1.0  -0.3239
  N  N178  1  0.238600  0.962100  0.670540  1.0  -0.3267
  N  N179  1  0.208000  0.958800  0.170890  1.0  -0.3234
  N  N180  1  0.197400  0.456200  0.164240  1.0  -0.3193
  N  N181  1  0.770900  0.541100  0.334730  1.0  -0.3249
  N  N182  1  0.761400  0.037900  0.329460  1.0  -0.3272
  N  N183  1  0.792000  0.041200  0.829110  1.0  -0.3239
  N  N184  1  0.802600  0.543800  0.835760  1.0  -0.3202
  O  O185  1  0.231400  0.290100  0.758280  1.0  -0.5683
  O  O186  1  0.234100  0.131000  0.762690  1.0  -0.5528
  O  O187  1  0.048200  0.292500  0.674270  1.0  -0.5715
  O  O188  1  0.056600  0.132300  0.676060  1.0  -0.5496
  O  O189  1  0.225900  0.292800  0.578200  1.0  -0.5636
  O  O190  1  0.240300  0.133500  0.582110  1.0  -0.5606
  O  O191  1  0.409900  0.287200  0.662620  1.0  -0.5572
  O  O192  1  0.416100  0.128300  0.669190  1.0  -0.5589
  O  O193  1  0.196800  0.290500  0.259410  1.0  -0.5695
  O  O194  1  0.200200  0.131200  0.264220  1.0  -0.559
  O  O195  1  0.017700  0.288300  0.172530  1.0  -0.5617
  O  O196  1  0.026600  0.129500  0.174700  1.0  -0.5531
  O  O197  1  0.203200  0.290200  0.078920  1.0  -0.5726
  O  O198  1  0.217100  0.131700  0.083000  1.0  -0.5646
  O  O199  1  0.378900  0.284500  0.165910  1.0  -0.5751
  O  O200  1  0.385800  0.125300  0.173090  1.0  -0.5518
  O  O201  1  0.768600  0.709900  0.241720  1.0  -0.5692
  O  O202  1  0.765900  0.869000  0.237310  1.0  -0.5536
  O  O203  1  0.951800  0.707500  0.325730  1.0  -0.5712
  O  O204  1  0.943400  0.867700  0.323940  1.0  -0.5501
  O  O205  1  0.774100  0.707200  0.421800  1.0  -0.5648
  O  O206  1  0.759700  0.866500  0.417890  1.0  -0.5579
  O  O207  1  0.590100  0.712800  0.337380  1.0  -0.5567
  O  O208  1  0.583900  0.871700  0.330810  1.0  -0.5597
  O  O209  1  0.803200  0.709500  0.740590  1.0  -0.5689
  O  O210  1  0.799800  0.868800  0.735780  1.0  -0.5583
  O  O211  1  0.982300  0.711700  0.827470  1.0  -0.5615
  O  O212  1  0.973400  0.870500  0.825300  1.0  -0.5534
  O  O213  1  0.796800  0.709800  0.921080  1.0  -0.572
  O  O214  1  0.782900  0.868300  0.917000  1.0  -0.5613
  O  O215  1  0.621100  0.715500  0.834090  1.0  -0.5749
  O  O216  1  0.614200  0.874700  0.826910  1.0  -0.5511
