# generated using pymatgen
data_CuH8C13NO4
_symmetry_space_group_name_H-M   'P 1'
_cell_length_a   10.80440000
_cell_length_b   14.05300000
_cell_length_c   21.67800000
_cell_angle_alpha   89.87800000
_cell_angle_beta   83.36300000
_cell_angle_gamma   88.98100000
_symmetry_Int_Tables_number   1
_chemical_formula_structural   CuH8C13NO4
_chemical_formula_sum   'Cu8 H64 C104 N8 O32'
_cell_volume   3268.88717288
_cell_formula_units_Z   8
loop_
 _symmetry_equiv_pos_site_id
 _symmetry_equiv_pos_as_xyz
  1  'x, y, z'
loop_
 _atom_site_type_symbol
 _atom_site_label
 _atom_site_symmetry_multiplicity
 _atom_site_fract_x
 _atom_site_fract_y
 _atom_site_fract_z
 _atom_site_occupancy
 _atom_site_charge
  Cu  Cu1  1  0.718460  0.298890  0.671650  1.0  0.8202
  Cu  Cu2  1  0.723220  0.109930  0.671640  1.0  0.8267
  Cu  Cu3  1  0.732970  0.296460  0.170470  1.0  0.8369
  Cu  Cu4  1  0.737310  0.107290  0.171260  1.0  0.8373
  Cu  Cu5  1  0.281540  0.701110  0.328350  1.0  0.8192
  Cu  Cu6  1  0.276780  0.890070  0.328360  1.0  0.8262
  Cu  Cu7  1  0.267030  0.703540  0.829530  1.0  0.8348
  Cu  Cu8  1  0.262690  0.892710  0.828740  1.0  0.8375
  H  H9  1  0.772300  0.343900  0.863800  1.0  0.1069
  H  H10  1  0.786400  0.343000  0.969900  1.0  0.1051
  H  H11  1  0.680700  0.071800  0.979300  1.0  0.1153
  H  H12  1  0.668700  0.071500  0.874100  1.0  0.1022
  H  H13  1  0.326900  0.059500  0.686500  1.0  0.1052
  H  H14  1  0.113200  0.060100  0.685500  1.0  0.1065
  H  H15  1  0.114500  0.343800  0.655900  1.0  0.1122
  H  H16  1  0.328000  0.343900  0.658600  1.0  0.1046
  H  H17  1  0.797800  0.076400  0.471500  1.0  0.1139
  H  H18  1  0.788700  0.073100  0.366200  1.0  0.0952
  H  H19  1  0.684900  0.347600  0.369700  1.0  0.1064
  H  H20  1  0.684500  0.347700  0.477000  1.0  0.1076
  H  H21  1  0.341100  0.056300  0.188900  1.0  0.1044
  H  H22  1  0.129600  0.054800  0.182900  1.0  0.1076
  H  H23  1  0.129000  0.337600  0.151400  1.0  0.1117
  H  H24  1  0.341200  0.339500  0.155700  1.0  0.1095
  H  H25  1  0.905800  0.937100  0.662800  1.0  0.0789
  H  H26  1  0.911800  0.773600  0.662800  1.0  0.131
  H  H27  1  0.537900  0.779000  0.669300  1.0  0.1179
  H  H28  1  0.544200  0.942000  0.671500  1.0  0.0766
  H  H29  1  0.893000  0.459400  0.119400  1.0  0.0801
  H  H30  1  0.902500  0.622400  0.116100  1.0  0.1271
  H  H31  1  0.569500  0.632500  0.221400  1.0  0.1281
  H  H32  1  0.574300  0.468600  0.222400  1.0  0.078
  H  H33  1  0.557500  0.939700  0.174800  1.0  0.0791
  H  H34  1  0.551400  0.776600  0.174000  1.0  0.1168
  H  H35  1  0.925700  0.770700  0.158900  1.0  0.1201
  H  H36  1  0.919600  0.934500  0.161000  1.0  0.0848
  H  H37  1  0.574800  0.468600  0.624700  1.0  0.08
  H  H38  1  0.574200  0.631400  0.619000  1.0  0.1251
  H  H39  1  0.869000  0.628200  0.717600  1.0  0.1248
  H  H40  1  0.856900  0.465200  0.720900  1.0  0.0818
  H  H41  1  0.227700  0.656100  0.136200  1.0  0.1068
  H  H42  1  0.213600  0.657000  0.030100  1.0  0.1049
  H  H43  1  0.319300  0.928200  0.020700  1.0  0.1155
  H  H44  1  0.331300  0.928500  0.125900  1.0  0.1018
  H  H45  1  0.673100  0.940500  0.313500  1.0  0.1045
  H  H46  1  0.886800  0.939900  0.314500  1.0  0.1072
  H  H47  1  0.885500  0.656200  0.344100  1.0  0.1126
  H  H48  1  0.672000  0.656100  0.341400  1.0  0.1049
  H  H49  1  0.202200  0.923600  0.528500  1.0  0.1138
  H  H50  1  0.211300  0.926900  0.633800  1.0  0.095
  H  H51  1  0.315100  0.652400  0.630300  1.0  0.1064
  H  H52  1  0.315500  0.652300  0.523000  1.0  0.1079
  H  H53  1  0.658900  0.943700  0.811100  1.0  0.1052
  H  H54  1  0.870400  0.945200  0.817100  1.0  0.1072
  H  H55  1  0.871000  0.662400  0.848600  1.0  0.112
  H  H56  1  0.658800  0.660500  0.844300  1.0  0.1091
  H  H57  1  0.094200  0.062900  0.337200  1.0  0.0787
  H  H58  1  0.088200  0.226400  0.337200  1.0  0.1308
  H  H59  1  0.462100  0.221000  0.330700  1.0  0.1183
  H  H60  1  0.455800  0.058000  0.328500  1.0  0.0769
  H  H61  1  0.107000  0.540600  0.880600  1.0  0.0812
  H  H62  1  0.097500  0.377600  0.883900  1.0  0.1269
  H  H63  1  0.430500  0.367500  0.778600  1.0  0.1281
  H  H64  1  0.425700  0.531400  0.777600  1.0  0.0777
  H  H65  1  0.442500  0.060300  0.825200  1.0  0.0788
  H  H66  1  0.448600  0.223400  0.826000  1.0  0.1171
  H  H67  1  0.074300  0.229300  0.841100  1.0  0.1195
  H  H68  1  0.080400  0.065500  0.839000  1.0  0.0846
  H  H69  1  0.425200  0.531400  0.375300  1.0  0.0805
  H  H70  1  0.425800  0.368600  0.381000  1.0  0.1256
  H  H71  1  0.131000  0.371800  0.282400  1.0  0.1243
  H  H72  1  0.143100  0.534800  0.279100  1.0  0.082
  C  C73  1  0.712800  0.206500  0.788830  1.0  0.6585
  C  C74  1  0.486900  0.201600  0.674320  1.0  0.6534
  C  C75  1  0.734200  0.210400  0.554250  1.0  0.6609
  C  C76  1  0.954300  0.201900  0.668570  1.0  0.6698
  C  C77  1  0.729300  0.205800  0.287860  1.0  0.6697
  C  C78  1  0.500500  0.200400  0.175440  1.0  0.657
  C  C79  1  0.740700  0.207100  0.053610  1.0  0.6645
  C  C80  1  0.969400  0.196000  0.165730  1.0  0.6575
  C  C81  1  0.719700  0.207200  0.857550  1.0  -0.1338
  C  C82  1  0.754200  0.288200  0.886960  1.0  -0.0711
  C  C83  1  0.762000  0.287600  0.950620  1.0  -0.061
  C  C84  1  0.735100  0.208600  0.985480  1.0  -0.1034
  C  C85  1  0.699800  0.127200  0.956010  1.0  -0.0594
  C  C86  1  0.692600  0.127200  0.893220  1.0  -0.0518
  C  C87  1  0.349000  0.201200  0.672340  1.0  -0.1133
  C  C88  1  0.284000  0.116900  0.680430  1.0  -0.0428
  C  C89  1  0.157000  0.117200  0.679520  1.0  -0.055
  C  C90  1  0.092600  0.202100  0.669810  1.0  -0.1149
  C  C91  1  0.157500  0.286500  0.662090  1.0  -0.0566
  C  C92  1  0.284500  0.286500  0.663540  1.0  -0.0595
  C  C93  1  0.736100  0.211300  0.485210  1.0  -0.1018
  C  C94  1  0.771000  0.131000  0.451380  1.0  -0.0675
  C  C95  1  0.767100  0.129600  0.388270  1.0  -0.0498
  C  C96  1  0.732600  0.208700  0.356740  1.0  -0.1185
  C  C97  1  0.704600  0.291300  0.390240  1.0  -0.0847
  C  C98  1  0.705400  0.291400  0.454470  1.0  -0.056
  C  C99  1  0.363400  0.198500  0.172920  1.0  -0.1223
  C  C100  1  0.298400  0.113100  0.181110  1.0  -0.0537
  C  C101  1  0.172600  0.112300  0.177800  1.0  -0.0443
  C  C102  1  0.107900  0.196300  0.166950  1.0  -0.1246
  C  C103  1  0.172100  0.280800  0.158840  1.0  -0.054
  C  C104  1  0.298400  0.281900  0.161570  1.0  -0.0456
  C  C105  1  0.830300  0.904400  0.664660  1.0  0.1754
  C  C106  1  0.834800  0.806200  0.664350  1.0  -0.2059
  C  C107  1  0.724700  0.755800  0.666360  1.0  0.1002
  C  C108  1  0.614900  0.809300  0.668470  1.0  -0.2046
  C  C109  1  0.619700  0.907200  0.669400  1.0  0.1839
  C  C110  1  0.827300  0.495200  0.140790  1.0  0.1736
  C  C111  1  0.833500  0.592900  0.138180  1.0  -0.2181
  C  C112  1  0.736900  0.647600  0.168440  1.0  0.1095
  C  C113  1  0.637600  0.598900  0.200380  1.0  -0.2012
  C  C114  1  0.641200  0.500800  0.200570  1.0  0.1714
  C  C115  1  0.633100  0.904900  0.171620  1.0  0.1775
  C  C116  1  0.628700  0.806800  0.171300  1.0  -0.1971
  C  C117  1  0.737100  0.753200  0.167010  1.0  0.0962
  C  C118  1  0.848600  0.803600  0.162500  1.0  -0.1946
  C  C119  1  0.844100  0.901700  0.163460  1.0  0.1769
  C  C120  1  0.635100  0.501900  0.643500  1.0  0.1702
  C  C121  1  0.634000  0.599300  0.639900  1.0  -0.2096
  C  C122  1  0.723300  0.650800  0.667750  1.0  0.1083
  C  C123  1  0.807300  0.597600  0.698100  1.0  -0.2208
  C  C124  1  0.800000  0.499800  0.699500  1.0  0.1747
  C  C125  1  0.287200  0.793500  0.211170  1.0  0.6588
  C  C126  1  0.513100  0.798400  0.325680  1.0  0.6512
  C  C127  1  0.265800  0.789600  0.445750  1.0  0.6614
  C  C128  1  0.045700  0.798100  0.331430  1.0  0.6678
  C  C129  1  0.270700  0.794200  0.712140  1.0  0.6699
  C  C130  1  0.499500  0.799600  0.824560  1.0  0.6556
  C  C131  1  0.259300  0.792900  0.946390  1.0  0.6641
  C  C132  1  0.030600  0.804000  0.834270  1.0  0.6565
  C  C133  1  0.280300  0.792800  0.142450  1.0  -0.1302
  C  C134  1  0.245800  0.711800  0.113040  1.0  -0.0712
  C  C135  1  0.238000  0.712400  0.049380  1.0  -0.0627
  C  C136  1  0.264900  0.791400  0.014520  1.0  -0.1028
  C  C137  1  0.300200  0.872800  0.043990  1.0  -0.0588
  C  C138  1  0.307400  0.872800  0.106780  1.0  -0.0512
  C  C139  1  0.651000  0.798800  0.327660  1.0  -0.1126
  C  C140  1  0.716000  0.883100  0.319570  1.0  -0.0433
  C  C141  1  0.843000  0.882800  0.320480  1.0  -0.058
  C  C142  1  0.907400  0.797900  0.330190  1.0  -0.1153
  C  C143  1  0.842500  0.713500  0.337910  1.0  -0.0564
  C  C144  1  0.715500  0.713500  0.336460  1.0  -0.056
  C  C145  1  0.263900  0.788700  0.514790  1.0  -0.1011
  C  C146  1  0.229000  0.869000  0.548620  1.0  -0.0666
  C  C147  1  0.232900  0.870400  0.611730  1.0  -0.0491
  C  C148  1  0.267400  0.791300  0.643260  1.0  -0.1181
  C  C149  1  0.295400  0.708700  0.609760  1.0  -0.0848
  C  C150  1  0.294600  0.708600  0.545530  1.0  -0.0564
  C  C151  1  0.636600  0.801500  0.827080  1.0  -0.1231
  C  C152  1  0.701600  0.886900  0.818890  1.0  -0.0548
  C  C153  1  0.827400  0.887700  0.822200  1.0  -0.0472
  C  C154  1  0.892100  0.803700  0.833050  1.0  -0.1251
  C  C155  1  0.827900  0.719200  0.841160  1.0  -0.0546
  C  C156  1  0.701600  0.718100  0.838430  1.0  -0.0441
  C  C157  1  0.169700  0.095600  0.335340  1.0  0.1756
  C  C158  1  0.165200  0.193800  0.335650  1.0  -0.2075
  C  C159  1  0.275300  0.244200  0.333640  1.0  0.0994
  C  C160  1  0.385100  0.190700  0.331530  1.0  -0.2048
  C  C161  1  0.380300  0.092800  0.330600  1.0  0.1848
  C  C162  1  0.172700  0.504800  0.859210  1.0  0.1749
  C  C163  1  0.166500  0.407100  0.861820  1.0  -0.2195
  C  C164  1  0.263100  0.352400  0.831560  1.0  0.1086
  C  C165  1  0.362400  0.401100  0.799620  1.0  -0.2014
  C  C166  1  0.358800  0.499200  0.799430  1.0  0.1707
  C  C167  1  0.366900  0.095100  0.828380  1.0  0.1776
  C  C168  1  0.371300  0.193200  0.828700  1.0  -0.1987
  C  C169  1  0.262900  0.246800  0.832990  1.0  0.0975
  C  C170  1  0.151400  0.196400  0.837500  1.0  -0.1954
  C  C171  1  0.155900  0.098300  0.836540  1.0  0.1769
  C  C172  1  0.364900  0.498100  0.356500  1.0  0.1699
  C  C173  1  0.366000  0.400700  0.360100  1.0  -0.2094
  C  C174  1  0.276700  0.349200  0.332250  1.0  0.109
  C  C175  1  0.192700  0.402400  0.301900  1.0  -0.2228
  C  C176  1  0.200000  0.500200  0.300500  1.0  0.175
  N  N177  1  0.724600  0.955240  0.667490  1.0  -0.3239
  N  N178  1  0.735100  0.449310  0.171320  1.0  -0.326
  N  N179  1  0.738300  0.952320  0.167710  1.0  -0.3315
  N  N180  1  0.717000  0.452280  0.672140  1.0  -0.3182
  N  N181  1  0.275400  0.044760  0.332510  1.0  -0.3243
  N  N182  1  0.264900  0.550690  0.828680  1.0  -0.3271
  N  N183  1  0.261700  0.047680  0.832290  1.0  -0.3316
  N  N184  1  0.283000  0.547720  0.327860  1.0  -0.3182
  O  O185  1  0.720300  0.285640  0.761790  1.0  -0.5649
  O  O186  1  0.700210  0.127290  0.763800  1.0  -0.5551
  O  O187  1  0.536350  0.280730  0.680510  1.0  -0.5646
  O  O188  1  0.543420  0.121980  0.670160  1.0  -0.5491
  O  O189  1  0.718860  0.289620  0.581570  1.0  -0.5661
  O  O190  1  0.746900  0.131160  0.580170  1.0  -0.5595
  O  O191  1  0.900660  0.281100  0.662250  1.0  -0.5664
  O  O192  1  0.901410  0.122460  0.673830  1.0  -0.5577
  O  O193  1  0.715610  0.284640  0.261140  1.0  -0.565
  O  O194  1  0.739700  0.126260  0.262070  1.0  -0.5555
  O  O195  1  0.552400  0.279630  0.171530  1.0  -0.5609
  O  O196  1  0.555950  0.120970  0.181220  1.0  -0.5644
  O  O197  1  0.749700  0.286600  0.079710  1.0  -0.5634
  O  O198  1  0.735000  0.127800  0.080570  1.0  -0.5614
  O  O199  1  0.913850  0.275800  0.169370  1.0  -0.5659
  O  O200  1  0.917930  0.116540  0.162100  1.0  -0.5518
  O  O201  1  0.279700  0.714360  0.238210  1.0  -0.5649
  O  O202  1  0.299790  0.872710  0.236200  1.0  -0.5553
  O  O203  1  0.463650  0.719270  0.319490  1.0  -0.5642
  O  O204  1  0.456580  0.878020  0.329840  1.0  -0.5481
  O  O205  1  0.281140  0.710380  0.418430  1.0  -0.5654
  O  O206  1  0.253100  0.868840  0.419830  1.0  -0.5597
  O  O207  1  0.099340  0.718900  0.337750  1.0  -0.567
  O  O208  1  0.098590  0.877540  0.326170  1.0  -0.558
  O  O209  1  0.284390  0.715360  0.738860  1.0  -0.5651
  O  O210  1  0.260300  0.873740  0.737930  1.0  -0.5553
  O  O211  1  0.447600  0.720370  0.828470  1.0  -0.5615
  O  O212  1  0.444050  0.879030  0.818780  1.0  -0.5634
  O  O213  1  0.250300  0.713400  0.920290  1.0  -0.5637
  O  O214  1  0.265000  0.872200  0.919430  1.0  -0.5623
  O  O215  1  0.086150  0.724200  0.830630  1.0  -0.5645
  O  O216  1  0.082070  0.883460  0.837900  1.0  -0.5532
