# generated using pymatgen
data_CuH9C14NO4
_symmetry_space_group_name_H-M   'P 1'
_cell_length_a   10.80600000
_cell_length_b   10.83400000
_cell_length_c   16.27000000
_cell_angle_alpha   90.49200000
_cell_angle_beta   97.15400000
_cell_angle_gamma   90.85500000
_symmetry_Int_Tables_number   1
_chemical_formula_structural   CuH9C14NO4
_chemical_formula_sum   'Cu4 H36 C56 N4 O16'
_cell_volume   1889.62101370
_cell_formula_units_Z   4
loop_
 _symmetry_equiv_pos_site_id
 _symmetry_equiv_pos_as_xyz
  1  'x, y, z'
loop_
 _atom_site_type_symbol
 _atom_site_label
 _atom_site_symmetry_multiplicity
 _atom_site_fract_x
 _atom_site_fract_y
 _atom_site_fract_z
 _atom_site_occupancy
 _atom_site_charge
  Cu  Cu1  1  0.316280  0.840510  0.777230  1.0  0.8211
  Cu  Cu2  1  0.284230  0.837820  0.612780  1.0  0.8179
  Cu  Cu3  1  0.683720  0.159490  0.222770  1.0  0.8211
  Cu  Cu4  1  0.715770  0.162180  0.387220  1.0  0.8182
  H  H5  1  0.503300  0.889400  0.935200  1.0  0.0764
  H  H6  1  0.515800  0.885900  0.077400  1.0  0.1126
  H  H7  1  0.166100  0.753900  0.054500  1.0  0.1263
  H  H8  1  0.166700  0.751900  0.913800  1.0  0.0863
  H  H9  1  0.667700  0.836500  0.571000  1.0  0.1017
  H  H10  1  0.880000  0.833200  0.568400  1.0  0.1036
  H  H11  1  0.718400  0.844700  0.820100  1.0  0.111
  H  H12  1  0.932300  0.843400  0.818400  1.0  0.1058
  H  H13  1  0.273400  0.229100  0.573100  1.0  0.1023
  H  H14  1  0.171700  0.807700  0.186300  1.0  0.0991
  H  H15  1  0.316600  0.450800  0.819800  1.0  0.1119
  H  H16  1  0.316900  0.236600  0.821600  1.0  0.1052
  H  H17  1  0.445400  0.844000  0.334900  1.0  0.1139
  H  H18  1  0.423300  0.845900  0.203500  1.0  0.0962
  H  H19  1  0.277200  0.442000  0.572100  1.0  0.1107
  H  H20  1  0.084500  0.830200  0.455600  1.0  0.0863
  H  H21  1  0.071700  0.821400  0.313700  1.0  0.1228
  H  H22  1  0.447500  0.851300  0.475600  1.0  0.0771
  H  H23  1  0.496700  0.110600  0.064800  1.0  0.076
  H  H24  1  0.484200  0.114100  0.922600  1.0  0.1091
  H  H25  1  0.833900  0.246100  0.945500  1.0  0.1275
  H  H26  1  0.833300  0.248100  0.086200  1.0  0.0865
  H  H27  1  0.332300  0.163500  0.429000  1.0  0.1025
  H  H28  1  0.120000  0.166800  0.431600  1.0  0.1039
  H  H29  1  0.281600  0.155300  0.179900  1.0  0.1107
  H  H30  1  0.067700  0.156600  0.181600  1.0  0.1056
  H  H31  1  0.726600  0.770900  0.426900  1.0  0.1025
  H  H32  1  0.828300  0.192300  0.813700  1.0  0.0995
  H  H33  1  0.683400  0.549200  0.180200  1.0  0.1118
  H  H34  1  0.683100  0.763400  0.178400  1.0  0.1047
  H  H35  1  0.554600  0.156000  0.665100  1.0  0.1141
  H  H36  1  0.576700  0.154100  0.796500  1.0  0.0956
  H  H37  1  0.722800  0.558000  0.427900  1.0  0.1108
  H  H38  1  0.915500  0.169800  0.544400  1.0  0.0874
  H  H39  1  0.928300  0.178600  0.686300  1.0  0.1215
  H  H40  1  0.552500  0.148700  0.524400  1.0  0.0766
  C  C41  1  0.432600  0.864300  0.959500  1.0  0.174
  C  C42  1  0.440400  0.863400  0.045100  1.0  -0.2264
  C  C43  1  0.338600  0.829900  0.083000  1.0  0.1461
  C  C44  1  0.235900  0.784800  0.031700  1.0  -0.2243
  C  C45  1  0.236200  0.785400  0.947500  1.0  0.1599
  C  C46  1  0.721700  0.837900  0.621000  1.0  -0.0428
  C  C47  1  0.672800  0.841400  0.696000  1.0  -0.1085
  C  C48  1  0.847800  0.836300  0.619400  1.0  -0.0497
  C  C49  1  0.300800  0.605100  0.694500  1.0  0.6783
  C  C50  1  0.298900  0.467700  0.695000  1.0  -0.1025
  C  C51  1  0.751400  0.843000  0.769300  1.0  -0.0597
  C  C52  1  0.928800  0.839200  0.693000  1.0  -0.1228
  C  C53  1  0.878700  0.842100  0.768200  1.0  -0.0586
  C  C54  1  0.066100  0.837000  0.692100  1.0  0.6681
  C  C55  1  0.283600  0.273400  0.623500  1.0  -0.0575
  C  C56  1  0.296400  0.211100  0.696800  1.0  -0.1332
  C  C57  1  0.250800  0.822100  0.216200  1.0  -0.1107
  C  C58  1  0.309300  0.405900  0.769700  1.0  -0.0586
  C  C59  1  0.299300  0.072300  0.697700  1.0  0.6696
  C  C60  1  0.533600  0.842300  0.697200  1.0  0.6504
  C  C61  1  0.308800  0.278100  0.770800  1.0  -0.0703
  C  C62  1  0.369900  0.839800  0.357900  1.0  -0.2073
  C  C63  1  0.344000  0.833700  0.173300  1.0  -0.1114
  C  C64  1  0.285400  0.400700  0.623000  1.0  -0.0465
  C  C65  1  0.158400  0.831700  0.430700  1.0  0.1684
  C  C66  1  0.150400  0.826600  0.345600  1.0  -0.2002
  C  C67  1  0.257300  0.829300  0.306800  1.0  0.1318
  C  C68  1  0.370300  0.844000  0.442100  1.0  0.1763
  C  C69  1  0.567400  0.135700  0.040500  1.0  0.1747
  C  C70  1  0.559600  0.136600  0.954900  1.0  -0.228
  C  C71  1  0.661400  0.170100  0.917000  1.0  0.1456
  C  C72  1  0.764100  0.215200  0.968300  1.0  -0.223
  C  C73  1  0.763800  0.214600  0.052500  1.0  0.1596
  C  C74  1  0.278300  0.162100  0.379000  1.0  -0.0452
  C  C75  1  0.327200  0.158600  0.304000  1.0  -0.1086
  C  C76  1  0.152200  0.163700  0.380600  1.0  -0.0491
  C  C77  1  0.699200  0.394900  0.305500  1.0  0.6783
  C  C78  1  0.701100  0.532300  0.305000  1.0  -0.1027
  C  C79  1  0.248600  0.157000  0.230700  1.0  -0.0571
  C  C80  1  0.071200  0.160800  0.307000  1.0  -0.1222
  C  C81  1  0.121300  0.157900  0.231800  1.0  -0.058
  C  C82  1  0.933900  0.163000  0.307900  1.0  0.669
  C  C83  1  0.716400  0.726600  0.376500  1.0  -0.0564
  C  C84  1  0.703600  0.788900  0.303200  1.0  -0.1286
  C  C85  1  0.749200  0.177900  0.783800  1.0  -0.1109
  C  C86  1  0.690700  0.594100  0.230300  1.0  -0.0553
  C  C87  1  0.700700  0.927700  0.302300  1.0  0.6698
  C  C88  1  0.466400  0.157700  0.302800  1.0  0.6511
  C  C89  1  0.691200  0.721900  0.229200  1.0  -0.0705
  C  C90  1  0.630100  0.160200  0.642100  1.0  -0.207
  C  C91  1  0.656000  0.166300  0.826700  1.0  -0.1128
  C  C92  1  0.714600  0.599300  0.377000  1.0  -0.0479
  C  C93  1  0.841600  0.168300  0.569300  1.0  0.169
  C  C94  1  0.849600  0.173400  0.654400  1.0  -0.2
  C  C95  1  0.742700  0.170700  0.693200  1.0  0.1343
  C  C96  1  0.629700  0.156000  0.557900  1.0  0.1767
  N  N97  1  0.267400  0.838400  0.479000  1.0  -0.3177
  N  N98  1  0.331900  0.831900  0.910800  1.0  -0.3148
  N  N99  1  0.732600  0.161600  0.521000  1.0  -0.3198
  N  N100  1  0.668100  0.168100  0.089200  1.0  -0.3155
  O  O101  1  0.105500  0.831900  0.622390  1.0  -0.5545
  O  O102  1  0.311700  0.659700  0.763270  1.0  -0.566
  O  O103  1  0.289800  0.655900  0.625140  1.0  -0.5585
  O  O104  1  0.316600  0.021300  0.767380  1.0  -0.5625
  O  O105  1  0.133600  0.840800  0.760990  1.0  -0.568
  O  O106  1  0.283600  0.017900  0.629170  1.0  -0.5594
  O  O107  1  0.494700  0.842600  0.766820  1.0  -0.5643
  O  O108  1  0.467000  0.843400  0.628370  1.0  -0.5558
  O  O109  1  0.894500  0.168100  0.377610  1.0  -0.5546
  O  O110  1  0.688300  0.340300  0.236730  1.0  -0.5665
  O  O111  1  0.710200  0.344100  0.374860  1.0  -0.559
  O  O112  1  0.683400  0.978700  0.232620  1.0  -0.5642
  O  O113  1  0.866400  0.159200  0.239010  1.0  -0.5707
  O  O114  1  0.716400  0.982100  0.370830  1.0  -0.5591
  O  O115  1  0.505300  0.157400  0.233180  1.0  -0.5644
  O  O116  1  0.533000  0.156600  0.371630  1.0  -0.555
