# generated using pymatgen
data_Co3H8W2(C6N5)4
_symmetry_space_group_name_H-M   'P 1'
_cell_length_a   7.17900000
_cell_length_b   14.63400000
_cell_length_c   22.13400000
_cell_angle_alpha   90.00000000
_cell_angle_beta   91.12100000
_cell_angle_gamma   90.00000000
_symmetry_Int_Tables_number   1
_chemical_formula_structural   Co3H8W2(C6N5)4
_chemical_formula_sum   'Co6 H16 W4 C48 N40'
_cell_volume   2324.89734490
_cell_formula_units_Z   2
loop_
 _symmetry_equiv_pos_site_id
 _symmetry_equiv_pos_as_xyz
  1  'x, y, z'
loop_
 _atom_site_type_symbol
 _atom_site_label
 _atom_site_symmetry_multiplicity
 _atom_site_fract_x
 _atom_site_fract_y
 _atom_site_fract_z
 _atom_site_occupancy
 _atom_site_charge
  Co  Co1  1  0.752100  0.528400  0.762130  1.0  0.9681
  Co  Co2  1  0.747900  0.028400  0.737870  1.0  0.9682
  Co  Co3  1  0.247900  0.471600  0.237870  1.0  0.9686
  Co  Co4  1  0.252100  0.971600  0.262130  1.0  0.968
  Co  Co5  1  0.500000  0.500000  0.500000  1.0  0.9542
  Co  Co6  1  0.000000  0.000000  0.000000  1.0  0.9542
  H  H7  1  0.676500  0.486100  0.628700  1.0  0.0384
  H  H8  1  0.792100  0.719800  0.700000  1.0  0.086
  H  H9  1  0.748600  0.791500  0.606500  1.0  0.1672
  H  H10  1  0.620800  0.704100  0.528300  1.0  0.101
  H  H11  1  0.823500  0.986100  0.871300  1.0  0.0388
  H  H12  1  0.707900  0.219800  0.800000  1.0  0.0862
  H  H13  1  0.751400  0.291500  0.893500  1.0  0.1663
  H  H14  1  0.879200  0.204100  0.971700  1.0  0.1019
  H  H15  1  0.323500  0.513900  0.371300  1.0  0.0371
  H  H16  1  0.207900  0.280200  0.300000  1.0  0.0858
  H  H17  1  0.251400  0.208500  0.393500  1.0  0.1668
  H  H18  1  0.379200  0.295900  0.471700  1.0  0.1017
  H  H19  1  0.176500  0.013900  0.128700  1.0  0.0372
  H  H20  1  0.292100  0.780200  0.200000  1.0  0.0858
  H  H21  1  0.248600  0.708500  0.106500  1.0  0.167
  H  H22  1  0.120800  0.795900  0.028300  1.0  0.1014
  W  W23  1  0.240220  0.284970  0.677490  1.0  0.063
  W  W24  1  0.259780  0.784970  0.822510  1.0  0.0639
  W  W25  1  0.759780  0.715030  0.322510  1.0  0.0649
  W  W26  1  0.740220  0.215030  0.177490  1.0  0.0638
  C  C27  1  0.450000  0.374900  0.713400  1.0  0.1893
  C  C28  1  0.326000  0.378000  0.608200  1.0  0.2153
  C  C29  1  0.273000  0.202100  0.598300  1.0  0.118
  C  C30  1  0.456000  0.187600  0.697200  1.0  0.1947
  C  C31  1  0.248000  0.267600  0.773100  1.0  0.1095
  C  C32  1  0.074000  0.394600  0.711800  1.0  0.1997
  C  C33  1  0.995000  0.298300  0.625600  1.0  0.096
  C  C34  1  0.060000  0.171300  0.699000  1.0  0.2068
  C  C35  1  0.681000  0.550800  0.625700  1.0  0.4156
  C  C36  1  0.738000  0.685700  0.667700  1.0  0.2382
  C  C37  1  0.717000  0.729000  0.612400  1.0  -0.1946
  C  C38  1  0.658000  0.676000  0.565300  1.0  0.2668
  C  C39  1  0.050000  0.874900  0.786600  1.0  0.1887
  C  C40  1  0.174000  0.878000  0.891800  1.0  0.2173
  C  C41  1  0.227000  0.702100  0.901700  1.0  0.1185
  C  C42  1  0.044000  0.687600  0.802800  1.0  0.1938
  C  C43  1  0.252000  0.767600  0.726900  1.0  0.1104
  C  C44  1  0.426000  0.894600  0.788200  1.0  0.2001
  C  C45  1  0.505000  0.798300  0.874400  1.0  0.0967
  C  C46  1  0.440000  0.671300  0.801000  1.0  0.2071
  C  C47  1  0.819000  0.050800  0.874300  1.0  0.4135
  C  C48  1  0.762000  0.185700  0.832300  1.0  0.237
  C  C49  1  0.783000  0.229000  0.887600  1.0  -0.1972
  C  C50  1  0.842000  0.176000  0.934700  1.0  0.266
  C  C51  1  0.550000  0.625100  0.286600  1.0  0.189
  C  C52  1  0.674000  0.622000  0.391800  1.0  0.2182
  C  C53  1  0.727000  0.797900  0.401700  1.0  0.1167
  C  C54  1  0.544000  0.812400  0.302800  1.0  0.1932
  C  C55  1  0.752000  0.732400  0.226900  1.0  0.1101
  C  C56  1  0.926000  0.605400  0.288200  1.0  0.1999
  C  C57  1  0.005000  0.701700  0.374400  1.0  0.0968
  C  C58  1  0.940000  0.828700  0.301000  1.0  0.2066
  C  C59  1  0.319000  0.449200  0.374300  1.0  0.415
  C  C60  1  0.262000  0.314300  0.332300  1.0  0.2361
  C  C61  1  0.283000  0.271000  0.387600  1.0  -0.197
  C  C62  1  0.342000  0.324000  0.434700  1.0  0.2674
  C  C63  1  0.950000  0.125100  0.213400  1.0  0.1902
  C  C64  1  0.826000  0.122000  0.108200  1.0  0.2159
  C  C65  1  0.773000  0.297900  0.098300  1.0  0.1171
  C  C66  1  0.956000  0.312400  0.197200  1.0  0.194
  C  C67  1  0.748000  0.232400  0.273100  1.0  0.1096
  C  C68  1  0.574000  0.105400  0.211800  1.0  0.1994
  C  C69  1  0.495000  0.201700  0.125600  1.0  0.096
  C  C70  1  0.560000  0.328700  0.199000  1.0  0.2071
  C  C71  1  0.181000  0.949200  0.125700  1.0  0.4163
  C  C72  1  0.238000  0.814300  0.167700  1.0  0.2382
  C  C73  1  0.217000  0.771000  0.112400  1.0  -0.1959
  C  C74  1  0.158000  0.824000  0.065300  1.0  0.2672
  N  N75  1  0.557000  0.429000  0.731500  1.0  -0.4002
  N  N76  1  0.382000  0.421200  0.569300  1.0  -0.4416
  N  N77  1  0.283000  0.162500  0.553800  1.0  -0.3643
  N  N78  1  0.562000  0.130600  0.708400  1.0  -0.3951
  N  N79  1  0.252000  0.254400  0.824800  1.0  -0.3854
  N  N80  1  0.979000  0.448200  0.729600  1.0  -0.4038
  N  N81  1  0.859000  0.312000  0.592100  1.0  -0.3541
  N  N82  1  0.963000  0.110800  0.708800  1.0  -0.4018
  N  N83  1  0.636000  0.584600  0.571100  1.0  -0.4444
  N  N84  1  0.727000  0.594300  0.674000  1.0  -0.364
  N  N85  1  0.943000  0.929000  0.768500  1.0  -0.399
  N  N86  1  0.118000  0.921200  0.930700  1.0  -0.4418
  N  N87  1  0.217000  0.662500  0.946200  1.0  -0.3654
  N  N88  1  0.938000  0.630600  0.791600  1.0  -0.3952
  N  N89  1  0.248000  0.754400  0.675200  1.0  -0.3851
  N  N90  1  0.521000  0.948200  0.770400  1.0  -0.4024
  N  N91  1  0.641000  0.812000  0.907900  1.0  -0.3554
  N  N92  1  0.537000  0.610800  0.791200  1.0  -0.4024
  N  N93  1  0.864000  0.084600  0.928900  1.0  -0.4438
  N  N94  1  0.773000  0.094300  0.826000  1.0  -0.3645
  N  N95  1  0.443000  0.571000  0.268500  1.0  -0.3995
  N  N96  1  0.618000  0.578800  0.430700  1.0  -0.441
  N  N97  1  0.717000  0.837500  0.446200  1.0  -0.3674
  N  N98  1  0.438000  0.869400  0.291600  1.0  -0.3945
  N  N99  1  0.748000  0.745600  0.175200  1.0  -0.3856
  N  N100  1  0.021000  0.551800  0.270400  1.0  -0.4033
  N  N101  1  0.141000  0.688000  0.407900  1.0  -0.3556
  N  N102  1  0.037000  0.889200  0.291200  1.0  -0.4027
  N  N103  1  0.364000  0.415400  0.428900  1.0  -0.4457
  N  N104  1  0.273000  0.405700  0.326000  1.0  -0.364
  N  N105  1  0.057000  0.071000  0.231500  1.0  -0.4005
  N  N106  1  0.882000  0.078800  0.069300  1.0  -0.4408
  N  N107  1  0.783000  0.337500  0.053800  1.0  -0.3639
  N  N108  1  0.062000  0.369400  0.208400  1.0  -0.3943
  N  N109  1  0.752000  0.245600  0.324800  1.0  -0.3858
  N  N110  1  0.479000  0.051800  0.229600  1.0  -0.4019
  N  N111  1  0.359000  0.188000  0.092100  1.0  -0.3538
  N  N112  1  0.463000  0.389200  0.208800  1.0  -0.4018
  N  N113  1  0.136000  0.915400  0.071100  1.0  -0.443
  N  N114  1  0.227000  0.905700  0.174000  1.0  -0.3646
