# generated using pymatgen
data_Co2H15(C15O7)2
_symmetry_space_group_name_H-M   'P 1'
_cell_length_a   19.93600000
_cell_length_b   10.25100000
_cell_length_c   17.91000000
_cell_angle_alpha   90.00000000
_cell_angle_beta   94.73400000
_cell_angle_gamma   90.00000000
_symmetry_Int_Tables_number   1
_chemical_formula_structural   Co2H15(C15O7)2
_chemical_formula_sum   'Co8 H60 C120 O56'
_cell_volume   3647.67178672
_cell_formula_units_Z   4
loop_
 _symmetry_equiv_pos_site_id
 _symmetry_equiv_pos_as_xyz
  1  'x, y, z'
loop_
 _atom_site_type_symbol
 _atom_site_label
 _atom_site_symmetry_multiplicity
 _atom_site_fract_x
 _atom_site_fract_y
 _atom_site_fract_z
 _atom_site_occupancy
 _atom_site_charge
  Co  Co1  1  0.855540  0.253130  0.935080  1.0  1.034
  Co  Co2  1  0.752090  0.452560  0.835250  1.0  1.1317
  Co  Co3  1  0.144460  0.753130  0.564920  1.0  1.0324
  Co  Co4  1  0.247910  0.952560  0.664750  1.0  1.1323
  Co  Co5  1  0.144460  0.746870  0.064920  1.0  1.0322
  Co  Co6  1  0.247910  0.547440  0.164750  1.0  1.1319
  Co  Co7  1  0.855540  0.246870  0.435080  1.0  1.0341
  Co  Co8  1  0.752090  0.047440  0.335250  1.0  1.1313
  H  H9  1  0.585500  0.375900  0.962300  1.0  0.1317
  H  H10  1  0.529900  0.241600  0.159000  1.0  0.1344
  H  H11  1  0.722100  0.200900  0.107300  1.0  0.1218
  H  H12  1  0.482300  0.136000  0.969500  1.0  0.1293
  H  H13  1  0.399800  0.978400  0.957300  1.0  0.0893
  H  H14  1  0.298500  0.009900  0.009300  1.0  0.1287
  H  H15  1  0.283500  0.193700  0.080200  1.0  0.1149
  H  H16  1  0.975600  0.957500  0.071700  1.0  0.1306
  H  H17  1  0.967800  0.565400  0.061200  1.0  0.1391
  H  H18  1  0.838300  0.781500  0.929300  1.0  0.1228
  H  H19  1  0.944300  0.857400  0.199400  1.0  0.1234
  H  H20  1  0.933800  0.846600  0.327000  1.0  0.1118
  H  H21  1  0.012200  0.737000  0.405500  1.0  0.128
  H  H22  1  0.103100  0.633600  0.354900  1.0  0.1181
  H  H23  1  0.416000  0.506000  0.184000  1.0  0.3927
  H  H24  1  0.414500  0.875900  0.537700  1.0  0.1324
  H  H25  1  0.470100  0.741600  0.341000  1.0  0.1342
  H  H26  1  0.277900  0.700900  0.392700  1.0  0.1213
  H  H27  1  0.517700  0.636000  0.530500  1.0  0.1287
  H  H28  1  0.600200  0.478400  0.542700  1.0  0.09
  H  H29  1  0.701500  0.509900  0.490700  1.0  0.1287
  H  H30  1  0.716500  0.693700  0.419800  1.0  0.115
  H  H31  1  0.024400  0.457500  0.428300  1.0  0.131
  H  H32  1  0.032200  0.065400  0.438800  1.0  0.1389
  H  H33  1  0.161700  0.281500  0.570700  1.0  0.1227
  H  H34  1  0.055700  0.357400  0.300600  1.0  0.1239
  H  H35  1  0.066200  0.346600  0.173000  1.0  0.1121
  H  H36  1  0.987800  0.237000  0.094500  1.0  0.1278
  H  H37  1  0.896900  0.133600  0.145100  1.0  0.1176
  H  H38  1  0.584000  0.006000  0.316000  1.0  0.3913
  H  H39  1  0.414500  0.624100  0.037700  1.0  0.1326
  H  H40  1  0.470100  0.758400  0.841000  1.0  0.1342
  H  H41  1  0.277900  0.799100  0.892700  1.0  0.1212
  H  H42  1  0.517700  0.864000  0.030500  1.0  0.1284
  H  H43  1  0.600200  0.021600  0.042700  1.0  0.0919
  H  H44  1  0.701500  0.990100  0.990700  1.0  0.1283
  H  H45  1  0.716500  0.806300  0.919800  1.0  0.1156
  H  H46  1  0.024400  0.042500  0.928300  1.0  0.1305
  H  H47  1  0.032200  0.434600  0.938800  1.0  0.139
  H  H48  1  0.161700  0.218500  0.070700  1.0  0.1228
  H  H49  1  0.055700  0.142600  0.800600  1.0  0.124
  H  H50  1  0.066200  0.153400  0.673000  1.0  0.1125
  H  H51  1  0.987800  0.263000  0.594500  1.0  0.128
  H  H52  1  0.896900  0.366400  0.645100  1.0  0.1176
  H  H53  1  0.584000  0.494000  0.816000  1.0  0.3919
  H  H54  1  0.585500  0.124100  0.462300  1.0  0.1316
  H  H55  1  0.529900  0.258400  0.659000  1.0  0.1345
  H  H56  1  0.722100  0.299100  0.607300  1.0  0.122
  H  H57  1  0.482300  0.364000  0.469500  1.0  0.1289
  H  H58  1  0.399800  0.521600  0.457300  1.0  0.0913
  H  H59  1  0.298500  0.490100  0.509300  1.0  0.1285
  H  H60  1  0.283500  0.306300  0.580200  1.0  0.1152
  H  H61  1  0.975600  0.542500  0.571700  1.0  0.1309
  H  H62  1  0.967800  0.934600  0.561200  1.0  0.1391
  H  H63  1  0.838300  0.718500  0.429300  1.0  0.1225
  H  H64  1  0.944300  0.642600  0.699400  1.0  0.1236
  H  H65  1  0.933800  0.653400  0.827000  1.0  0.1124
  H  H66  1  0.012200  0.763000  0.905500  1.0  0.1283
  H  H67  1  0.103100  0.866400  0.854900  1.0  0.1179
  H  H68  1  0.416000  0.994000  0.684000  1.0  0.3932
  C  C69  1  0.713980  0.306200  0.970300  1.0  0.7102
  C  C70  1  0.661870  0.291600  0.027300  1.0  -0.1185
  C  C71  1  0.596360  0.334500  0.007900  1.0  -0.0842
  C  C72  1  0.547620  0.314200  0.057900  1.0  0.2613
  C  C73  1  0.563150  0.253900  0.126300  1.0  -0.0909
  C  C74  1  0.628730  0.211600  0.146000  1.0  -0.1008
  C  C75  1  0.678400  0.230000  0.095300  1.0  -0.0225
  C  C76  1  0.644210  0.140500  0.219000  1.0  0.7364
  C  C77  1  0.434230  0.257900  0.035900  1.0  0.2028
  C  C78  1  0.442700  0.147100  0.992800  1.0  -0.1351
  C  C79  1  0.392900  0.053800  0.984600  1.0  -0.1161
  C  C80  1  0.332800  0.071300  0.016500  1.0  -0.1088
  C  C81  1  0.324240  0.181100  0.059400  1.0  -0.0598
  C  C82  1  0.375360  0.274000  0.072200  1.0  -0.1245
  C  C83  1  0.365320  0.379700  0.128200  1.0  0.6977
  C  C84  1  0.878830  0.020300  0.967700  1.0  0.6537
  C  C85  1  0.902950  0.889900  0.996000  1.0  -0.1393
  C  C86  1  0.956060  0.882200  0.050700  1.0  -0.0915
  C  C87  1  0.979560  0.760200  0.073800  1.0  0.2403
  C  C88  1  0.951130  0.646200  0.044900  1.0  -0.0719
  C  C89  1  0.897080  0.654700  0.990900  1.0  -0.1498
  C  C90  1  0.873840  0.776200  0.966200  1.0  -0.0121
  C  C91  1  0.864150  0.534500  0.957100  1.0  0.7006
  C  C92  1  0.029290  0.750400  0.200600  1.0  0.2541
  C  C93  1  0.975930  0.812100  0.230500  1.0  -0.1691
  C  C94  1  0.969950  0.805900  0.307100  1.0  -0.0875
  C  C95  1  0.016700  0.740300  0.354300  1.0  -0.067
  C  C96  1  0.071380  0.678400  0.323700  1.0  -0.0335
  C  C97  1  0.078130  0.684200  0.246900  1.0  -0.0891
  C  C98  1  0.139120  0.624500  0.217800  1.0  0.6909
  C  C99  1  0.286020  0.806200  0.529700  1.0  0.7106
  C  C100  1  0.338130  0.791600  0.472700  1.0  -0.1193
  C  C101  1  0.403640  0.834500  0.492100  1.0  -0.0832
  C  C102  1  0.452380  0.814200  0.442100  1.0  0.2604
  C  C103  1  0.436850  0.753900  0.373700  1.0  -0.091
  C  C104  1  0.371270  0.711600  0.354000  1.0  -0.1003
  C  C105  1  0.321600  0.730000  0.404700  1.0  -0.0232
  C  C106  1  0.355790  0.640500  0.281000  1.0  0.7384
  C  C107  1  0.565770  0.757900  0.464100  1.0  0.2014
  C  C108  1  0.557300  0.647100  0.507200  1.0  -0.1336
  C  C109  1  0.607100  0.553800  0.515400  1.0  -0.1162
  C  C110  1  0.667200  0.571300  0.483500  1.0  -0.1075
  C  C111  1  0.675760  0.681100  0.440600  1.0  -0.0601
  C  C112  1  0.624640  0.774000  0.427800  1.0  -0.1236
  C  C113  1  0.634680  0.879700  0.371800  1.0  0.6963
  C  C114  1  0.121170  0.520300  0.532300  1.0  0.6534
  C  C115  1  0.097050  0.389900  0.504000  1.0  -0.1394
  C  C116  1  0.043940  0.382200  0.449300  1.0  -0.0936
  C  C117  1  0.020440  0.260200  0.426200  1.0  0.2398
  C  C118  1  0.048870  0.146200  0.455100  1.0  -0.0711
  C  C119  1  0.102920  0.154700  0.509100  1.0  -0.15
  C  C120  1  0.126160  0.276200  0.533800  1.0  -0.012
  C  C121  1  0.135850  0.034500  0.542900  1.0  0.7017
  C  C122  1  0.970710  0.250400  0.299400  1.0  0.2549
  C  C123  1  0.024070  0.312100  0.269500  1.0  -0.169
  C  C124  1  0.030050  0.305900  0.192900  1.0  -0.086
  C  C125  1  0.983300  0.240300  0.145700  1.0  -0.0653
  C  C126  1  0.928620  0.178400  0.176300  1.0  -0.0329
  C  C127  1  0.921870  0.184200  0.253100  1.0  -0.088
  C  C128  1  0.860880  0.124500  0.282200  1.0  0.688
  C  C129  1  0.286020  0.693800  0.029700  1.0  0.7108
  C  C130  1  0.338130  0.708400  0.972700  1.0  -0.1194
  C  C131  1  0.403640  0.665500  0.992100  1.0  -0.0834
  C  C132  1  0.452380  0.685800  0.942100  1.0  0.2601
  C  C133  1  0.436850  0.746100  0.873700  1.0  -0.0914
  C  C134  1  0.371270  0.788400  0.854000  1.0  -0.1006
  C  C135  1  0.321600  0.770000  0.904700  1.0  -0.0236
  C  C136  1  0.355790  0.859500  0.781000  1.0  0.7384
  C  C137  1  0.565770  0.742100  0.964100  1.0  0.2012
  C  C138  1  0.557300  0.852900  0.007200  1.0  -0.1337
  C  C139  1  0.607100  0.946200  0.015400  1.0  -0.1151
  C  C140  1  0.667200  0.928700  0.983500  1.0  -0.107
  C  C141  1  0.675760  0.818900  0.940600  1.0  -0.0595
  C  C142  1  0.624640  0.726000  0.927800  1.0  -0.1237
  C  C143  1  0.634680  0.620300  0.871800  1.0  0.6963
  C  C144  1  0.121170  0.979700  0.032300  1.0  0.6536
  C  C145  1  0.097050  0.110100  0.004000  1.0  -0.1386
  C  C146  1  0.043940  0.117800  0.949300  1.0  -0.0932
  C  C147  1  0.020440  0.239800  0.926200  1.0  0.2402
  C  C148  1  0.048870  0.353800  0.955100  1.0  -0.0708
  C  C149  1  0.102920  0.345300  0.009100  1.0  -0.1496
  C  C150  1  0.126160  0.223800  0.033800  1.0  -0.0117
  C  C151  1  0.135850  0.465500  0.042900  1.0  0.702
  C  C152  1  0.970710  0.249600  0.799400  1.0  0.255
  C  C153  1  0.024070  0.187900  0.769500  1.0  -0.1691
  C  C154  1  0.030050  0.194100  0.692900  1.0  -0.0861
  C  C155  1  0.983300  0.259700  0.645700  1.0  -0.0652
  C  C156  1  0.928620  0.321600  0.676300  1.0  -0.0331
  C  C157  1  0.921870  0.315800  0.753100  1.0  -0.0877
  C  C158  1  0.860880  0.375500  0.782200  1.0  0.6885
  C  C159  1  0.713980  0.193800  0.470300  1.0  0.7102
  C  C160  1  0.661870  0.208400  0.527300  1.0  -0.1185
  C  C161  1  0.596360  0.165500  0.507900  1.0  -0.0849
  C  C162  1  0.547620  0.185800  0.557900  1.0  0.2611
  C  C163  1  0.563150  0.246100  0.626300  1.0  -0.0908
  C  C164  1  0.628730  0.288400  0.646000  1.0  -0.1009
  C  C165  1  0.678400  0.270000  0.595300  1.0  -0.0228
  C  C166  1  0.644210  0.359500  0.719000  1.0  0.7367
  C  C167  1  0.434230  0.242100  0.535900  1.0  0.2016
  C  C168  1  0.442700  0.352900  0.492800  1.0  -0.1357
  C  C169  1  0.392900  0.446200  0.484600  1.0  -0.1156
  C  C170  1  0.332800  0.428700  0.516500  1.0  -0.1086
  C  C171  1  0.324240  0.318900  0.559400  1.0  -0.0598
  C  C172  1  0.375360  0.226000  0.572200  1.0  -0.1246
  C  C173  1  0.365320  0.120300  0.628200  1.0  0.6972
  C  C174  1  0.878830  0.479700  0.467700  1.0  0.6535
  C  C175  1  0.902950  0.610100  0.496000  1.0  -0.1392
  C  C176  1  0.956060  0.617800  0.550700  1.0  -0.0914
  C  C177  1  0.979560  0.739800  0.573800  1.0  0.2399
  C  C178  1  0.951130  0.853800  0.544900  1.0  -0.0712
  C  C179  1  0.897080  0.845300  0.490900  1.0  -0.1503
  C  C180  1  0.873840  0.723800  0.466200  1.0  -0.0123
  C  C181  1  0.864150  0.965500  0.457100  1.0  0.7006
  C  C182  1  0.029290  0.749600  0.700600  1.0  0.2543
  C  C183  1  0.975930  0.687900  0.730500  1.0  -0.1693
  C  C184  1  0.969950  0.694100  0.807100  1.0  -0.0874
  C  C185  1  0.016700  0.759700  0.854300  1.0  -0.067
  C  C186  1  0.071380  0.821600  0.823700  1.0  -0.0334
  C  C187  1  0.078130  0.815800  0.746900  1.0  -0.0888
  C  C188  1  0.139120  0.875500  0.717800  1.0  0.6912
  O  O189  1  0.770570  0.256100  0.987890  1.0  -0.5831
  O  O190  1  0.695520  0.365300  0.910910  1.0  -0.5906
  O  O191  1  0.704670  0.112800  0.237350  1.0  -0.5916
  O  O192  1  0.594360  0.116600  0.255430  1.0  -0.5877
  O  O193  1  0.482050  0.355600  0.037650  1.0  -0.2404
  O  O194  1  0.414920  0.455800  0.144990  1.0  -0.5022
  O  O195  1  0.310880  0.383700  0.158730  1.0  -0.5941
  O  O196  1  0.903950  0.120600  0.002330  1.0  -0.5489
  O  O197  1  0.837880  0.032700  0.911950  1.0  -0.5796
  O  O198  1  0.811290  0.550500  0.915400  1.0  -0.5828
  O  O199  1  0.892480  0.426000  0.973550  1.0  -0.5721
  O  O200  1  0.037970  0.751800  0.123920  1.0  -0.3388
  O  O201  1  0.171730  0.691200  0.170750  1.0  -0.6758
  O  O202  1  0.160990  0.517800  0.240490  1.0  -0.5718
  O  O203  1  0.229430  0.756100  0.512110  1.0  -0.5833
  O  O204  1  0.304480  0.865300  0.589090  1.0  -0.5905
  O  O205  1  0.295330  0.612800  0.262650  1.0  -0.5912
  O  O206  1  0.405640  0.616600  0.244570  1.0  -0.5886
  O  O207  1  0.517950  0.855600  0.462350  1.0  -0.2412
  O  O208  1  0.585080  0.955800  0.355010  1.0  -0.5028
  O  O209  1  0.689120  0.883700  0.341270  1.0  -0.5932
  O  O210  1  0.096050  0.620600  0.497670  1.0  -0.5507
  O  O211  1  0.162120  0.532700  0.588050  1.0  -0.5813
  O  O212  1  0.188710  0.050500  0.584600  1.0  -0.5826
  O  O213  1  0.107520  0.926000  0.526450  1.0  -0.5722
  O  O214  1  0.962030  0.251800  0.376080  1.0  -0.3399
  O  O215  1  0.828270  0.191200  0.329250  1.0  -0.676
  O  O216  1  0.839010  0.017800  0.259510  1.0  -0.5716
  O  O217  1  0.229430  0.743900  0.012110  1.0  -0.5832
  O  O218  1  0.304480  0.634700  0.089090  1.0  -0.5905
  O  O219  1  0.295330  0.887200  0.762650  1.0  -0.5915
  O  O220  1  0.405640  0.883400  0.744570  1.0  -0.5891
  O  O221  1  0.517950  0.644400  0.962350  1.0  -0.241
  O  O222  1  0.585080  0.544200  0.855010  1.0  -0.5025
  O  O223  1  0.689120  0.616300  0.841270  1.0  -0.594
  O  O224  1  0.096050  0.879400  0.997670  1.0  -0.5485
  O  O225  1  0.162120  0.967300  0.088050  1.0  -0.5814
  O  O226  1  0.188710  0.449500  0.084600  1.0  -0.5825
  O  O227  1  0.107520  0.574000  0.026450  1.0  -0.5727
  O  O228  1  0.962030  0.248200  0.876080  1.0  -0.3397
  O  O229  1  0.828270  0.308800  0.829250  1.0  -0.6757
  O  O230  1  0.839010  0.482200  0.759510  1.0  -0.5705
  O  O231  1  0.770570  0.243900  0.487890  1.0  -0.5829
  O  O232  1  0.695520  0.134700  0.410910  1.0  -0.5898
  O  O233  1  0.704670  0.387200  0.737350  1.0  -0.5908
  O  O234  1  0.594360  0.383400  0.755430  1.0  -0.5874
  O  O235  1  0.482050  0.144400  0.537650  1.0  -0.2418
  O  O236  1  0.414920  0.044200  0.644990  1.0  -0.502
  O  O237  1  0.310880  0.116300  0.658730  1.0  -0.5938
  O  O238  1  0.903950  0.379400  0.502330  1.0  -0.551
  O  O239  1  0.837880  0.467300  0.411950  1.0  -0.5796
  O  O240  1  0.811290  0.949500  0.415400  1.0  -0.5827
  O  O241  1  0.892480  0.074000  0.473550  1.0  -0.5721
  O  O242  1  0.037970  0.748200  0.623920  1.0  -0.3386
  O  O243  1  0.171730  0.808800  0.670750  1.0  -0.6742
  O  O244  1  0.160990  0.982200  0.740490  1.0  -0.5699
