# generated using pymatgen
data_H6PdC8(N2O)2
_symmetry_space_group_name_H-M   'P 1'
_cell_length_a   16.34170000
_cell_length_b   16.34170000
_cell_length_c   16.34170000
_cell_angle_alpha   90.00000000
_cell_angle_beta   90.00000000
_cell_angle_gamma   90.00000000
_symmetry_Int_Tables_number   1
_chemical_formula_structural   H6PdC8(N2O)2
_chemical_formula_sum   'H72 Pd12 C96 N48 O24'
_cell_volume   4364.06992323
_cell_formula_units_Z   12
loop_
 _symmetry_equiv_pos_site_id
 _symmetry_equiv_pos_as_xyz
  1  'x, y, z'
loop_
 _atom_site_type_symbol
 _atom_site_label
 _atom_site_symmetry_multiplicity
 _atom_site_fract_x
 _atom_site_fract_y
 _atom_site_fract_z
 _atom_site_occupancy
 _atom_site_charge
  H  H1  1  0.578660  0.751680  0.415190  1.0  0.0971
  H  H2  1  0.921340  0.748320  0.415190  1.0  0.0989
  H  H3  1  0.921340  0.751680  0.084810  1.0  0.0968
  H  H4  1  0.578660  0.748320  0.084810  1.0  0.0988
  H  H5  1  0.415190  0.578660  0.751680  1.0  0.0979
  H  H6  1  0.415190  0.921340  0.748320  1.0  0.0996
  H  H7  1  0.084810  0.921340  0.751680  1.0  0.0976
  H  H8  1  0.084810  0.578660  0.748320  1.0  0.0999
  H  H9  1  0.751680  0.415190  0.578660  1.0  0.0965
  H  H10  1  0.748320  0.415190  0.921340  1.0  0.0979
  H  H11  1  0.751680  0.084810  0.921340  1.0  0.0959
  H  H12  1  0.748320  0.084810  0.578660  1.0  0.0981
  H  H13  1  0.251680  0.078660  0.584810  1.0  0.0971
  H  H14  1  0.248320  0.421340  0.584810  1.0  0.1003
  H  H15  1  0.251680  0.421340  0.915190  1.0  0.097
  H  H16  1  0.248320  0.078660  0.915190  1.0  0.0965
  H  H17  1  0.078660  0.915190  0.248320  1.0  0.0978
  H  H18  1  0.421340  0.915190  0.251680  1.0  0.098
  H  H19  1  0.421340  0.584810  0.248320  1.0  0.1016
  H  H20  1  0.078660  0.584810  0.251680  1.0  0.098
  H  H21  1  0.915190  0.251680  0.421340  1.0  0.0965
  H  H22  1  0.915190  0.248320  0.078660  1.0  0.0971
  H  H23  1  0.584810  0.251680  0.078660  1.0  0.0973
  H  H24  1  0.584810  0.248320  0.421340  1.0  0.0997
  H  H25  1  0.421340  0.248320  0.584810  1.0  0.1007
  H  H26  1  0.078660  0.251680  0.584810  1.0  0.0976
  H  H27  1  0.078660  0.248320  0.915190  1.0  0.0974
  H  H28  1  0.421340  0.251680  0.915190  1.0  0.0974
  H  H29  1  0.584810  0.421340  0.248320  1.0  0.1014
  H  H30  1  0.584810  0.078660  0.251680  1.0  0.0986
  H  H31  1  0.915190  0.078660  0.248320  1.0  0.0979
  H  H32  1  0.915190  0.421340  0.251680  1.0  0.0977
  H  H33  1  0.248320  0.584810  0.421340  1.0  0.0993
  H  H34  1  0.251680  0.584810  0.078660  1.0  0.0965
  H  H35  1  0.248320  0.915190  0.078660  1.0  0.0965
  H  H36  1  0.251680  0.915190  0.421340  1.0  0.0961
  H  H37  1  0.748320  0.921340  0.415190  1.0  0.0981
  H  H38  1  0.751680  0.578660  0.415190  1.0  0.0971
  H  H39  1  0.748320  0.578660  0.084810  1.0  0.0987
  H  H40  1  0.751680  0.921340  0.084810  1.0  0.0966
  H  H41  1  0.921340  0.084810  0.751680  1.0  0.0978
  H  H42  1  0.578660  0.084810  0.748320  1.0  0.0996
  H  H43  1  0.578660  0.415190  0.751680  1.0  0.0976
  H  H44  1  0.921340  0.415190  0.748320  1.0  0.0997
  H  H45  1  0.084810  0.748320  0.578660  1.0  0.0981
  H  H46  1  0.084810  0.751680  0.921340  1.0  0.0965
  H  H47  1  0.415190  0.748320  0.921340  1.0  0.0982
  H  H48  1  0.415190  0.751680  0.578660  1.0  0.0972
  H  H49  1  0.684090  0.684090  0.480730  1.0  0.1115
  H  H50  1  0.815920  0.815920  0.480730  1.0  0.1116
  H  H51  1  0.815920  0.684090  0.019270  1.0  0.1094
  H  H52  1  0.684090  0.815920  0.019270  1.0  0.1095
  H  H53  1  0.480730  0.684090  0.684090  1.0  0.1112
  H  H54  1  0.480730  0.815920  0.815920  1.0  0.112
  H  H55  1  0.019270  0.815920  0.684090  1.0  0.1092
  H  H56  1  0.019270  0.684090  0.815920  1.0  0.1092
  H  H57  1  0.684090  0.480730  0.684090  1.0  0.1116
  H  H58  1  0.815920  0.480730  0.815920  1.0  0.1121
  H  H59  1  0.684090  0.019270  0.815920  1.0  0.1095
  H  H60  1  0.815920  0.019270  0.684090  1.0  0.1098
  H  H61  1  0.184090  0.184090  0.519270  1.0  0.109
  H  H62  1  0.315920  0.315920  0.519270  1.0  0.1253
  H  H63  1  0.184090  0.315920  0.980730  1.0  0.1091
  H  H64  1  0.315920  0.184090  0.980730  1.0  0.1089
  H  H65  1  0.184090  0.980730  0.315920  1.0  0.1094
  H  H66  1  0.315920  0.980730  0.184090  1.0  0.1089
  H  H67  1  0.315920  0.519270  0.315920  1.0  0.1269
  H  H68  1  0.184090  0.519270  0.184090  1.0  0.1093
  H  H69  1  0.980730  0.184090  0.315920  1.0  0.1094
  H  H70  1  0.980730  0.315920  0.184090  1.0  0.1091
  H  H71  1  0.519270  0.184090  0.184090  1.0  0.1085
  H  H72  1  0.519270  0.315920  0.315920  1.0  0.1251
  Pd  Pd73  1  0.500000  0.750000  0.250000  1.0  0.5222
  Pd  Pd74  1  0.000000  0.750000  0.250000  1.0  0.5224
  Pd  Pd75  1  0.250000  0.500000  0.750000  1.0  0.5222
  Pd  Pd76  1  0.250000  0.000000  0.750000  1.0  0.5222
  Pd  Pd77  1  0.750000  0.250000  0.500000  1.0  0.5222
  Pd  Pd78  1  0.750000  0.250000  0.000000  1.0  0.5222
  Pd  Pd79  1  0.500000  0.250000  0.750000  1.0  0.5222
  Pd  Pd80  1  0.000000  0.250000  0.750000  1.0  0.5222
  Pd  Pd81  1  0.750000  0.500000  0.250000  1.0  0.5222
  Pd  Pd82  1  0.750000  0.000000  0.250000  1.0  0.5222
  Pd  Pd83  1  0.250000  0.750000  0.500000  1.0  0.5222
  Pd  Pd84  1  0.250000  0.750000  0.000000  1.0  0.5224
  C  C85  1  0.606380  0.708170  0.388410  1.0  0.1578
  C  C86  1  0.893620  0.791830  0.388410  1.0  0.1557
  C  C87  1  0.893620  0.708170  0.111590  1.0  0.1575
  C  C88  1  0.606380  0.791830  0.111590  1.0  0.1529
  C  C89  1  0.388410  0.606380  0.708170  1.0  0.1612
  C  C90  1  0.388410  0.893620  0.791830  1.0  0.1584
  C  C91  1  0.111590  0.893620  0.708170  1.0  0.164
  C  C92  1  0.111590  0.606380  0.791830  1.0  0.1575
  C  C93  1  0.708170  0.388410  0.606380  1.0  0.1571
  C  C94  1  0.791830  0.388410  0.893620  1.0  0.1565
  C  C95  1  0.708170  0.111590  0.893620  1.0  0.16
  C  C96  1  0.791830  0.111590  0.606380  1.0  0.1537
  C  C97  1  0.208170  0.106380  0.611590  1.0  0.1569
  C  C98  1  0.291830  0.393620  0.611590  1.0  0.1585
  C  C99  1  0.208170  0.393620  0.888410  1.0  0.1585
  C  C100  1  0.291830  0.106380  0.888410  1.0  0.1582
  C  C101  1  0.106380  0.888410  0.291830  1.0  0.1568
  C  C102  1  0.393620  0.888410  0.208170  1.0  0.156
  C  C103  1  0.393620  0.611590  0.291830  1.0  0.157
  C  C104  1  0.106380  0.611590  0.208170  1.0  0.1593
  C  C105  1  0.888410  0.208170  0.393620  1.0  0.1631
  C  C106  1  0.888410  0.291830  0.106380  1.0  0.1611
  C  C107  1  0.611590  0.208170  0.106380  1.0  0.1644
  C  C108  1  0.611590  0.291830  0.393620  1.0  0.1657
  C  C109  1  0.393620  0.291830  0.611590  1.0  0.1524
  C  C110  1  0.106380  0.208170  0.611590  1.0  0.1541
  C  C111  1  0.106380  0.291830  0.888410  1.0  0.1539
  C  C112  1  0.393620  0.208170  0.888410  1.0  0.1537
  C  C113  1  0.611590  0.393620  0.291830  1.0  0.1591
  C  C114  1  0.611590  0.106380  0.208170  1.0  0.1598
  C  C115  1  0.888410  0.106380  0.291830  1.0  0.1554
  C  C116  1  0.888410  0.393620  0.208170  1.0  0.1569
  C  C117  1  0.291830  0.611590  0.393620  1.0  0.1562
  C  C118  1  0.208170  0.611590  0.106380  1.0  0.1534
  C  C119  1  0.291830  0.888410  0.106380  1.0  0.1537
  C  C120  1  0.208170  0.888410  0.393620  1.0  0.1537
  C  C121  1  0.791830  0.893620  0.388410  1.0  0.151
  C  C122  1  0.708170  0.606380  0.388410  1.0  0.1539
  C  C123  1  0.791830  0.606380  0.111590  1.0  0.1492
  C  C124  1  0.708170  0.893620  0.111590  1.0  0.1533
  C  C125  1  0.893620  0.111590  0.708170  1.0  0.1538
  C  C126  1  0.606380  0.111590  0.791830  1.0  0.1481
  C  C127  1  0.606380  0.388410  0.708170  1.0  0.1526
  C  C128  1  0.893620  0.388410  0.791830  1.0  0.1486
  C  C129  1  0.111590  0.791830  0.606380  1.0  0.1548
  C  C130  1  0.111590  0.708170  0.893620  1.0  0.1615
  C  C131  1  0.388410  0.791830  0.893620  1.0  0.1556
  C  C132  1  0.388410  0.708170  0.606380  1.0  0.1578
  C  C133  1  0.623540  0.623540  0.273130  1.0  0.6443
  C  C134  1  0.668410  0.668410  0.426990  1.0  -0.2299
  C  C135  1  0.876460  0.876460  0.273130  1.0  0.6458
  C  C136  1  0.831600  0.831600  0.426990  1.0  -0.2175
  C  C137  1  0.876460  0.623540  0.226870  1.0  0.6443
  C  C138  1  0.831600  0.668410  0.073010  1.0  -0.2257
  C  C139  1  0.623540  0.876460  0.226870  1.0  0.6434
  C  C140  1  0.668410  0.831600  0.073010  1.0  -0.2258
  C  C141  1  0.273130  0.623540  0.623540  1.0  0.6437
  C  C142  1  0.426990  0.668410  0.668410  1.0  -0.232
  C  C143  1  0.273130  0.876460  0.876460  1.0  0.6435
  C  C144  1  0.426990  0.831600  0.831600  1.0  -0.219
  C  C145  1  0.226870  0.876460  0.623540  1.0  0.6438
  C  C146  1  0.073010  0.831600  0.668410  1.0  -0.2304
  C  C147  1  0.226870  0.623540  0.876460  1.0  0.6436
  C  C148  1  0.073010  0.668410  0.831600  1.0  -0.2303
  C  C149  1  0.623540  0.273130  0.623540  1.0  0.6426
  C  C150  1  0.668410  0.426990  0.668410  1.0  -0.2337
  C  C151  1  0.876460  0.273130  0.876460  1.0  0.6436
  C  C152  1  0.831600  0.426990  0.831600  1.0  -0.2215
  C  C153  1  0.623540  0.226870  0.876460  1.0  0.6421
  C  C154  1  0.668410  0.073010  0.831600  1.0  -0.2323
  C  C155  1  0.876460  0.226870  0.623540  1.0  0.6432
  C  C156  1  0.831600  0.073010  0.668410  1.0  -0.2332
  C  C157  1  0.123540  0.123540  0.726870  1.0  0.6431
  C  C158  1  0.168410  0.168410  0.573010  1.0  -0.2233
  C  C159  1  0.376460  0.376460  0.726870  1.0  0.6439
  C  C160  1  0.331590  0.331590  0.573010  1.0  -0.2313
  C  C161  1  0.123540  0.376460  0.773130  1.0  0.6447
  C  C162  1  0.168410  0.331590  0.926990  1.0  -0.2194
  C  C163  1  0.376460  0.123540  0.773130  1.0  0.6453
  C  C164  1  0.331590  0.168410  0.926990  1.0  -0.2203
  C  C165  1  0.123540  0.773130  0.376460  1.0  0.6425
  C  C166  1  0.168410  0.926990  0.331590  1.0  -0.2231
  C  C167  1  0.376460  0.773130  0.123540  1.0  0.6437
  C  C168  1  0.331590  0.926990  0.168410  1.0  -0.225
  C  C169  1  0.376460  0.726870  0.376460  1.0  0.6426
  C  C170  1  0.331590  0.573010  0.331590  1.0  -0.2372
  C  C171  1  0.123540  0.726870  0.123540  1.0  0.6422
  C  C172  1  0.168410  0.573010  0.168410  1.0  -0.2306
  C  C173  1  0.773130  0.123540  0.376460  1.0  0.6436
  C  C174  1  0.926990  0.168410  0.331590  1.0  -0.223
  C  C175  1  0.773130  0.376460  0.123540  1.0  0.6438
  C  C176  1  0.926990  0.331590  0.168410  1.0  -0.2231
  C  C177  1  0.726870  0.123540  0.123540  1.0  0.6435
  C  C178  1  0.573010  0.168410  0.168410  1.0  -0.2276
  C  C179  1  0.726870  0.376460  0.376460  1.0  0.6433
  C  C180  1  0.573010  0.331590  0.331590  1.0  -0.2347
  N  N181  1  0.583570  0.685760  0.311710  1.0  -0.3651
  N  N182  1  0.916430  0.814240  0.311710  1.0  -0.3659
  N  N183  1  0.916430  0.685760  0.188290  1.0  -0.366
  N  N184  1  0.583570  0.814240  0.188290  1.0  -0.365
  N  N185  1  0.311710  0.583570  0.685760  1.0  -0.3633
  N  N186  1  0.311710  0.916430  0.814240  1.0  -0.3631
  N  N187  1  0.188290  0.916430  0.685760  1.0  -0.3628
  N  N188  1  0.188290  0.583570  0.814240  1.0  -0.3634
  N  N189  1  0.685760  0.311710  0.583570  1.0  -0.3674
  N  N190  1  0.814240  0.311710  0.916430  1.0  -0.3654
  N  N191  1  0.685760  0.188290  0.916430  1.0  -0.3657
  N  N192  1  0.814240  0.188290  0.583570  1.0  -0.3668
  N  N193  1  0.185760  0.083570  0.688290  1.0  -0.3663
  N  N194  1  0.314240  0.416430  0.688290  1.0  -0.3656
  N  N195  1  0.185760  0.416430  0.811710  1.0  -0.366
  N  N196  1  0.314240  0.083570  0.811710  1.0  -0.3662
  N  N197  1  0.083570  0.811710  0.314240  1.0  -0.3648
  N  N198  1  0.416430  0.811710  0.185760  1.0  -0.3657
  N  N199  1  0.416430  0.688290  0.314240  1.0  -0.3663
  N  N200  1  0.083570  0.688290  0.185760  1.0  -0.3648
  N  N201  1  0.811710  0.185760  0.416430  1.0  -0.3643
  N  N202  1  0.811710  0.314240  0.083570  1.0  -0.3652
  N  N203  1  0.688290  0.185760  0.083570  1.0  -0.3651
  N  N204  1  0.688290  0.314240  0.416430  1.0  -0.3637
  N  N205  1  0.416430  0.314240  0.688290  1.0  -0.3665
  N  N206  1  0.083570  0.185760  0.688290  1.0  -0.365
  N  N207  1  0.083570  0.314240  0.811710  1.0  -0.3653
  N  N208  1  0.416430  0.185760  0.811710  1.0  -0.3665
  N  N209  1  0.688290  0.416430  0.314240  1.0  -0.3635
  N  N210  1  0.688290  0.083570  0.185760  1.0  -0.3632
  N  N211  1  0.811710  0.083570  0.314240  1.0  -0.3639
  N  N212  1  0.811710  0.416430  0.185760  1.0  -0.3633
  N  N213  1  0.314240  0.688290  0.416430  1.0  -0.366
  N  N214  1  0.185760  0.688290  0.083570  1.0  -0.3672
  N  N215  1  0.314240  0.811710  0.083570  1.0  -0.3669
  N  N216  1  0.185760  0.811710  0.416430  1.0  -0.3664
  N  N217  1  0.814240  0.916430  0.311710  1.0  -0.3652
  N  N218  1  0.685760  0.583570  0.311710  1.0  -0.3665
  N  N219  1  0.814240  0.583570  0.188290  1.0  -0.3655
  N  N220  1  0.685760  0.916430  0.188290  1.0  -0.3656
  N  N221  1  0.916430  0.188290  0.685760  1.0  -0.3654
  N  N222  1  0.583570  0.188290  0.814240  1.0  -0.365
  N  N223  1  0.583570  0.311710  0.685760  1.0  -0.3644
  N  N224  1  0.916430  0.311710  0.814240  1.0  -0.3655
  N  N225  1  0.188290  0.814240  0.583570  1.0  -0.3649
  N  N226  1  0.188290  0.685760  0.916430  1.0  -0.3638
  N  N227  1  0.311710  0.814240  0.916430  1.0  -0.3633
  N  N228  1  0.311710  0.685760  0.583570  1.0  -0.3649
  O  O229  1  0.602910  0.602910  0.202420  1.0  -0.5401
  O  O230  1  0.897100  0.897100  0.202420  1.0  -0.5979
  O  O231  1  0.897100  0.602910  0.297580  1.0  -0.561
  O  O232  1  0.602910  0.897100  0.297580  1.0  -0.5618
  O  O233  1  0.202420  0.602910  0.602910  1.0  -0.5384
  O  O234  1  0.202420  0.897100  0.897100  1.0  -0.5942
  O  O235  1  0.297580  0.897100  0.602910  1.0  -0.5615
  O  O236  1  0.297580  0.602910  0.897100  1.0  -0.5613
  O  O237  1  0.602910  0.202420  0.602910  1.0  -0.5342
  O  O238  1  0.897100  0.202420  0.897100  1.0  -0.5913
  O  O239  1  0.602910  0.297580  0.897100  1.0  -0.5552
  O  O240  1  0.897100  0.297580  0.602910  1.0  -0.5562
  O  O241  1  0.102910  0.102910  0.797580  1.0  -0.5961
  O  O242  1  0.397100  0.397100  0.797580  1.0  -0.5472
  O  O243  1  0.102910  0.397100  0.702420  1.0  -0.5799
  O  O244  1  0.397100  0.102910  0.702420  1.0  -0.581
  O  O245  1  0.102910  0.702420  0.397100  1.0  -0.5724
  O  O246  1  0.397100  0.702420  0.102910  1.0  -0.5744
  O  O247  1  0.397100  0.797580  0.397100  1.0  -0.5422
  O  O248  1  0.102910  0.797580  0.102910  1.0  -0.5915
  O  O249  1  0.702420  0.102910  0.397100  1.0  -0.5778
  O  O250  1  0.702420  0.397100  0.102910  1.0  -0.5779
  O  O251  1  0.797580  0.102910  0.102910  1.0  -0.5967
  O  O252  1  0.797580  0.397100  0.397100  1.0  -0.5459
