# generated using pymatgen
data_Zn2P3H13(C2O3)3
_symmetry_space_group_name_H-M   'P 1'
_cell_length_a   10.86580000
_cell_length_b   16.60500000
_cell_length_c   10.39260000
_cell_angle_alpha   90.00000000
_cell_angle_beta   103.96500000
_cell_angle_gamma   90.00000000
_symmetry_Int_Tables_number   1
_chemical_formula_structural   Zn2P3H13(C2O3)3
_chemical_formula_sum   'Zn8 P12 H52 C24 O36'
_cell_volume   1819.67981238
_cell_formula_units_Z   4
loop_
 _symmetry_equiv_pos_site_id
 _symmetry_equiv_pos_as_xyz
  1  'x, y, z'
loop_
 _atom_site_type_symbol
 _atom_site_label
 _atom_site_symmetry_multiplicity
 _atom_site_fract_x
 _atom_site_fract_y
 _atom_site_fract_z
 _atom_site_occupancy
 _atom_site_charge
  Zn  Zn1  1  0.055020  0.166580  0.403510  1.0  1.0484
  Zn  Zn2  1  0.134870  0.835310  0.316900  1.0  1.051
  Zn  Zn3  1  0.944980  0.666580  0.096490  1.0  1.0508
  Zn  Zn4  1  0.865130  0.335310  0.183100  1.0  1.0518
  Zn  Zn5  1  0.944980  0.833420  0.596490  1.0  1.0512
  Zn  Zn6  1  0.865130  0.164690  0.683100  1.0  1.0521
  Zn  Zn7  1  0.055020  0.333420  0.903510  1.0  1.0485
  Zn  Zn8  1  0.134870  0.664690  0.816900  1.0  1.0507
  P  P9  1  0.212560  0.005790  0.455500  1.0  1.5585
  P  P10  1  0.137890  0.222920  0.692600  1.0  1.5643
  P  P11  1  0.791380  0.260030  0.909510  1.0  1.5779
  P  P12  1  0.787440  0.505790  0.044500  1.0  1.5792
  P  P13  1  0.862110  0.722920  0.807400  1.0  1.5648
  P  P14  1  0.208620  0.760030  0.590490  1.0  1.5793
  P  P15  1  0.787440  0.994210  0.544500  1.0  1.5834
  P  P16  1  0.862110  0.777080  0.307400  1.0  1.5734
  P  P17  1  0.208620  0.739970  0.090490  1.0  1.5788
  P  P18  1  0.212560  0.494210  0.955500  1.0  1.5701
  P  P19  1  0.137890  0.277080  0.192600  1.0  1.5673
  P  P20  1  0.791380  0.239970  0.409510  1.0  1.5797
  H  H21  1  0.194700  0.932600  0.601800  1.0  0.3752
  H  H22  1  0.337600  0.117100  0.516600  1.0  0.1417
  H  H23  1  0.353100  0.085000  0.380200  1.0  0.1422
  H  H24  1  0.474000  0.013200  0.623300  1.0  0.0922
  H  H25  1  0.541000  0.075800  0.550500  1.0  0.0977
  H  H26  1  0.298000  0.199500  0.879000  1.0  0.1408
  H  H27  1  0.308700  0.138800  0.767000  1.0  0.1254
  H  H28  1  0.383200  0.301300  0.766400  1.0  0.098
  H  H29  1  0.401200  0.236900  0.662100  1.0  0.0926
  H  H30  1  0.632700  0.278200  0.723000  1.0  0.1451
  H  H31  1  0.612000  0.334800  0.836000  1.0  0.1331
  H  H32  1  0.552000  0.169000  0.823000  1.0  0.0833
  H  H33  1  0.528500  0.227100  0.933500  1.0  0.0895
  H  H34  1  0.805300  0.432600  0.898200  1.0  0.3759
  H  H35  1  0.662400  0.617100  0.983400  1.0  0.1418
  H  H36  1  0.646900  0.585000  0.119800  1.0  0.1412
  H  H37  1  0.526000  0.513200  0.876700  1.0  0.0929
  H  H38  1  0.459000  0.575800  0.949500  1.0  0.0967
  H  H39  1  0.702000  0.699500  0.621000  1.0  0.1421
  H  H40  1  0.691300  0.638800  0.733000  1.0  0.1257
  H  H41  1  0.616800  0.801300  0.733600  1.0  0.0964
  H  H42  1  0.598800  0.736900  0.837900  1.0  0.0913
  H  H43  1  0.367300  0.778200  0.777000  1.0  0.1456
  H  H44  1  0.388000  0.834800  0.664000  1.0  0.1331
  H  H45  1  0.448000  0.669000  0.677000  1.0  0.0838
  H  H46  1  0.471500  0.727100  0.566500  1.0  0.0885
  H  H47  1  0.805300  0.067400  0.398200  1.0  0.3752
  H  H48  1  0.662400  0.882900  0.483400  1.0  0.1419
  H  H49  1  0.646900  0.915000  0.619800  1.0  0.1407
  H  H50  1  0.526000  0.986800  0.376700  1.0  0.0929
  H  H51  1  0.459000  0.924200  0.449500  1.0  0.0971
  H  H52  1  0.702000  0.800500  0.121000  1.0  0.1425
  H  H53  1  0.691300  0.861200  0.233000  1.0  0.1283
  H  H54  1  0.616800  0.698700  0.233600  1.0  0.0972
  H  H55  1  0.598800  0.763100  0.337900  1.0  0.0915
  H  H56  1  0.367300  0.721800  0.277000  1.0  0.1461
  H  H57  1  0.388000  0.665200  0.164000  1.0  0.1335
  H  H58  1  0.448000  0.831000  0.177000  1.0  0.0855
  H  H59  1  0.471500  0.772900  0.066500  1.0  0.0885
  H  H60  1  0.194700  0.567400  0.101800  1.0  0.3756
  H  H61  1  0.337600  0.382900  0.016600  1.0  0.1418
  H  H62  1  0.353100  0.415000  0.880200  1.0  0.1425
  H  H63  1  0.474000  0.486800  0.123300  1.0  0.092
  H  H64  1  0.541000  0.424200  0.050500  1.0  0.0983
  H  H65  1  0.298000  0.300500  0.379000  1.0  0.1411
  H  H66  1  0.308700  0.361200  0.267000  1.0  0.1282
  H  H67  1  0.383200  0.198700  0.266400  1.0  0.0958
  H  H68  1  0.401200  0.263100  0.162100  1.0  0.0921
  H  H69  1  0.632700  0.221800  0.223000  1.0  0.1456
  H  H70  1  0.612000  0.165200  0.336000  1.0  0.1334
  H  H71  1  0.552000  0.331000  0.323000  1.0  0.0842
  H  H72  1  0.528500  0.272900  0.433500  1.0  0.088
  C  C73  1  0.349800  0.068700  0.468900  1.0  -0.3949
  C  C74  1  0.478200  0.033100  0.536700  1.0  -0.0754
  C  C75  1  0.294400  0.194800  0.785100  1.0  -0.4317
  C  C76  1  0.400300  0.244800  0.754400  1.0  -0.0869
  C  C77  1  0.633700  0.280300  0.816500  1.0  -0.4286
  C  C78  1  0.530900  0.224000  0.841000  1.0  -0.0832
  C  C79  1  0.650200  0.568700  0.031100  1.0  -0.3914
  C  C80  1  0.521800  0.533100  0.963300  1.0  -0.0754
  C  C81  1  0.705600  0.694800  0.714900  1.0  -0.4299
  C  C82  1  0.599700  0.744800  0.745600  1.0  -0.0948
  C  C83  1  0.366300  0.780300  0.683500  1.0  -0.4285
  C  C84  1  0.469100  0.724000  0.659000  1.0  -0.0828
  C  C85  1  0.650200  0.931300  0.531100  1.0  -0.3957
  C  C86  1  0.521800  0.966900  0.463300  1.0  -0.0753
  C  C87  1  0.705600  0.805200  0.214900  1.0  -0.4298
  C  C88  1  0.599700  0.755200  0.245600  1.0  -0.0887
  C  C89  1  0.366300  0.719700  0.183500  1.0  -0.4284
  C  C90  1  0.469100  0.776000  0.159000  1.0  -0.0812
  C  C91  1  0.349800  0.431300  0.968900  1.0  -0.3961
  C  C92  1  0.478200  0.466900  0.036700  1.0  -0.0779
  C  C93  1  0.294400  0.305200  0.285100  1.0  -0.4307
  C  C94  1  0.400300  0.255200  0.254400  1.0  -0.0876
  C  C95  1  0.633700  0.219700  0.316500  1.0  -0.4293
  C  C96  1  0.530900  0.276000  0.341000  1.0  -0.082
  O  O97  1  0.220100  0.936400  0.366800  1.0  -0.7912
  O  O98  1  0.093300  0.054100  0.409500  1.0  -0.841
  O  O99  1  0.225800  0.977600  0.601700  1.0  -0.6422
  O  O100  1  0.047900  0.157200  0.715400  1.0  -0.7976
  O  O101  1  0.143700  0.231400  0.548400  1.0  -0.8125
  O  O102  1  0.102900  0.306000  0.740300  1.0  -0.7673
  O  O103  1  0.871700  0.331500  0.880900  1.0  -0.8524
  O  O104  1  0.794000  0.253500  0.055200  1.0  -0.8043
  O  O105  1  0.835900  0.180800  0.859800  1.0  -0.7636
  O  O106  1  0.779900  0.436400  0.133200  1.0  -0.7968
  O  O107  1  0.906700  0.554100  0.090500  1.0  -0.8417
  O  O108  1  0.774200  0.477600  0.898300  1.0  -0.6416
  O  O109  1  0.952100  0.657200  0.784600  1.0  -0.7968
  O  O110  1  0.856300  0.731400  0.951600  1.0  -0.811
  O  O111  1  0.897100  0.806000  0.759700  1.0  -0.7704
  O  O112  1  0.128300  0.831500  0.619100  1.0  -0.8512
  O  O113  1  0.206000  0.753500  0.444800  1.0  -0.8045
  O  O114  1  0.164100  0.680800  0.640200  1.0  -0.7647
  O  O115  1  0.779900  0.063600  0.633200  1.0  -0.794
  O  O116  1  0.906700  0.945900  0.590500  1.0  -0.8422
  O  O117  1  0.774200  0.022400  0.398300  1.0  -0.641
  O  O118  1  0.952100  0.842800  0.284600  1.0  -0.7954
  O  O119  1  0.856300  0.768600  0.451600  1.0  -0.8123
  O  O120  1  0.897100  0.694000  0.259700  1.0  -0.7686
  O  O121  1  0.128300  0.668500  0.119100  1.0  -0.852
  O  O122  1  0.206000  0.746500  0.944800  1.0  -0.8043
  O  O123  1  0.164100  0.819200  0.140200  1.0  -0.768
  O  O124  1  0.220100  0.563600  0.866800  1.0  -0.7922
  O  O125  1  0.093300  0.445900  0.909500  1.0  -0.8416
  O  O126  1  0.225800  0.522400  0.101700  1.0  -0.6428
  O  O127  1  0.047900  0.342800  0.215400  1.0  -0.7977
  O  O128  1  0.143700  0.268600  0.048400  1.0  -0.8128
  O  O129  1  0.102900  0.194000  0.240300  1.0  -0.7698
  O  O130  1  0.871700  0.168500  0.380900  1.0  -0.8513
  O  O131  1  0.794000  0.246500  0.555200  1.0  -0.8037
  O  O132  1  0.835900  0.319200  0.359800  1.0  -0.766
