# generated using pymatgen
data_Zn2P3H7(CO3)3
_symmetry_space_group_name_H-M   'P 1'
_cell_length_a   8.59890000
_cell_length_b   17.04400000
_cell_length_c   10.16500000
_cell_angle_alpha   90.00000000
_cell_angle_beta   108.43400000
_cell_angle_gamma   90.00000000
_symmetry_Int_Tables_number   1
_chemical_formula_structural   Zn2P3H7(CO3)3
_chemical_formula_sum   'Zn8 P12 H28 C12 O36'
_cell_volume   1413.33612228
_cell_formula_units_Z   4
loop_
 _symmetry_equiv_pos_site_id
 _symmetry_equiv_pos_as_xyz
  1  'x, y, z'
loop_
 _atom_site_type_symbol
 _atom_site_label
 _atom_site_symmetry_multiplicity
 _atom_site_fract_x
 _atom_site_fract_y
 _atom_site_fract_z
 _atom_site_occupancy
 _atom_site_charge
  Zn  Zn1  1  0.105720  0.171660  0.921180  1.0  1.0108
  Zn  Zn2  1  0.122580  0.831640  0.821820  1.0  1.0441
  Zn  Zn3  1  0.894280  0.671660  0.578820  1.0  1.0115
  Zn  Zn4  1  0.877420  0.331640  0.678180  1.0  1.0456
  Zn  Zn5  1  0.894280  0.828340  0.078820  1.0  1.0115
  Zn  Zn6  1  0.877420  0.168360  0.178180  1.0  1.0458
  Zn  Zn7  1  0.105720  0.328340  0.421180  1.0  1.0108
  Zn  Zn8  1  0.122580  0.668360  0.321820  1.0  1.0445
  P  P9  1  0.241020  0.996480  0.991650  1.0  1.5548
  P  P10  1  0.764140  0.247740  0.894560  1.0  1.6228
  P  P11  1  0.224440  0.260950  0.714890  1.0  1.5986
  P  P12  1  0.758980  0.496480  0.508350  1.0  1.558
  P  P13  1  0.235860  0.747740  0.605440  1.0  1.6246
  P  P14  1  0.775560  0.760950  0.785110  1.0  1.5954
  P  P15  1  0.758980  0.003520  0.008350  1.0  1.5576
  P  P16  1  0.235860  0.752260  0.105440  1.0  1.625
  P  P17  1  0.775560  0.739050  0.285110  1.0  1.5952
  P  P18  1  0.241020  0.503520  0.491650  1.0  1.5545
  P  P19  1  0.764140  0.252260  0.394560  1.0  1.6234
  P  P20  1  0.224440  0.239050  0.214890  1.0  1.5987
  H  H21  1  0.226900  0.914700  0.127700  1.0  0.3958
  H  H22  1  0.425400  0.065000  0.915400  1.0  0.1611
  H  H23  1  0.479300  0.066400  0.077800  1.0  0.1669
  H  H24  1  0.548600  0.230600  0.694200  1.0  0.1694
  H  H25  1  0.526800  0.176100  0.811100  1.0  0.1592
  H  H26  1  0.454600  0.338700  0.790200  1.0  0.1649
  H  H27  1  0.439700  0.286300  0.912600  1.0  0.1573
  H  H28  1  0.773100  0.414700  0.372300  1.0  0.3964
  H  H29  1  0.574600  0.565000  0.584600  1.0  0.1615
  H  H30  1  0.520700  0.566400  0.422200  1.0  0.167
  H  H31  1  0.451400  0.730600  0.805800  1.0  0.1669
  H  H32  1  0.473200  0.676100  0.688900  1.0  0.1595
  H  H33  1  0.545400  0.838700  0.709800  1.0  0.1646
  H  H34  1  0.560300  0.786300  0.587400  1.0  0.159
  H  H35  1  0.773100  0.085300  0.872300  1.0  0.3979
  H  H36  1  0.574600  0.935000  0.084600  1.0  0.1615
  H  H37  1  0.520700  0.933600  0.922200  1.0  0.1671
  H  H38  1  0.451400  0.769400  0.305800  1.0  0.1669
  H  H39  1  0.473200  0.823900  0.188900  1.0  0.1589
  H  H40  1  0.545400  0.661300  0.209800  1.0  0.1658
  H  H41  1  0.560300  0.713700  0.087400  1.0  0.16
  H  H42  1  0.226900  0.585300  0.627700  1.0  0.3973
  H  H43  1  0.425400  0.435000  0.415400  1.0  0.1611
  H  H44  1  0.479300  0.433600  0.577800  1.0  0.1671
  H  H45  1  0.548600  0.269400  0.194200  1.0  0.1695
  H  H46  1  0.526800  0.323900  0.311100  1.0  0.1582
  H  H47  1  0.454600  0.161300  0.290200  1.0  0.1661
  H  H48  1  0.439700  0.213700  0.412600  1.0  0.1574
  C  C49  1  0.437400  0.033000  0.997000  1.0  -0.3811
  C  C50  1  0.555800  0.228800  0.791300  1.0  -0.4282
  C  C51  1  0.430300  0.286100  0.815000  1.0  -0.4062
  C  C52  1  0.562600  0.533000  0.503000  1.0  -0.3821
  C  C53  1  0.444200  0.728800  0.708700  1.0  -0.4272
  C  C54  1  0.569700  0.786100  0.685000  1.0  -0.4068
  C  C55  1  0.562600  0.967000  0.003000  1.0  -0.3843
  C  C56  1  0.444200  0.771200  0.208700  1.0  -0.4261
  C  C57  1  0.569700  0.713900  0.185000  1.0  -0.4083
  C  C58  1  0.437400  0.467000  0.497000  1.0  -0.384
  C  C59  1  0.555800  0.271200  0.291300  1.0  -0.4272
  C  C60  1  0.430300  0.213900  0.315000  1.0  -0.4067
  O  O61  1  0.275000  0.956900  0.136900  1.0  -0.6131
  O  O62  1  0.187800  0.937900  0.876000  1.0  -0.8487
  O  O63  1  0.124500  0.063800  0.975400  1.0  -0.8483
  O  O64  1  0.817200  0.326530  0.849800  1.0  -0.7284
  O  O65  1  0.865800  0.180140  0.863300  1.0  -0.846
  O  O66  1  0.773000  0.249600  0.046700  1.0  -0.7914
  O  O67  1  0.113800  0.323570  0.743700  1.0  -0.7664
  O  O68  1  0.188100  0.179020  0.762700  1.0  -0.7465
  O  O69  1  0.215700  0.254600  0.563300  1.0  -0.8044
  O  O70  1  0.725000  0.456900  0.363100  1.0  -0.6154
  O  O71  1  0.812200  0.437900  0.624000  1.0  -0.847
  O  O72  1  0.875500  0.563800  0.524600  1.0  -0.8484
  O  O73  1  0.182800  0.826530  0.650200  1.0  -0.7282
  O  O74  1  0.134200  0.680140  0.636700  1.0  -0.8463
  O  O75  1  0.227000  0.749600  0.453300  1.0  -0.7917
  O  O76  1  0.886200  0.823570  0.756300  1.0  -0.766
  O  O77  1  0.811900  0.679020  0.737300  1.0  -0.7458
  O  O78  1  0.784300  0.754600  0.936700  1.0  -0.8052
  O  O79  1  0.725000  0.043100  0.863100  1.0  -0.6167
  O  O80  1  0.812200  0.062100  0.124000  1.0  -0.8463
  O  O81  1  0.875500  0.936200  0.024600  1.0  -0.8488
  O  O82  1  0.182800  0.673470  0.150200  1.0  -0.7278
  O  O83  1  0.134200  0.819860  0.136700  1.0  -0.8457
  O  O84  1  0.227000  0.750400  0.953300  1.0  -0.7922
  O  O85  1  0.886200  0.676430  0.256300  1.0  -0.7655
  O  O86  1  0.811900  0.820980  0.237300  1.0  -0.7448
  O  O87  1  0.784300  0.745400  0.436700  1.0  -0.8042
  O  O88  1  0.275000  0.543100  0.636900  1.0  -0.6134
  O  O89  1  0.187800  0.562100  0.376000  1.0  -0.8487
  O  O90  1  0.124500  0.436200  0.475400  1.0  -0.8482
  O  O91  1  0.817200  0.173470  0.349800  1.0  -0.7273
  O  O92  1  0.865800  0.319860  0.363300  1.0  -0.8449
  O  O93  1  0.773000  0.250400  0.546700  1.0  -0.7915
  O  O94  1  0.113800  0.176430  0.243700  1.0  -0.7658
  O  O95  1  0.188100  0.320980  0.262700  1.0  -0.7455
  O  O96  1  0.215700  0.245400  0.063300  1.0  -0.8046
