# generated using pymatgen
data_CuH4C8N3O4
_symmetry_space_group_name_H-M   'P 1'
_cell_length_a   4.70940000
_cell_length_b   11.28240000
_cell_length_c   20.24670000
_cell_angle_alpha   90.00000000
_cell_angle_beta   90.00000000
_cell_angle_gamma   98.82700000
_symmetry_Int_Tables_number   1
_chemical_formula_structural   CuH4C8N3O4
_chemical_formula_sum   'Cu4 H16 C32 N12 O16'
_cell_volume   1063.03340187
_cell_formula_units_Z   4
loop_
 _symmetry_equiv_pos_site_id
 _symmetry_equiv_pos_as_xyz
  1  'x, y, z'
loop_
 _atom_site_type_symbol
 _atom_site_label
 _atom_site_symmetry_multiplicity
 _atom_site_fract_x
 _atom_site_fract_y
 _atom_site_fract_z
 _atom_site_occupancy
 _atom_site_charge
  Cu  Cu1  1  0.324200  0.444900  0.662500  1.0  0.8293
  Cu  Cu2  1  0.675800  0.055100  0.162500  1.0  0.8289
  Cu  Cu3  1  0.675800  0.555100  0.337500  1.0  0.8289
  Cu  Cu4  1  0.324200  0.944900  0.837500  1.0  0.8294
  H  H5  1  0.280000  0.417000  0.909500  1.0  0.0938
  H  H6  1  0.476000  0.505000  0.811300  1.0  0.1126
  H  H7  1  0.539000  0.320000  0.550800  1.0  0.1168
  H  H8  1  0.323000  0.645000  0.559900  1.0  0.0957
  H  H9  1  0.720000  0.083000  0.409500  1.0  0.0938
  H  H10  1  0.524000  0.995000  0.311300  1.0  0.1129
  H  H11  1  0.461000  0.180000  0.050800  1.0  0.1168
  H  H12  1  0.677000  0.855000  0.059900  1.0  0.0957
  H  H13  1  0.720000  0.583000  0.090500  1.0  0.094
  H  H14  1  0.524000  0.495000  0.188700  1.0  0.113
  H  H15  1  0.461000  0.680000  0.449200  1.0  0.1169
  H  H16  1  0.677000  0.355000  0.440100  1.0  0.0961
  H  H17  1  0.280000  0.917000  0.590500  1.0  0.0942
  H  H18  1  0.476000  0.005000  0.688700  1.0  0.1133
  H  H19  1  0.539000  0.820000  0.949200  1.0  0.1164
  H  H20  1  0.323000  0.145000  0.940100  1.0  0.0961
  C  C21  1  0.088000  0.273700  0.753000  1.0  0.0462
  C  C22  1  0.983000  0.220500  0.810900  1.0  0.1407
  C  C23  1  0.243000  0.373000  0.867900  1.0  0.1269
  C  C24  1  0.354000  0.429000  0.811100  1.0  0.1041
  C  C25  1  0.020000  0.221700  0.684100  1.0  0.6353
  C  C26  1  0.784000  0.105200  0.818500  1.0  0.6355
  C  C27  1  0.516000  0.396400  0.531000  1.0  0.0997
  C  C28  1  0.392000  0.582000  0.535600  1.0  0.094
  C  C29  1  0.912000  0.226300  0.253000  1.0  0.0459
  C  C30  1  0.017000  0.279500  0.310900  1.0  0.1408
  C  C31  1  0.757000  0.127000  0.367900  1.0  0.1275
  C  C32  1  0.646000  0.071000  0.311100  1.0  0.1035
  C  C33  1  0.980000  0.278300  0.184100  1.0  0.6358
  C  C34  1  0.216000  0.394800  0.318500  1.0  0.6354
  C  C35  1  0.484000  0.103600  0.031000  1.0  0.0978
  C  C36  1  0.608000  0.918000  0.035600  1.0  0.095
  C  C37  1  0.912000  0.726300  0.247000  1.0  0.0472
  C  C38  1  0.017000  0.779500  0.189100  1.0  0.141
  C  C39  1  0.757000  0.627000  0.132100  1.0  0.1274
  C  C40  1  0.646000  0.571000  0.188900  1.0  0.1034
  C  C41  1  0.980000  0.778300  0.315900  1.0  0.6361
  C  C42  1  0.216000  0.894800  0.181500  1.0  0.6355
  C  C43  1  0.484000  0.603600  0.469000  1.0  0.099
  C  C44  1  0.608000  0.418000  0.464400  1.0  0.0946
  C  C45  1  0.088000  0.773700  0.747000  1.0  0.0484
  C  C46  1  0.983000  0.720500  0.689100  1.0  0.1405
  C  C47  1  0.243000  0.873000  0.632100  1.0  0.1275
  C  C48  1  0.354000  0.929000  0.688900  1.0  0.1038
  C  C49  1  0.020000  0.721700  0.815900  1.0  0.6359
  C  C50  1  0.784000  0.605200  0.681500  1.0  0.6357
  C  C51  1  0.516000  0.896400  0.969000  1.0  0.1002
  C  C52  1  0.392000  0.082000  0.964400  1.0  0.0937
  N  N53  1  0.268000  0.377400  0.753100  1.0  -0.2385
  N  N54  1  0.080000  0.268000  0.868000  1.0  -0.3634
  N  N55  1  0.426000  0.480700  0.565900  1.0  -0.2414
  N  N56  1  0.732000  0.122600  0.253100  1.0  -0.2392
  N  N57  1  0.920000  0.232000  0.368000  1.0  -0.363
  N  N58  1  0.574000  0.019300  0.065900  1.0  -0.2412
  N  N59  1  0.732000  0.622600  0.246900  1.0  -0.2383
  N  N60  1  0.920000  0.732000  0.132000  1.0  -0.3613
  N  N61  1  0.574000  0.519300  0.434100  1.0  -0.2415
  N  N62  1  0.268000  0.877400  0.746900  1.0  -0.2386
  N  N63  1  0.080000  0.768000  0.632000  1.0  -0.362
  N  N64  1  0.426000  0.980700  0.934100  1.0  -0.2418
  O  O65  1  0.149000  0.281600  0.639200  1.0  -0.5827
  O  O66  1  0.873000  0.123600  0.678600  1.0  -0.5412
  O  O67  1  0.525000  0.108000  0.807500  1.0  -0.5442
  O  O68  1  0.884000  0.013600  0.831400  1.0  -0.6216
  O  O69  1  0.851000  0.218400  0.139200  1.0  -0.5827
  O  O70  1  0.127000  0.376400  0.178600  1.0  -0.542
  O  O71  1  0.475000  0.392000  0.307500  1.0  -0.5437
  O  O72  1  0.116000  0.486400  0.331400  1.0  -0.621
  O  O73  1  0.851000  0.718400  0.360800  1.0  -0.5831
  O  O74  1  0.127000  0.876400  0.321400  1.0  -0.5417
  O  O75  1  0.475000  0.892000  0.192500  1.0  -0.5436
  O  O76  1  0.116000  0.986400  0.168600  1.0  -0.6209
  O  O77  1  0.149000  0.781600  0.860800  1.0  -0.583
  O  O78  1  0.873000  0.623600  0.821400  1.0  -0.5411
  O  O79  1  0.525000  0.608000  0.692500  1.0  -0.544
  O  O80  1  0.884000  0.513600  0.668600  1.0  -0.6218
