# generated using pymatgen
data_Ga4P4O16F
_symmetry_space_group_name_H-M   'P 1'
_cell_length_a   22.09300000
_cell_length_b   13.90400000
_cell_length_c   14.23000000
_cell_angle_alpha   90.00000000
_cell_angle_beta   98.43100000
_cell_angle_gamma   90.00000000
_symmetry_Int_Tables_number   1
_chemical_formula_structural   Ga4P4O16F
_chemical_formula_sum   'Ga32 P32 O128 F8'
_cell_volume   4323.94789450
_cell_formula_units_Z   8
loop_
 _symmetry_equiv_pos_site_id
 _symmetry_equiv_pos_as_xyz
  1  'x, y, z'
loop_
 _atom_site_type_symbol
 _atom_site_label
 _atom_site_symmetry_multiplicity
 _atom_site_fract_x
 _atom_site_fract_y
 _atom_site_fract_z
 _atom_site_occupancy
 _atom_site_charge
  Ga  Ga1  1  0.416490  0.595880  0.492170  1.0  1.607
  Ga  Ga2  1  0.337420  0.701450  0.086040  1.0  1.6856
  Ga  Ga3  1  0.255520  0.610600  0.439930  1.0  1.5062
  Ga  Ga4  1  0.339870  0.397770  0.306010  1.0  1.7139
  Ga  Ga5  1  0.916490  0.095880  0.492170  1.0  1.607
  Ga  Ga6  1  0.837420  0.201450  0.086040  1.0  1.6856
  Ga  Ga7  1  0.755520  0.110600  0.439930  1.0  1.5062
  Ga  Ga8  1  0.839870  0.897770  0.306010  1.0  1.7139
  Ga  Ga9  1  0.583510  0.595880  0.007830  1.0  1.606
  Ga  Ga10  1  0.662580  0.701450  0.413960  1.0  1.6868
  Ga  Ga11  1  0.744480  0.610600  0.060070  1.0  1.5032
  Ga  Ga12  1  0.660130  0.397770  0.193990  1.0  1.7163
  Ga  Ga13  1  0.083510  0.095880  0.007830  1.0  1.606
  Ga  Ga14  1  0.162580  0.201450  0.413960  1.0  1.6868
  Ga  Ga15  1  0.244480  0.110600  0.060070  1.0  1.5032
  Ga  Ga16  1  0.160130  0.897770  0.193990  1.0  1.7163
  Ga  Ga17  1  0.583510  0.404120  0.507830  1.0  1.6052
  Ga  Ga18  1  0.662580  0.298550  0.913960  1.0  1.6866
  Ga  Ga19  1  0.744480  0.389400  0.560070  1.0  1.5031
  Ga  Ga20  1  0.660130  0.602230  0.693990  1.0  1.7166
  Ga  Ga21  1  0.083510  0.904120  0.507830  1.0  1.6052
  Ga  Ga22  1  0.162580  0.798550  0.913960  1.0  1.6866
  Ga  Ga23  1  0.244480  0.889400  0.560070  1.0  1.5031
  Ga  Ga24  1  0.160130  0.102230  0.693990  1.0  1.7166
  Ga  Ga25  1  0.416490  0.404120  0.992170  1.0  1.6068
  Ga  Ga26  1  0.337420  0.298550  0.586040  1.0  1.6854
  Ga  Ga27  1  0.255520  0.389400  0.939930  1.0  1.5062
  Ga  Ga28  1  0.339870  0.602230  0.806010  1.0  1.7147
  Ga  Ga29  1  0.916490  0.904120  0.992170  1.0  1.6068
  Ga  Ga30  1  0.837420  0.798550  0.586040  1.0  1.6854
  Ga  Ga31  1  0.755520  0.889400  0.939930  1.0  1.5062
  Ga  Ga32  1  0.839870  0.102230  0.806010  1.0  1.7147
  P  P33  1  0.442200  0.380440  0.483480  1.0  1.944
  P  P34  1  0.263440  0.890520  0.059250  1.0  1.9327
  P  P35  1  0.343710  0.618530  0.293600  1.0  1.8943
  P  P36  1  0.328390  0.713850  0.609490  1.0  1.8278
  P  P37  1  0.942200  0.880440  0.483480  1.0  1.944
  P  P38  1  0.763440  0.390520  0.059250  1.0  1.9327
  P  P39  1  0.843710  0.118530  0.293600  1.0  1.8943
  P  P40  1  0.828390  0.213850  0.609490  1.0  1.8278
  P  P41  1  0.557800  0.380440  0.016520  1.0  1.9426
  P  P42  1  0.736560  0.890520  0.440750  1.0  1.9279
  P  P43  1  0.656290  0.618530  0.206400  1.0  1.8935
  P  P44  1  0.671610  0.713850  0.890510  1.0  1.826
  P  P45  1  0.057800  0.880440  0.016520  1.0  1.9426
  P  P46  1  0.236560  0.390520  0.440750  1.0  1.9279
  P  P47  1  0.156290  0.118530  0.206400  1.0  1.8935
  P  P48  1  0.171610  0.213850  0.890510  1.0  1.826
  P  P49  1  0.557800  0.619560  0.516520  1.0  1.9441
  P  P50  1  0.736560  0.109480  0.940750  1.0  1.928
  P  P51  1  0.656290  0.381470  0.706400  1.0  1.894
  P  P52  1  0.671610  0.286150  0.390510  1.0  1.8262
  P  P53  1  0.057800  0.119560  0.516520  1.0  1.9441
  P  P54  1  0.236560  0.609480  0.940750  1.0  1.928
  P  P55  1  0.156290  0.881470  0.706400  1.0  1.894
  P  P56  1  0.171610  0.786150  0.390510  1.0  1.8262
  P  P57  1  0.442200  0.619560  0.983480  1.0  1.9457
  P  P58  1  0.263440  0.109480  0.559250  1.0  1.9327
  P  P59  1  0.343710  0.381470  0.793600  1.0  1.8946
  P  P60  1  0.328390  0.286150  0.109490  1.0  1.8278
  P  P61  1  0.942200  0.119560  0.983480  1.0  1.9457
  P  P62  1  0.763440  0.609480  0.559250  1.0  1.9327
  P  P63  1  0.843710  0.881470  0.793600  1.0  1.8946
  P  P64  1  0.828390  0.786150  0.109490  1.0  1.8278
  O  O65  1  0.271300  0.660900  0.561700  1.0  -0.8279
  O  O66  1  0.285700  0.994200  0.069000  1.0  -0.7644
  O  O67  1  0.385810  0.685100  0.568500  1.0  -0.8533
  O  O68  1  0.224160  0.861600  0.134400  1.0  -0.9287
  O  O69  1  0.403290  0.621100  0.363100  1.0  -0.7805
  O  O70  1  0.442380  0.476000  0.536400  1.0  -0.815
  O  O71  1  0.328380  0.516800  0.254400  1.0  -0.8451
  O  O72  1  0.354230  0.684100  0.211400  1.0  -0.9797
  O  O73  1  0.228500  0.871900  0.959500  1.0  -0.8539
  O  O74  1  0.321750  0.829800  0.072500  1.0  -0.8242
  O  O75  1  0.404430  0.305500  0.528600  1.0  -0.9323
  O  O76  1  0.289540  0.658300  0.337800  1.0  -0.8263
  O  O77  1  0.414190  0.391600  0.378800  1.0  -0.8995
  O  O78  1  0.320240  0.822800  0.595000  1.0  -0.7552
  O  O79  1  0.506460  0.341800  0.487600  1.0  -0.7654
  O  O80  1  0.338000  0.694400  0.716100  1.0  -0.8966
  O  O81  1  0.771300  0.160900  0.561700  1.0  -0.8279
  O  O82  1  0.785700  0.494200  0.069000  1.0  -0.7644
  O  O83  1  0.885810  0.185100  0.568500  1.0  -0.8533
  O  O84  1  0.724160  0.361600  0.134400  1.0  -0.9287
  O  O85  1  0.903290  0.121100  0.363100  1.0  -0.7805
  O  O86  1  0.942380  0.976000  0.536400  1.0  -0.815
  O  O87  1  0.828380  0.016800  0.254400  1.0  -0.8451
  O  O88  1  0.854230  0.184100  0.211400  1.0  -0.9797
  O  O89  1  0.728500  0.371900  0.959500  1.0  -0.8539
  O  O90  1  0.821750  0.329800  0.072500  1.0  -0.8242
  O  O91  1  0.904430  0.805500  0.528600  1.0  -0.9323
  O  O92  1  0.789540  0.158300  0.337800  1.0  -0.8263
  O  O93  1  0.914190  0.891600  0.378800  1.0  -0.8995
  O  O94  1  0.820240  0.322800  0.595000  1.0  -0.7552
  O  O95  1  0.006460  0.841800  0.487600  1.0  -0.7654
  O  O96  1  0.838000  0.194400  0.716100  1.0  -0.8966
  O  O97  1  0.728700  0.660900  0.938300  1.0  -0.8268
  O  O98  1  0.714300  0.994200  0.431000  1.0  -0.7656
  O  O99  1  0.614190  0.685100  0.931500  1.0  -0.8536
  O  O100  1  0.775840  0.861600  0.365600  1.0  -0.9278
  O  O101  1  0.596710  0.621100  0.136900  1.0  -0.7818
  O  O102  1  0.557620  0.476000  0.963600  1.0  -0.8155
  O  O103  1  0.671620  0.516800  0.245600  1.0  -0.8438
  O  O104  1  0.645770  0.684100  0.288600  1.0  -0.9802
  O  O105  1  0.771500  0.871900  0.540500  1.0  -0.8558
  O  O106  1  0.678250  0.829800  0.427500  1.0  -0.8241
  O  O107  1  0.595570  0.305500  0.971400  1.0  -0.9309
  O  O108  1  0.710460  0.658300  0.162200  1.0  -0.8265
  O  O109  1  0.585810  0.391600  0.121200  1.0  -0.9011
  O  O110  1  0.679760  0.822800  0.905000  1.0  -0.7554
  O  O111  1  0.493540  0.341800  0.012400  1.0  -0.7656
  O  O112  1  0.662000  0.694400  0.783900  1.0  -0.8975
  O  O113  1  0.228700  0.160900  0.938300  1.0  -0.8268
  O  O114  1  0.214300  0.494200  0.431000  1.0  -0.7656
  O  O115  1  0.114190  0.185100  0.931500  1.0  -0.8536
  O  O116  1  0.275840  0.361600  0.365600  1.0  -0.9278
  O  O117  1  0.096710  0.121100  0.136900  1.0  -0.7818
  O  O118  1  0.057620  0.976000  0.963600  1.0  -0.8155
  O  O119  1  0.171620  0.016800  0.245600  1.0  -0.8438
  O  O120  1  0.145770  0.184100  0.288600  1.0  -0.9802
  O  O121  1  0.271500  0.371900  0.540500  1.0  -0.8558
  O  O122  1  0.178250  0.329800  0.427500  1.0  -0.8241
  O  O123  1  0.095570  0.805500  0.971400  1.0  -0.9309
  O  O124  1  0.210460  0.158300  0.162200  1.0  -0.8265
  O  O125  1  0.085810  0.891600  0.121200  1.0  -0.9011
  O  O126  1  0.179760  0.322800  0.905000  1.0  -0.7554
  O  O127  1  0.993540  0.841800  0.012400  1.0  -0.7656
  O  O128  1  0.162000  0.194400  0.783900  1.0  -0.8975
  O  O129  1  0.728700  0.339100  0.438300  1.0  -0.8269
  O  O130  1  0.714300  0.005800  0.931000  1.0  -0.7659
  O  O131  1  0.614190  0.314900  0.431500  1.0  -0.8531
  O  O132  1  0.775840  0.138400  0.865600  1.0  -0.9287
  O  O133  1  0.596710  0.378900  0.636900  1.0  -0.7815
  O  O134  1  0.557620  0.524000  0.463600  1.0  -0.8177
  O  O135  1  0.671620  0.483200  0.745600  1.0  -0.8438
  O  O136  1  0.645770  0.315900  0.788600  1.0  -0.9814
  O  O137  1  0.771500  0.128100  0.040500  1.0  -0.8557
  O  O138  1  0.678250  0.170200  0.927500  1.0  -0.824
  O  O139  1  0.595570  0.694500  0.471400  1.0  -0.9318
  O  O140  1  0.710460  0.341700  0.662200  1.0  -0.8259
  O  O141  1  0.585810  0.608400  0.621200  1.0  -0.9033
  O  O142  1  0.679760  0.177200  0.405000  1.0  -0.7551
  O  O143  1  0.493540  0.658200  0.512400  1.0  -0.7644
  O  O144  1  0.662000  0.305600  0.283900  1.0  -0.8973
  O  O145  1  0.228700  0.839100  0.438300  1.0  -0.8269
  O  O146  1  0.214300  0.505800  0.931000  1.0  -0.7659
  O  O147  1  0.114190  0.814900  0.431500  1.0  -0.8531
  O  O148  1  0.275840  0.638400  0.865600  1.0  -0.9287
  O  O149  1  0.096710  0.878900  0.636900  1.0  -0.7815
  O  O150  1  0.057620  0.024000  0.463600  1.0  -0.8177
  O  O151  1  0.171620  0.983200  0.745600  1.0  -0.8438
  O  O152  1  0.145770  0.815900  0.788600  1.0  -0.9814
  O  O153  1  0.271500  0.628100  0.040500  1.0  -0.8557
  O  O154  1  0.178250  0.670200  0.927500  1.0  -0.824
  O  O155  1  0.095570  0.194500  0.471400  1.0  -0.9318
  O  O156  1  0.210460  0.841700  0.662200  1.0  -0.8259
  O  O157  1  0.085810  0.108400  0.621200  1.0  -0.9033
  O  O158  1  0.179760  0.677200  0.405000  1.0  -0.7551
  O  O159  1  0.993540  0.158200  0.512400  1.0  -0.7644
  O  O160  1  0.162000  0.805600  0.283900  1.0  -0.8973
  O  O161  1  0.271300  0.339100  0.061700  1.0  -0.8279
  O  O162  1  0.285700  0.005800  0.569000  1.0  -0.7641
  O  O163  1  0.385810  0.314900  0.068500  1.0  -0.8536
  O  O164  1  0.224160  0.138400  0.634400  1.0  -0.9293
  O  O165  1  0.403290  0.378900  0.863100  1.0  -0.7803
  O  O166  1  0.442380  0.524000  0.036400  1.0  -0.817
  O  O167  1  0.328380  0.483200  0.754400  1.0  -0.8449
  O  O168  1  0.354230  0.315900  0.711400  1.0  -0.9812
  O  O169  1  0.228500  0.128100  0.459500  1.0  -0.8543
  O  O170  1  0.321750  0.170200  0.572500  1.0  -0.8242
  O  O171  1  0.404430  0.694500  0.028600  1.0  -0.9345
  O  O172  1  0.289540  0.341700  0.837800  1.0  -0.8253
  O  O173  1  0.414190  0.608400  0.878800  1.0  -0.9019
  O  O174  1  0.320240  0.177200  0.095000  1.0  -0.7559
  O  O175  1  0.506460  0.658200  0.987600  1.0  -0.7645
  O  O176  1  0.338000  0.305600  0.216100  1.0  -0.8964
  O  O177  1  0.771300  0.839100  0.061700  1.0  -0.8279
  O  O178  1  0.785700  0.505800  0.569000  1.0  -0.7641
  O  O179  1  0.885810  0.814900  0.068500  1.0  -0.8536
  O  O180  1  0.724160  0.638400  0.634400  1.0  -0.9293
  O  O181  1  0.903290  0.878900  0.863100  1.0  -0.7803
  O  O182  1  0.942380  0.024000  0.036400  1.0  -0.817
  O  O183  1  0.828380  0.983200  0.754400  1.0  -0.8449
  O  O184  1  0.854230  0.815900  0.711400  1.0  -0.9812
  O  O185  1  0.728500  0.628100  0.459500  1.0  -0.8543
  O  O186  1  0.821750  0.670200  0.572500  1.0  -0.8242
  O  O187  1  0.904430  0.194500  0.028600  1.0  -0.9345
  O  O188  1  0.789540  0.841700  0.837800  1.0  -0.8253
  O  O189  1  0.914190  0.108400  0.878800  1.0  -0.9019
  O  O190  1  0.820240  0.677200  0.095000  1.0  -0.7559
  O  O191  1  0.006460  0.158200  0.987600  1.0  -0.7645
  O  O192  1  0.838000  0.805600  0.216100  1.0  -0.8964
  F  F193  1  0.332180  0.534820  0.469550  1.0  -0.5552
  F  F194  1  0.832180  0.034820  0.469550  1.0  -0.5552
  F  F195  1  0.667820  0.534820  0.030450  1.0  -0.5567
  F  F196  1  0.167820  0.034820  0.030450  1.0  -0.5567
  F  F197  1  0.667820  0.465180  0.530450  1.0  -0.5543
  F  F198  1  0.167820  0.965180  0.530450  1.0  -0.5543
  F  F199  1  0.332180  0.465180  0.969550  1.0  -0.554
  F  F200  1  0.832180  0.965180  0.969550  1.0  -0.554
