# generated using pymatgen
data_CdH6(C7O2)2
_symmetry_space_group_name_H-M   'P 1'
_cell_length_a   20.48700000
_cell_length_b   20.48700000
_cell_length_c   20.48700000
_cell_angle_alpha   90.00000000
_cell_angle_beta   90.00000000
_cell_angle_gamma   90.00000000
_symmetry_Int_Tables_number   1
_chemical_formula_structural   CdH6(C7O2)2
_chemical_formula_sum   'Cd12 H72 C168 O48'
_cell_volume   8598.74564130
_cell_formula_units_Z   12
loop_
 _symmetry_equiv_pos_site_id
 _symmetry_equiv_pos_as_xyz
  1  'x, y, z'
loop_
 _atom_site_type_symbol
 _atom_site_label
 _atom_site_symmetry_multiplicity
 _atom_site_fract_x
 _atom_site_fract_y
 _atom_site_fract_z
 _atom_site_occupancy
 _atom_site_charge
  Cd  Cd1  1  0.125000  0.625000  0.875000  1.0  0.842
  Cd  Cd2  1  0.375000  0.375000  0.375000  1.0  0.842
  Cd  Cd3  1  0.875000  0.125000  0.625000  1.0  0.842
  Cd  Cd4  1  0.625000  0.875000  0.125000  1.0  0.842
  Cd  Cd5  1  0.024220  0.524220  0.975780  1.0  0.8232
  Cd  Cd6  1  0.475780  0.475780  0.475780  1.0  0.7738
  Cd  Cd7  1  0.975780  0.024220  0.524220  1.0  0.8305
  Cd  Cd8  1  0.524220  0.975780  0.024220  1.0  0.8278
  Cd  Cd9  1  0.274220  0.274220  0.274220  1.0  0.8329
  Cd  Cd10  1  0.225780  0.725780  0.774220  1.0  0.7725
  Cd  Cd11  1  0.774220  0.225780  0.725780  1.0  0.7698
  Cd  Cd12  1  0.725780  0.774220  0.225780  1.0  0.7716
  H  H13  1  0.075000  0.359900  0.802000  1.0  0.1717
  H  H14  1  0.264300  0.455700  0.722900  1.0  0.1669
  H  H15  1  0.208400  0.503500  0.809000  1.0  0.1395
  H  H16  1  0.425000  0.640100  0.302000  1.0  0.1735
  H  H17  1  0.235700  0.544300  0.222900  1.0  0.1659
  H  H18  1  0.291600  0.496500  0.309000  1.0  0.1393
  H  H19  1  0.925000  0.859900  0.698000  1.0  0.1734
  H  H20  1  0.735700  0.955700  0.777100  1.0  0.1664
  H  H21  1  0.791600  0.003500  0.691000  1.0  0.1395
  H  H22  1  0.575000  0.140100  0.198000  1.0  0.1715
  H  H23  1  0.764300  0.044300  0.277100  1.0  0.1662
  H  H24  1  0.708400  0.996500  0.191000  1.0  0.1387
  H  H25  1  0.802000  0.075000  0.359900  1.0  0.1722
  H  H26  1  0.722900  0.264300  0.455700  1.0  0.1671
  H  H27  1  0.809000  0.208400  0.503500  1.0  0.1405
  H  H28  1  0.302000  0.425000  0.640100  1.0  0.1735
  H  H29  1  0.222900  0.235700  0.544300  1.0  0.1663
  H  H30  1  0.309000  0.291600  0.496500  1.0  0.1401
  H  H31  1  0.698000  0.925000  0.859900  1.0  0.1731
  H  H32  1  0.777100  0.735700  0.955700  1.0  0.1675
  H  H33  1  0.691000  0.791600  0.003500  1.0  0.1405
  H  H34  1  0.198000  0.575000  0.140100  1.0  0.1705
  H  H35  1  0.277100  0.764300  0.044300  1.0  0.1678
  H  H36  1  0.191000  0.708400  0.996500  1.0  0.1404
  H  H37  1  0.359900  0.802000  0.075000  1.0  0.1724
  H  H38  1  0.455700  0.722900  0.264300  1.0  0.1678
  H  H39  1  0.503500  0.809000  0.208400  1.0  0.1402
  H  H40  1  0.640100  0.302000  0.425000  1.0  0.1736
  H  H41  1  0.544300  0.222900  0.235700  1.0  0.1673
  H  H42  1  0.496500  0.309000  0.291600  1.0  0.1404
  H  H43  1  0.859900  0.698000  0.925000  1.0  0.1744
  H  H44  1  0.955700  0.777100  0.735700  1.0  0.1672
  H  H45  1  0.003500  0.691000  0.791600  1.0  0.1398
  H  H46  1  0.140100  0.198000  0.575000  1.0  0.1733
  H  H47  1  0.044300  0.277100  0.764300  1.0  0.1676
  H  H48  1  0.996500  0.191000  0.708400  1.0  0.1399
  H  H49  1  0.109900  0.325000  0.448000  1.0  0.1714
  H  H50  1  0.205700  0.514300  0.527100  1.0  0.1696
  H  H51  1  0.253500  0.458400  0.441000  1.0  0.1395
  H  H52  1  0.390100  0.675000  0.948000  1.0  0.1729
  H  H53  1  0.294300  0.485700  0.027100  1.0  0.1744
  H  H54  1  0.246500  0.541600  0.941000  1.0  0.1395
  H  H55  1  0.609900  0.175000  0.552000  1.0  0.1742
  H  H56  1  0.705700  0.985700  0.472900  1.0  0.169
  H  H57  1  0.753500  0.041600  0.559000  1.0  0.1401
  H  H58  1  0.890100  0.825000  0.052000  1.0  0.1718
  H  H59  1  0.794300  0.014300  0.972900  1.0  0.1712
  H  H60  1  0.746500  0.958400  0.059000  1.0  0.14
  H  H61  1  0.825000  0.052000  0.890100  1.0  0.1702
  H  H62  1  0.014300  0.972900  0.794300  1.0  0.167
  H  H63  1  0.958400  0.059000  0.746500  1.0  0.1395
  H  H64  1  0.175000  0.552000  0.609900  1.0  0.1729
  H  H65  1  0.985700  0.472900  0.705700  1.0  0.1647
  H  H66  1  0.041600  0.559000  0.753500  1.0  0.1399
  H  H67  1  0.675000  0.948000  0.390100  1.0  0.1735
  H  H68  1  0.485700  0.027100  0.294300  1.0  0.1699
  H  H69  1  0.541600  0.941000  0.246500  1.0  0.14
  H  H70  1  0.325000  0.448000  0.109900  1.0  0.1717
  H  H71  1  0.514300  0.527100  0.205700  1.0  0.1647
  H  H72  1  0.458400  0.441000  0.253500  1.0  0.1402
  H  H73  1  0.552000  0.609900  0.175000  1.0  0.1739
  H  H74  1  0.472900  0.705700  0.985700  1.0  0.1669
  H  H75  1  0.559000  0.753500  0.041600  1.0  0.1403
  H  H76  1  0.052000  0.890100  0.825000  1.0  0.1738
  H  H77  1  0.972900  0.794300  0.014300  1.0  0.1688
  H  H78  1  0.059000  0.746500  0.958400  1.0  0.1399
  H  H79  1  0.448000  0.109900  0.325000  1.0  0.172
  H  H80  1  0.527100  0.205700  0.514300  1.0  0.1681
  H  H81  1  0.441000  0.253500  0.458400  1.0  0.14
  H  H82  1  0.948000  0.390100  0.675000  1.0  0.1737
  H  H83  1  0.027100  0.294300  0.485700  1.0  0.1729
  H  H84  1  0.941000  0.246500  0.541600  1.0  0.1397
  C  C85  1  0.100100  0.467900  0.866500  1.0  0.6326
  C  C86  1  0.136100  0.436400  0.814000  1.0  -0.061
  C  C87  1  0.112900  0.379100  0.786100  1.0  -0.0762
  C  C88  1  0.146500  0.350500  0.734500  1.0  -0.0272
  C  C89  1  0.203200  0.379200  0.710800  1.0  -0.0596
  C  C90  1  0.226400  0.436500  0.738700  1.0  -0.0735
  C  C91  1  0.192900  0.465100  0.790300  1.0  -0.0713
  C  C92  1  0.399900  0.532100  0.366500  1.0  0.6291
  C  C93  1  0.363900  0.563600  0.314000  1.0  -0.0546
  C  C94  1  0.387100  0.620900  0.286100  1.0  -0.0747
  C  C95  1  0.353500  0.649500  0.234500  1.0  -0.03
  C  C96  1  0.296800  0.620800  0.210800  1.0  -0.0575
  C  C97  1  0.273600  0.563500  0.238700  1.0  -0.0749
  C  C98  1  0.307100  0.534900  0.290300  1.0  -0.0702
  C  C99  1  0.899900  0.967900  0.633500  1.0  0.6314
  C  C100  1  0.863900  0.936400  0.686000  1.0  -0.0591
  C  C101  1  0.887100  0.879100  0.713900  1.0  -0.0766
  C  C102  1  0.853500  0.850500  0.765500  1.0  -0.0321
  C  C103  1  0.796800  0.879200  0.789200  1.0  -0.0614
  C  C104  1  0.773600  0.936500  0.761300  1.0  -0.0765
  C  C105  1  0.807100  0.965100  0.709700  1.0  -0.0707
  C  C106  1  0.600100  0.032100  0.133500  1.0  0.6326
  C  C107  1  0.636100  0.063600  0.186000  1.0  -0.0585
  C  C108  1  0.612900  0.120900  0.213900  1.0  -0.0758
  C  C109  1  0.646500  0.149500  0.265500  1.0  -0.0334
  C  C110  1  0.703200  0.120800  0.289200  1.0  -0.062
  C  C111  1  0.726400  0.063500  0.261300  1.0  -0.0731
  C  C112  1  0.692900  0.034900  0.209700  1.0  -0.068
  C  C113  1  0.866500  0.100100  0.467900  1.0  0.625
  C  C114  1  0.814000  0.136100  0.436400  1.0  -0.0732
  C  C115  1  0.786100  0.112900  0.379100  1.0  -0.0717
  C  C116  1  0.734500  0.146500  0.350500  1.0  -0.0348
  C  C117  1  0.710800  0.203200  0.379200  1.0  -0.0586
  C  C118  1  0.738700  0.226400  0.436500  1.0  -0.079
  C  C119  1  0.790300  0.192900  0.465100  1.0  -0.0758
  C  C120  1  0.366500  0.399900  0.532100  1.0  0.6208
  C  C121  1  0.314000  0.363900  0.563600  1.0  -0.0636
  C  C122  1  0.286100  0.387100  0.620900  1.0  -0.0714
  C  C123  1  0.234500  0.353500  0.649500  1.0  -0.0332
  C  C124  1  0.210800  0.296800  0.620800  1.0  -0.0588
  C  C125  1  0.238700  0.273600  0.563500  1.0  -0.0784
  C  C126  1  0.290300  0.307100  0.534900  1.0  -0.0728
  C  C127  1  0.633500  0.899900  0.967900  1.0  0.6216
  C  C128  1  0.686000  0.863900  0.936400  1.0  -0.0641
  C  C129  1  0.713900  0.887100  0.879100  1.0  -0.0722
  C  C130  1  0.765500  0.853500  0.850500  1.0  -0.0342
  C  C131  1  0.789200  0.796800  0.879200  1.0  -0.0613
  C  C132  1  0.761300  0.773600  0.936500  1.0  -0.0846
  C  C133  1  0.709700  0.807100  0.965100  1.0  -0.0756
  C  C134  1  0.133500  0.600100  0.032100  1.0  0.6213
  C  C135  1  0.186000  0.636100  0.063600  1.0  -0.0632
  C  C136  1  0.213900  0.612900  0.120900  1.0  -0.0736
  C  C137  1  0.265500  0.646500  0.149500  1.0  -0.0332
  C  C138  1  0.289200  0.703200  0.120800  1.0  -0.0591
  C  C139  1  0.261300  0.726400  0.063500  1.0  -0.0776
  C  C140  1  0.209700  0.692900  0.034900  1.0  -0.0731
  C  C141  1  0.467900  0.866500  0.100100  1.0  0.6335
  C  C142  1  0.436400  0.814000  0.136100  1.0  -0.061
  C  C143  1  0.379100  0.786100  0.112900  1.0  -0.0712
  C  C144  1  0.350500  0.734500  0.146500  1.0  -0.0294
  C  C145  1  0.379200  0.710800  0.203200  1.0  -0.0566
  C  C146  1  0.436500  0.738700  0.226400  1.0  -0.0831
  C  C147  1  0.465100  0.790300  0.192900  1.0  -0.0697
  C  C148  1  0.532100  0.366500  0.399900  1.0  0.6289
  C  C149  1  0.563600  0.314000  0.363900  1.0  -0.0543
  C  C150  1  0.620900  0.286100  0.387100  1.0  -0.0734
  C  C151  1  0.649500  0.234500  0.353500  1.0  -0.0315
  C  C152  1  0.620800  0.210800  0.296800  1.0  -0.0601
  C  C153  1  0.563500  0.238700  0.273600  1.0  -0.0773
  C  C154  1  0.534900  0.290300  0.307100  1.0  -0.069
  C  C155  1  0.967900  0.633500  0.899900  1.0  0.6312
  C  C156  1  0.936400  0.686000  0.863900  1.0  -0.0641
  C  C157  1  0.879100  0.713900  0.887100  1.0  -0.0717
  C  C158  1  0.850500  0.765500  0.853500  1.0  -0.0311
  C  C159  1  0.879200  0.789200  0.796800  1.0  -0.0591
  C  C160  1  0.936500  0.761300  0.773600  1.0  -0.0787
  C  C161  1  0.965100  0.709700  0.807100  1.0  -0.0729
  C  C162  1  0.032100  0.133500  0.600100  1.0  0.6288
  C  C163  1  0.063600  0.186000  0.636100  1.0  -0.0545
  C  C164  1  0.120900  0.213900  0.612900  1.0  -0.0729
  C  C165  1  0.149500  0.265500  0.646500  1.0  -0.0303
  C  C166  1  0.120800  0.289200  0.703200  1.0  -0.0547
  C  C167  1  0.063500  0.261300  0.726400  1.0  -0.0808
  C  C168  1  0.034900  0.209700  0.692900  1.0  -0.0687
  C  C169  1  0.217900  0.350100  0.383500  1.0  0.6311
  C  C170  1  0.186400  0.386100  0.436000  1.0  -0.0668
  C  C171  1  0.129100  0.362900  0.463900  1.0  -0.0716
  C  C172  1  0.100500  0.396500  0.515500  1.0  -0.0307
  C  C173  1  0.129200  0.453200  0.539200  1.0  -0.0607
  C  C174  1  0.186500  0.476400  0.511300  1.0  -0.0772
  C  C175  1  0.215100  0.442900  0.459700  1.0  -0.0715
  C  C176  1  0.282100  0.649900  0.883500  1.0  0.6289
  C  C177  1  0.313600  0.613900  0.936000  1.0  -0.0619
  C  C178  1  0.370900  0.637100  0.963900  1.0  -0.0758
  C  C179  1  0.399500  0.603500  0.015500  1.0  -0.0324
  C  C180  1  0.370800  0.546800  0.039200  1.0  -0.0621
  C  C181  1  0.313500  0.523600  0.011300  1.0  -0.0797
  C  C182  1  0.284900  0.557100  0.959700  1.0  -0.0703
  C  C183  1  0.717900  0.149900  0.616500  1.0  0.6284
  C  C184  1  0.686400  0.113900  0.564000  1.0  -0.0618
  C  C185  1  0.629100  0.137100  0.536100  1.0  -0.0734
  C  C186  1  0.600500  0.103500  0.484500  1.0  -0.0272
  C  C187  1  0.629200  0.046800  0.460800  1.0  -0.0603
  C  C188  1  0.686500  0.023600  0.488700  1.0  -0.0786
  C  C189  1  0.715100  0.057100  0.540300  1.0  -0.0742
  C  C190  1  0.782100  0.850100  0.116500  1.0  0.63
  C  C191  1  0.813600  0.886100  0.064000  1.0  -0.0586
  C  C192  1  0.870900  0.862900  0.036100  1.0  -0.0735
  C  C193  1  0.899500  0.896500  0.984500  1.0  -0.0365
  C  C194  1  0.870800  0.953200  0.960800  1.0  -0.056
  C  C195  1  0.813500  0.976400  0.988700  1.0  -0.0785
  C  C196  1  0.784900  0.942900  0.040300  1.0  -0.0711
  C  C197  1  0.850100  0.116500  0.782100  1.0  0.628
  C  C198  1  0.886100  0.064000  0.813600  1.0  -0.0533
  C  C199  1  0.862900  0.036100  0.870900  1.0  -0.0761
  C  C200  1  0.896500  0.984500  0.899500  1.0  -0.0399
  C  C201  1  0.953200  0.960800  0.870800  1.0  -0.0583
  C  C202  1  0.976400  0.988700  0.813500  1.0  -0.0752
  C  C203  1  0.942900  0.040300  0.784900  1.0  -0.072
  C  C204  1  0.149900  0.616500  0.717900  1.0  0.6288
  C  C205  1  0.113900  0.564000  0.686400  1.0  -0.0514
  C  C206  1  0.137100  0.536100  0.629100  1.0  -0.0738
  C  C207  1  0.103500  0.484500  0.600500  1.0  -0.0337
  C  C208  1  0.046800  0.460800  0.629200  1.0  -0.0593
  C  C209  1  0.023600  0.488700  0.686500  1.0  -0.0753
  C  C210  1  0.057100  0.540300  0.715100  1.0  -0.075
  C  C211  1  0.649900  0.883500  0.282100  1.0  0.6265
  C  C212  1  0.613900  0.936000  0.313600  1.0  -0.052
  C  C213  1  0.637100  0.963900  0.370900  1.0  -0.0748
  C  C214  1  0.603500  0.015500  0.399500  1.0  -0.0317
  C  C215  1  0.546800  0.039200  0.370800  1.0  -0.058
  C  C216  1  0.523600  0.011300  0.313500  1.0  -0.0763
  C  C217  1  0.557100  0.959700  0.284900  1.0  -0.072
  C  C218  1  0.350100  0.383500  0.217900  1.0  0.6303
  C  C219  1  0.386100  0.436000  0.186400  1.0  -0.0611
  C  C220  1  0.362900  0.463900  0.129100  1.0  -0.0733
  C  C221  1  0.396500  0.515500  0.100500  1.0  -0.0323
  C  C222  1  0.453200  0.539200  0.129200  1.0  -0.0597
  C  C223  1  0.476400  0.511300  0.186500  1.0  -0.074
  C  C224  1  0.442900  0.459700  0.215100  1.0  -0.0745
  C  C225  1  0.616500  0.717900  0.149900  1.0  0.6289
  C  C226  1  0.564000  0.686400  0.113900  1.0  -0.0648
  C  C227  1  0.536100  0.629100  0.137100  1.0  -0.0721
  C  C228  1  0.484500  0.600500  0.103500  1.0  -0.0333
  C  C229  1  0.460800  0.629200  0.046800  1.0  -0.0582
  C  C230  1  0.488700  0.686500  0.023600  1.0  -0.0769
  C  C231  1  0.540300  0.715100  0.057100  1.0  -0.0714
  C  C232  1  0.116500  0.782100  0.850100  1.0  0.6252
  C  C233  1  0.064000  0.813600  0.886100  1.0  -0.0636
  C  C234  1  0.036100  0.870900  0.862900  1.0  -0.0716
  C  C235  1  0.984500  0.899500  0.896500  1.0  -0.04
  C  C236  1  0.960800  0.870800  0.953200  1.0  -0.0516
  C  C237  1  0.988700  0.813500  0.976400  1.0  -0.0807
  C  C238  1  0.040300  0.784900  0.942900  1.0  -0.0672
  C  C239  1  0.383500  0.217900  0.350100  1.0  0.6282
  C  C240  1  0.436000  0.186400  0.386100  1.0  -0.0667
  C  C241  1  0.463900  0.129100  0.362900  1.0  -0.0726
  C  C242  1  0.515500  0.100500  0.396500  1.0  -0.0315
  C  C243  1  0.539200  0.129200  0.453200  1.0  -0.0541
  C  C244  1  0.511300  0.186500  0.476400  1.0  -0.0805
  C  C245  1  0.459700  0.215100  0.442900  1.0  -0.0708
  C  C246  1  0.883500  0.282100  0.649900  1.0  0.6252
  C  C247  1  0.936000  0.313600  0.613900  1.0  -0.0578
  C  C248  1  0.963900  0.370900  0.637100  1.0  -0.0728
  C  C249  1  0.015500  0.399500  0.603500  1.0  -0.0338
  C  C250  1  0.039200  0.370800  0.546800  1.0  -0.0593
  C  C251  1  0.011300  0.313500  0.523600  1.0  -0.0811
  C  C252  1  0.959700  0.284900  0.557100  1.0  -0.0677
  O  O253  1  0.051700  0.452400  0.898200  1.0  -0.5197
  O  O254  1  0.129600  0.517000  0.883300  1.0  -0.6202
  O  O255  1  0.448300  0.547600  0.398200  1.0  -0.5199
  O  O256  1  0.370400  0.483000  0.383300  1.0  -0.6225
  O  O257  1  0.948300  0.952400  0.601800  1.0  -0.5208
  O  O258  1  0.870400  0.017000  0.616700  1.0  -0.6256
  O  O259  1  0.551700  0.047600  0.101800  1.0  -0.5185
  O  O260  1  0.629600  0.983000  0.116700  1.0  -0.621
  O  O261  1  0.898200  0.051700  0.452400  1.0  -0.5163
  O  O262  1  0.883300  0.129600  0.517000  1.0  -0.6202
  O  O263  1  0.398200  0.448300  0.547600  1.0  -0.5182
  O  O264  1  0.383300  0.370400  0.483000  1.0  -0.6228
  O  O265  1  0.601800  0.948300  0.952400  1.0  -0.5179
  O  O266  1  0.616700  0.870400  0.017000  1.0  -0.6241
  O  O267  1  0.101800  0.551700  0.047600  1.0  -0.517
  O  O268  1  0.116700  0.629600  0.983000  1.0  -0.6216
  O  O269  1  0.452400  0.898200  0.051700  1.0  -0.5215
  O  O270  1  0.517000  0.883300  0.129600  1.0  -0.6205
  O  O271  1  0.547600  0.398200  0.448300  1.0  -0.5197
  O  O272  1  0.483000  0.383300  0.370400  1.0  -0.6205
  O  O273  1  0.952400  0.601800  0.948300  1.0  -0.5237
  O  O274  1  0.017000  0.616700  0.870400  1.0  -0.6205
  O  O275  1  0.047600  0.101800  0.551700  1.0  -0.5187
  O  O276  1  0.983000  0.116700  0.629600  1.0  -0.6214
  O  O277  1  0.202400  0.301700  0.351800  1.0  -0.518
  O  O278  1  0.267000  0.379600  0.366700  1.0  -0.6209
  O  O279  1  0.297600  0.698300  0.851800  1.0  -0.5208
  O  O280  1  0.233000  0.620400  0.866700  1.0  -0.6211
  O  O281  1  0.702400  0.198300  0.648200  1.0  -0.5188
  O  O282  1  0.767000  0.120400  0.633300  1.0  -0.6202
  O  O283  1  0.797600  0.801700  0.148200  1.0  -0.522
  O  O284  1  0.733000  0.879600  0.133300  1.0  -0.6185
  O  O285  1  0.801700  0.148200  0.797600  1.0  -0.5167
  O  O286  1  0.879600  0.133300  0.733000  1.0  -0.6212
  O  O287  1  0.198300  0.648200  0.702400  1.0  -0.5205
  O  O288  1  0.120400  0.633300  0.767000  1.0  -0.6229
  O  O289  1  0.698300  0.851800  0.297600  1.0  -0.522
  O  O290  1  0.620400  0.866700  0.233000  1.0  -0.6227
  O  O291  1  0.301700  0.351800  0.202400  1.0  -0.5158
  O  O292  1  0.379600  0.366700  0.267000  1.0  -0.6226
  O  O293  1  0.648200  0.702400  0.198300  1.0  -0.5228
  O  O294  1  0.633300  0.767000  0.120400  1.0  -0.6214
  O  O295  1  0.148200  0.797600  0.801700  1.0  -0.5243
  O  O296  1  0.133300  0.733000  0.879600  1.0  -0.6223
  O  O297  1  0.351800  0.202400  0.301700  1.0  -0.5198
  O  O298  1  0.366700  0.267000  0.379600  1.0  -0.6214
  O  O299  1  0.851800  0.297600  0.698300  1.0  -0.5183
  O  O300  1  0.866700  0.233000  0.620400  1.0  -0.6221
