# generated using pymatgen
data_ErH2C5O6
_symmetry_space_group_name_H-M   'P 1'
_cell_length_a   9.20210000
_cell_length_b   9.20210000
_cell_length_c   14.19730000
_cell_angle_alpha   79.83900000
_cell_angle_beta   79.83930000
_cell_angle_gamma   117.10600000
_symmetry_Int_Tables_number   1
_chemical_formula_structural   ErH2C5O6
_chemical_formula_sum   'Er4 H8 C20 O24'
_cell_volume   1007.12562338
_cell_formula_units_Z   4
loop_
 _symmetry_equiv_pos_site_id
 _symmetry_equiv_pos_as_xyz
  1  'x, y, z'
loop_
 _atom_site_type_symbol
 _atom_site_label
 _atom_site_symmetry_multiplicity
 _atom_site_fract_x
 _atom_site_fract_y
 _atom_site_fract_z
 _atom_site_occupancy
 _atom_site_charge
  Er  Er1  1  0.008680  0.758680  0.982640  1.0  1.588
  Er  Er2  1  0.241320  0.991320  0.517360  1.0  1.5882
  Er  Er3  1  0.991320  0.241320  0.017360  1.0  1.5877
  Er  Er4  1  0.758680  0.008680  0.482640  1.0  1.5885
  H  H5  1  0.394900  0.816900  0.069600  1.0  0.1281
  H  H6  1  0.535500  0.613500  0.069600  1.0  0.1287
  H  H7  1  0.183100  0.605100  0.430400  1.0  0.1285
  H  H8  1  0.386500  0.464500  0.430400  1.0  0.1285
  H  H9  1  0.605100  0.183100  0.930400  1.0  0.1278
  H  H10  1  0.464500  0.386500  0.930400  1.0  0.1301
  H  H11  1  0.816900  0.394900  0.569600  1.0  0.1281
  H  H12  1  0.613500  0.535500  0.569600  1.0  0.1266
  C  C13  1  0.240060  0.572060  0.059480  1.0  0.7804
  C  C14  1  0.397420  0.718220  0.065560  1.0  -0.09
  C  C15  1  0.700460  0.868460  0.059480  1.0  0.7805
  C  C16  1  0.537020  0.716220  0.065560  1.0  -0.0888
  C  C17  1  0.427940  0.759940  0.440520  1.0  0.781
  C  C18  1  0.281780  0.602580  0.434440  1.0  -0.0897
  C  C19  1  0.131540  0.299540  0.440520  1.0  0.7815
  C  C20  1  0.283780  0.462980  0.434440  1.0  -0.0899
  C  C21  1  0.759940  0.427940  0.940520  1.0  0.7805
  C  C22  1  0.602580  0.281780  0.934440  1.0  -0.0889
  C  C23  1  0.299540  0.131540  0.940520  1.0  0.7802
  C  C24  1  0.462980  0.283780  0.934440  1.0  -0.0907
  C  C25  1  0.572060  0.240060  0.559480  1.0  0.781
  C  C26  1  0.718220  0.397420  0.565560  1.0  -0.0889
  C  C27  1  0.868460  0.700460  0.559480  1.0  0.78
  C  C28  1  0.716220  0.537020  0.565560  1.0  -0.0897
  C  C29  1  0.075600  0.924400  0.750000  1.0  0.5826
  C  C30  1  0.174400  0.825600  0.750000  1.0  0.5824
  C  C31  1  0.924400  0.075600  0.250000  1.0  0.5824
  C  C32  1  0.825600  0.174400  0.250000  1.0  0.5826
  O  O33  1  0.131980  0.606820  0.034800  1.0  -0.7788
  O  O34  1  0.220290  0.424490  0.074620  1.0  -0.5825
  O  O35  1  0.007010  0.926830  0.833360  1.0  -0.543
  O  O36  1  0.833220  0.858380  0.034800  1.0  -0.7775
  O  O37  1  0.705090  0.000890  0.074620  1.0  -0.5835
  O  O38  1  0.159630  0.739810  0.833360  1.0  -0.5435
  O  O39  1  0.393180  0.868020  0.465200  1.0  -0.7812
  O  O40  1  0.575510  0.779710  0.425380  1.0  -0.5812
  O  O41  1  0.073170  0.992990  0.666667  1.0  -0.5439
  O  O42  1  0.141620  0.166780  0.465200  1.0  -0.7803
  O  O43  1  0.999110  0.294910  0.425380  1.0  -0.5807
  O  O44  1  0.260190  0.840370  0.666667  1.0  -0.5436
  O  O45  1  0.868020  0.393180  0.965200  1.0  -0.7787
  O  O46  1  0.779710  0.575510  0.925380  1.0  -0.583
  O  O47  1  0.992990  0.073170  0.166640  1.0  -0.5438
  O  O48  1  0.166780  0.141620  0.965200  1.0  -0.7778
  O  O49  1  0.294910  0.999110  0.925380  1.0  -0.5834
  O  O50  1  0.840370  0.260190  0.166640  1.0  -0.5441
  O  O51  1  0.606820  0.131980  0.534800  1.0  -0.778
  O  O52  1  0.424490  0.220290  0.574620  1.0  -0.5815
  O  O53  1  0.926830  0.007010  0.333333  1.0  -0.5433
  O  O54  1  0.858380  0.833220  0.534800  1.0  -0.7808
  O  O55  1  0.000890  0.705090  0.574620  1.0  -0.5807
  O  O56  1  0.739810  0.159630  0.333333  1.0  -0.5426
