# generated using pymatgen
data_ErH6(C2O)6
_symmetry_space_group_name_H-M   'P 1'
_cell_length_a   7.01220000
_cell_length_b   11.12410000
_cell_length_c   20.04330000
_cell_angle_alpha   106.11100000
_cell_angle_beta   98.29250000
_cell_angle_gamma   90.00000000
_symmetry_Int_Tables_number   1
_chemical_formula_structural   ErH6(C2O)6
_chemical_formula_sum   'Er4 H24 C48 O24'
_cell_volume   1485.03986277
_cell_formula_units_Z   4
loop_
 _symmetry_equiv_pos_site_id
 _symmetry_equiv_pos_as_xyz
  1  'x, y, z'
loop_
 _atom_site_type_symbol
 _atom_site_label
 _atom_site_symmetry_multiplicity
 _atom_site_fract_x
 _atom_site_fract_y
 _atom_site_fract_z
 _atom_site_occupancy
 _atom_site_charge
  Er  Er1  1  0.146660  0.070460  0.740630  1.0  1.5585
  Er  Er2  1  0.353340  0.329830  0.259370  1.0  1.5575
  Er  Er3  1  0.853340  0.929540  0.259370  1.0  1.56
  Er  Er4  1  0.646660  0.670170  0.740630  1.0  1.5583
  H  H5  1  0.497600  0.203300  0.990200  1.0  0.1215
  H  H6  1  0.363400  0.833100  0.908600  1.0  0.1115
  H  H7  1  0.527600  0.718100  0.544800  1.0  0.0815
  H  H8  1  0.423700  0.693400  0.425400  1.0  0.1075
  H  H9  1  0.186300  0.027200  0.475400  1.0  0.0947
  H  H10  1  0.297100  0.056300  0.593200  1.0  0.1087
  H  H11  1  0.002400  0.213100  0.009800  1.0  0.1213
  H  H12  1  0.136600  0.924500  0.091400  1.0  0.113
  H  H13  1  0.972400  0.173300  0.455200  1.0  0.0813
  H  H14  1  0.076300  0.268000  0.574600  1.0  0.1082
  H  H15  1  0.313700  0.551800  0.524600  1.0  0.0952
  H  H16  1  0.202900  0.463100  0.406800  1.0  0.1083
  H  H17  1  0.502400  0.796700  0.009800  1.0  0.1209
  H  H18  1  0.636600  0.166900  0.091400  1.0  0.1103
  H  H19  1  0.472400  0.281900  0.455200  1.0  0.0813
  H  H20  1  0.576300  0.306600  0.574600  1.0  0.1079
  H  H21  1  0.813700  0.972800  0.524600  1.0  0.0958
  H  H22  1  0.702900  0.943700  0.406800  1.0  0.1082
  H  H23  1  0.997600  0.786900  0.990200  1.0  0.1208
  H  H24  1  0.863400  0.075500  0.908600  1.0  0.1126
  H  H25  1  0.027600  0.826700  0.544800  1.0  0.0825
  H  H26  1  0.923700  0.732000  0.425400  1.0  0.1082
  H  H27  1  0.686300  0.448200  0.475400  1.0  0.0946
  H  H28  1  0.797100  0.536900  0.593200  1.0  0.1121
  C  C29  1  0.327500  0.042400  0.869000  1.0  0.6492
  C  C30  1  0.416400  0.020700  0.936800  1.0  -0.0854
  C  C31  1  0.499500  0.122000  0.994200  1.0  -0.0561
  C  C32  1  0.419200  0.899900  0.945400  1.0  -0.0528
  C  C33  1  0.467000  0.892100  0.657400  1.0  0.732
  C  C34  1  0.414700  0.884600  0.582000  1.0  -0.1299
  C  C35  1  0.456500  0.780000  0.531000  1.0  -0.0331
  C  C36  1  0.394200  0.764600  0.458800  1.0  -0.0695
  C  C37  1  0.289100  0.856700  0.438600  1.0  -0.092
  C  C38  1  0.254500  0.964400  0.489400  1.0  -0.049
  C  C39  1  0.317900  0.981900  0.560400  1.0  -0.0459
  C  C40  1  0.211800  0.839000  0.362600  1.0  0.6852
  C  C41  1  0.172500  0.173400  0.131000  1.0  0.6486
  C  C42  1  0.083600  0.083900  0.063200  1.0  -0.0852
  C  C43  1  0.000500  0.127800  0.005800  1.0  -0.058
  C  C44  1  0.080800  0.954500  0.054600  1.0  -0.0526
  C  C45  1  0.033000  0.234700  0.342600  1.0  0.7323
  C  C46  1  0.085300  0.302600  0.418000  1.0  -0.1243
  C  C47  1  0.043500  0.249000  0.469000  1.0  -0.0326
  C  C48  1  0.105800  0.305800  0.541200  1.0  -0.0701
  C  C49  1  0.210900  0.418100  0.561400  1.0  -0.0953
  C  C50  1  0.245500  0.475000  0.510600  1.0  -0.0511
  C  C51  1  0.182100  0.421500  0.439600  1.0  -0.0453
  C  C52  1  0.288200  0.476400  0.637400  1.0  0.6906
  C  C53  1  0.672500  0.957600  0.131000  1.0  0.65
  C  C54  1  0.583600  0.979300  0.063200  1.0  -0.0884
  C  C55  1  0.500500  0.878000  0.005800  1.0  -0.0522
  C  C56  1  0.580800  0.100100  0.054600  1.0  -0.0524
  C  C57  1  0.533000  0.107900  0.342600  1.0  0.732
  C  C58  1  0.585300  0.115400  0.418000  1.0  -0.1273
  C  C59  1  0.543500  0.220000  0.469000  1.0  -0.0312
  C  C60  1  0.605800  0.235400  0.541200  1.0  -0.07
  C  C61  1  0.710900  0.143300  0.561400  1.0  -0.0948
  C  C62  1  0.745500  0.035600  0.510600  1.0  -0.0493
  C  C63  1  0.682100  0.018100  0.439600  1.0  -0.0459
  C  C64  1  0.788200  0.161000  0.637400  1.0  0.6868
  C  C65  1  0.827500  0.826600  0.869000  1.0  0.6502
  C  C66  1  0.916400  0.916100  0.936800  1.0  -0.0881
  C  C67  1  0.999500  0.872200  0.994200  1.0  -0.0527
  C  C68  1  0.919200  0.045500  0.945400  1.0  -0.0513
  C  C69  1  0.967000  0.765300  0.657400  1.0  0.7318
  C  C70  1  0.914700  0.697400  0.582000  1.0  -0.1292
  C  C71  1  0.956500  0.751000  0.531000  1.0  -0.0334
  C  C72  1  0.894200  0.694200  0.458800  1.0  -0.0694
  C  C73  1  0.789100  0.581900  0.438600  1.0  -0.0938
  C  C74  1  0.754500  0.525000  0.489400  1.0  -0.0513
  C  C75  1  0.817900  0.578500  0.560400  1.0  -0.0426
  C  C76  1  0.711800  0.523600  0.362600  1.0  0.6894
  O  O77  1  0.214000  0.958900  0.825200  1.0  -0.5923
  O  O78  1  0.354600  0.143600  0.855400  1.0  -0.6091
  O  O79  1  0.422200  0.988700  0.704000  1.0  -0.668
  O  O80  1  0.557200  0.803300  0.672400  1.0  -0.6269
  O  O81  1  0.056100  0.893000  0.349600  1.0  -0.6806
  O  O82  1  0.298100  0.771400  0.316000  1.0  -0.4601
  O  O83  1  0.286000  0.133700  0.174800  1.0  -0.5921
  O  O84  1  0.145400  0.288200  0.144600  1.0  -0.6078
  O  O85  1  0.077800  0.284700  0.296000  1.0  -0.6657
  O  O86  1  0.942800  0.130900  0.327600  1.0  -0.6248
  O  O87  1  0.443900  0.543400  0.650400  1.0  -0.6938
  O  O88  1  0.201900  0.455400  0.684000  1.0  -0.4646
  O  O89  1  0.786000  0.041100  0.174800  1.0  -0.592
  O  O90  1  0.645400  0.856400  0.144600  1.0  -0.6068
  O  O91  1  0.577800  0.011300  0.296000  1.0  -0.6738
  O  O92  1  0.442800  0.196700  0.327600  1.0  -0.6247
  O  O93  1  0.943900  0.107000  0.650400  1.0  -0.6942
  O  O94  1  0.701900  0.228600  0.684000  1.0  -0.4627
  O  O95  1  0.714000  0.866300  0.825200  1.0  -0.5905
  O  O96  1  0.854600  0.711800  0.855400  1.0  -0.6037
  O  O97  1  0.922200  0.715300  0.704000  1.0  -0.6665
  O  O98  1  0.057200  0.869100  0.672400  1.0  -0.6258
  O  O99  1  0.556100  0.456600  0.349600  1.0  -0.6818
  O  O100  1  0.798100  0.544600  0.316000  1.0  -0.4605
