# generated using pymatgen
data_YbNiH32C42S2(NO)13
_symmetry_space_group_name_H-M   'P 1'
_cell_length_a   15.16900000
_cell_length_b   19.06700000
_cell_length_c   24.30300000
_cell_angle_alpha   90.00000000
_cell_angle_beta   92.65700000
_cell_angle_gamma   90.00000000
_symmetry_Int_Tables_number   1
_chemical_formula_structural   YbNiH32C42S2(NO)13
_chemical_formula_sum   'Yb4 Ni4 H128 C168 S8 N52 O52'
_cell_volume   7021.53498234
_cell_formula_units_Z   4
loop_
 _symmetry_equiv_pos_site_id
 _symmetry_equiv_pos_as_xyz
  1  'x, y, z'
loop_
 _atom_site_type_symbol
 _atom_site_label
 _atom_site_symmetry_multiplicity
 _atom_site_fract_x
 _atom_site_fract_y
 _atom_site_fract_z
 _atom_site_occupancy
 _atom_site_charge
  Yb  Yb1  1  0.785180  0.525180  0.064710  1.0  1.3513
  Yb  Yb2  1  0.285180  0.974820  0.564710  1.0  1.3508
  Yb  Yb3  1  0.714820  0.025180  0.435290  1.0  1.3476
  Yb  Yb4  1  0.214820  0.474820  0.935290  1.0  1.3472
  Ni  Ni5  1  0.767570  0.487390  0.563390  1.0  0.6201
  Ni  Ni6  1  0.267570  0.012610  0.063390  1.0  0.62
  Ni  Ni7  1  0.732430  0.987390  0.936610  1.0  0.6235
  Ni  Ni8  1  0.232430  0.512610  0.436610  1.0  0.6236
  H  H9  1  0.819600  0.394800  0.664700  1.0  0.0966
  H  H10  1  0.840800  0.400000  0.758100  1.0  0.1559
  H  H11  1  0.773100  0.604100  0.750200  1.0  0.1504
  H  H12  1  0.749100  0.591500  0.657300  1.0  0.0972
  H  H13  1  0.947400  0.473800  0.828800  1.0  0.1277
  H  H14  1  0.969700  0.486100  0.921200  1.0  0.1125
  H  H15  1  0.723600  0.562500  0.929000  1.0  0.1111
  H  H16  1  0.702300  0.547200  0.837300  1.0  0.1368
  H  H17  1  0.447800  0.959100  0.103400  1.0  0.0979
  H  H18  1  0.540100  0.865000  0.096400  1.0  0.1435
  H  H19  1  0.354300  0.769800  0.000300  1.0  0.14
  H  H20  1  0.264500  0.866700  0.011400  1.0  0.1004
  H  H21  1  0.549300  0.737300  0.118900  1.0  0.1212
  H  H22  1  0.634600  0.641900  0.110300  1.0  0.1151
  H  H23  1  0.566600  0.637600  0.948100  1.0  0.1231
  H  H24  1  0.475900  0.730400  0.959700  1.0  0.1331
  H  H25  1  0.881600  0.485600  0.465400  1.0  0.0949
  H  H26  1  0.874800  0.497900  0.371200  1.0  0.1429
  H  H27  1  0.610000  0.496900  0.375100  1.0  0.1425
  H  H28  1  0.624200  0.483200  0.469300  1.0  0.0997
  H  H29  1  0.631900  0.580900  0.300700  1.0  0.1311
  H  H30  1  0.613400  0.586900  0.208000  1.0  0.1241
  H  H31  1  0.805200  0.444400  0.194200  1.0  0.1121
  H  H32  1  0.813600  0.433100  0.286900  1.0  0.1194
  H  H33  1  0.249600  0.160800  0.016200  1.0  0.0978
  H  H34  1  0.163300  0.259600  0.021200  1.0  0.1419
  H  H35  1  0.024900  0.161800  0.135800  1.0  0.1487
  H  H36  1  0.108000  0.062600  0.121700  1.0  0.1005
  H  H37  1  0.027000  0.311000  0.008900  1.0  0.1318
  H  H38  1  0.945200  0.408400  0.018600  1.0  0.1233
  H  H39  1  0.967600  0.383800  0.183300  1.0  0.1078
  H  H40  1  0.049900  0.286300  0.170900  1.0  0.1284
  H  H41  1  0.319600  0.105200  0.164700  1.0  0.0965
  H  H42  1  0.340800  0.100000  0.258100  1.0  0.1559
  H  H43  1  0.273100  0.895900  0.250200  1.0  0.1511
  H  H44  1  0.249100  0.908500  0.157300  1.0  0.0964
  H  H45  1  0.447400  0.026200  0.328800  1.0  0.1278
  H  H46  1  0.469700  0.013900  0.421200  1.0  0.1115
  H  H47  1  0.223600  0.937500  0.429000  1.0  0.1111
  H  H48  1  0.202300  0.952800  0.337300  1.0  0.1368
  H  H49  1  0.947800  0.540900  0.603400  1.0  0.0981
  H  H50  1  0.040100  0.635000  0.596400  1.0  0.1433
  H  H51  1  0.854300  0.730200  0.500300  1.0  0.1403
  H  H52  1  0.764500  0.633300  0.511400  1.0  0.1003
  H  H53  1  0.049300  0.762700  0.618900  1.0  0.1211
  H  H54  1  0.134600  0.858100  0.610300  1.0  0.1149
  H  H55  1  0.066600  0.862400  0.448100  1.0  0.1232
  H  H56  1  0.975900  0.769600  0.459700  1.0  0.1333
  H  H57  1  0.381600  0.014400  0.965400  1.0  0.095
  H  H58  1  0.374800  0.002100  0.871200  1.0  0.1431
  H  H59  1  0.110000  0.003100  0.875100  1.0  0.1424
  H  H60  1  0.124200  0.016800  0.969300  1.0  0.0995
  H  H61  1  0.131900  0.919100  0.800700  1.0  0.1307
  H  H62  1  0.113400  0.913100  0.708000  1.0  0.1239
  H  H63  1  0.305200  0.055600  0.694200  1.0  0.1124
  H  H64  1  0.313600  0.066900  0.786900  1.0  0.1193
  H  H65  1  0.749600  0.339200  0.516200  1.0  0.0979
  H  H66  1  0.663300  0.240400  0.521200  1.0  0.1418
  H  H67  1  0.524900  0.338200  0.635800  1.0  0.1486
  H  H68  1  0.608000  0.437400  0.621700  1.0  0.1005
  H  H69  1  0.527000  0.189000  0.508900  1.0  0.1315
  H  H70  1  0.445200  0.091600  0.518600  1.0  0.1234
  H  H71  1  0.467600  0.116200  0.683300  1.0  0.1076
  H  H72  1  0.549900  0.213700  0.670900  1.0  0.1283
  H  H73  1  0.680400  0.894800  0.835300  1.0  0.0965
  H  H74  1  0.659200  0.900000  0.741900  1.0  0.1555
  H  H75  1  0.726900  0.104100  0.749800  1.0  0.1499
  H  H76  1  0.750900  0.091500  0.842700  1.0  0.0972
  H  H77  1  0.552600  0.973800  0.671200  1.0  0.1282
  H  H78  1  0.530300  0.986100  0.578800  1.0  0.1125
  H  H79  1  0.776400  0.062500  0.571000  1.0  0.1117
  H  H80  1  0.797700  0.047200  0.662700  1.0  0.1352
  H  H81  1  0.052200  0.459100  0.396600  1.0  0.0983
  H  H82  1  0.959900  0.365000  0.403600  1.0  0.1434
  H  H83  1  0.145700  0.269800  0.499700  1.0  0.1399
  H  H84  1  0.235500  0.366700  0.488600  1.0  0.1007
  H  H85  1  0.950700  0.237300  0.381100  1.0  0.121
  H  H86  1  0.865400  0.141900  0.389700  1.0  0.1152
  H  H87  1  0.933400  0.137600  0.551900  1.0  0.123
  H  H88  1  0.024100  0.230400  0.540300  1.0  0.1338
  H  H89  1  0.618400  0.985600  0.034600  1.0  0.0941
  H  H90  1  0.625200  0.997900  0.128800  1.0  0.1428
  H  H91  1  0.890000  0.996900  0.124900  1.0  0.1425
  H  H92  1  0.875800  0.983200  0.030700  1.0  0.0996
  H  H93  1  0.868100  0.080900  0.199300  1.0  0.131
  H  H94  1  0.886600  0.086900  0.292000  1.0  0.1241
  H  H95  1  0.694800  0.944400  0.305800  1.0  0.1126
  H  H96  1  0.686400  0.933100  0.213100  1.0  0.1191
  H  H97  1  0.250400  0.660800  0.483800  1.0  0.0976
  H  H98  1  0.336700  0.759600  0.478800  1.0  0.1418
  H  H99  1  0.475100  0.661800  0.364200  1.0  0.1485
  H  H100  1  0.392000  0.562600  0.378300  1.0  0.1003
  H  H101  1  0.473000  0.811000  0.491100  1.0  0.1324
  H  H102  1  0.554800  0.908400  0.481400  1.0  0.1223
  H  H103  1  0.532400  0.883800  0.316700  1.0  0.1081
  H  H104  1  0.450100  0.786300  0.329100  1.0  0.1279
  H  H105  1  0.180400  0.605200  0.335300  1.0  0.0966
  H  H106  1  0.159200  0.600000  0.241900  1.0  0.1569
  H  H107  1  0.226900  0.395900  0.249800  1.0  0.1509
  H  H108  1  0.250900  0.408500  0.342700  1.0  0.0966
  H  H109  1  0.052600  0.526200  0.171200  1.0  0.1281
  H  H110  1  0.030300  0.513900  0.078800  1.0  0.1117
  H  H111  1  0.276400  0.437500  0.071000  1.0  0.1116
  H  H112  1  0.297700  0.452800  0.162700  1.0  0.1356
  H  H113  1  0.552200  0.040900  0.896600  1.0  0.0982
  H  H114  1  0.459900  0.135000  0.903600  1.0  0.1436
  H  H115  1  0.645700  0.230200  0.999700  1.0  0.1398
  H  H116  1  0.735500  0.133300  0.988600  1.0  0.1008
  H  H117  1  0.450700  0.262700  0.881100  1.0  0.1211
  H  H118  1  0.365400  0.358100  0.889700  1.0  0.1151
  H  H119  1  0.433400  0.362400  0.051900  1.0  0.1228
  H  H120  1  0.524100  0.269600  0.040300  1.0  0.1336
  H  H121  1  0.118400  0.514400  0.534600  1.0  0.0943
  H  H122  1  0.125200  0.502100  0.628800  1.0  0.1431
  H  H123  1  0.390000  0.503100  0.624900  1.0  0.1423
  H  H124  1  0.375800  0.516800  0.530700  1.0  0.0994
  H  H125  1  0.368100  0.419100  0.699300  1.0  0.1306
  H  H126  1  0.386600  0.413100  0.792000  1.0  0.1242
  H  H127  1  0.194800  0.555600  0.805800  1.0  0.1125
  H  H128  1  0.186400  0.566900  0.713100  1.0  0.1195
  H  H129  1  0.750400  0.839200  0.983800  1.0  0.0979
  H  H130  1  0.836700  0.740400  0.978800  1.0  0.1421
  H  H131  1  0.975100  0.838200  0.864200  1.0  0.1484
  H  H132  1  0.892000  0.937400  0.878300  1.0  0.1005
  H  H133  1  0.973000  0.689000  0.991100  1.0  0.1324
  H  H134  1  0.054800  0.591600  0.981400  1.0  0.1219
  H  H135  1  0.032400  0.616200  0.816700  1.0  0.1082
  H  H136  1  0.950100  0.713700  0.829100  1.0  0.1281
  C  C137  1  0.809500  0.437700  0.682400  1.0  0.1946
  C  C138  1  0.822500  0.439900  0.738000  1.0  -0.2264
  C  C139  1  0.808100  0.503200  0.764100  1.0  0.1896
  C  C140  1  0.781900  0.560400  0.733400  1.0  -0.2245
  C  C141  1  0.769100  0.552500  0.678000  1.0  0.1833
  C  C142  1  0.901600  0.491600  0.849500  1.0  0.0188
  C  C143  1  0.915300  0.500000  0.904600  1.0  -0.1656
  C  C144  1  0.851100  0.528800  0.938100  1.0  0.3364
  C  C145  1  0.770300  0.544600  0.909100  1.0  -0.1122
  C  C146  1  0.757100  0.535200  0.854400  1.0  0.0273
  C  C147  1  0.428500  0.920100  0.082500  1.0  0.1767
  C  C148  1  0.484000  0.864500  0.078300  1.0  -0.202
  C  C149  1  0.457000  0.808000  0.047300  1.0  0.1898
  C  C150  1  0.374400  0.808200  0.021800  1.0  -0.2172
  C  C151  1  0.321400  0.866200  0.028400  1.0  0.173
  C  C152  1  0.554200  0.716800  0.084000  1.0  0.0348
  C  C153  1  0.604800  0.660600  0.078800  1.0  -0.1533
  C  C154  1  0.615000  0.628000  0.026800  1.0  0.339
  C  C155  1  0.563900  0.657700  0.983300  1.0  -0.1469
  C  C156  1  0.511200  0.713400  0.989700  1.0  0.0203
  C  C157  1  0.826200  0.489100  0.446700  1.0  0.1876
  C  C158  1  0.822900  0.496900  0.390900  1.0  -0.2316
  C  C159  1  0.740700  0.503200  0.364200  1.0  0.1819
  C  C160  1  0.666200  0.496100  0.393200  1.0  -0.2161
  C  C161  1  0.675200  0.487800  0.449000  1.0  0.1733
  C  C162  1  0.666900  0.552500  0.278800  1.0  0.0684
  C  C163  1  0.656600  0.556500  0.223400  1.0  -0.1363
  C  C164  1  0.707900  0.517100  0.187500  1.0  0.3149
  C  C165  1  0.768000  0.472000  0.215200  1.0  -0.1397
  C  C166  1  0.774900  0.466500  0.270800  1.0  0.0447
  C  C167  1  0.202400  0.160700  0.040000  1.0  0.1874
  C  C168  1  0.152500  0.220200  0.043200  1.0  -0.2312
  C  C169  1  0.085700  0.220500  0.079900  1.0  0.2011
  C  C170  1  0.069500  0.162100  0.110300  1.0  -0.2365
  C  C171  1  0.120700  0.103800  0.102400  1.0  0.1743
  C  C172  1  0.014700  0.326600  0.044400  1.0  0.0477
  C  C173  1  0.965300  0.383800  0.050300  1.0  -0.1551
  C  C174  1  0.942000  0.408700  0.102600  1.0  0.4
  C  C175  1  0.978500  0.369400  0.147200  1.0  -0.1717
  C  C176  1  0.028500  0.311700  0.139900  1.0  0.0455
  C  C177  1  0.599400  0.585500  0.558400  1.0  0.2568
  C  C178  1  0.939500  0.395200  0.579200  1.0  0.2779
  C  C179  1  0.309500  0.062300  0.182400  1.0  0.1947
  C  C180  1  0.322500  0.060100  0.238000  1.0  -0.2253
  C  C181  1  0.308100  0.996800  0.264100  1.0  0.1897
  C  C182  1  0.281900  0.939600  0.233400  1.0  -0.2241
  C  C183  1  0.269100  0.947500  0.178000  1.0  0.1827
  C  C184  1  0.401600  0.008400  0.349500  1.0  0.0189
  C  C185  1  0.415300  0.000000  0.404600  1.0  -0.1666
  C  C186  1  0.351100  0.971200  0.438100  1.0  0.3365
  C  C187  1  0.270300  0.955400  0.409100  1.0  -0.1121
  C  C188  1  0.257100  0.964800  0.354400  1.0  0.0273
  C  C189  1  0.928500  0.579900  0.582500  1.0  0.176
  C  C190  1  0.984000  0.635500  0.578300  1.0  -0.2021
  C  C191  1  0.957000  0.692000  0.547300  1.0  0.1898
  C  C192  1  0.874400  0.691800  0.521800  1.0  -0.2175
  C  C193  1  0.821400  0.633800  0.528400  1.0  0.1727
  C  C194  1  0.054200  0.783200  0.584000  1.0  0.0343
  C  C195  1  0.104800  0.839400  0.578800  1.0  -0.1542
  C  C196  1  0.115000  0.872000  0.526800  1.0  0.3379
  C  C197  1  0.063900  0.842300  0.483300  1.0  -0.148
  C  C198  1  0.011200  0.786600  0.489700  1.0  0.0197
  C  C199  1  0.326200  0.010900  0.946700  1.0  0.1875
  C  C200  1  0.322900  0.003100  0.890900  1.0  -0.2314
  C  C201  1  0.240700  0.996800  0.864200  1.0  0.1824
  C  C202  1  0.166200  0.003900  0.893200  1.0  -0.2157
  C  C203  1  0.175200  0.012200  0.949000  1.0  0.1733
  C  C204  1  0.166900  0.947500  0.778800  1.0  0.0691
  C  C205  1  0.156600  0.943500  0.723400  1.0  -0.1346
  C  C206  1  0.207900  0.982900  0.687500  1.0  0.3146
  C  C207  1  0.268000  0.028000  0.715200  1.0  -0.139
  C  C208  1  0.274900  0.033500  0.770800  1.0  0.0436
  C  C209  1  0.702400  0.339300  0.540000  1.0  0.1871
  C  C210  1  0.652500  0.279800  0.543200  1.0  -0.2307
  C  C211  1  0.585700  0.279500  0.579900  1.0  0.201
  C  C212  1  0.569500  0.337900  0.610300  1.0  -0.237
  C  C213  1  0.620700  0.396200  0.602400  1.0  0.174
  C  C214  1  0.514700  0.173400  0.544400  1.0  0.0476
  C  C215  1  0.465300  0.116200  0.550300  1.0  -0.1553
  C  C216  1  0.442000  0.091300  0.602600  1.0  0.3994
  C  C217  1  0.478500  0.130600  0.647200  1.0  -0.1715
  C  C218  1  0.528500  0.188300  0.639900  1.0  0.0442
  C  C219  1  0.099400  0.914500  0.058400  1.0  0.2573
  C  C220  1  0.439500  0.104800  0.079200  1.0  0.2759
  C  C221  1  0.690500  0.937700  0.817600  1.0  0.196
  C  C222  1  0.677500  0.939900  0.762000  1.0  -0.2268
  C  C223  1  0.691900  0.003200  0.735900  1.0  0.1915
  C  C224  1  0.718100  0.060400  0.766600  1.0  -0.2255
  C  C225  1  0.730900  0.052500  0.822000  1.0  0.1824
  C  C226  1  0.598400  0.991600  0.650500  1.0  0.0199
  C  C227  1  0.584700  0.000000  0.595400  1.0  -0.1651
  C  C228  1  0.648900  0.028800  0.561900  1.0  0.3379
  C  C229  1  0.729700  0.044600  0.590900  1.0  -0.1127
  C  C230  1  0.742900  0.035200  0.645600  1.0  0.0255
  C  C231  1  0.071500  0.420100  0.417500  1.0  0.1766
  C  C232  1  0.016000  0.364500  0.421700  1.0  -0.2017
  C  C233  1  0.043000  0.308000  0.452700  1.0  0.191
  C  C234  1  0.125600  0.308200  0.478200  1.0  -0.2186
  C  C235  1  0.178600  0.366200  0.471600  1.0  0.1722
  C  C236  1  0.945800  0.216800  0.416000  1.0  0.0351
  C  C237  1  0.895200  0.160600  0.421200  1.0  -0.1533
  C  C238  1  0.885000  0.128000  0.473200  1.0  0.3381
  C  C239  1  0.936100  0.157700  0.516700  1.0  -0.1474
  C  C240  1  0.988800  0.213400  0.510300  1.0  0.0197
  C  C241  1  0.673800  0.989100  0.053300  1.0  0.1865
  C  C242  1  0.677100  0.996900  0.109100  1.0  -0.2331
  C  C243  1  0.759300  0.003200  0.135800  1.0  0.1823
  C  C244  1  0.833800  0.996100  0.106800  1.0  -0.2165
  C  C245  1  0.824800  0.987800  0.051000  1.0  0.1733
  C  C246  1  0.833100  0.052500  0.221200  1.0  0.069
  C  C247  1  0.843400  0.056500  0.276600  1.0  -0.1369
  C  C248  1  0.792100  0.017100  0.312500  1.0  0.3125
  C  C249  1  0.732000  0.972000  0.284800  1.0  -0.1382
  C  C250  1  0.725100  0.966500  0.229200  1.0  0.0443
  C  C251  1  0.297600  0.660700  0.460000  1.0  0.187
  C  C252  1  0.347500  0.720200  0.456800  1.0  -0.2324
  C  C253  1  0.414300  0.720500  0.420100  1.0  0.2021
  C  C254  1  0.430500  0.662100  0.389700  1.0  -0.236
  C  C255  1  0.379300  0.603800  0.397600  1.0  0.1743
  C  C256  1  0.485300  0.826600  0.455600  1.0  0.0484
  C  C257  1  0.534700  0.883800  0.449700  1.0  -0.1527
  C  C258  1  0.558000  0.908700  0.397400  1.0  0.3982
  C  C259  1  0.521500  0.869400  0.352800  1.0  -0.1727
  C  C260  1  0.471500  0.811700  0.360100  1.0  0.0442
  C  C261  1  0.900600  0.085500  0.941600  1.0  0.2561
  C  C262  1  0.560500  0.895200  0.920800  1.0  0.2779
  C  C263  1  0.190500  0.562300  0.317600  1.0  0.195
  C  C264  1  0.177500  0.560100  0.262000  1.0  -0.2259
  C  C265  1  0.191900  0.496800  0.235900  1.0  0.1916
  C  C266  1  0.218100  0.439600  0.266600  1.0  -0.2248
  C  C267  1  0.230900  0.447500  0.322000  1.0  0.1825
  C  C268  1  0.098400  0.508400  0.150500  1.0  0.0187
  C  C269  1  0.084700  0.500000  0.095400  1.0  -0.1654
  C  C270  1  0.148900  0.471200  0.061900  1.0  0.3379
  C  C271  1  0.229700  0.455400  0.090900  1.0  -0.1129
  C  C272  1  0.242900  0.464800  0.145600  1.0  0.0251
  C  C273  1  0.571500  0.079900  0.917500  1.0  0.1763
  C  C274  1  0.516000  0.135500  0.921700  1.0  -0.2017
  C  C275  1  0.543000  0.192000  0.952700  1.0  0.1911
  C  C276  1  0.625600  0.191800  0.978200  1.0  -0.2195
  C  C277  1  0.678600  0.133800  0.971600  1.0  0.1724
  C  C278  1  0.445800  0.283200  0.916000  1.0  0.0344
  C  C279  1  0.395200  0.339400  0.921200  1.0  -0.154
  C  C280  1  0.385000  0.372000  0.973200  1.0  0.337
  C  C281  1  0.436100  0.342300  0.016700  1.0  -0.1474
  C  C282  1  0.488800  0.286600  0.010300  1.0  0.0197
  C  C283  1  0.173800  0.510900  0.553300  1.0  0.1865
  C  C284  1  0.177100  0.503100  0.609100  1.0  -0.2328
  C  C285  1  0.259300  0.496800  0.635800  1.0  0.1827
  C  C286  1  0.333800  0.503900  0.606800  1.0  -0.2164
  C  C287  1  0.324800  0.512200  0.551000  1.0  0.1735
  C  C288  1  0.333100  0.447500  0.721200  1.0  0.0686
  C  C289  1  0.343400  0.443500  0.776600  1.0  -0.1345
  C  C290  1  0.292100  0.482900  0.812500  1.0  0.3124
  C  C291  1  0.232000  0.528000  0.784800  1.0  -0.1386
  C  C292  1  0.225100  0.533500  0.729200  1.0  0.0432
  C  C293  1  0.797600  0.839300  0.960000  1.0  0.1869
  C  C294  1  0.847500  0.779800  0.956800  1.0  -0.2321
  C  C295  1  0.914300  0.779500  0.920100  1.0  0.202
  C  C296  1  0.930500  0.837900  0.889700  1.0  -0.2365
  C  C297  1  0.879300  0.896200  0.897600  1.0  0.1749
  C  C298  1  0.985300  0.673400  0.955600  1.0  0.0487
  C  C299  1  0.034700  0.616200  0.949700  1.0  -0.1529
  C  C300  1  0.058000  0.591300  0.897400  1.0  0.3979
  C  C301  1  0.021500  0.630600  0.852800  1.0  -0.1725
  C  C302  1  0.971500  0.688300  0.860100  1.0  0.0427
  C  C303  1  0.400600  0.414500  0.441600  1.0  0.2579
  C  C304  1  0.060500  0.604800  0.420800  1.0  0.2764
  S  S305  1  0.513100  0.637900  0.550100  1.0  -0.3055
  S  S306  1  0.025800  0.356100  0.608000  1.0  -0.3228
  S  S307  1  0.013100  0.862100  0.050100  1.0  -0.3071
  S  S308  1  0.525800  0.143900  0.108000  1.0  -0.3218
  S  S309  1  0.986900  0.137900  0.949900  1.0  -0.3043
  S  S310  1  0.474200  0.856100  0.892000  1.0  -0.3191
  S  S311  1  0.486900  0.362100  0.449900  1.0  -0.3047
  S  S312  1  0.974200  0.643900  0.392000  1.0  -0.3197
  N  N313  1  0.783200  0.492400  0.651000  1.0  -0.2952
  N  N314  1  0.822300  0.508500  0.823300  1.0  -0.103
  N  N315  1  0.348200  0.921600  0.058200  1.0  -0.2796
  N  N316  1  0.509300  0.745400  0.039900  1.0  0.0609
  N  N317  1  0.753900  0.486100  0.475800  1.0  -0.2776
  N  N318  1  0.727300  0.507800  0.303900  1.0  -0.058
  N  N319  1  0.188000  0.103000  0.068500  1.0  -0.2839
  N  N320  1  0.048100  0.290100  0.089700  1.0  0.0648
  N  N321  1  0.659600  0.549900  0.565500  1.0  -0.3909
  N  N322  1  0.878600  0.423500  0.561700  1.0  -0.4249
  N  N323  1  0.687900  0.402700  0.045300  1.0  0.8626
  N  N324  1  0.887500  0.649500  0.082600  1.0  0.8911
  N  N325  1  0.283200  0.007600  0.151000  1.0  -0.2949
  N  N326  1  0.322300  0.991500  0.323300  1.0  -0.103
  N  N327  1  0.848200  0.578400  0.558200  1.0  -0.2799
  N  N328  1  0.009300  0.754600  0.539900  1.0  0.0604
  N  N329  1  0.253900  0.013900  0.975800  1.0  -0.2774
  N  N330  1  0.227300  0.992200  0.803900  1.0  -0.0579
  N  N331  1  0.688000  0.397000  0.568500  1.0  -0.2833
  N  N332  1  0.548100  0.209900  0.589700  1.0  0.0655
  N  N333  1  0.159600  0.950100  0.065500  1.0  -0.391
  N  N334  1  0.378600  0.076500  0.061700  1.0  -0.4268
  N  N335  1  0.187900  0.097300  0.545300  1.0  0.8626
  N  N336  1  0.387500  0.850500  0.582600  1.0  0.8903
  N  N337  1  0.716800  0.992400  0.849000  1.0  -0.2946
  N  N338  1  0.677700  0.008500  0.676700  1.0  -0.1026
  N  N339  1  0.151800  0.421600  0.441800  1.0  -0.2787
  N  N340  1  0.990700  0.245400  0.460100  1.0  0.0614
  N  N341  1  0.746100  0.986100  0.024200  1.0  -0.2772
  N  N342  1  0.772700  0.007800  0.196100  1.0  -0.0582
  N  N343  1  0.312000  0.603000  0.431500  1.0  -0.2847
  N  N344  1  0.451900  0.790100  0.410300  1.0  0.0647
  N  N345  1  0.840400  0.049900  0.934500  1.0  -0.3893
  N  N346  1  0.621400  0.923500  0.938300  1.0  -0.4251
  N  N347  1  0.812100  0.902700  0.454700  1.0  0.8621
  N  N348  1  0.612500  0.149500  0.417400  1.0  0.8919
  N  N349  1  0.216800  0.507600  0.349000  1.0  -0.2944
  N  N350  1  0.177700  0.491500  0.176700  1.0  -0.103
  N  N351  1  0.651800  0.078400  0.941800  1.0  -0.2783
  N  N352  1  0.490700  0.254600  0.960100  1.0  0.0608
  N  N353  1  0.246100  0.513900  0.524200  1.0  -0.2772
  N  N354  1  0.272700  0.492200  0.696100  1.0  -0.058
  N  N355  1  0.812000  0.897000  0.931500  1.0  -0.2838
  N  N356  1  0.951900  0.709900  0.910300  1.0  0.0656
  N  N357  1  0.340400  0.450100  0.434500  1.0  -0.3891
  N  N358  1  0.121400  0.576500  0.438300  1.0  -0.4262
  N  N359  1  0.312100  0.597300  0.954700  1.0  0.8622
  N  N360  1  0.112500  0.350500  0.917400  1.0  0.8901
  N  N361  1  0.499800  0.173700  0.781400  1.0  0.8463
  N  N362  1  0.000200  0.673700  0.718600  1.0  0.8445
  N  N363  1  0.500200  0.826300  0.218600  1.0  0.8447
  N  N364  1  0.999800  0.326300  0.281400  1.0  0.8466
  O  O365  1  0.863300  0.536300  0.990100  1.0  -0.6159
  O  O366  1  0.663400  0.574100  0.022200  1.0  -0.6491
  O  O367  1  0.698500  0.521600  0.134400  1.0  -0.5984
  O  O368  1  0.893900  0.461900  0.108200  1.0  -0.6224
  O  O369  1  0.675700  0.437900  0.087400  1.0  -0.6912
  O  O370  1  0.734500  0.428100  0.008600  1.0  -0.6174
  O  O371  1  0.648200  0.346700  0.037400  1.0  -0.4613
  O  O372  1  0.910100  0.591100  0.103100  1.0  -0.677
  O  O373  1  0.812600  0.651900  0.058000  1.0  -0.6216
  O  O374  1  0.933100  0.701900  0.088200  1.0  -0.3977
  O  O375  1  0.363300  0.963700  0.490100  1.0  -0.6159
  O  O376  1  0.163400  0.925900  0.522200  1.0  -0.6497
  O  O377  1  0.198500  0.978400  0.634400  1.0  -0.5988
  O  O378  1  0.393900  0.038100  0.608200  1.0  -0.6215
  O  O379  1  0.175700  0.062100  0.587400  1.0  -0.6898
  O  O380  1  0.234500  0.071900  0.508600  1.0  -0.617
  O  O381  1  0.148200  0.153300  0.537400  1.0  -0.4614
  O  O382  1  0.410100  0.908900  0.603100  1.0  -0.6772
  O  O383  1  0.312600  0.848100  0.558000  1.0  -0.6212
  O  O384  1  0.433100  0.798100  0.588200  1.0  -0.3997
  O  O385  1  0.636700  0.036300  0.509900  1.0  -0.6145
  O  O386  1  0.836600  0.074100  0.477800  1.0  -0.6483
  O  O387  1  0.801500  0.021600  0.365600  1.0  -0.599
  O  O388  1  0.606100  0.961900  0.391800  1.0  -0.6205
  O  O389  1  0.824300  0.937900  0.412600  1.0  -0.691
  O  O390  1  0.765500  0.928100  0.491400  1.0  -0.6178
  O  O391  1  0.851800  0.846700  0.462600  1.0  -0.4606
  O  O392  1  0.589900  0.091100  0.396900  1.0  -0.6795
  O  O393  1  0.687400  0.151900  0.442000  1.0  -0.6216
  O  O394  1  0.566900  0.201900  0.411800  1.0  -0.3979
  O  O395  1  0.136700  0.463700  0.009900  1.0  -0.614
  O  O396  1  0.336600  0.425900  0.977800  1.0  -0.6489
  O  O397  1  0.301500  0.478400  0.865600  1.0  -0.5993
  O  O398  1  0.106100  0.538100  0.891800  1.0  -0.6203
  O  O399  1  0.324300  0.562100  0.912600  1.0  -0.6896
  O  O400  1  0.265500  0.571900  0.991400  1.0  -0.6174
  O  O401  1  0.351800  0.653300  0.962600  1.0  -0.4611
  O  O402  1  0.089900  0.408900  0.896900  1.0  -0.6778
  O  O403  1  0.187400  0.348100  0.942000  1.0  -0.6209
  O  O404  1  0.066900  0.298100  0.911800  1.0  -0.3961
  O  O405  1  0.485600  0.109300  0.783100  1.0  -0.4693
  O  O406  1  0.434600  0.215300  0.778900  1.0  -0.4815
  O  O407  1  0.575900  0.197400  0.781500  1.0  -0.4352
  O  O408  1  0.014400  0.609300  0.716900  1.0  -0.469
  O  O409  1  0.065400  0.715300  0.721100  1.0  -0.4831
  O  O410  1  0.924100  0.697400  0.718500  1.0  -0.4372
  O  O411  1  0.514400  0.890700  0.216900  1.0  -0.4702
  O  O412  1  0.565400  0.784700  0.221100  1.0  -0.4824
  O  O413  1  0.424100  0.802600  0.218500  1.0  -0.4373
  O  O414  1  0.985600  0.390700  0.283100  1.0  -0.4699
  O  O415  1  0.934600  0.284700  0.278900  1.0  -0.4833
  O  O416  1  0.075900  0.302600  0.281500  1.0  -0.4347
