# generated using pymatgen
data_Cu3P4H44C34(NO2)6
_symmetry_space_group_name_H-M   'P 1'
_cell_length_a   9.57000000
_cell_length_b   23.28800000
_cell_length_c   24.20700000
_cell_angle_alpha   105.70500000
_cell_angle_beta   90.00000000
_cell_angle_gamma   90.00000000
_symmetry_Int_Tables_number   1
_chemical_formula_structural   Cu3P4H44C34(NO2)6
_chemical_formula_sum   'Cu12 P16 H176 C136 N24 O48'
_cell_volume   5193.51863210
_cell_formula_units_Z   4
loop_
 _symmetry_equiv_pos_site_id
 _symmetry_equiv_pos_as_xyz
  1  'x, y, z'
loop_
 _atom_site_type_symbol
 _atom_site_label
 _atom_site_symmetry_multiplicity
 _atom_site_fract_x
 _atom_site_fract_y
 _atom_site_fract_z
 _atom_site_occupancy
 _atom_site_charge
  Cu  Cu1  1  0.957250  0.737740  0.517210  1.0  0.9912
  Cu  Cu2  1  0.563520  0.738090  0.424580  1.0  0.8898
  Cu  Cu3  1  0.353620  0.726040  0.620300  1.0  0.8118
  Cu  Cu4  1  0.457250  0.262260  0.982790  1.0  1.0037
  Cu  Cu5  1  0.063520  0.261910  0.075420  1.0  0.8896
  Cu  Cu6  1  0.853620  0.273960  0.879700  1.0  0.8147
  Cu  Cu7  1  0.042750  0.262260  0.482790  1.0  0.9913
  Cu  Cu8  1  0.436480  0.261910  0.575420  1.0  0.8898
  Cu  Cu9  1  0.646380  0.273960  0.379700  1.0  0.8149
  Cu  Cu10  1  0.542750  0.737740  0.017210  1.0  1.0034
  Cu  Cu11  1  0.936480  0.738090  0.924580  1.0  0.89
  Cu  Cu12  1  0.146380  0.726040  0.120300  1.0  0.8118
  P  P13  1  0.819300  0.810770  0.435980  1.0  1.4081
  P  P14  1  0.294100  0.783640  0.485210  1.0  1.3391
  P  P15  1  0.081500  0.661620  0.596550  1.0  1.3975
  P  P16  1  0.603000  0.689560  0.544980  1.0  1.3794
  P  P17  1  0.319300  0.189230  0.064020  1.0  1.4074
  P  P18  1  0.794100  0.216360  0.014790  1.0  1.3398
  P  P19  1  0.581500  0.338380  0.903450  1.0  1.3984
  P  P20  1  0.103000  0.310440  0.955020  1.0  1.3789
  P  P21  1  0.180700  0.189230  0.564020  1.0  1.4074
  P  P22  1  0.705900  0.216360  0.514790  1.0  1.3424
  P  P23  1  0.918500  0.338380  0.403450  1.0  1.3981
  P  P24  1  0.397000  0.310440  0.455020  1.0  1.3805
  P  P25  1  0.680700  0.810770  0.935980  1.0  1.4091
  P  P26  1  0.205900  0.783640  0.985210  1.0  1.3411
  P  P27  1  0.418500  0.661620  0.096550  1.0  1.398
  P  P28  1  0.897000  0.689560  0.044980  1.0  1.3807
  H  H29  1  0.707700  0.826600  0.526300  1.0  0.1499
  H  H30  1  0.701900  0.886600  0.505800  1.0  0.1456
  H  H31  1  0.411700  0.872000  0.531900  1.0  0.1504
  H  H32  1  0.483400  0.816200  0.547700  1.0  0.1644
  H  H33  1  0.585400  0.865100  0.402200  1.0  0.1014
  H  H34  1  0.432100  0.837800  0.400800  1.0  0.1108
  H  H35  1  0.419400  0.940000  0.420500  1.0  0.0875
  H  H36  1  0.358500  0.918600  0.472700  1.0  0.0809
  H  H37  1  0.626000  0.970700  0.476500  1.0  0.0796
  H  H38  1  0.543800  0.957700  0.529400  1.0  0.0619
  H  H39  1  0.189700  0.589700  0.520900  1.0  0.1478
  H  H40  1  0.196900  0.653900  0.508700  1.0  0.1505
  H  H41  1  0.405900  0.662000  0.487600  1.0  0.1445
  H  H42  1  0.484800  0.603900  0.494900  1.0  0.1432
  H  H43  1  0.341500  0.603400  0.629100  1.0  0.0941
  H  H44  1  0.492400  0.597300  0.600100  1.0  0.0955
  H  H45  1  0.388900  0.504200  0.584700  1.0  0.079
  H  H46  1  0.256100  0.525500  0.556100  1.0  0.0798
  H  H47  1  0.388200  0.524600  0.474000  1.0  0.0673
  H  H48  1  0.382600  0.460300  0.485800  1.0  0.0862
  H  H49  1  0.895500  0.606400  0.479600  1.0  0.0874
  H  H50  1  0.922600  0.524600  0.404200  1.0  0.1304
  H  H51  1  0.104000  0.631000  0.317400  1.0  0.1354
  H  H52  1  0.073400  0.710100  0.397100  1.0  0.103
  H  H53  1  0.255500  0.343500  0.156000  1.0  0.1047
  H  H54  1  0.254200  0.440400  0.216500  1.0  0.1083
  H  H55  1  0.864800  0.463800  0.166600  1.0  0.1356
  H  H56  1  0.873700  0.369600  0.107400  1.0  0.0788
  H  H57  1  0.950000  0.487500  0.298100  1.0  0.1218
  H  H58  1  0.114200  0.489200  0.309300  1.0  0.1266
  H  H59  1  0.984000  0.547100  0.231400  1.0  0.0996
  H  H60  1  0.149800  0.543700  0.240700  1.0  0.1004
  H  H61  1  0.833300  0.768200  0.637900  1.0  0.0991
  H  H62  1  0.792400  0.849800  0.714000  1.0  0.1397
  H  H63  1  0.944200  0.953800  0.618000  1.0  0.1293
  H  H64  1  0.011500  0.869200  0.548600  1.0  0.112
  H  H65  1  0.688000  0.158200  0.861800  1.0  0.0926
  H  H66  1  0.727800  0.058200  0.814500  1.0  0.1043
  H  H67  1  0.068700  0.104500  0.743700  1.0  0.1244
  H  H68  1  0.040200  0.199900  0.797400  1.0  0.0989
  H  H69  1  0.989000  0.986400  0.765800  1.0  0.1116
  H  H70  1  0.999300  0.006400  0.707600  1.0  0.0935
  H  H71  1  0.756900  0.958800  0.749300  1.0  0.0945
  H  H72  1  0.742700  0.992500  0.699900  1.0  0.1017
  H  H73  1  0.207700  0.173400  0.973700  1.0  0.1523
  H  H74  1  0.201900  0.113400  0.994200  1.0  0.1473
  H  H75  1  0.911700  0.128000  0.968100  1.0  0.15
  H  H76  1  0.983400  0.183800  0.952300  1.0  0.1645
  H  H77  1  0.085400  0.134900  0.097800  1.0  0.1013
  H  H78  1  0.932100  0.162200  0.099200  1.0  0.1111
  H  H79  1  0.919400  0.060000  0.079500  1.0  0.0868
  H  H80  1  0.858500  0.081400  0.027300  1.0  0.0809
  H  H81  1  0.126000  0.029300  0.023500  1.0  0.0789
  H  H82  1  0.043800  0.042300  0.970600  1.0  0.0625
  H  H83  1  0.689700  0.410300  0.979100  1.0  0.1479
  H  H84  1  0.696900  0.346100  0.991300  1.0  0.1514
  H  H85  1  0.905900  0.338000  0.012400  1.0  0.1446
  H  H86  1  0.984800  0.396100  0.005100  1.0  0.1433
  H  H87  1  0.841500  0.396600  0.870900  1.0  0.0935
  H  H88  1  0.992400  0.402700  0.899900  1.0  0.0965
  H  H89  1  0.888900  0.495800  0.915300  1.0  0.0799
  H  H90  1  0.756100  0.474500  0.943900  1.0  0.0804
  H  H91  1  0.888200  0.475400  0.026000  1.0  0.0667
  H  H92  1  0.882600  0.539700  0.014200  1.0  0.087
  H  H93  1  0.395500  0.393600  0.020400  1.0  0.0876
  H  H94  1  0.422600  0.475400  0.095800  1.0  0.1301
  H  H95  1  0.604000  0.369000  0.182600  1.0  0.1345
  H  H96  1  0.573400  0.289900  0.102900  1.0  0.1025
  H  H97  1  0.755500  0.656500  0.344000  1.0  0.1048
  H  H98  1  0.754200  0.559600  0.283500  1.0  0.1074
  H  H99  1  0.364800  0.536200  0.333400  1.0  0.135
  H  H100  1  0.373700  0.630400  0.392600  1.0  0.0788
  H  H101  1  0.450000  0.512500  0.201900  1.0  0.1217
  H  H102  1  0.614200  0.510800  0.190700  1.0  0.1254
  H  H103  1  0.484000  0.452900  0.268600  1.0  0.1003
  H  H104  1  0.649800  0.456300  0.259300  1.0  0.1013
  H  H105  1  0.333333  0.231800  0.862100  1.0  0.0974
  H  H106  1  0.292400  0.150200  0.786000  1.0  0.1405
  H  H107  1  0.444200  0.046200  0.882000  1.0  0.1297
  H  H108  1  0.511500  0.130800  0.951400  1.0  0.1126
  H  H109  1  0.188000  0.841800  0.638200  1.0  0.0927
  H  H110  1  0.227800  0.941800  0.685500  1.0  0.1036
  H  H111  1  0.568700  0.895500  0.756300  1.0  0.1246
  H  H112  1  0.540200  0.800100  0.702600  1.0  0.0993
  H  H113  1  0.489000  0.013600  0.734200  1.0  0.1122
  H  H114  1  0.499300  0.993600  0.792400  1.0  0.093
  H  H115  1  0.256900  0.041200  0.750700  1.0  0.0951
  H  H116  1  0.242700  0.007500  0.800100  1.0  0.1019
  H  H117  1  0.292300  0.173400  0.473700  1.0  0.1527
  H  H118  1  0.298100  0.113400  0.494200  1.0  0.1476
  H  H119  1  0.588300  0.128000  0.468100  1.0  0.1499
  H  H120  1  0.516600  0.183800  0.452300  1.0  0.1638
  H  H121  1  0.414600  0.134900  0.597800  1.0  0.1015
  H  H122  1  0.567900  0.162200  0.599200  1.0  0.1103
  H  H123  1  0.580600  0.060000  0.579500  1.0  0.0863
  H  H124  1  0.641500  0.081400  0.527300  1.0  0.0803
  H  H125  1  0.374000  0.029300  0.523500  1.0  0.0791
  H  H126  1  0.456200  0.042300  0.470600  1.0  0.0616
  H  H127  1  0.810300  0.410300  0.479100  1.0  0.148
  H  H128  1  0.803100  0.346100  0.491300  1.0  0.1516
  H  H129  1  0.594100  0.338000  0.512400  1.0  0.1452
  H  H130  1  0.515200  0.396100  0.505100  1.0  0.1438
  H  H131  1  0.658500  0.396600  0.370900  1.0  0.0934
  H  H132  1  0.507600  0.402700  0.399900  1.0  0.0959
  H  H133  1  0.611100  0.495800  0.415300  1.0  0.0802
  H  H134  1  0.743900  0.474500  0.443900  1.0  0.0811
  H  H135  1  0.611800  0.475400  0.526000  1.0  0.0671
  H  H136  1  0.617400  0.539700  0.514200  1.0  0.0862
  H  H137  1  0.104500  0.393600  0.520400  1.0  0.0877
  H  H138  1  0.077400  0.475400  0.595800  1.0  0.1305
  H  H139  1  0.896000  0.369000  0.682600  1.0  0.1341
  H  H140  1  0.926600  0.289900  0.602900  1.0  0.1024
  H  H141  1  0.744500  0.656500  0.844000  1.0  0.1047
  H  H142  1  0.745800  0.559600  0.783500  1.0  0.1082
  H  H143  1  0.135200  0.536200  0.833400  1.0  0.135
  H  H144  1  0.126300  0.630400  0.892600  1.0  0.0785
  H  H145  1  0.050000  0.512500  0.701900  1.0  0.1216
  H  H146  1  0.885800  0.510800  0.690700  1.0  0.1257
  H  H147  1  0.016000  0.452900  0.768600  1.0  0.1002
  H  H148  1  0.850200  0.456300  0.759300  1.0  0.1008
  H  H149  1  0.166700  0.231800  0.362100  1.0  0.0968
  H  H150  1  0.207600  0.150200  0.286000  1.0  0.1403
  H  H151  1  0.055800  0.046200  0.382000  1.0  0.1296
  H  H152  1  0.988500  0.130800  0.451400  1.0  0.1122
  H  H153  1  0.312000  0.841800  0.138200  1.0  0.0929
  H  H154  1  0.272200  0.941800  0.185500  1.0  0.1038
  H  H155  1  0.931300  0.895500  0.256300  1.0  0.1239
  H  H156  1  0.959800  0.800100  0.202600  1.0  0.0985
  H  H157  1  0.011000  0.013600  0.234200  1.0  0.1116
  H  H158  1  0.000700  0.993600  0.292400  1.0  0.0931
  H  H159  1  0.243100  0.041200  0.250700  1.0  0.0952
  H  H160  1  0.257300  0.007500  0.300100  1.0  0.1014
  H  H161  1  0.792300  0.826600  0.026300  1.0  0.1504
  H  H162  1  0.798100  0.886600  0.005800  1.0  0.1461
  H  H163  1  0.088300  0.872000  0.031900  1.0  0.1497
  H  H164  1  0.016600  0.816200  0.047700  1.0  0.1639
  H  H165  1  0.914600  0.865100  0.902200  1.0  0.1009
  H  H166  1  0.067900  0.837800  0.900800  1.0  0.1103
  H  H167  1  0.080600  0.940000  0.920500  1.0  0.0879
  H  H168  1  0.141500  0.918600  0.972700  1.0  0.0804
  H  H169  1  0.874000  0.970700  0.976500  1.0  0.0796
  H  H170  1  0.956200  0.957700  0.029400  1.0  0.0609
  H  H171  1  0.310300  0.589700  0.020900  1.0  0.1479
  H  H172  1  0.303100  0.653900  0.008700  1.0  0.1507
  H  H173  1  0.094100  0.662000  0.987600  1.0  0.1448
  H  H174  1  0.015200  0.603900  0.994900  1.0  0.1434
  H  H175  1  0.158500  0.603400  0.129100  1.0  0.0936
  H  H176  1  0.007600  0.597300  0.100100  1.0  0.0965
  H  H177  1  0.111100  0.504200  0.084700  1.0  0.0789
  H  H178  1  0.243900  0.525500  0.056100  1.0  0.08
  H  H179  1  0.111800  0.524600  0.974000  1.0  0.0672
  H  H180  1  0.117400  0.460300  0.985800  1.0  0.0855
  H  H181  1  0.604500  0.606400  0.979600  1.0  0.0876
  H  H182  1  0.577400  0.524600  0.904200  1.0  0.1309
  H  H183  1  0.396000  0.631000  0.817400  1.0  0.1355
  H  H184  1  0.426600  0.710100  0.897100  1.0  0.1029
  H  H185  1  0.244500  0.343500  0.656000  1.0  0.1043
  H  H186  1  0.245800  0.440400  0.716500  1.0  0.1086
  H  H187  1  0.635200  0.463800  0.666667  1.0  0.1348
  H  H188  1  0.626300  0.369600  0.607400  1.0  0.0785
  H  H189  1  0.550000  0.487500  0.798100  1.0  0.122
  H  H190  1  0.385800  0.489200  0.809300  1.0  0.1265
  H  H191  1  0.516000  0.547100  0.731400  1.0  0.099
  H  H192  1  0.350200  0.543700  0.740700  1.0  0.1002
  H  H193  1  0.666667  0.768200  0.137900  1.0  0.0988
  H  H194  1  0.707600  0.849800  0.214000  1.0  0.1397
  H  H195  1  0.555800  0.953800  0.118000  1.0  0.1295
  H  H196  1  0.488500  0.869200  0.048600  1.0  0.1119
  H  H197  1  0.812000  0.158200  0.361800  1.0  0.0927
  H  H198  1  0.772200  0.058200  0.314500  1.0  0.1049
  H  H199  1  0.431300  0.104500  0.243700  1.0  0.1241
  H  H200  1  0.459800  0.199900  0.297400  1.0  0.0985
  H  H201  1  0.511000  0.986400  0.265800  1.0  0.1112
  H  H202  1  0.500700  0.006400  0.207600  1.0  0.0941
  H  H203  1  0.743100  0.958800  0.249300  1.0  0.0942
  H  H204  1  0.757300  0.992500  0.199900  1.0  0.1011
  C  C205  1  0.691800  0.842700  0.493000  1.0  -0.4764
  C  C206  1  0.442400  0.830200  0.516100  1.0  -0.4595
  C  C207  1  0.504100  0.861600  0.426400  1.0  -0.0662
  C  C208  1  0.446000  0.923400  0.452500  1.0  -0.1243
  C  C209  1  0.532100  0.969400  0.493300  1.0  -0.1147
  C  C210  1  0.207900  0.632600  0.538600  1.0  -0.4788
  C  C211  1  0.453200  0.644500  0.515600  1.0  -0.477
  C  C212  1  0.391000  0.593900  0.591800  1.0  -0.0674
  C  C213  1  0.359000  0.529200  0.559600  1.0  -0.122
  C  C214  1  0.419800  0.501300  0.500400  1.0  -0.1354
  C  C215  1  0.938800  0.611600  0.445900  1.0  0.1928
  C  C216  1  0.954600  0.562200  0.401000  1.0  -0.2452
  C  C217  1  0.016300  0.566300  0.350900  1.0  0.1606
  C  C218  1  0.060800  0.624700  0.350700  1.0  -0.2387
  C  C219  1  0.041600  0.671700  0.398100  1.0  0.1893
  C  C220  1  0.174900  0.367800  0.158100  1.0  0.1802
  C  C221  1  0.173600  0.426000  0.194200  1.0  -0.1999
  C  C222  1  0.063900  0.461900  0.198400  1.0  0.1672
  C  C223  1  0.946200  0.440100  0.165100  1.0  -0.2448
  C  C224  1  0.953000  0.383800  0.130700  1.0  0.1923
  C  C225  1  0.034600  0.512500  0.300700  1.0  -0.2118
  C  C226  1  0.060100  0.522600  0.241100  1.0  -0.1915
  C  C227  1  0.859300  0.806400  0.634300  1.0  0.1997
  C  C228  1  0.828500  0.855000  0.679100  1.0  -0.2424
  C  C229  1  0.851000  0.912300  0.672700  1.0  0.1344
  C  C230  1  0.921900  0.915700  0.622900  1.0  -0.2174
  C  C231  1  0.960000  0.865300  0.580900  1.0  0.1617
  C  C232  1  0.768900  0.147400  0.838500  1.0  0.1749
  C  C233  1  0.791600  0.087500  0.809300  1.0  -0.2291
  C  C234  1  0.902400  0.070200  0.773600  1.0  0.1527
  C  C235  1  0.991200  0.114100  0.769100  1.0  -0.2114
  C  C236  1  0.971900  0.171100  0.799900  1.0  0.1631
  C  C237  1  0.937500  0.005800  0.740300  1.0  -0.1848
  C  C238  1  0.806700  0.969100  0.717400  1.0  -0.1802
  C  C239  1  0.191800  0.157300  0.007000  1.0  -0.4624
  C  C240  1  0.942400  0.169800  0.983900  1.0  -0.4559
  C  C241  1  0.004100  0.138400  0.073600  1.0  -0.0646
  C  C242  1  0.946000  0.076600  0.047500  1.0  -0.1245
  C  C243  1  0.032100  0.030600  0.006700  1.0  -0.1144
  C  C244  1  0.707900  0.367400  0.961400  1.0  -0.4794
  C  C245  1  0.953200  0.355500  0.984400  1.0  -0.4785
  C  C246  1  0.891000  0.406100  0.908200  1.0  -0.0685
  C  C247  1  0.859000  0.470800  0.940400  1.0  -0.1216
  C  C248  1  0.919800  0.498700  0.999600  1.0  -0.1351
  C  C249  1  0.438800  0.388400  0.054100  1.0  0.1925
  C  C250  1  0.454600  0.437800  0.099000  1.0  -0.2454
  C  C251  1  0.516300  0.433700  0.149100  1.0  0.1604
  C  C252  1  0.560800  0.375300  0.149300  1.0  -0.2347
  C  C253  1  0.541600  0.328300  0.101900  1.0  0.1892
  C  C254  1  0.674900  0.632200  0.341900  1.0  0.1792
  C  C255  1  0.673600  0.574000  0.305800  1.0  -0.207
  C  C256  1  0.563900  0.538100  0.301600  1.0  0.1626
  C  C257  1  0.446200  0.559900  0.334900  1.0  -0.2448
  C  C258  1  0.453000  0.616200  0.369300  1.0  0.1929
  C  C259  1  0.534600  0.487500  0.199300  1.0  -0.2329
  C  C260  1  0.560100  0.477400  0.258900  1.0  -0.1919
  C  C261  1  0.359300  0.193600  0.865700  1.0  0.1985
  C  C262  1  0.328500  0.145000  0.820900  1.0  -0.2432
  C  C263  1  0.351000  0.087700  0.827300  1.0  0.1345
  C  C264  1  0.421900  0.084300  0.877100  1.0  -0.2144
  C  C265  1  0.460000  0.134700  0.919100  1.0  0.164
  C  C266  1  0.268900  0.852600  0.661500  1.0  0.171
  C  C267  1  0.291600  0.912500  0.690700  1.0  -0.2286
  C  C268  1  0.402400  0.929800  0.726400  1.0  0.1532
  C  C269  1  0.491200  0.885900  0.730900  1.0  -0.2115
  C  C270  1  0.471900  0.828900  0.700100  1.0  0.1637
  C  C271  1  0.437500  0.994200  0.759700  1.0  -0.1857
  C  C272  1  0.306700  0.030900  0.782600  1.0  -0.1803
  C  C273  1  0.308200  0.157300  0.507000  1.0  -0.4611
  C  C274  1  0.557600  0.169800  0.483900  1.0  -0.4564
  C  C275  1  0.495900  0.138400  0.573600  1.0  -0.0634
  C  C276  1  0.554000  0.076600  0.547500  1.0  -0.1236
  C  C277  1  0.467900  0.030600  0.506700  1.0  -0.1149
  C  C278  1  0.792100  0.367400  0.461400  1.0  -0.4838
  C  C279  1  0.546800  0.355500  0.484400  1.0  -0.4752
  C  C280  1  0.609000  0.406100  0.408200  1.0  -0.0684
  C  C281  1  0.641000  0.470800  0.440400  1.0  -0.1225
  C  C282  1  0.580200  0.498700  0.499600  1.0  -0.1348
  C  C283  1  0.061200  0.388400  0.554100  1.0  0.1915
  C  C284  1  0.045400  0.437800  0.599000  1.0  -0.2443
  C  C285  1  0.983700  0.433700  0.649100  1.0  0.16
  C  C286  1  0.939200  0.375300  0.649300  1.0  -0.2353
  C  C287  1  0.958400  0.328300  0.601900  1.0  0.1891
  C  C288  1  0.825100  0.632200  0.841900  1.0  0.1787
  C  C289  1  0.826400  0.574000  0.805800  1.0  -0.2095
  C  C290  1  0.936100  0.538100  0.801600  1.0  0.1635
  C  C291  1  0.053800  0.559900  0.834900  1.0  -0.2448
  C  C292  1  0.047000  0.616200  0.869300  1.0  0.1921
  C  C293  1  0.965400  0.487500  0.699300  1.0  -0.2322
  C  C294  1  0.939900  0.477400  0.758900  1.0  -0.192
  C  C295  1  0.140700  0.193600  0.365700  1.0  0.1984
  C  C296  1  0.171500  0.145000  0.320900  1.0  -0.2427
  C  C297  1  0.149000  0.087700  0.327300  1.0  0.1347
  C  C298  1  0.078100  0.084300  0.377100  1.0  -0.2151
  C  C299  1  0.040000  0.134700  0.419100  1.0  0.1634
  C  C300  1  0.231100  0.852600  0.161500  1.0  0.1721
  C  C301  1  0.208400  0.912500  0.190700  1.0  -0.2275
  C  C302  1  0.097600  0.929800  0.226400  1.0  0.1534
  C  C303  1  0.008800  0.885900  0.230900  1.0  -0.2125
  C  C304  1  0.028100  0.828900  0.200100  1.0  0.1641
  C  C305  1  0.062500  0.994200  0.259700  1.0  -0.188
  C  C306  1  0.193300  0.030900  0.282600  1.0  -0.1784
  C  C307  1  0.808200  0.842700  0.993000  1.0  -0.4722
  C  C308  1  0.057600  0.830200  0.016100  1.0  -0.4609
  C  C309  1  0.995900  0.861600  0.926400  1.0  -0.0664
  C  C310  1  0.054000  0.923400  0.952500  1.0  -0.1242
  C  C311  1  0.967900  0.969400  0.993300  1.0  -0.1155
  C  C312  1  0.292100  0.632600  0.038600  1.0  -0.4783
  C  C313  1  0.046800  0.644500  0.015600  1.0  -0.4758
  C  C314  1  0.109000  0.593900  0.091800  1.0  -0.0687
  C  C315  1  0.141000  0.529200  0.059600  1.0  -0.1226
  C  C316  1  0.080200  0.501300  0.000400  1.0  -0.135
  C  C317  1  0.561200  0.611600  0.945900  1.0  0.1922
  C  C318  1  0.545400  0.562200  0.901000  1.0  -0.2441
  C  C319  1  0.483700  0.566300  0.850900  1.0  0.1603
  C  C320  1  0.439200  0.624700  0.850700  1.0  -0.2377
  C  C321  1  0.458400  0.671700  0.898100  1.0  0.189
  C  C322  1  0.325100  0.367800  0.658100  1.0  0.1805
  C  C323  1  0.326400  0.426000  0.694200  1.0  -0.2024
  C  C324  1  0.436100  0.461900  0.698400  1.0  0.1664
  C  C325  1  0.553800  0.440100  0.665100  1.0  -0.2438
  C  C326  1  0.547000  0.383800  0.630700  1.0  0.1908
  C  C327  1  0.465400  0.512500  0.800700  1.0  -0.2111
  C  C328  1  0.439900  0.522600  0.741100  1.0  -0.1921
  C  C329  1  0.640700  0.806400  0.134300  1.0  0.2
  C  C330  1  0.671500  0.855000  0.179100  1.0  -0.2415
  C  C331  1  0.649000  0.912300  0.172700  1.0  0.1346
  C  C332  1  0.578100  0.915700  0.122900  1.0  -0.216
  C  C333  1  0.540000  0.865300  0.080900  1.0  0.1617
  C  C334  1  0.731100  0.147400  0.338500  1.0  0.1756
  C  C335  1  0.708400  0.087500  0.309300  1.0  -0.2278
  C  C336  1  0.597600  0.070200  0.273600  1.0  0.153
  C  C337  1  0.508800  0.114100  0.269100  1.0  -0.2114
  C  C338  1  0.528100  0.171100  0.299900  1.0  0.1633
  C  C339  1  0.562500  0.005800  0.240300  1.0  -0.1879
  C  C340  1  0.693300  0.969100  0.217400  1.0  -0.1788
  N  N341  1  0.550600  0.826600  0.469400  1.0  0.0584
  N  N342  1  0.351800  0.640500  0.561200  1.0  0.0495
  N  N343  1  0.978800  0.665900  0.446700  1.0  -0.3177
  N  N344  1  0.059800  0.346500  0.126300  1.0  -0.3098
  N  N345  1  0.924500  0.809100  0.585100  1.0  -0.3249
  N  N346  1  0.859900  0.189300  0.834200  1.0  -0.2805
  N  N347  1  0.050600  0.173400  0.030600  1.0  0.0577
  N  N348  1  0.851800  0.359500  0.938800  1.0  0.0496
  N  N349  1  0.478800  0.334100  0.053300  1.0  -0.3185
  N  N350  1  0.559800  0.653500  0.373700  1.0  -0.3154
  N  N351  1  0.424500  0.190900  0.914900  1.0  -0.3255
  N  N352  1  0.359900  0.810700  0.665800  1.0  -0.2798
  N  N353  1  0.449400  0.173400  0.530600  1.0  0.0581
  N  N354  1  0.648200  0.359500  0.438800  1.0  0.0502
  N  N355  1  0.021200  0.334100  0.553300  1.0  -0.3177
  N  N356  1  0.940200  0.653500  0.873700  1.0  -0.3155
  N  N357  1  0.075500  0.190900  0.414900  1.0  -0.3259
  N  N358  1  0.140100  0.810700  0.165800  1.0  -0.2782
  N  N359  1  0.949400  0.826600  0.969400  1.0  0.0585
  N  N360  1  0.148200  0.640500  0.061200  1.0  0.0501
  N  N361  1  0.521200  0.665900  0.946700  1.0  -0.3174
  N  N362  1  0.440200  0.346500  0.626300  1.0  -0.3092
  N  N363  1  0.575500  0.809100  0.085100  1.0  -0.3253
  N  N364  1  0.640100  0.189300  0.334200  1.0  -0.281
  O  O365  1  0.739300  0.758000  0.396300  1.0  -0.7832
  O  O366  1  0.943500  0.790700  0.466400  1.0  -0.7106
  O  O367  1  0.869800  0.854600  0.405600  1.0  -0.7257
  O  O368  1  0.364600  0.733000  0.437300  1.0  -0.7725
  O  O369  1  0.213000  0.763200  0.528800  1.0  -0.7934
  O  O370  1  0.198800  0.821200  0.454300  1.0  -0.6317
  O  O371  1  0.162300  0.715300  0.636700  1.0  -0.7827
  O  O372  1  0.955900  0.683400  0.566500  1.0  -0.6985
  O  O373  1  0.038800  0.615400  0.625000  1.0  -0.7321
  O  O374  1  0.542800  0.736600  0.596800  1.0  -0.7927
  O  O375  1  0.706400  0.646600  0.566000  1.0  -0.6577
  O  O376  1  0.670400  0.713500  0.500200  1.0  -0.8167
  O  O377  1  0.239300  0.242000  0.103700  1.0  -0.7825
  O  O378  1  0.443500  0.209300  0.033600  1.0  -0.7112
  O  O379  1  0.369800  0.145400  0.094400  1.0  -0.7234
  O  O380  1  0.864600  0.267000  0.062700  1.0  -0.7726
  O  O381  1  0.713000  0.236800  0.971200  1.0  -0.7942
  O  O382  1  0.698800  0.178800  0.045700  1.0  -0.6328
  O  O383  1  0.662300  0.284700  0.863300  1.0  -0.7817
  O  O384  1  0.455900  0.316600  0.933500  1.0  -0.7014
  O  O385  1  0.538800  0.384600  0.875000  1.0  -0.7357
  O  O386  1  0.042800  0.263400  0.903200  1.0  -0.7911
  O  O387  1  0.206400  0.353400  0.934000  1.0  -0.6569
  O  O388  1  0.170400  0.286500  0.999800  1.0  -0.8172
  O  O389  1  0.260700  0.242000  0.603700  1.0  -0.7822
  O  O390  1  0.056500  0.209300  0.533600  1.0  -0.711
  O  O391  1  0.130200  0.145400  0.594400  1.0  -0.7169
  O  O392  1  0.635400  0.267000  0.562700  1.0  -0.7726
  O  O393  1  0.787000  0.236800  0.471200  1.0  -0.7942
  O  O394  1  0.801200  0.178800  0.545700  1.0  -0.6319
  O  O395  1  0.837700  0.284700  0.363300  1.0  -0.7812
  O  O396  1  0.044100  0.316600  0.433500  1.0  -0.7031
  O  O397  1  0.961200  0.384600  0.375000  1.0  -0.7371
  O  O398  1  0.457200  0.263400  0.403200  1.0  -0.791
  O  O399  1  0.293600  0.353400  0.434000  1.0  -0.6571
  O  O400  1  0.329600  0.286500  0.499800  1.0  -0.8167
  O  O401  1  0.760700  0.758000  0.896300  1.0  -0.7822
  O  O402  1  0.556500  0.790700  0.966400  1.0  -0.7089
  O  O403  1  0.630200  0.854600  0.905600  1.0  -0.7223
  O  O404  1  0.135400  0.733000  0.937300  1.0  -0.7736
  O  O405  1  0.287000  0.763200  0.028800  1.0  -0.7936
  O  O406  1  0.301200  0.821200  0.954300  1.0  -0.6312
  O  O407  1  0.337700  0.715300  0.136700  1.0  -0.7807
  O  O408  1  0.544100  0.683400  0.066500  1.0  -0.6992
  O  O409  1  0.461200  0.615400  0.125000  1.0  -0.7363
  O  O410  1  0.957200  0.736600  0.096800  1.0  -0.7943
  O  O411  1  0.793600  0.646600  0.066000  1.0  -0.6584
  O  O412  1  0.829600  0.713500  0.000200  1.0  -0.8161
