# generated using pymatgen
data_Co2H18C24N4O9
_symmetry_space_group_name_H-M   'P 1'
_cell_length_a   10.54070000
_cell_length_b   11.82660000
_cell_length_c   14.11220000
_cell_angle_alpha   106.87800000
_cell_angle_beta   102.41100000
_cell_angle_gamma   111.01100000
_symmetry_Int_Tables_number   1
_chemical_formula_structural   Co2H18C24N4O9
_chemical_formula_sum   'Co4 H36 C48 N8 O18'
_cell_volume   1467.89387660
_cell_formula_units_Z   2
loop_
 _symmetry_equiv_pos_site_id
 _symmetry_equiv_pos_as_xyz
  1  'x, y, z'
loop_
 _atom_site_type_symbol
 _atom_site_label
 _atom_site_symmetry_multiplicity
 _atom_site_fract_x
 _atom_site_fract_y
 _atom_site_fract_z
 _atom_site_occupancy
 _atom_site_charge
  Co  Co1  1  0.806700  0.508590  0.787330  1.0  0.9494
  Co  Co2  1  0.548800  0.769180  0.309930  1.0  0.9437
  Co  Co3  1  0.193300  0.491410  0.212670  1.0  0.9501
  Co  Co4  1  0.451200  0.230820  0.690070  1.0  0.9442
  H  H5  1  0.878000  0.822100  0.385700  1.0  0.0747
  H  H6  1  0.054600  0.806200  0.319500  1.0  0.1137
  H  H7  1  0.002500  0.729300  0.137700  1.0  0.1105
  H  H8  1  0.593400  0.667300  0.100800  1.0  0.0715
  H  H9  1  0.732600  0.994000  0.250100  1.0  0.0774
  H  H10  1  0.846400  0.220400  0.313100  1.0  0.1
  H  H11  1  0.833500  0.346300  0.466800  1.0  0.1038
  H  H12  1  0.615400  0.012000  0.494700  1.0  0.0763
  H  H13  1  0.976200  0.810000  0.864200  1.0  0.0791
  H  H14  1  0.001000  0.977600  0.807500  1.0  0.1159
  H  H15  1  0.860200  0.927900  0.636500  1.0  0.0918
  H  H16  1  0.693400  0.546300  0.586900  1.0  0.0734
  H  H17  1  0.074500  0.542300  0.709000  1.0  0.0819
  H  H18  1  0.317600  0.605400  0.777700  1.0  0.124
  H  H19  1  0.432700  0.679800  0.959900  1.0  0.106
  H  H20  1  0.045400  0.604000  0.987900  1.0  0.065
  H  H21  1  0.581400  0.481400  0.788400  1.0  0.4178
  H  H22  1  0.526500  0.448300  0.690000  1.0  0.4183
  H  H23  1  0.122000  0.177900  0.614300  1.0  0.0751
  H  H24  1  0.945400  0.193800  0.680500  1.0  0.1138
  H  H25  1  0.997500  0.270700  0.862300  1.0  0.1107
  H  H26  1  0.406600  0.332700  0.899200  1.0  0.0697
  H  H27  1  0.267400  0.006000  0.749900  1.0  0.0768
  H  H28  1  0.153600  0.779600  0.686900  1.0  0.1001
  H  H29  1  0.166500  0.653700  0.533200  1.0  0.1036
  H  H30  1  0.384600  0.988000  0.505300  1.0  0.0759
  H  H31  1  0.023800  0.190000  0.135800  1.0  0.0798
  H  H32  1  0.999000  0.022400  0.192500  1.0  0.1164
  H  H33  1  0.139800  0.072100  0.363500  1.0  0.0915
  H  H34  1  0.306600  0.453700  0.413100  1.0  0.0732
  H  H35  1  0.925500  0.457700  0.291000  1.0  0.0818
  H  H36  1  0.682400  0.394600  0.222300  1.0  0.1249
  H  H37  1  0.567300  0.320200  0.040100  1.0  0.1059
  H  H38  1  0.954600  0.396000  0.012100  1.0  0.0647
  H  H39  1  0.418600  0.518600  0.211600  1.0  0.4218
  H  H40  1  0.473500  0.551700  0.310000  1.0  0.4178
  C  C41  1  0.854600  0.787400  0.312600  1.0  0.1671
  C  C42  1  0.962000  0.779700  0.273400  1.0  -0.1689
  C  C43  1  0.930800  0.732600  0.165500  1.0  0.0458
  C  C44  1  0.790600  0.690400  0.099400  1.0  -0.2385
  C  C45  1  0.688400  0.698100  0.145400  1.0  0.2068
  C  C46  1  0.742100  0.633800  0.980100  1.0  0.6639
  C  C47  1  0.731000  0.043700  0.314000  1.0  0.1666
  C  C48  1  0.797300  0.179600  0.350500  1.0  -0.1771
  C  C49  1  0.790700  0.254500  0.442100  1.0  0.0296
  C  C50  1  0.719500  0.191500  0.496800  1.0  -0.2163
  C  C51  1  0.660600  0.054900  0.456700  1.0  0.1926
  C  C52  1  0.698900  0.265800  0.594100  1.0  0.691
  C  C53  1  0.921600  0.789100  0.794900  1.0  0.1654
  C  C54  1  0.936200  0.890500  0.761700  1.0  -0.1904
  C  C55  1  0.853800  0.861000  0.660000  1.0  0.0405
  C  C56  1  0.761400  0.730100  0.593500  1.0  -0.2167
  C  C57  1  0.754800  0.634400  0.632100  1.0  0.1944
  C  C58  1  0.666400  0.690400  0.480900  1.0  0.6758
  C  C59  1  0.118600  0.569700  0.781600  1.0  0.1599
  C  C60  1  0.264500  0.608000  0.822400  1.0  -0.1859
  C  C61  1  0.333000  0.650900  0.930800  1.0  0.0597
  C  C62  1  0.249500  0.649500  0.994300  1.0  -0.2097
  C  C63  1  0.102200  0.607100  0.945700  1.0  0.2025
  C  C64  1  0.306500  0.681800  0.110900  1.0  0.6919
  C  C65  1  0.145400  0.212600  0.687400  1.0  0.1686
  C  C66  1  0.038000  0.220300  0.726600  1.0  -0.1689
  C  C67  1  0.069200  0.267400  0.834500  1.0  0.0475
  C  C68  1  0.209400  0.309600  0.900600  1.0  -0.2372
  C  C69  1  0.311600  0.301900  0.854600  1.0  0.2065
  C  C70  1  0.257900  0.366200  0.019900  1.0  0.6629
  C  C71  1  0.269000  0.956300  0.686000  1.0  0.1666
  C  C72  1  0.202700  0.820400  0.649500  1.0  -0.1786
  C  C73  1  0.209300  0.745500  0.557900  1.0  0.0253
  C  C74  1  0.280500  0.808500  0.503200  1.0  -0.2166
  C  C75  1  0.339400  0.945100  0.543300  1.0  0.1926
  C  C76  1  0.301100  0.734200  0.405900  1.0  0.6912
  C  C77  1  0.078400  0.210900  0.205100  1.0  0.1659
  C  C78  1  0.063800  0.109500  0.238300  1.0  -0.194
  C  C79  1  0.146200  0.139000  0.340000  1.0  0.0409
  C  C80  1  0.238600  0.269900  0.406500  1.0  -0.2159
  C  C81  1  0.245200  0.365600  0.367900  1.0  0.195
  C  C82  1  0.333600  0.309600  0.519100  1.0  0.6755
  C  C83  1  0.881400  0.430300  0.218400  1.0  0.1609
  C  C84  1  0.735500  0.392000  0.177600  1.0  -0.1877
  C  C85  1  0.667000  0.349100  0.069200  1.0  0.0524
  C  C86  1  0.750500  0.350500  0.005700  1.0  -0.2088
  C  C87  1  0.897800  0.392900  0.054300  1.0  0.2028
  C  C88  1  0.693500  0.318200  0.889100  1.0  0.6924
  N  N89  1  0.718600  0.747100  0.250070  1.0  -0.3701
  N  N90  1  0.664800  0.981200  0.366870  1.0  -0.3369
  N  N91  1  0.832500  0.662400  0.731700  1.0  -0.3541
  N  N92  1  0.036600  0.570300  0.842500  1.0  -0.3479
  N  N93  1  0.281400  0.252900  0.749930  1.0  -0.3706
  N  N94  1  0.335200  0.018800  0.633130  1.0  -0.3357
  N  N95  1  0.167500  0.337600  0.268300  1.0  -0.3548
  N  N96  1  0.963400  0.429700  0.157500  1.0  -0.3472
  O  O97  1  0.837000  0.635300  0.939740  1.0  -0.597
  O  O98  1  0.609600  0.586700  0.929870  1.0  -0.5717
  O  O99  1  0.782700  0.387600  0.640730  1.0  -0.5869
  O  O100  1  0.600200  0.200100  0.619580  1.0  -0.5869
  O  O101  1  0.666500  0.783100  0.454850  1.0  -0.5966
  O  O102  1  0.596000  0.570200  0.423500  1.0  -0.5981
  O  O103  1  0.214800  0.634900  0.149620  1.0  -0.5901
  O  O104  1  0.441400  0.751600  0.160330  1.0  -0.5809
  O  O105  1  0.574000  0.441400  0.742520  1.0  -0.8217
  O  O106  1  0.163000  0.364700  0.060260  1.0  -0.5964
  O  O107  1  0.390400  0.413300  0.070130  1.0  -0.572
  O  O108  1  0.217300  0.612400  0.359270  1.0  -0.5861
  O  O109  1  0.399800  0.799900  0.380420  1.0  -0.5866
  O  O110  1  0.333500  0.216900  0.545150  1.0  -0.5975
  O  O111  1  0.404000  0.429800  0.576500  1.0  -0.5983
  O  O112  1  0.785200  0.365100  0.850380  1.0  -0.5923
  O  O113  1  0.558600  0.248400  0.839670  1.0  -0.5822
  O  O114  1  0.426000  0.558600  0.257480  1.0  -0.8221
