# generated using pymatgen
data_Co2H18C24N4O9
_symmetry_space_group_name_H-M   'P 1'
_cell_length_a   10.66710000
_cell_length_b   12.00630000
_cell_length_c   14.06580000
_cell_angle_alpha   106.71800000
_cell_angle_beta   102.27900000
_cell_angle_gamma   111.19000000
_symmetry_Int_Tables_number   1
_chemical_formula_structural   Co2H18C24N4O9
_chemical_formula_sum   'Co4 H36 C48 N8 O18'
_cell_volume   1504.11139213
_cell_formula_units_Z   2
loop_
 _symmetry_equiv_pos_site_id
 _symmetry_equiv_pos_as_xyz
  1  'x, y, z'
loop_
 _atom_site_type_symbol
 _atom_site_label
 _atom_site_symmetry_multiplicity
 _atom_site_fract_x
 _atom_site_fract_y
 _atom_site_fract_z
 _atom_site_occupancy
 _atom_site_charge
  Co  Co1  1  0.806510  0.504210  0.785970  1.0  0.7395
  Co  Co2  1  0.547870  0.768290  0.309750  1.0  0.919
  Co  Co3  1  0.193490  0.495790  0.214030  1.0  0.7405
  Co  Co4  1  0.452130  0.231710  0.690250  1.0  0.9181
  H  H5  1  0.523000  0.446000  0.686000  1.0  0.3983
  H  H6  1  0.575000  0.476000  0.793000  1.0  0.4138
  H  H7  1  0.974600  0.799300  0.859000  1.0  0.0844
  H  H8  1  0.877700  0.833200  0.385900  1.0  0.0764
  H  H9  1  0.054400  0.822400  0.321300  1.0  0.1138
  H  H10  1  0.002500  0.736600  0.138900  1.0  0.1125
  H  H11  1  0.593700  0.660400  0.099600  1.0  0.0739
  H  H12  1  0.728700  0.988800  0.249300  1.0  0.0786
  H  H13  1  0.840100  0.211900  0.308900  1.0  0.1106
  H  H14  1  0.836600  0.338200  0.467200  1.0  0.1059
  H  H15  1  0.619500  0.010000  0.498800  1.0  0.0785
  H  H16  1  0.697700  0.537900  0.580700  1.0  0.088
  H  H17  1  0.003400  0.963800  0.800800  1.0  0.1229
  H  H18  1  0.870300  0.913600  0.627700  1.0  0.094
  H  H19  1  0.066700  0.533300  0.706000  1.0  0.077
  H  H20  1  0.306200  0.586500  0.770100  1.0  0.1261
  H  H21  1  0.424000  0.662300  0.953000  1.0  0.1055
  H  H22  1  0.047700  0.604900  0.989200  1.0  0.0707
  H  H23  1  0.477000  0.554000  0.314000  1.0  0.3958
  H  H24  1  0.425000  0.524000  0.207000  1.0  0.4133
  H  H25  1  0.025400  0.200700  0.141000  1.0  0.0846
  H  H26  1  0.122300  0.166800  0.614100  1.0  0.0765
  H  H27  1  0.945600  0.177600  0.678700  1.0  0.1136
  H  H28  1  0.997500  0.263400  0.861100  1.0  0.1122
  H  H29  1  0.406300  0.339600  0.900400  1.0  0.0733
  H  H30  1  0.271300  0.011200  0.750700  1.0  0.0786
  H  H31  1  0.159900  0.788100  0.691100  1.0  0.1111
  H  H32  1  0.163400  0.661800  0.532800  1.0  0.106
  H  H33  1  0.380500  0.990000  0.501200  1.0  0.0784
  H  H34  1  0.302300  0.462100  0.419300  1.0  0.088
  H  H35  1  0.996600  0.036200  0.199200  1.0  0.1228
  H  H36  1  0.129700  0.086400  0.372300  1.0  0.0935
  H  H37  1  0.933300  0.466700  0.294000  1.0  0.0773
  H  H38  1  0.693800  0.413500  0.229900  1.0  0.1273
  H  H39  1  0.576000  0.337700  0.047000  1.0  0.1058
  H  H40  1  0.952300  0.395100  0.010800  1.0  0.0712
  C  C41  1  0.922300  0.778400  0.789100  1.0  0.1632
  C  C42  1  0.854300  0.795700  0.312900  1.0  0.1679
  C  C43  1  0.961600  0.790700  0.274500  1.0  -0.1616
  C  C44  1  0.930900  0.738700  0.166200  1.0  0.027
  C  C45  1  0.790100  0.689600  0.099500  1.0  -0.224
  C  C46  1  0.688300  0.695500  0.144710  1.0  0.2072
  C  C47  1  0.741800  0.627800  0.979940  1.0  0.6614
  C  C48  1  0.728700  0.038600  0.313600  1.0  0.1716
  C  C49  1  0.794600  0.172700  0.348400  1.0  -0.1452
  C  C50  1  0.792100  0.247700  0.442300  1.0  0.0329
  C  C51  1  0.722400  0.186400  0.498880  1.0  -0.2017
  C  C52  1  0.663100  0.051500  0.459690  1.0  0.1899
  C  C53  1  0.699800  0.261300  0.594300  1.0  0.6831
  C  C54  1  0.758400  0.624800  0.625590  1.0  0.1896
  C  C55  1  0.939600  0.877900  0.755100  1.0  -0.183
  C  C56  1  0.860700  0.847900  0.652300  1.0  0.0363
  C  C57  1  0.767400  0.719600  0.585800  1.0  -0.2011
  C  C58  1  0.669200  0.682000  0.475600  1.0  0.6746
  C  C59  1  0.112000  0.560200  0.778500  1.0  0.1556
  C  C60  1  0.256100  0.593200  0.816500  1.0  -0.1694
  C  C61  1  0.326100  0.637000  0.925300  1.0  0.0436
  C  C62  1  0.246900  0.642200  0.991190  1.0  -0.2213
  C  C63  1  0.101600  0.603700  0.945280  1.0  0.1843
  C  C64  1  0.307000  0.678600  0.109140  1.0  0.6889
  C  C65  1  0.077700  0.221600  0.210900  1.0  0.1639
  C  C66  1  0.145700  0.204300  0.687100  1.0  0.1688
  C  C67  1  0.038400  0.209300  0.725500  1.0  -0.1629
  C  C68  1  0.069100  0.261300  0.833800  1.0  0.029
  C  C69  1  0.209900  0.310400  0.900500  1.0  -0.2232
  C  C70  1  0.311700  0.304500  0.855290  1.0  0.2061
  C  C71  1  0.258200  0.372200  0.020060  1.0  0.6591
  C  C72  1  0.271300  0.961400  0.686400  1.0  0.1722
  C  C73  1  0.205400  0.827300  0.651600  1.0  -0.1505
  C  C74  1  0.207900  0.752300  0.557700  1.0  0.0326
  C  C75  1  0.277600  0.813600  0.501120  1.0  -0.2012
  C  C76  1  0.336900  0.948500  0.540310  1.0  0.1894
  C  C77  1  0.300200  0.738700  0.405700  1.0  0.6831
  C  C78  1  0.241600  0.375200  0.374410  1.0  0.1912
  C  C79  1  0.060400  0.122100  0.244900  1.0  -0.1836
  C  C80  1  0.139300  0.152100  0.347700  1.0  0.0357
  C  C81  1  0.232600  0.280400  0.414200  1.0  -0.2015
  C  C82  1  0.330800  0.318000  0.524400  1.0  0.6743
  C  C83  1  0.888000  0.439800  0.221500  1.0  0.1559
  C  C84  1  0.743900  0.406800  0.183500  1.0  -0.1702
  C  C85  1  0.673900  0.363000  0.074700  1.0  0.0419
  C  C86  1  0.753100  0.357800  0.008810  1.0  -0.219
  C  C87  1  0.898400  0.396300  0.054720  1.0  0.1838
  C  C88  1  0.693000  0.321400  0.890860  1.0  0.6884
  N  N89  1  0.717500  0.748600  0.249440  1.0  -0.3607
  N  N90  1  0.664900  0.977200  0.368660  1.0  -0.3366
  N  N91  1  0.833900  0.653300  0.726310  1.0  -0.3148
  N  N92  1  0.034200  0.565100  0.841380  1.0  -0.3221
  N  N93  1  0.282500  0.251400  0.750560  1.0  -0.3607
  N  N94  1  0.335100  0.022800  0.631340  1.0  -0.3359
  N  N95  1  0.166100  0.346700  0.273690  1.0  -0.3155
  N  N96  1  0.965800  0.434900  0.158620  1.0  -0.3161
  O  O97  1  0.836670  0.630660  0.939200  1.0  -0.5808
  O  O98  1  0.609440  0.575400  0.930190  1.0  -0.5734
  O  O99  1  0.783410  0.381490  0.640370  1.0  -0.5645
  O  O100  1  0.597030  0.197680  0.617320  1.0  -0.5853
  O  O101  1  0.665400  0.774910  0.452010  1.0  -0.5949
  O  O102  1  0.597400  0.563600  0.417030  1.0  -0.5881
  O  O103  1  0.217200  0.637900  0.151040  1.0  -0.5903
  O  O104  1  0.441520  0.746530  0.156720  1.0  -0.5795
  O  O105  1  0.576050  0.438560  0.741780  1.0  -0.7629
  O  O106  1  0.163330  0.369340  0.060800  1.0  -0.5812
  O  O107  1  0.390560  0.424600  0.069810  1.0  -0.5773
  O  O108  1  0.216590  0.618510  0.359630  1.0  -0.5638
  O  O109  1  0.402970  0.802320  0.382680  1.0  -0.5858
  O  O110  1  0.334600  0.225090  0.547990  1.0  -0.5941
  O  O111  1  0.402600  0.436400  0.582970  1.0  -0.589
  O  O112  1  0.782800  0.362100  0.848960  1.0  -0.5949
  O  O113  1  0.558480  0.253470  0.843280  1.0  -0.5801
  O  O114  1  0.423950  0.561440  0.258220  1.0  -0.762
