# generated using pymatgen
data_Zn3H10C24N3O13
_symmetry_space_group_name_H-M   'P 1'
_cell_length_a   19.22230000
_cell_length_b   19.22230000
_cell_length_c   19.22230000
_cell_angle_alpha   69.97840000
_cell_angle_beta   71.62400000
_cell_angle_gamma   110.02200000
_symmetry_Int_Tables_number   1
_chemical_formula_structural   Zn3H10C24N3O13
_chemical_formula_sum   'Zn12 H40 C96 N12 O52'
_cell_volume   5466.04424718
_cell_formula_units_Z   4
loop_
 _symmetry_equiv_pos_site_id
 _symmetry_equiv_pos_as_xyz
  1  'x, y, z'
loop_
 _atom_site_type_symbol
 _atom_site_label
 _atom_site_symmetry_multiplicity
 _atom_site_fract_x
 _atom_site_fract_y
 _atom_site_fract_z
 _atom_site_occupancy
 _atom_site_charge
  Zn  Zn1  1  0.214550  0.536630  0.936400  1.0  1.0828
  Zn  Zn2  1  0.526970  0.463370  0.322080  1.0  1.0842
  Zn  Zn3  1  0.677920  0.150950  0.785450  1.0  1.0832
  Zn  Zn4  1  0.063600  0.849050  0.473030  1.0  1.0837
  Zn  Zn5  1  0.785450  0.463370  0.063600  1.0  1.0825
  Zn  Zn6  1  0.473030  0.536630  0.677920  1.0  1.082
  Zn  Zn7  1  0.322080  0.849050  0.214550  1.0  1.0826
  Zn  Zn8  1  0.936400  0.150950  0.526970  1.0  1.0825
  Zn  Zn9  1  0.391820  0.678800  0.713020  1.0  1.0172
  Zn  Zn10  1  0.608180  0.321200  0.286980  1.0  1.017
  Zn  Zn11  1  0.713020  0.104840  0.608180  1.0  1.0176
  Zn  Zn12  1  0.286980  0.895160  0.391820  1.0  1.0137
  H  H13  1  0.211900  0.720300  0.640400  1.0  0.1182
  H  H14  1  0.973000  0.675700  0.720700  1.0  0.1188
  H  H15  1  0.038800  0.570200  0.888800  1.0  0.1162
  H  H16  1  0.176100  0.340800  0.046300  1.0  0.1305
  H  H17  1  0.183700  0.216300  0.074200  1.0  0.1199
  H  H18  1  0.639300  0.279700  0.508400  1.0  0.1207
  H  H19  1  0.603600  0.324300  0.702700  1.0  0.1193
  H  H20  1  0.541000  0.429800  0.531400  1.0  0.115
  H  H21  1  0.612900  0.659200  0.164700  1.0  0.1304
  H  H22  1  0.709500  0.783700  0.032600  1.0  0.1163
  H  H23  1  0.491600  0.852300  0.788100  1.0  0.1198
  H  H24  1  0.297300  0.693700  0.027000  1.0  0.1196
  H  H25  1  0.468600  0.927600  0.961200  1.0  0.1156
  H  H26  1  0.835300  0.222400  0.823900  1.0  0.132
  H  H27  1  0.967400  0.257900  0.816300  1.0  0.1153
  H  H28  1  0.359600  0.147700  0.360700  1.0  0.1215
  H  H29  1  0.279300  0.306300  0.396400  1.0  0.1187
  H  H30  1  0.111200  0.072400  0.459000  1.0  0.1143
  H  H31  1  0.953700  0.777600  0.387100  1.0  0.1305
  H  H32  1  0.925800  0.742100  0.290500  1.0  0.1168
  H  H33  1  0.788100  0.279700  0.359600  1.0  0.1181
  H  H34  1  0.027000  0.324300  0.279300  1.0  0.1182
  H  H35  1  0.961200  0.429800  0.111200  1.0  0.1157
  H  H36  1  0.823900  0.659200  0.953700  1.0  0.1317
  H  H37  1  0.816300  0.783700  0.925800  1.0  0.119
  H  H38  1  0.360700  0.720300  0.491600  1.0  0.1202
  H  H39  1  0.396400  0.675700  0.297300  1.0  0.12
  H  H40  1  0.459000  0.570200  0.468600  1.0  0.1147
  H  H41  1  0.387100  0.340800  0.835300  1.0  0.1317
  H  H42  1  0.290500  0.216300  0.967400  1.0  0.1159
  H  H43  1  0.508400  0.147700  0.211900  1.0  0.12
  H  H44  1  0.702700  0.306300  0.973000  1.0  0.119
  H  H45  1  0.531400  0.072400  0.038800  1.0  0.1154
  H  H46  1  0.164700  0.777600  0.176100  1.0  0.1324
  H  H47  1  0.032600  0.742100  0.183700  1.0  0.1148
  H  H48  1  0.640400  0.852300  0.639300  1.0  0.1214
  H  H49  1  0.720700  0.693700  0.603600  1.0  0.1192
  H  H50  1  0.888800  0.927600  0.541000  1.0  0.1144
  H  H51  1  0.046300  0.222400  0.612900  1.0  0.132
  H  H52  1  0.074200  0.257900  0.709500  1.0  0.1161
  C  C53  1  0.117290  0.764200  0.577910  1.0  0.6926
  C  C54  1  0.096050  0.707920  0.666810  1.0  -0.1614
  C  C55  1  0.157180  0.695040  0.684340  1.0  0.0362
  C  C56  1  0.013930  0.668100  0.732770  1.0  0.0277
  C  C57  1  0.902400  0.574980  0.887460  1.0  0.7186
  C  C58  1  0.991530  0.616700  0.817170  1.0  -0.167
  C  C59  1  0.198930  0.627900  0.790570  1.0  0.7485
  C  C60  1  0.135710  0.643810  0.768500  1.0  -0.1748
  C  C61  1  0.052990  0.604900  0.833310  1.0  0.0369
  C  C62  1  0.271800  0.411400  0.921000  1.0  0.0645
  C  C63  1  0.215300  0.339000  0.004700  1.0  -0.1046
  C  C64  1  0.221300  0.265800  0.021300  1.0  -0.076
  C  C65  1  0.657890  0.235800  0.646910  1.0  0.6845
  C  C66  1  0.625270  0.292080  0.611870  1.0  -0.1609
  C  C67  1  0.620620  0.304960  0.537860  1.0  0.0363
  C  C68  1  0.599130  0.331900  0.654170  1.0  0.034
  C  C69  1  0.537560  0.425020  0.672580  1.0  0.7195
  C  C70  1  0.566130  0.383300  0.625170  1.0  -0.1681
  C  C71  1  0.581530  0.372100  0.428970  1.0  0.7499
  C  C72  1  0.587690  0.356190  0.508100  1.0  -0.1751
  C  C73  1  0.561790  0.395100  0.551910  1.0  0.0344
  C  C74  1  0.667600  0.588600  0.139600  1.0  0.0627
  C  C75  1  0.656300  0.661000  0.123700  1.0  -0.1043
  C  C76  1  0.712900  0.734200  0.044500  1.0  -0.0706
  C  C77  1  0.353090  0.695200  0.882710  1.0  0.6858
  C  C78  1  0.388130  0.762860  0.903950  1.0  -0.163
  C  C79  1  0.462140  0.841520  0.842820  1.0  0.0358
  C  C80  1  0.345830  0.746700  0.986070  1.0  0.0309
  C  C81  1  0.327420  0.789860  0.097600  1.0  0.7211
  C  C82  1  0.374830  0.808700  0.008470  1.0  -0.1683
  C  C83  1  0.571030  0.989500  0.801070  1.0  0.75
  C  C84  1  0.491900  0.904210  0.864290  1.0  -0.1747
  C  C85  1  0.448090  0.886300  0.947010  1.0  0.036
  C  C86  1  0.860400  0.192800  0.728200  1.0  0.0654
  C  C87  1  0.876300  0.220000  0.784700  1.0  -0.1056
  C  C88  1  0.955500  0.242600  0.778700  1.0  -0.0736
  C  C89  1  0.422090  0.304800  0.342110  1.0  0.6892
  C  C90  1  0.333190  0.237140  0.374730  1.0  -0.1622
  C  C91  1  0.315660  0.158480  0.379380  1.0  0.0365
  C  C92  1  0.267230  0.253300  0.400870  1.0  0.0304
  C  C93  1  0.112540  0.210140  0.462440  1.0  0.7196
  C  C94  1  0.182830  0.191300  0.433870  1.0  -0.1671
  C  C95  1  0.209430  0.010500  0.418470  1.0  0.7495
  C  C96  1  0.231500  0.095790  0.412310  1.0  -0.1751
  C  C97  1  0.166690  0.113700  0.438210  1.0  0.0359
  C  C98  1  0.079000  0.807200  0.332400  1.0  0.0641
  C  C99  1  0.995300  0.780000  0.343700  1.0  -0.1032
  C  C100  1  0.978700  0.757400  0.287100  1.0  -0.0757
  C  C101  1  0.882710  0.235800  0.422090  1.0  0.6929
  C  C102  1  0.903950  0.292080  0.333190  1.0  -0.1616
  C  C103  1  0.842820  0.304960  0.315660  1.0  0.0362
  C  C104  1  0.986070  0.331900  0.267230  1.0  0.0294
  C  C105  1  0.097600  0.425020  0.112540  1.0  0.7196
  C  C106  1  0.008470  0.383300  0.182830  1.0  -0.167
  C  C107  1  0.801070  0.372100  0.209430  1.0  0.7488
  C  C108  1  0.864290  0.356190  0.231500  1.0  -0.1746
  C  C109  1  0.947010  0.395100  0.166690  1.0  0.0369
  C  C110  1  0.728200  0.588600  0.079000  1.0  0.0648
  C  C111  1  0.784700  0.661000  0.995300  1.0  -0.1026
  C  C112  1  0.778700  0.734200  0.978700  1.0  -0.0779
  C  C113  1  0.342110  0.764200  0.353090  1.0  0.6847
  C  C114  1  0.374730  0.707920  0.388130  1.0  -0.161
  C  C115  1  0.379380  0.695040  0.462140  1.0  0.0353
  C  C116  1  0.400870  0.668100  0.345830  1.0  0.0311
  C  C117  1  0.462440  0.574980  0.327420  1.0  0.7187
  C  C118  1  0.433870  0.616700  0.374830  1.0  -0.1672
  C  C119  1  0.418470  0.627900  0.571030  1.0  0.7529
  C  C120  1  0.412310  0.643810  0.491900  1.0  -0.1754
  C  C121  1  0.438210  0.604900  0.448090  1.0  0.0351
  C  C122  1  0.332400  0.411400  0.860400  1.0  0.063
  C  C123  1  0.343700  0.339000  0.876300  1.0  -0.1025
  C  C124  1  0.287100  0.265800  0.955500  1.0  -0.075
  C  C125  1  0.646910  0.304800  0.117290  1.0  0.6872
  C  C126  1  0.611870  0.237140  0.096050  1.0  -0.1627
  C  C127  1  0.537860  0.158480  0.157180  1.0  0.0353
  C  C128  1  0.654170  0.253300  0.013930  1.0  0.0295
  C  C129  1  0.672580  0.210140  0.902400  1.0  0.7212
  C  C130  1  0.625170  0.191300  0.991530  1.0  -0.1673
  C  C131  1  0.428970  0.010500  0.198930  1.0  0.7493
  C  C132  1  0.508100  0.095790  0.135710  1.0  -0.1748
  C  C133  1  0.551910  0.113700  0.052990  1.0  0.036
  C  C134  1  0.139600  0.807200  0.271800  1.0  0.0649
  C  C135  1  0.123700  0.780000  0.215300  1.0  -0.1018
  C  C136  1  0.044500  0.757400  0.221300  1.0  -0.0791
  C  C137  1  0.577910  0.695200  0.657890  1.0  0.6906
  C  C138  1  0.666810  0.762860  0.625270  1.0  -0.1625
  C  C139  1  0.684340  0.841520  0.620620  1.0  0.0339
  C  C140  1  0.732770  0.746700  0.599130  1.0  0.0311
  C  C141  1  0.887460  0.789860  0.537560  1.0  0.7187
  C  C142  1  0.817170  0.808700  0.566130  1.0  -0.1667
  C  C143  1  0.790570  0.989500  0.581530  1.0  0.7509
  C  C144  1  0.768500  0.904210  0.587690  1.0  -0.1751
  C  C145  1  0.833310  0.886300  0.561790  1.0  0.0354
  C  C146  1  0.921000  0.192800  0.667600  1.0  0.0653
  C  C147  1  0.004700  0.220000  0.656300  1.0  -0.1013
  C  C148  1  0.021300  0.242600  0.712900  1.0  -0.076
  N  N149  1  0.278730  0.490300  0.885990  1.0  -0.16
  N  N150  1  0.623710  0.509700  0.211570  1.0  -0.1587
  N  N151  1  0.788430  0.164720  0.721270  1.0  -0.1564
  N  N152  1  0.114010  0.835280  0.376290  1.0  -0.1633
  N  N153  1  0.721270  0.509700  0.114010  1.0  -0.1577
  N  N154  1  0.376290  0.490300  0.788430  1.0  -0.1575
  N  N155  1  0.211570  0.835280  0.278730  1.0  -0.1541
  N  N156  1  0.885990  0.164720  0.623710  1.0  -0.1649
  N  N157  1  0.343410  0.537180  0.806230  1.0  -0.0955
  N  N158  1  0.656590  0.462820  0.193770  1.0  -0.0951
  N  N159  1  0.806230  0.149640  0.656590  1.0  -0.0872
  N  N160  1  0.193770  0.850360  0.343410  1.0  -0.0883
  O  O161  1  0.846340  0.578830  0.871130  1.0  -0.4803
  O  O162  1  0.190790  0.800370  0.518780  1.0  -0.6321
  O  O163  1  0.271910  0.661490  0.733960  1.0  -0.6099
  O  O164  1  0.051300  0.757800  0.570700  1.0  -0.5978
  O  O165  1  0.166100  0.566300  0.864800  1.0  -0.6099
  O  O166  1  0.893820  0.540470  0.961650  1.0  -0.569
  O  O167  1  0.550040  0.421170  0.732490  1.0  -0.4766
  O  O168  1  0.680850  0.199630  0.609580  1.0  -0.6284
  O  O169  1  0.604550  0.338510  0.389580  1.0  -0.6107
  O  O170  1  0.671500  0.242200  0.706500  1.0  -0.599
  O  O171  1  0.568900  0.433700  0.400200  1.0  -0.61
  O  O172  1  0.497880  0.459530  0.646650  1.0  -0.5668
  O  O173  1  0.267510  0.717470  0.153660  1.0  -0.4736
  O  O174  1  0.390420  0.709570  0.809210  1.0  -0.6258
  O  O175  1  0.610420  0.005870  0.728090  1.0  -0.6083
  O  O176  1  0.293500  0.622000  0.948700  1.0  -0.6065
  O  O177  1  0.599800  0.030900  0.833900  1.0  -0.6078
  O  O178  1  0.353350  0.855470  0.106180  1.0  -0.5668
  O  O179  1  0.128870  0.282530  0.449960  1.0  -0.4748
  O  O180  1  0.481220  0.290430  0.319150  1.0  -0.6265
  O  O181  1  0.266040  0.994130  0.395450  1.0  -0.612
  O  O182  1  0.429300  0.378000  0.328500  1.0  -0.6013
  O  O183  1  0.135200  0.969100  0.431100  1.0  -0.6099
  O  O184  1  0.038350  0.144530  0.502120  1.0  -0.5677
  O  O185  1  0.153660  0.421170  0.128870  1.0  -0.4796
  O  O186  1  0.809210  0.199630  0.481220  1.0  -0.6304
  O  O187  1  0.728090  0.338510  0.266040  1.0  -0.6095
  O  O188  1  0.948700  0.242200  0.429300  1.0  -0.5967
  O  O189  1  0.833900  0.433700  0.135200  1.0  -0.6106
  O  O190  1  0.106180  0.459530  0.038350  1.0  -0.5688
  O  O191  1  0.449960  0.578830  0.267510  1.0  -0.4711
  O  O192  1  0.319150  0.800370  0.390420  1.0  -0.6254
  O  O193  1  0.395450  0.661490  0.610420  1.0  -0.6126
  O  O194  1  0.328500  0.757800  0.293500  1.0  -0.5989
  O  O195  1  0.431100  0.566300  0.599800  1.0  -0.6082
  O  O196  1  0.502120  0.540470  0.353350  1.0  -0.5677
  O  O197  1  0.732490  0.282530  0.846340  1.0  -0.4751
  O  O198  1  0.609580  0.290430  0.190790  1.0  -0.6229
  O  O199  1  0.389580  0.994130  0.271910  1.0  -0.6084
  O  O200  1  0.706500  0.378000  0.051300  1.0  -0.6059
  O  O201  1  0.400200  0.969100  0.166100  1.0  -0.6066
  O  O202  1  0.646650  0.144530  0.893820  1.0  -0.5677
  O  O203  1  0.871130  0.717470  0.550040  1.0  -0.4709
  O  O204  1  0.518780  0.709570  0.680850  1.0  -0.623
  O  O205  1  0.733960  0.005870  0.604550  1.0  -0.6122
  O  O206  1  0.570700  0.622000  0.671500  1.0  -0.6006
  O  O207  1  0.864800  0.030900  0.568900  1.0  -0.608
  O  O208  1  0.961650  0.855470  0.497880  1.0  -0.5682
  O  O209  1  0.443600  0.813700  0.629900  1.0  -0.2773
  O  O210  1  0.556400  0.186300  0.370100  1.0  -0.2769
  O  O211  1  0.629900  0.073500  0.556400  1.0  -0.2829
  O  O212  1  0.370100  0.926500  0.443600  1.0  -0.2838
