# generated using pymatgen
data_Cd3H10C24N3O13
_symmetry_space_group_name_H-M   'P 1'
_cell_length_a   21.52210000
_cell_length_b   21.52210000
_cell_length_c   25.33390000
_cell_angle_alpha   64.86400000
_cell_angle_beta   64.86400000
_cell_angle_gamma   60.00000000
_symmetry_Int_Tables_number   1
_chemical_formula_structural   Cd3H10C24N3O13
_chemical_formula_sum   'Cd18 H60 C144 N18 O78'
_cell_volume   8856.16314032
_cell_formula_units_Z   6
loop_
 _symmetry_equiv_pos_site_id
 _symmetry_equiv_pos_as_xyz
  1  'x, y, z'
loop_
 _atom_site_type_symbol
 _atom_site_label
 _atom_site_symmetry_multiplicity
 _atom_site_fract_x
 _atom_site_fract_y
 _atom_site_fract_z
 _atom_site_occupancy
 _atom_site_charge
  Cd  Cd1  1  0.337690  0.733310  0.413460  1.0  1.0786
  Cd  Cd2  1  0.217420  0.780090  0.552990  1.0  1.0666
  Cd  Cd3  1  0.367940  0.779790  0.775530  1.0  1.0815
  Cd  Cd4  1  0.733310  0.515540  0.413460  1.0  1.0788
  Cd  Cd5  1  0.780090  0.449500  0.552990  1.0  1.0685
  Cd  Cd6  1  0.779790  0.076740  0.775530  1.0  1.0831
  Cd  Cd7  1  0.515540  0.337690  0.413460  1.0  1.0788
  Cd  Cd8  1  0.449500  0.217420  0.552990  1.0  1.0692
  Cd  Cd9  1  0.076740  0.367940  0.775530  1.0  1.0814
  Cd  Cd10  1  0.837690  0.015540  0.913460  1.0  1.0787
  Cd  Cd11  1  0.717420  0.949500  0.052990  1.0  1.0668
  Cd  Cd12  1  0.867940  0.576740  0.275530  1.0  1.0813
  Cd  Cd13  1  0.233310  0.837690  0.913460  1.0  1.0789
  Cd  Cd14  1  0.280090  0.717420  0.052990  1.0  1.0688
  Cd  Cd15  1  0.279790  0.867940  0.275530  1.0  1.0828
  Cd  Cd16  1  0.015540  0.233310  0.913460  1.0  1.0788
  Cd  Cd17  1  0.949500  0.280090  0.052990  1.0  1.0686
  Cd  Cd18  1  0.576740  0.279790  0.275530  1.0  1.0831
  H  H19  1  0.363300  0.746100  0.600300  1.0  0.1284
  H  H20  1  0.556500  0.624800  0.645300  1.0  0.1315
  H  H21  1  0.544100  0.635200  0.486600  1.0  0.127
  H  H22  1  0.424500  0.524700  0.343500  1.0  0.1411
  H  H23  1  0.430000  0.517000  0.184800  1.0  0.1314
  H  H24  1  0.317300  0.716600  0.226200  1.0  0.1408
  H  H25  1  0.119100  0.029000  0.312000  1.0  0.1319
  H  H26  1  0.018600  0.113200  0.365400  1.0  0.1321
  H  H27  1  0.991300  0.081600  0.471000  1.0  0.1287
  H  H28  1  0.064500  0.966100  0.522900  1.0  0.1311
  H  H29  1  0.746100  0.290300  0.600300  1.0  0.127
  H  H30  1  0.624800  0.173400  0.645300  1.0  0.1311
  H  H31  1  0.635200  0.334100  0.486600  1.0  0.1249
  H  H32  1  0.524700  0.707300  0.343500  1.0  0.1362
  H  H33  1  0.517000  0.868200  0.184800  1.0  0.1314
  H  H34  1  0.716600  0.739900  0.226200  1.0  0.1405
  H  H35  1  0.029000  0.539900  0.312000  1.0  0.1319
  H  H36  1  0.113200  0.502800  0.365400  1.0  0.1308
  H  H37  1  0.081600  0.456100  0.471000  1.0  0.1287
  H  H38  1  0.966100  0.446500  0.522900  1.0  0.1311
  H  H39  1  0.290300  0.363300  0.600300  1.0  0.1279
  H  H40  1  0.173400  0.556500  0.645300  1.0  0.1315
  H  H41  1  0.334100  0.544100  0.486600  1.0  0.1247
  H  H42  1  0.707300  0.424500  0.343500  1.0  0.1396
  H  H43  1  0.868200  0.430000  0.184800  1.0  0.1309
  H  H44  1  0.739900  0.317300  0.226200  1.0  0.1412
  H  H45  1  0.539900  0.119100  0.312000  1.0  0.1321
  H  H46  1  0.502800  0.018600  0.365400  1.0  0.1313
  H  H47  1  0.456100  0.991300  0.471000  1.0  0.1291
  H  H48  1  0.446500  0.064500  0.522900  1.0  0.1318
  H  H49  1  0.863300  0.790300  0.100300  1.0  0.1277
  H  H50  1  0.056500  0.673400  0.145300  1.0  0.132
  H  H51  1  0.044100  0.834100  0.986600  1.0  0.1246
  H  H52  1  0.924500  0.207300  0.843500  1.0  0.1398
  H  H53  1  0.930000  0.368200  0.684800  1.0  0.1311
  H  H54  1  0.817300  0.239900  0.726200  1.0  0.1407
  H  H55  1  0.619100  0.039900  0.812000  1.0  0.1318
  H  H56  1  0.518600  0.002800  0.865400  1.0  0.1306
  H  H57  1  0.491300  0.956100  0.971000  1.0  0.1247
  H  H58  1  0.564500  0.946500  0.022900  1.0  0.1315
  H  H59  1  0.246100  0.863300  0.100300  1.0  0.1288
  H  H60  1  0.124800  0.056500  0.145300  1.0  0.1317
  H  H61  1  0.135200  0.044100  0.986600  1.0  0.1272
  H  H62  1  0.024700  0.924500  0.843500  1.0  0.1414
  H  H63  1  0.017000  0.930000  0.684800  1.0  0.1314
  H  H64  1  0.216600  0.817300  0.726200  1.0  0.1406
  H  H65  1  0.529000  0.619100  0.812000  1.0  0.1318
  H  H66  1  0.613200  0.518600  0.865400  1.0  0.1304
  H  H67  1  0.581600  0.491300  0.971000  1.0  0.1305
  H  H68  1  0.466100  0.564500  0.022900  1.0  0.1331
  H  H69  1  0.790300  0.246100  0.100300  1.0  0.1276
  H  H70  1  0.673400  0.124800  0.145300  1.0  0.1312
  H  H71  1  0.834100  0.135200  0.986600  1.0  0.1249
  H  H72  1  0.207300  0.024700  0.843500  1.0  0.1363
  H  H73  1  0.368200  0.017000  0.684800  1.0  0.1309
  H  H74  1  0.239900  0.216600  0.726200  1.0  0.1402
  H  H75  1  0.039900  0.529000  0.812000  1.0  0.1317
  H  H76  1  0.002800  0.613200  0.865400  1.0  0.1325
  H  H77  1  0.956100  0.581600  0.971000  1.0  0.1269
  H  H78  1  0.946500  0.466100  0.022900  1.0  0.1315
  C  C79  1  0.402830  0.715930  0.494910  1.0  0.7418
  C  C80  1  0.446990  0.693290  0.538230  1.0  -0.1175
  C  C81  1  0.414340  0.713540  0.591480  1.0  0.0349
  C  C82  1  0.453740  0.688040  0.631380  1.0  -0.1247
  C  C83  1  0.528740  0.640940  0.617880  1.0  0.0172
  C  C84  1  0.564990  0.616490  0.565230  1.0  -0.1002
  C  C85  1  0.521510  0.646910  0.524370  1.0  0.0218
  C  C86  1  0.420010  0.713210  0.687870  1.0  0.723
  C  C87  1  0.641010  0.566810  0.551370  1.0  0.6949
  C  C88  1  0.350370  0.672770  0.332490  1.0  0.7259
  C  C89  1  0.369910  0.626910  0.291270  1.0  -0.1155
  C  C90  1  0.412110  0.549710  0.305970  1.0  -0.0281
  C  C91  1  0.435850  0.509950  0.264750  1.0  -0.0876
  C  C92  1  0.413620  0.545020  0.212040  1.0  -0.0161
  C  C93  1  0.367560  0.620760  0.197820  1.0  -0.1507
  C  C94  1  0.346150  0.664450  0.236250  1.0  -0.0622
  C  C95  1  0.341600  0.657400  0.142800  1.0  0.671
  C  C96  1  0.482450  0.427150  0.279450  1.0  0.7364
  C  C97  1  0.135250  0.928950  0.448350  1.0  0.0812
  C  C98  1  0.151410  0.947610  0.385770  1.0  0.1109
  C  C99  1  0.108000  0.016200  0.354900  1.0  -0.0609
  C  C100  1  0.048330  0.066130  0.386610  1.0  -0.0627
  C  C101  1  0.032170  0.047470  0.449190  1.0  -0.0904
  C  C102  1  0.075580  0.978880  0.480060  1.0  -0.072
  C  C103  1  0.715930  0.386330  0.494910  1.0  0.7388
  C  C104  1  0.693290  0.321490  0.538230  1.0  -0.116
  C  C105  1  0.713540  0.280640  0.591480  1.0  0.0346
  C  C106  1  0.688040  0.226840  0.631380  1.0  -0.1232
  C  C107  1  0.640940  0.212440  0.617880  1.0  0.0216
  C  C108  1  0.616490  0.253290  0.565230  1.0  -0.1063
  C  C109  1  0.646910  0.307210  0.524370  1.0  0.0226
  C  C110  1  0.713210  0.178910  0.687870  1.0  0.7241
  C  C111  1  0.566810  0.240810  0.551370  1.0  0.6958
  C  C112  1  0.672770  0.644370  0.332490  1.0  0.7237
  C  C113  1  0.626910  0.711910  0.291270  1.0  -0.1153
  C  C114  1  0.549710  0.732210  0.305970  1.0  -0.0256
  C  C115  1  0.509950  0.789450  0.264750  1.0  -0.0904
  C  C116  1  0.545020  0.829320  0.212040  1.0  -0.0165
  C  C117  1  0.620760  0.813860  0.197820  1.0  -0.1497
  C  C118  1  0.664450  0.753150  0.236250  1.0  -0.0604
  C  C119  1  0.657400  0.858200  0.142800  1.0  0.6698
  C  C120  1  0.427150  0.810950  0.279450  1.0  0.7357
  C  C121  1  0.928950  0.487450  0.448350  1.0  0.0828
  C  C122  1  0.947610  0.515210  0.385770  1.0  0.111
  C  C123  1  0.016200  0.520900  0.354900  1.0  -0.0592
  C  C124  1  0.066130  0.498930  0.386610  1.0  -0.0547
  C  C125  1  0.047470  0.471170  0.449190  1.0  -0.0854
  C  C126  1  0.978880  0.465480  0.480060  1.0  -0.0633
  C  C127  1  0.386330  0.402830  0.494910  1.0  0.7394
  C  C128  1  0.321490  0.446990  0.538230  1.0  -0.1179
  C  C129  1  0.280640  0.414340  0.591480  1.0  0.0354
  C  C130  1  0.226840  0.453740  0.631380  1.0  -0.1236
  C  C131  1  0.212440  0.528740  0.617880  1.0  0.0185
  C  C132  1  0.253290  0.564990  0.565230  1.0  -0.1039
  C  C133  1  0.307210  0.521510  0.524370  1.0  0.0173
  C  C134  1  0.178910  0.420010  0.687870  1.0  0.7223
  C  C135  1  0.240810  0.641010  0.551370  1.0  0.7003
  C  C136  1  0.644370  0.350370  0.332490  1.0  0.7227
  C  C137  1  0.711910  0.369910  0.291270  1.0  -0.1159
  C  C138  1  0.732210  0.412110  0.305970  1.0  -0.0257
  C  C139  1  0.789450  0.435850  0.264750  1.0  -0.0911
  C  C140  1  0.829320  0.413620  0.212040  1.0  -0.0119
  C  C141  1  0.813860  0.367560  0.197820  1.0  -0.1513
  C  C142  1  0.753150  0.346150  0.236250  1.0  -0.061
  C  C143  1  0.858200  0.341600  0.142800  1.0  0.6709
  C  C144  1  0.810950  0.482450  0.279450  1.0  0.7373
  C  C145  1  0.487450  0.135250  0.448350  1.0  0.0791
  C  C146  1  0.515210  0.151410  0.385770  1.0  0.1111
  C  C147  1  0.520900  0.108000  0.354900  1.0  -0.0599
  C  C148  1  0.498930  0.048330  0.386610  1.0  -0.0601
  C  C149  1  0.471170  0.032170  0.449190  1.0  -0.0909
  C  C150  1  0.465480  0.075580  0.480060  1.0  -0.072
  C  C151  1  0.902830  0.886330  0.994910  1.0  0.7437
  C  C152  1  0.946990  0.821490  0.038230  1.0  -0.1174
  C  C153  1  0.914340  0.780640  0.091480  1.0  0.0356
  C  C154  1  0.953740  0.726840  0.131380  1.0  -0.1235
  C  C155  1  0.028740  0.712440  0.117880  1.0  0.0176
  C  C156  1  0.064990  0.753290  0.065230  1.0  -0.1053
  C  C157  1  0.021510  0.807210  0.024370  1.0  0.0177
  C  C158  1  0.920010  0.678910  0.187870  1.0  0.7219
  C  C159  1  0.141010  0.740810  0.051370  1.0  0.6944
  C  C160  1  0.850370  0.144370  0.832490  1.0  0.7236
  C  C161  1  0.869910  0.211910  0.791270  1.0  -0.1158
  C  C162  1  0.912110  0.232210  0.805970  1.0  -0.025
  C  C163  1  0.935850  0.289450  0.764750  1.0  -0.0908
  C  C164  1  0.913620  0.329320  0.712040  1.0  -0.0134
  C  C165  1  0.867560  0.313860  0.697820  1.0  -0.1505
  C  C166  1  0.846150  0.253150  0.736250  1.0  -0.0612
  C  C167  1  0.841600  0.358200  0.642800  1.0  0.6704
  C  C168  1  0.982450  0.310950  0.779450  1.0  0.7365
  C  C169  1  0.635250  0.987450  0.948350  1.0  0.0808
  C  C170  1  0.651410  0.015210  0.885770  1.0  0.112
  C  C171  1  0.608000  0.020900  0.854900  1.0  -0.0597
  C  C172  1  0.548330  0.998930  0.886610  1.0  -0.0606
  C  C173  1  0.532170  0.971170  0.949190  1.0  -0.0839
  C  C174  1  0.575580  0.965480  0.980060  1.0  -0.0793
  C  C175  1  0.215930  0.902830  0.994910  1.0  0.7412
  C  C176  1  0.193290  0.946990  0.038230  1.0  -0.119
  C  C177  1  0.213540  0.914340  0.091480  1.0  0.036
  C  C178  1  0.188040  0.953740  0.131380  1.0  -0.1249
  C  C179  1  0.140940  0.028740  0.117880  1.0  0.017
  C  C180  1  0.116490  0.064990  0.065230  1.0  -0.0992
  C  C181  1  0.146910  0.021510  0.024370  1.0  0.0202
  C  C182  1  0.213210  0.920010  0.187870  1.0  0.7221
  C  C183  1  0.066810  0.141010  0.051370  1.0  0.6982
  C  C184  1  0.172770  0.850370  0.832490  1.0  0.7248
  C  C185  1  0.126910  0.869910  0.791270  1.0  -0.1155
  C  C186  1  0.049710  0.912110  0.805970  1.0  -0.0289
  C  C187  1  0.009950  0.935850  0.764750  1.0  -0.0874
  C  C188  1  0.045020  0.913620  0.712040  1.0  -0.0175
  C  C189  1  0.120760  0.867560  0.697820  1.0  -0.151
  C  C190  1  0.164450  0.846150  0.736250  1.0  -0.0597
  C  C191  1  0.157400  0.841600  0.642800  1.0  0.6704
  C  C192  1  0.927150  0.982450  0.779450  1.0  0.7357
  C  C193  1  0.428950  0.635250  0.948350  1.0  0.0808
  C  C194  1  0.447610  0.651410  0.885770  1.0  0.1108
  C  C195  1  0.516200  0.608000  0.854900  1.0  -0.062
  C  C196  1  0.566130  0.548330  0.886610  1.0  -0.0595
  C  C197  1  0.547470  0.532170  0.949190  1.0  -0.0863
  C  C198  1  0.478880  0.575580  0.980060  1.0  -0.0629
  C  C199  1  0.886330  0.215930  0.994910  1.0  0.7399
  C  C200  1  0.821490  0.193290  0.038230  1.0  -0.1159
  C  C201  1  0.780640  0.213540  0.091480  1.0  0.0338
  C  C202  1  0.726840  0.188040  0.131380  1.0  -0.1236
  C  C203  1  0.712440  0.140940  0.117880  1.0  0.0213
  C  C204  1  0.753290  0.116490  0.065230  1.0  -0.1058
  C  C205  1  0.807210  0.146910  0.024370  1.0  0.023
  C  C206  1  0.678910  0.213210  0.187870  1.0  0.723
  C  C207  1  0.740810  0.066810  0.051370  1.0  0.7
  C  C208  1  0.144370  0.172770  0.832490  1.0  0.7238
  C  C209  1  0.211910  0.126910  0.791270  1.0  -0.1149
  C  C210  1  0.232210  0.049710  0.805970  1.0  -0.0257
  C  C211  1  0.289450  0.009950  0.764750  1.0  -0.0902
  C  C212  1  0.329320  0.045020  0.712040  1.0  -0.0157
  C  C213  1  0.313860  0.120760  0.697820  1.0  -0.1501
  C  C214  1  0.253150  0.164450  0.736250  1.0  -0.0607
  C  C215  1  0.358200  0.157400  0.642800  1.0  0.6712
  C  C216  1  0.310950  0.927150  0.779450  1.0  0.7368
  C  C217  1  0.987450  0.428950  0.948350  1.0  0.0837
  C  C218  1  0.015210  0.447610  0.885770  1.0  0.111
  C  C219  1  0.020900  0.516200  0.854900  1.0  -0.0612
  C  C220  1  0.998930  0.566130  0.886610  1.0  -0.0564
  C  C221  1  0.971170  0.547470  0.949190  1.0  -0.0956
  C  C222  1  0.965480  0.478880  0.980060  1.0  -0.0781
  N  N223  1  0.185120  0.855820  0.466440  1.0  -0.2365
  N  N224  1  0.230300  0.835200  0.417300  1.0  -0.015
  N  N225  1  0.206260  0.883760  0.367320  1.0  -0.2841
  N  N226  1  0.855820  0.492620  0.466440  1.0  -0.237
  N  N227  1  0.835200  0.517200  0.417300  1.0  -0.0156
  N  N228  1  0.883760  0.542660  0.367320  1.0  -0.2851
  N  N229  1  0.492620  0.185120  0.466440  1.0  -0.2369
  N  N230  1  0.517200  0.230300  0.417300  1.0  -0.0146
  N  N231  1  0.542660  0.206260  0.367320  1.0  -0.2846
  N  N232  1  0.685120  0.992620  0.966440  1.0  -0.2362
  N  N233  1  0.730300  0.017200  0.917300  1.0  -0.0167
  N  N234  1  0.706260  0.042660  0.867320  1.0  -0.2837
  N  N235  1  0.355820  0.685120  0.966440  1.0  -0.2367
  N  N236  1  0.335200  0.730300  0.917300  1.0  -0.0152
  N  N237  1  0.383760  0.706260  0.867320  1.0  -0.2842
  N  N238  1  0.992620  0.355820  0.966440  1.0  -0.2376
  N  N239  1  0.017200  0.335200  0.917300  1.0  -0.016
  N  N240  1  0.042660  0.383760  0.867320  1.0  -0.2846
  O  O241  1  0.339000  0.766100  0.502500  1.0  -0.6683
  O  O242  1  0.432390  0.683090  0.454830  1.0  -0.5292
  O  O243  1  0.363470  0.770470  0.690090  1.0  -0.5572
  O  O244  1  0.451330  0.675830  0.730110  1.0  -0.6098
  O  O245  1  0.673450  0.532150  0.592050  1.0  -0.5563
  O  O246  1  0.675170  0.552970  0.500790  1.0  -0.7245
  O  O247  1  0.385180  0.641080  0.371760  1.0  -0.5511
  O  O248  1  0.299340  0.736240  0.328380  1.0  -0.701
  O  O249  1  0.469050  0.389250  0.331950  1.0  -0.6458
  O  O250  1  0.532340  0.403940  0.234780  1.0  -0.5602
  O  O251  1  0.296380  0.721980  0.134460  1.0  -0.5711
  O  O252  1  0.353270  0.618570  0.113190  1.0  -0.557
  O  O253  1  0.482070  0.789170  0.747990  1.0  -0.246
  O  O254  1  0.766100  0.392400  0.502500  1.0  -0.6722
  O  O255  1  0.683090  0.429690  0.454830  1.0  -0.5397
  O  O256  1  0.770470  0.175970  0.690090  1.0  -0.5599
  O  O257  1  0.675830  0.142730  0.730110  1.0  -0.6325
  O  O258  1  0.532150  0.202350  0.592050  1.0  -0.5611
  O  O259  1  0.552970  0.271070  0.500790  1.0  -0.7239
  O  O260  1  0.641080  0.601980  0.371760  1.0  -0.5489
  O  O261  1  0.736240  0.636040  0.328380  1.0  -0.6964
  O  O262  1  0.389250  0.809750  0.331950  1.0  -0.6443
  O  O263  1  0.403940  0.828940  0.234780  1.0  -0.5574
  O  O264  1  0.721980  0.847180  0.134460  1.0  -0.5675
  O  O265  1  0.618570  0.914970  0.113190  1.0  -0.5547
  O  O266  1  0.789170  0.980770  0.747990  1.0  -0.2494
  O  O267  1  0.392400  0.339000  0.502500  1.0  -0.675
  O  O268  1  0.429690  0.432390  0.454830  1.0  -0.5291
  O  O269  1  0.175970  0.363470  0.690090  1.0  -0.5601
  O  O270  1  0.142730  0.451330  0.730110  1.0  -0.6136
  O  O271  1  0.202350  0.673450  0.592050  1.0  -0.5617
  O  O272  1  0.271070  0.675170  0.500790  1.0  -0.7243
  O  O273  1  0.601980  0.385180  0.371760  1.0  -0.5477
  O  O274  1  0.636040  0.299340  0.328380  1.0  -0.696
  O  O275  1  0.809750  0.469050  0.331950  1.0  -0.6446
  O  O276  1  0.828940  0.532340  0.234780  1.0  -0.557
  O  O277  1  0.847180  0.296380  0.134460  1.0  -0.5692
  O  O278  1  0.914970  0.353270  0.113190  1.0  -0.5537
  O  O279  1  0.980770  0.482070  0.747990  1.0  -0.2445
  O  O280  1  0.839000  0.892400  0.002500  1.0  -0.6716
  O  O281  1  0.932390  0.929690  0.954830  1.0  -0.5303
  O  O282  1  0.863470  0.675970  0.190090  1.0  -0.5582
  O  O283  1  0.951330  0.642730  0.230110  1.0  -0.6128
  O  O284  1  0.173450  0.702350  0.092050  1.0  -0.5614
  O  O285  1  0.175170  0.771070  0.000790  1.0  -0.7227
  O  O286  1  0.885180  0.101980  0.871760  1.0  -0.549
  O  O287  1  0.799340  0.136040  0.828380  1.0  -0.6959
  O  O288  1  0.969050  0.309750  0.831950  1.0  -0.6447
  O  O289  1  0.032340  0.328940  0.734780  1.0  -0.5573
  O  O290  1  0.796380  0.347180  0.634460  1.0  -0.5689
  O  O291  1  0.853270  0.414970  0.613190  1.0  -0.5535
  O  O292  1  0.982070  0.480770  0.247990  1.0  -0.2455
  O  O293  1  0.266100  0.839000  0.002500  1.0  -0.675
  O  O294  1  0.183090  0.932390  0.954830  1.0  -0.5283
  O  O295  1  0.270470  0.863470  0.190090  1.0  -0.5603
  O  O296  1  0.175830  0.951330  0.230110  1.0  -0.6096
  O  O297  1  0.032150  0.173450  0.092050  1.0  -0.5596
  O  O298  1  0.052970  0.175170  0.000790  1.0  -0.7255
  O  O299  1  0.141080  0.885180  0.871760  1.0  -0.5529
  O  O300  1  0.236240  0.799340  0.828380  1.0  -0.6956
  O  O301  1  0.889250  0.969050  0.831950  1.0  -0.6444
  O  O302  1  0.903940  0.032340  0.734780  1.0  -0.5597
  O  O303  1  0.221980  0.796380  0.634460  1.0  -0.5676
  O  O304  1  0.118570  0.853270  0.613190  1.0  -0.5563
  O  O305  1  0.289170  0.982070  0.247990  1.0  -0.2454
  O  O306  1  0.892400  0.266100  0.002500  1.0  -0.6707
  O  O307  1  0.929690  0.183090  0.954830  1.0  -0.5378
  O  O308  1  0.675970  0.270470  0.190090  1.0  -0.5575
  O  O309  1  0.642730  0.175830  0.230110  1.0  -0.633
  O  O310  1  0.702350  0.032150  0.092050  1.0  -0.5625
  O  O311  1  0.771070  0.052970  0.000790  1.0  -0.7246
  O  O312  1  0.101980  0.141080  0.871760  1.0  -0.5489
  O  O313  1  0.136040  0.236240  0.828380  1.0  -0.6999
  O  O314  1  0.309750  0.889250  0.831950  1.0  -0.6466
  O  O315  1  0.328940  0.903940  0.734780  1.0  -0.5556
  O  O316  1  0.347180  0.221980  0.634460  1.0  -0.5707
  O  O317  1  0.414970  0.118570  0.613190  1.0  -0.5529
  O  O318  1  0.480770  0.289170  0.247990  1.0  -0.2504
