# generated using pymatgen
data_Nd2H10WC20(N3O)4
_symmetry_space_group_name_H-M   'P 1'
_cell_length_a   10.92210000
_cell_length_b   19.26600000
_cell_length_c   19.45370000
_cell_angle_alpha   90.00000000
_cell_angle_beta   98.38500000
_cell_angle_gamma   90.00000000
_symmetry_Int_Tables_number   1
_chemical_formula_structural   Nd2H10WC20(N3O)4
_chemical_formula_sum   'Nd8 H40 W4 C80 N48 O16'
_cell_volume   4049.79049051
_cell_formula_units_Z   4
loop_
 _symmetry_equiv_pos_site_id
 _symmetry_equiv_pos_as_xyz
  1  'x, y, z'
loop_
 _atom_site_type_symbol
 _atom_site_label
 _atom_site_symmetry_multiplicity
 _atom_site_fract_x
 _atom_site_fract_y
 _atom_site_fract_z
 _atom_site_occupancy
 _atom_site_charge
  Nd  Nd1  1  0.584990  0.374860  0.857840  1.0  2.2512
  Nd  Nd2  1  0.049360  0.370880  0.701130  1.0  1.6363
  Nd  Nd3  1  0.415010  0.874860  0.642160  1.0  2.2509
  Nd  Nd4  1  0.950640  0.870880  0.798870  1.0  1.6352
  Nd  Nd5  1  0.415010  0.625140  0.142160  1.0  2.2508
  Nd  Nd6  1  0.950640  0.629120  0.298870  1.0  1.6353
  Nd  Nd7  1  0.584990  0.125140  0.357840  1.0  2.2512
  Nd  Nd8  1  0.049360  0.129120  0.201130  1.0  1.6365
  H  H9  1  0.675600  0.504900  0.992000  1.0  0.0962
  H  H10  1  0.016500  0.525600  0.884100  1.0  0.1007
  H  H11  1  0.871100  0.610000  0.081100  1.0  0.1398
  H  H12  1  0.726900  0.606900  0.055100  1.0  0.1378
  H  H13  1  0.810400  0.661000  0.021900  1.0  0.1445
  H  H14  1  0.597600  0.211500  0.951300  1.0  0.0992
  H  H15  1  0.203500  0.187700  0.842300  1.0  0.1083
  H  H16  1  0.447600  0.084600  0.023200  1.0  0.1327
  H  H17  1  0.582500  0.106500  0.010900  1.0  0.1284
  H  H18  1  0.508500  0.049800  0.962600  1.0  0.1175
  H  H19  1  0.324400  0.004900  0.508000  1.0  0.0963
  H  H20  1  0.983500  0.025600  0.615900  1.0  0.1013
  H  H21  1  0.128900  0.110000  0.418900  1.0  0.1404
  H  H22  1  0.273100  0.106900  0.444900  1.0  0.1366
  H  H23  1  0.189600  0.161000  0.478100  1.0  0.143
  H  H24  1  0.402400  0.711500  0.548700  1.0  0.1008
  H  H25  1  0.796500  0.687700  0.657700  1.0  0.1087
  H  H26  1  0.552400  0.584600  0.476800  1.0  0.132
  H  H27  1  0.417500  0.606500  0.489100  1.0  0.1264
  H  H28  1  0.491500  0.549800  0.537400  1.0  0.1167
  H  H29  1  0.324400  0.495100  0.008000  1.0  0.0964
  H  H30  1  0.983500  0.474400  0.115900  1.0  0.1014
  H  H31  1  0.128900  0.390000  0.918900  1.0  0.1402
  H  H32  1  0.273100  0.393100  0.944900  1.0  0.1367
  H  H33  1  0.189600  0.339000  0.978100  1.0  0.1433
  H  H34  1  0.402400  0.788500  0.048700  1.0  0.1008
  H  H35  1  0.796500  0.812300  0.157700  1.0  0.1087
  H  H36  1  0.552400  0.915400  0.976800  1.0  0.1321
  H  H37  1  0.417500  0.893500  0.989100  1.0  0.1267
  H  H38  1  0.491500  0.950200  0.037400  1.0  0.1161
  H  H39  1  0.675600  0.995100  0.492000  1.0  0.096
  H  H40  1  0.016500  0.974400  0.384100  1.0  0.1004
  H  H41  1  0.871100  0.890000  0.581100  1.0  0.1401
  H  H42  1  0.726900  0.893100  0.555100  1.0  0.1379
  H  H43  1  0.810400  0.839000  0.521900  1.0  0.143
  H  H44  1  0.597600  0.288500  0.451300  1.0  0.0995
  H  H45  1  0.203500  0.312300  0.342300  1.0  0.1083
  H  H46  1  0.447600  0.415400  0.523200  1.0  0.1325
  H  H47  1  0.582500  0.393500  0.510900  1.0  0.1277
  H  H48  1  0.508500  0.450200  0.462600  1.0  0.1173
  W  W49  1  0.461590  0.661780  0.853310  1.0  0.0887
  W  W50  1  0.538410  0.161780  0.646690  1.0  0.0944
  W  W51  1  0.538410  0.338220  0.146690  1.0  0.0928
  W  W52  1  0.461590  0.838220  0.353310  1.0  0.0973
  C  C53  1  0.744300  0.509200  0.968300  1.0  0.0949
  C  C54  1  0.828600  0.562400  0.987200  1.0  0.2154
  C  C55  1  0.945800  0.522500  0.906300  1.0  0.1657
  C  C56  1  0.859500  0.470400  0.886900  1.0  0.1194
  C  C57  1  0.807400  0.614700  0.041100  1.0  -0.4281
  C  C58  1  0.872300  0.420100  0.829400  1.0  0.7161
  C  C59  1  0.515500  0.207800  0.929100  1.0  0.1021
  C  C60  1  0.447700  0.148000  0.939800  1.0  0.2319
  C  C61  1  0.284600  0.192000  0.865900  1.0  0.1736
  C  C62  1  0.351000  0.252100  0.857500  1.0  0.1175
  C  C63  1  0.501200  0.092400  0.988300  1.0  -0.3908
  C  C64  1  0.296800  0.312200  0.815000  1.0  0.6991
  C  C65  1  0.480600  0.551600  0.868000  1.0  0.1761
  C  C66  1  0.536700  0.364100  0.039300  1.0  0.1715
  C  C67  1  0.558900  0.242800  0.722500  1.0  0.1832
  C  C68  1  0.645200  0.642900  0.828000  1.0  0.1388
  C  C69  1  0.272400  0.627300  0.836500  1.0  0.1865
  C  C70  1  0.431200  0.613800  0.750400  1.0  0.1428
  C  C71  1  0.350600  0.742000  0.894000  1.0  0.1394
  C  C72  1  0.591500  0.737200  0.905700  1.0  0.1713
  C  C73  1  0.255700  0.009200  0.531700  1.0  0.0939
  C  C74  1  0.171400  0.062400  0.512800  1.0  0.214
  C  C75  1  0.054200  0.022500  0.593700  1.0  0.1651
  C  C76  1  0.140500  0.970400  0.613100  1.0  0.1212
  C  C77  1  0.192600  0.114700  0.458900  1.0  -0.4276
  C  C78  1  0.127700  0.920100  0.670600  1.0  0.7183
  C  C79  1  0.484500  0.707800  0.570900  1.0  0.1028
  C  C80  1  0.552300  0.648000  0.560200  1.0  0.2315
  C  C81  1  0.715400  0.692000  0.634100  1.0  0.173
  C  C82  1  0.649000  0.752100  0.642500  1.0  0.115
  C  C83  1  0.498800  0.592400  0.511700  1.0  -0.3905
  C  C84  1  0.703200  0.812200  0.685000  1.0  0.6986
  C  C85  1  0.519400  0.051600  0.632000  1.0  0.1762
  C  C86  1  0.463300  0.864100  0.460700  1.0  0.1703
  C  C87  1  0.441100  0.742800  0.777500  1.0  0.1829
  C  C88  1  0.354800  0.142900  0.672000  1.0  0.1387
  C  C89  1  0.727600  0.127300  0.663500  1.0  0.1882
  C  C90  1  0.568800  0.113800  0.749600  1.0  0.1438
  C  C91  1  0.649400  0.242000  0.606000  1.0  0.1405
  C  C92  1  0.408500  0.237200  0.594300  1.0  0.1704
  C  C93  1  0.255700  0.490800  0.031700  1.0  0.0941
  C  C94  1  0.171400  0.437600  0.012800  1.0  0.2132
  C  C95  1  0.054200  0.477500  0.093700  1.0  0.1675
  C  C96  1  0.140500  0.529600  0.113100  1.0  0.1214
  C  C97  1  0.192600  0.385300  0.958900  1.0  -0.4276
  C  C98  1  0.127700  0.579900  0.170600  1.0  0.7154
  C  C99  1  0.484500  0.792200  0.070900  1.0  0.1034
  C  C100  1  0.552300  0.852000  0.060200  1.0  0.2319
  C  C101  1  0.715400  0.808000  0.134100  1.0  0.1718
  C  C102  1  0.649000  0.747900  0.142500  1.0  0.1153
  C  C103  1  0.498800  0.907600  0.011700  1.0  -0.3906
  C  C104  1  0.703200  0.687800  0.185000  1.0  0.6985
  C  C105  1  0.519400  0.448400  0.132000  1.0  0.1744
  C  C106  1  0.463300  0.635900  0.960700  1.0  0.1704
  C  C107  1  0.441100  0.757200  0.277500  1.0  0.1832
  C  C108  1  0.354800  0.357100  0.172000  1.0  0.1386
  C  C109  1  0.727600  0.372700  0.163500  1.0  0.1869
  C  C110  1  0.568800  0.386200  0.249600  1.0  0.1432
  C  C111  1  0.649400  0.258000  0.106000  1.0  0.1411
  C  C112  1  0.408500  0.262800  0.094300  1.0  0.1707
  C  C113  1  0.744300  0.990800  0.468300  1.0  0.0936
  C  C114  1  0.828600  0.937600  0.487200  1.0  0.2154
  C  C115  1  0.945800  0.977500  0.406300  1.0  0.1663
  C  C116  1  0.859500  0.029600  0.386900  1.0  0.1208
  C  C117  1  0.807400  0.885300  0.541100  1.0  -0.4277
  C  C118  1  0.872300  0.079900  0.329400  1.0  0.7162
  C  C119  1  0.515500  0.292200  0.429100  1.0  0.1022
  C  C120  1  0.447700  0.352000  0.439800  1.0  0.2321
  C  C121  1  0.284600  0.308000  0.365900  1.0  0.1725
  C  C122  1  0.351000  0.247900  0.357500  1.0  0.1173
  C  C123  1  0.501200  0.407600  0.488300  1.0  -0.3911
  C  C124  1  0.296800  0.187800  0.315000  1.0  0.6985
  C  C125  1  0.480600  0.948400  0.368000  1.0  0.175
  C  C126  1  0.536700  0.135900  0.539300  1.0  0.1715
  C  C127  1  0.558900  0.257200  0.222500  1.0  0.1836
  C  C128  1  0.645200  0.857100  0.328000  1.0  0.1388
  C  C129  1  0.272400  0.872700  0.336500  1.0  0.1856
  C  C130  1  0.431200  0.886200  0.250400  1.0  0.1432
  C  C131  1  0.350600  0.758000  0.394000  1.0  0.1393
  C  C132  1  0.591500  0.762800  0.405700  1.0  0.172
  N  N133  1  0.757100  0.463770  0.917660  1.0  -0.4717
  N  N134  1  0.929900  0.568400  0.956000  1.0  -0.4566
  N  N135  1  0.468000  0.259190  0.888860  1.0  -0.4446
  N  N136  1  0.333100  0.139900  0.906700  1.0  -0.4612
  N  N137  1  0.488700  0.492070  0.873340  1.0  -0.5015
  N  N138  1  0.544800  0.376890  0.982000  1.0  -0.4832
  N  N139  1  0.576600  0.286500  0.763100  1.0  -0.4855
  N  N140  1  0.742300  0.634400  0.812400  1.0  -0.4077
  N  N141  1  0.171000  0.607800  0.826700  1.0  -0.4697
  N  N142  1  0.414800  0.586000  0.697600  1.0  -0.4192
  N  N143  1  0.290000  0.782800  0.914900  1.0  -0.4253
  N  N144  1  0.661300  0.777900  0.931000  1.0  -0.4147
  N  N145  1  0.242900  0.963770  0.582340  1.0  -0.469
  N  N146  1  0.070100  0.068400  0.544000  1.0  -0.4562
  N  N147  1  0.532000  0.759190  0.611140  1.0  -0.4445
  N  N148  1  0.666900  0.639900  0.593300  1.0  -0.4591
  N  N149  1  0.511300  0.992070  0.626660  1.0  -0.5027
  N  N150  1  0.455200  0.876890  0.518000  1.0  -0.4826
  N  N151  1  0.423400  0.786500  0.736900  1.0  -0.4851
  N  N152  1  0.257700  0.134400  0.687600  1.0  -0.4078
  N  N153  1  0.829000  0.107800  0.673300  1.0  -0.4724
  N  N154  1  0.585200  0.086000  0.802400  1.0  -0.4192
  N  N155  1  0.710000  0.282800  0.585100  1.0  -0.4265
  N  N156  1  0.338700  0.277900  0.569000  1.0  -0.4137
  N  N157  1  0.242900  0.536230  0.082340  1.0  -0.4714
  N  N158  1  0.070100  0.431600  0.044000  1.0  -0.4539
  N  N159  1  0.532000  0.740810  0.111140  1.0  -0.4448
  N  N160  1  0.666900  0.860100  0.093300  1.0  -0.4596
  N  N161  1  0.511300  0.507930  0.126660  1.0  -0.5053
  N  N162  1  0.455200  0.623110  0.018000  1.0  -0.482
  N  N163  1  0.423400  0.713500  0.236900  1.0  -0.4846
  N  N164  1  0.257700  0.365600  0.187600  1.0  -0.408
  N  N165  1  0.829000  0.392200  0.173300  1.0  -0.4724
  N  N166  1  0.585200  0.414000  0.302400  1.0  -0.4201
  N  N167  1  0.710000  0.217200  0.085100  1.0  -0.4259
  N  N168  1  0.338700  0.222100  0.069000  1.0  -0.4124
  N  N169  1  0.757100  0.036230  0.417660  1.0  -0.4712
  N  N170  1  0.929900  0.931600  0.456000  1.0  -0.4538
  N  N171  1  0.468000  0.240810  0.388860  1.0  -0.4444
  N  N172  1  0.333100  0.360100  0.406700  1.0  -0.4596
  N  N173  1  0.488700  0.007930  0.373340  1.0  -0.504
  N  N174  1  0.544800  0.123110  0.482000  1.0  -0.4826
  N  N175  1  0.576600  0.213500  0.263100  1.0  -0.4852
  N  N176  1  0.742300  0.865600  0.312400  1.0  -0.4085
  N  N177  1  0.171000  0.892200  0.326700  1.0  -0.4701
  N  N178  1  0.414800  0.914000  0.197600  1.0  -0.4185
  N  N179  1  0.290000  0.717200  0.414900  1.0  -0.4246
  N  N180  1  0.661300  0.722100  0.431000  1.0  -0.4132
  O  O181  1  0.973300  0.418040  0.805840  1.0  -0.746
  O  O182  1  0.779400  0.383670  0.808020  1.0  -0.6769
  O  O183  1  0.188100  0.306590  0.783360  1.0  -0.7472
  O  O184  1  0.363700  0.365470  0.814370  1.0  -0.6993
  O  O185  1  0.026700  0.918040  0.694160  1.0  -0.7452
  O  O186  1  0.220600  0.883670  0.691980  1.0  -0.6798
  O  O187  1  0.811900  0.806590  0.716640  1.0  -0.7446
  O  O188  1  0.636300  0.865470  0.685630  1.0  -0.6985
  O  O189  1  0.026700  0.581960  0.194160  1.0  -0.7454
  O  O190  1  0.220600  0.616330  0.191980  1.0  -0.6797
  O  O191  1  0.811900  0.693410  0.216640  1.0  -0.7446
  O  O192  1  0.636300  0.634530  0.185630  1.0  -0.6996
  O  O193  1  0.973300  0.081960  0.305840  1.0  -0.746
  O  O194  1  0.779400  0.116330  0.308020  1.0  -0.6772
  O  O195  1  0.188100  0.193410  0.283360  1.0  -0.7474
  O  O196  1  0.363700  0.134530  0.314370  1.0  -0.7005
