# generated using pymatgen
data_Eu2H11WC20N12O5
_symmetry_space_group_name_H-M   'P 1'
_cell_length_a   10.87550000
_cell_length_b   19.12900000
_cell_length_c   19.37650000
_cell_angle_alpha   90.00000000
_cell_angle_beta   98.74500000
_cell_angle_gamma   90.00000000
_symmetry_Int_Tables_number   1
_chemical_formula_structural   Eu2H11WC20N12O5
_chemical_formula_sum   'Eu8 H44 W4 C80 N48 O20'
_cell_volume   3984.17575729
_cell_formula_units_Z   4
loop_
 _symmetry_equiv_pos_site_id
 _symmetry_equiv_pos_as_xyz
  1  'x, y, z'
loop_
 _atom_site_type_symbol
 _atom_site_label
 _atom_site_symmetry_multiplicity
 _atom_site_fract_x
 _atom_site_fract_y
 _atom_site_fract_z
 _atom_site_occupancy
 _atom_site_charge
  Eu  Eu1  1  0.414200  0.625170  0.142540  1.0  2.1257
  Eu  Eu2  1  0.951550  0.628650  0.297770  1.0  1.6214
  Eu  Eu3  1  0.585800  0.125170  0.357460  1.0  2.1273
  Eu  Eu4  1  0.048450  0.128650  0.202230  1.0  1.6247
  Eu  Eu5  1  0.585800  0.374830  0.857460  1.0  2.1273
  Eu  Eu6  1  0.048450  0.371350  0.702230  1.0  1.624
  Eu  Eu7  1  0.414200  0.874830  0.642540  1.0  2.1256
  Eu  Eu8  1  0.951550  0.871350  0.797770  1.0  1.6209
  H  H9  1  0.324800  0.497500  0.007500  1.0  0.0983
  H  H10  1  0.985100  0.474100  0.115800  1.0  0.101
  H  H11  1  0.117600  0.380500  0.924600  1.0  0.1437
  H  H12  1  0.259200  0.403000  0.932900  1.0  0.1445
  H  H13  1  0.217600  0.341800  0.979500  1.0  0.1503
  H  H14  1  0.398200  0.789100  0.050100  1.0  0.0969
  H  H15  1  0.796000  0.811600  0.159700  1.0  0.113
  H  H16  1  0.546900  0.914200  0.976400  1.0  0.1378
  H  H17  1  0.412100  0.895900  0.992500  1.0  0.1366
  H  H18  1  0.494800  0.951800  0.038700  1.0  0.1141
  H  H19  1  0.237500  0.688700  0.037700  1.0  0.4539
  H  H20  1  0.675200  0.997500  0.492500  1.0  0.0987
  H  H21  1  0.014900  0.974100  0.384200  1.0  0.1003
  H  H22  1  0.882400  0.880500  0.575400  1.0  0.1444
  H  H23  1  0.740800  0.903000  0.567100  1.0  0.1441
  H  H24  1  0.782400  0.841800  0.520500  1.0  0.1504
  H  H25  1  0.601800  0.289100  0.449900  1.0  0.0974
  H  H26  1  0.204000  0.311600  0.340300  1.0  0.1125
  H  H27  1  0.453100  0.414200  0.523600  1.0  0.1388
  H  H28  1  0.587900  0.395900  0.507500  1.0  0.1359
  H  H29  1  0.505200  0.451800  0.461300  1.0  0.1144
  H  H30  1  0.762500  0.188700  0.462300  1.0  0.4529
  H  H31  1  0.675200  0.502500  0.992500  1.0  0.0986
  H  H32  1  0.014900  0.525900  0.884200  1.0  0.1005
  H  H33  1  0.882400  0.619500  0.075400  1.0  0.145
  H  H34  1  0.740800  0.597000  0.067100  1.0  0.1437
  H  H35  1  0.782400  0.658200  0.020500  1.0  0.1504
  H  H36  1  0.601800  0.210900  0.949900  1.0  0.0978
  H  H37  1  0.204000  0.188400  0.840300  1.0  0.1123
  H  H38  1  0.453100  0.085800  0.023600  1.0  0.139
  H  H39  1  0.587900  0.104100  0.007500  1.0  0.136
  H  H40  1  0.505200  0.048200  0.961300  1.0  0.1145
  H  H41  1  0.762500  0.311300  0.962300  1.0  0.4531
  H  H42  1  0.324800  0.002500  0.507500  1.0  0.0982
  H  H43  1  0.985100  0.025900  0.615800  1.0  0.1009
  H  H44  1  0.117600  0.119500  0.424600  1.0  0.1451
  H  H45  1  0.259200  0.097000  0.432900  1.0  0.1444
  H  H46  1  0.217600  0.158200  0.479500  1.0  0.151
  H  H47  1  0.398200  0.710900  0.550100  1.0  0.0971
  H  H48  1  0.796000  0.688400  0.659700  1.0  0.1128
  H  H49  1  0.546900  0.585800  0.476400  1.0  0.1377
  H  H50  1  0.412100  0.604100  0.492500  1.0  0.1362
  H  H51  1  0.494800  0.548200  0.538700  1.0  0.1142
  H  H52  1  0.237500  0.811300  0.537700  1.0  0.4547
  W  W53  1  0.536980  0.337440  0.145450  1.0  0.1096
  W  W54  1  0.463020  0.837440  0.354550  1.0  0.1107
  W  W55  1  0.463020  0.662560  0.854550  1.0  0.109
  W  W56  1  0.536980  0.162560  0.645450  1.0  0.1178
  C  C57  1  0.256300  0.492460  0.031350  1.0  0.1076
  C  C58  1  0.172100  0.438420  0.012090  1.0  0.2097
  C  C59  1  0.055700  0.477520  0.093400  1.0  0.1779
  C  C60  1  0.141100  0.530110  0.113050  1.0  0.1585
  C  C61  1  0.193500  0.386300  0.957400  1.0  -0.4036
  C  C62  1  0.128200  0.580440  0.171180  1.0  0.7266
  C  C63  1  0.481200  0.792250  0.072200  1.0  0.0846
  C  C64  1  0.549800  0.851850  0.061570  1.0  0.2396
  C  C65  1  0.714600  0.807240  0.135560  1.0  0.1727
  C  C66  1  0.648000  0.747070  0.143550  1.0  0.1211
  C  C67  1  0.496200  0.908400  0.013100  1.0  -0.4047
  C  C68  1  0.702200  0.685920  0.185520  1.0  0.7006
  C  C69  1  0.516200  0.448470  0.130920  1.0  0.1854
  C  C70  1  0.462700  0.636340  0.962390  1.0  0.1775
  C  C71  1  0.442500  0.756000  0.278060  1.0  0.1933
  C  C72  1  0.353900  0.356300  0.171440  1.0  0.1467
  C  C73  1  0.726700  0.372210  0.163010  1.0  0.1958
  C  C74  1  0.567000  0.385870  0.248730  1.0  0.1549
  C  C75  1  0.648100  0.256690  0.105380  1.0  0.1785
  C  C76  1  0.404800  0.262350  0.091730  1.0  0.1722
  C  C77  1  0.743700  0.992460  0.468650  1.0  0.1081
  C  C78  1  0.827900  0.938420  0.487910  1.0  0.2121
  C  C79  1  0.944300  0.977520  0.406600  1.0  0.1768
  C  C80  1  0.858900  0.030110  0.386950  1.0  0.1572
  C  C81  1  0.806500  0.886300  0.542600  1.0  -0.404
  C  C82  1  0.871800  0.080440  0.328820  1.0  0.7256
  C  C83  1  0.518800  0.292250  0.427800  1.0  0.0835
  C  C84  1  0.450200  0.351850  0.438430  1.0  0.238
  C  C85  1  0.285400  0.307240  0.364440  1.0  0.1724
  C  C86  1  0.352000  0.247070  0.356450  1.0  0.1194
  C  C87  1  0.503800  0.408400  0.486900  1.0  -0.4051
  C  C88  1  0.297800  0.185920  0.314480  1.0  0.7016
  C  C89  1  0.483800  0.948470  0.369080  1.0  0.1858
  C  C90  1  0.537300  0.136340  0.537610  1.0  0.1779
  C  C91  1  0.557500  0.256000  0.221940  1.0  0.1942
  C  C92  1  0.646100  0.856300  0.328560  1.0  0.1466
  C  C93  1  0.273300  0.872210  0.336990  1.0  0.1952
  C  C94  1  0.433000  0.885870  0.251270  1.0  0.1555
  C  C95  1  0.351900  0.756690  0.394620  1.0  0.1786
  C  C96  1  0.595200  0.762350  0.408270  1.0  0.1722
  C  C97  1  0.743700  0.507540  0.968650  1.0  0.1086
  C  C98  1  0.827900  0.561580  0.987910  1.0  0.2126
  C  C99  1  0.944300  0.522480  0.906600  1.0  0.1763
  C  C100  1  0.858900  0.469890  0.886950  1.0  0.1569
  C  C101  1  0.806500  0.613700  0.042600  1.0  -0.4042
  C  C102  1  0.871800  0.419560  0.828820  1.0  0.7257
  C  C103  1  0.518800  0.207750  0.927800  1.0  0.0837
  C  C104  1  0.450200  0.148150  0.938430  1.0  0.2377
  C  C105  1  0.285400  0.192760  0.864440  1.0  0.1746
  C  C106  1  0.352000  0.252930  0.856450  1.0  0.1207
  C  C107  1  0.503800  0.091600  0.986900  1.0  -0.4049
  C  C108  1  0.297800  0.314080  0.814480  1.0  0.7017
  C  C109  1  0.483800  0.551530  0.869080  1.0  0.1865
  C  C110  1  0.537300  0.363660  0.037610  1.0  0.1781
  C  C111  1  0.557500  0.244000  0.721940  1.0  0.1939
  C  C112  1  0.646100  0.643700  0.828560  1.0  0.1475
  C  C113  1  0.273300  0.627790  0.836990  1.0  0.1943
  C  C114  1  0.433000  0.614130  0.751270  1.0  0.1548
  C  C115  1  0.351900  0.743310  0.894620  1.0  0.178
  C  C116  1  0.595200  0.737650  0.908270  1.0  0.1736
  C  C117  1  0.256300  0.007540  0.531350  1.0  0.1069
  C  C118  1  0.172100  0.061580  0.512090  1.0  0.2106
  C  C119  1  0.055700  0.022480  0.593400  1.0  0.175
  C  C120  1  0.141100  0.969890  0.613050  1.0  0.159
  C  C121  1  0.193500  0.113700  0.457400  1.0  -0.4035
  C  C122  1  0.128200  0.919560  0.671180  1.0  0.7278
  C  C123  1  0.481200  0.707750  0.572200  1.0  0.0848
  C  C124  1  0.549800  0.648150  0.561570  1.0  0.2391
  C  C125  1  0.714600  0.692760  0.635560  1.0  0.1741
  C  C126  1  0.648000  0.752930  0.643550  1.0  0.1213
  C  C127  1  0.496200  0.591600  0.513100  1.0  -0.4053
  C  C128  1  0.702200  0.814080  0.685520  1.0  0.7001
  C  C129  1  0.516200  0.051530  0.630920  1.0  0.1866
  C  C130  1  0.462700  0.863660  0.462390  1.0  0.1777
  C  C131  1  0.442500  0.744000  0.778060  1.0  0.1927
  C  C132  1  0.353900  0.143700  0.671440  1.0  0.1456
  C  C133  1  0.726700  0.127790  0.663010  1.0  0.196
  C  C134  1  0.567000  0.114130  0.748730  1.0  0.1551
  C  C135  1  0.648100  0.243310  0.605380  1.0  0.1765
  C  C136  1  0.404800  0.237650  0.591730  1.0  0.1732
  N  N137  1  0.243000  0.537390  0.082390  1.0  -0.47
  N  N138  1  0.070600  0.431390  0.043470  1.0  -0.4068
  N  N139  1  0.529200  0.740020  0.112410  1.0  -0.4427
  N  N140  1  0.665700  0.859780  0.094140  1.0  -0.4548
  N  N141  1  0.507400  0.508390  0.126430  1.0  -0.4742
  N  N142  1  0.453700  0.623660  0.019570  1.0  -0.4906
  N  N143  1  0.424700  0.712430  0.236680  1.0  -0.4393
  N  N144  1  0.256800  0.365060  0.187290  1.0  -0.4047
  N  N145  1  0.828100  0.392600  0.172780  1.0  -0.4811
  N  N146  1  0.581900  0.414230  0.301650  1.0  -0.4281
  N  N147  1  0.709600  0.215030  0.085120  1.0  -0.4254
  N  N148  1  0.333000  0.222390  0.066220  1.0  -0.417
  N  N149  1  0.757000  0.037390  0.417610  1.0  -0.4682
  N  N150  1  0.929400  0.931390  0.456530  1.0  -0.4067
  N  N151  1  0.470800  0.240020  0.387590  1.0  -0.442
  N  N152  1  0.334300  0.359780  0.405860  1.0  -0.4542
  N  N153  1  0.492600  0.008390  0.373570  1.0  -0.4738
  N  N154  1  0.546300  0.123660  0.480430  1.0  -0.4898
  N  N155  1  0.575300  0.212430  0.263320  1.0  -0.4405
  N  N156  1  0.743200  0.865060  0.312710  1.0  -0.4069
  N  N157  1  0.171900  0.892600  0.327220  1.0  -0.4803
  N  N158  1  0.418100  0.914230  0.198350  1.0  -0.4274
  N  N159  1  0.290400  0.715030  0.414880  1.0  -0.4238
  N  N160  1  0.667000  0.722390  0.433780  1.0  -0.4163
  N  N161  1  0.757000  0.462610  0.917610  1.0  -0.4696
  N  N162  1  0.929400  0.568610  0.956530  1.0  -0.4111
  N  N163  1  0.470800  0.259980  0.887590  1.0  -0.4411
  N  N164  1  0.334300  0.140220  0.905860  1.0  -0.4566
  N  N165  1  0.492600  0.491610  0.873570  1.0  -0.4732
  N  N166  1  0.546300  0.376340  0.980430  1.0  -0.4899
  N  N167  1  0.575300  0.287570  0.763320  1.0  -0.4422
  N  N168  1  0.743200  0.634940  0.812710  1.0  -0.4064
  N  N169  1  0.171900  0.607400  0.827220  1.0  -0.48
  N  N170  1  0.418100  0.585770  0.698350  1.0  -0.4286
  N  N171  1  0.290400  0.784970  0.914880  1.0  -0.4245
  N  N172  1  0.667000  0.777610  0.933780  1.0  -0.4166
  N  N173  1  0.243000  0.962610  0.582390  1.0  -0.4696
  N  N174  1  0.070600  0.068610  0.543470  1.0  -0.409
  N  N175  1  0.529200  0.759980  0.612410  1.0  -0.4422
  N  N176  1  0.665700  0.640220  0.594140  1.0  -0.4541
  N  N177  1  0.507400  0.991610  0.626430  1.0  -0.4726
  N  N178  1  0.453700  0.876340  0.519570  1.0  -0.4905
  N  N179  1  0.424700  0.787570  0.736680  1.0  -0.4418
  N  N180  1  0.256800  0.134940  0.687290  1.0  -0.4046
  N  N181  1  0.828100  0.107400  0.672780  1.0  -0.4813
  N  N182  1  0.581900  0.085770  0.801650  1.0  -0.4284
  N  N183  1  0.709600  0.284970  0.585120  1.0  -0.4265
  N  N184  1  0.333000  0.277610  0.566220  1.0  -0.4171
  O  O185  1  0.027200  0.582430  0.194680  1.0  -0.753
  O  O186  1  0.222200  0.617390  0.192150  1.0  -0.6788
  O  O187  1  0.812300  0.690980  0.216030  1.0  -0.7204
  O  O188  1  0.634500  0.632600  0.185700  1.0  -0.6902
  O  O189  1  0.254100  0.701920  0.078850  1.0  -0.6698
  O  O190  1  0.972800  0.082430  0.305320  1.0  -0.7513
  O  O191  1  0.777800  0.117390  0.307850  1.0  -0.6792
  O  O192  1  0.187700  0.190980  0.283970  1.0  -0.7202
  O  O193  1  0.365500  0.132600  0.314300  1.0  -0.6908
  O  O194  1  0.745900  0.201920  0.421150  1.0  -0.6663
  O  O195  1  0.972800  0.417570  0.805320  1.0  -0.751
  O  O196  1  0.777800  0.382610  0.807850  1.0  -0.6783
  O  O197  1  0.187700  0.309020  0.783970  1.0  -0.7201
  O  O198  1  0.365500  0.367400  0.814300  1.0  -0.6922
  O  O199  1  0.745900  0.298080  0.921150  1.0  -0.668
  O  O200  1  0.027200  0.917570  0.694680  1.0  -0.7537
  O  O201  1  0.222200  0.882610  0.692150  1.0  -0.6786
  O  O202  1  0.812300  0.809020  0.716030  1.0  -0.7204
  O  O203  1  0.634500  0.867400  0.685700  1.0  -0.69
  O  O204  1  0.254100  0.798080  0.578850  1.0  -0.6691
