# generated using pymatgen
data_Dy4H11(CO)24
_symmetry_space_group_name_H-M   'P 1'
_cell_length_a   8.46200000
_cell_length_b   9.72100000
_cell_length_c   17.26600000
_cell_angle_alpha   90.00000000
_cell_angle_beta   90.00000000
_cell_angle_gamma   112.17000000
_symmetry_Int_Tables_number   1
_chemical_formula_structural   Dy4H11(CO)24
_chemical_formula_sum   'Dy4 H11 C24 O24'
_cell_volume   1315.28151486
_cell_formula_units_Z   1
loop_
 _symmetry_equiv_pos_site_id
 _symmetry_equiv_pos_as_xyz
  1  'x, y, z'
loop_
 _atom_site_type_symbol
 _atom_site_label
 _atom_site_symmetry_multiplicity
 _atom_site_fract_x
 _atom_site_fract_y
 _atom_site_fract_z
 _atom_site_occupancy
 _atom_site_charge
  Dy  Dy1  1  0.843530  0.524700  0.742220  1.0  2.244
  Dy  Dy2  1  0.156470  0.975300  0.242220  1.0  2.2447
  Dy  Dy3  1  0.156470  0.475300  0.257780  1.0  2.2432
  Dy  Dy4  1  0.843530  0.024700  0.757780  1.0  2.2489
  H  H5  1  0.879650  0.581840  0.028390  1.0  0.099
  H  H6  1  0.410750  0.912430  0.766140  1.0  0.082
  H  H7  1  0.286600  0.158260  0.826540  1.0  0.1017
  H  H8  1  0.120350  0.918160  0.528390  1.0  0.1026
  H  H9  1  0.589250  0.587570  0.266140  1.0  0.0821
  H  H10  1  0.713400  0.341740  0.326540  1.0  0.1015
  H  H11  1  0.120350  0.418160  0.971610  1.0  0.1005
  H  H12  1  0.589250  0.087570  0.233860  1.0  0.0859
  H  H13  1  0.713400  0.841740  0.173460  1.0  0.1026
  H  H14  1  0.410750  0.412430  0.733860  1.0  0.0817
  H  H15  1  0.286600  0.658260  0.673460  1.0  0.1051
  C  C16  1  0.905000  0.524000  0.902100  1.0  0.6744
  C  C17  1  0.944000  0.529000  0.986300  1.0  -0.1704
  C  C18  1  0.130000  0.867000  0.787500  1.0  0.7835
  C  C19  1  0.314000  0.962000  0.784400  1.0  -0.2141
  C  C20  1  0.375000  0.105000  0.802000  1.0  -0.2223
  C  C21  1  0.560000  0.201000  0.790500  1.0  0.7386
  C  C22  1  0.095000  0.976000  0.402100  1.0  0.6304
  C  C23  1  0.056000  0.971000  0.486300  1.0  0.0276
  C  C24  1  0.870000  0.633000  0.287500  1.0  0.7863
  C  C25  1  0.686000  0.538000  0.284400  1.0  -0.2112
  C  C26  1  0.625000  0.395000  0.302000  1.0  -0.2223
  C  C27  1  0.440000  0.299000  0.290500  1.0  0.7369
  C  C28  1  0.095000  0.476000  0.097900  1.0  0.673
  C  C29  1  0.056000  0.471000  0.013700  1.0  -0.1718
  C  C30  1  0.870000  0.133000  0.212500  1.0  0.774
  C  C31  1  0.686000  0.038000  0.215600  1.0  -0.1942
  C  C32  1  0.625000  0.895000  0.198000  1.0  -0.2246
  C  C33  1  0.440000  0.799000  0.209500  1.0  0.7364
  C  C34  1  0.905000  0.024000  0.597900  1.0  0.6695
  C  C35  1  0.944000  0.029000  0.513700  1.0  -0.0253
  C  C36  1  0.130000  0.367000  0.712500  1.0  0.7664
  C  C37  1  0.314000  0.462000  0.715600  1.0  -0.2101
  C  C38  1  0.375000  0.605000  0.698000  1.0  -0.2206
  C  C39  1  0.560000  0.701000  0.709500  1.0  0.7376
  O  O40  1  0.963000  0.453700  0.855600  1.0  -0.6208
  O  O41  1  0.813000  0.591400  0.878100  1.0  -0.648
  O  O42  1  0.090000  0.733000  0.769200  1.0  -0.7245
  O  O43  1  0.025100  0.924100  0.806100  1.0  -0.7599
  O  O44  1  0.661000  0.143000  0.771000  1.0  -0.7402
  O  O45  1  0.601000  0.338300  0.797900  1.0  -0.667
  O  O46  1  0.037000  0.046300  0.355600  1.0  -0.648
  O  O47  1  0.187000  0.908600  0.378100  1.0  -0.634
  O  O48  1  0.910000  0.767000  0.269200  1.0  -0.7273
  O  O49  1  0.974900  0.575900  0.306100  1.0  -0.7573
  O  O50  1  0.339000  0.357000  0.271000  1.0  -0.7526
  O  O51  1  0.399000  0.161700  0.297900  1.0  -0.6587
  O  O52  1  0.037000  0.546300  0.144400  1.0  -0.6298
  O  O53  1  0.187000  0.408600  0.121900  1.0  -0.6512
  O  O54  1  0.910000  0.267000  0.230800  1.0  -0.731
  O  O55  1  0.974900  0.075900  0.193900  1.0  -0.7606
  O  O56  1  0.339000  0.857000  0.229000  1.0  -0.7466
  O  O57  1  0.399000  0.661700  0.202100  1.0  -0.6661
  O  O58  1  0.963000  0.953700  0.644400  1.0  -0.608
  O  O59  1  0.813000  0.091400  0.621900  1.0  -0.6573
  O  O60  1  0.090000  0.233000  0.730800  1.0  -0.7238
  O  O61  1  0.025100  0.424100  0.693900  1.0  -0.757
  O  O62  1  0.661000  0.643000  0.729000  1.0  -0.7401
  O  O63  1  0.601000  0.838300  0.702100  1.0  -0.6633
