# generated using pymatgen
data_Al3Zn(PO4)4
_symmetry_space_group_name_H-M   'P 1'
_cell_length_a   14.22600000
_cell_length_b   15.11700000
_cell_length_c   17.55700000
_cell_angle_alpha   90.00000000
_cell_angle_beta   90.00000000
_cell_angle_gamma   90.00000000
_symmetry_Int_Tables_number   1
_chemical_formula_structural   Al3Zn(PO4)4
_chemical_formula_sum   'Al24 Zn8 P32 O128'
_cell_volume   3775.71083819
_cell_formula_units_Z   8
loop_
 _symmetry_equiv_pos_site_id
 _symmetry_equiv_pos_as_xyz
  1  'x, y, z'
loop_
 _atom_site_type_symbol
 _atom_site_label
 _atom_site_symmetry_multiplicity
 _atom_site_fract_x
 _atom_site_fract_y
 _atom_site_fract_z
 _atom_site_occupancy
 _atom_site_charge
  Al  Al1  1  0.944700  0.402200  0.437700  1.0  2.0396
  Al  Al2  1  0.076600  0.104500  0.430600  1.0  2.0439
  Al  Al3  1  0.711100  0.659700  0.462200  1.0  2.0461
  Al  Al4  1  0.555300  0.597800  0.937700  1.0  2.0397
  Al  Al5  1  0.423400  0.895500  0.930600  1.0  2.0422
  Al  Al6  1  0.788900  0.340300  0.962200  1.0  2.0451
  Al  Al7  1  0.055300  0.902200  0.062300  1.0  2.0407
  Al  Al8  1  0.923400  0.604500  0.069400  1.0  2.0408
  Al  Al9  1  0.288900  0.159700  0.037800  1.0  2.0458
  Al  Al10  1  0.444700  0.097800  0.562300  1.0  2.0407
  Al  Al11  1  0.576600  0.395500  0.569400  1.0  2.0416
  Al  Al12  1  0.211100  0.840300  0.537800  1.0  2.0458
  Al  Al13  1  0.055300  0.597800  0.562300  1.0  2.0412
  Al  Al14  1  0.923400  0.895500  0.569400  1.0  2.0409
  Al  Al15  1  0.288900  0.340300  0.537800  1.0  2.0453
  Al  Al16  1  0.444700  0.402200  0.062300  1.0  2.0411
  Al  Al17  1  0.576600  0.104500  0.069400  1.0  2.0425
  Al  Al18  1  0.211100  0.659700  0.037800  1.0  2.0462
  Al  Al19  1  0.944700  0.097800  0.937700  1.0  2.04
  Al  Al20  1  0.076600  0.395500  0.930600  1.0  2.0417
  Al  Al21  1  0.711100  0.840300  0.962200  1.0  2.0447
  Al  Al22  1  0.555300  0.902200  0.437700  1.0  2.0402
  Al  Al23  1  0.423400  0.604500  0.430600  1.0  2.0407
  Al  Al24  1  0.788900  0.159700  0.462200  1.0  2.0445
  Zn  Zn25  1  0.053200  0.724200  0.341000  1.0  1.1704
  Zn  Zn26  1  0.446800  0.275800  0.841000  1.0  1.1698
  Zn  Zn27  1  0.946800  0.224200  0.159000  1.0  1.1705
  Zn  Zn28  1  0.553200  0.775800  0.659000  1.0  1.1714
  Zn  Zn29  1  0.946800  0.275800  0.659000  1.0  1.1706
  Zn  Zn30  1  0.553200  0.724200  0.159000  1.0  1.1713
  Zn  Zn31  1  0.053200  0.775800  0.841000  1.0  1.1704
  Zn  Zn32  1  0.446800  0.224200  0.341000  1.0  1.1696
  P  P33  1  0.050100  0.904800  0.426200  1.0  1.8216
  P  P34  1  0.915000  0.600200  0.425000  1.0  1.8548
  P  P35  1  0.060800  0.729300  0.158800  1.0  1.9721
  P  P36  1  0.214800  0.660800  0.450600  1.0  2.0191
  P  P37  1  0.449900  0.095200  0.926200  1.0  1.8217
  P  P38  1  0.585000  0.399800  0.925000  1.0  1.8547
  P  P39  1  0.439200  0.270700  0.658800  1.0  1.9722
  P  P40  1  0.285200  0.339200  0.950600  1.0  2.0167
  P  P41  1  0.949900  0.404800  0.073800  1.0  1.8219
  P  P42  1  0.085000  0.100200  0.075000  1.0  1.855
  P  P43  1  0.939200  0.229300  0.341200  1.0  1.9718
  P  P44  1  0.785200  0.160800  0.049400  1.0  2.0339
  P  P45  1  0.550100  0.595200  0.573800  1.0  1.8218
  P  P46  1  0.415000  0.899800  0.575000  1.0  1.855
  P  P47  1  0.560800  0.770700  0.841200  1.0  1.9722
  P  P48  1  0.714800  0.839200  0.549400  1.0  2.0355
  P  P49  1  0.949900  0.095200  0.573800  1.0  1.8206
  P  P50  1  0.085000  0.399800  0.575000  1.0  1.8513
  P  P51  1  0.939200  0.270700  0.841200  1.0  1.9719
  P  P52  1  0.785200  0.339200  0.549400  1.0  2.0309
  P  P53  1  0.550100  0.904800  0.073800  1.0  1.8205
  P  P54  1  0.415000  0.600200  0.075000  1.0  1.8517
  P  P55  1  0.560800  0.729300  0.341200  1.0  1.9721
  P  P56  1  0.714800  0.660800  0.049400  1.0  2.0328
  P  P57  1  0.050100  0.595200  0.926200  1.0  1.8216
  P  P58  1  0.915000  0.899800  0.925000  1.0  1.8511
  P  P59  1  0.060800  0.770700  0.658800  1.0  1.9723
  P  P60  1  0.214800  0.839200  0.950600  1.0  2.0354
  P  P61  1  0.449900  0.404800  0.426200  1.0  1.8216
  P  P62  1  0.585000  0.100200  0.425000  1.0  1.8512
  P  P63  1  0.439200  0.229300  0.158800  1.0  1.9719
  P  P64  1  0.285200  0.160800  0.450600  1.0  2.0338
  O  O65  1  0.043200  0.000100  0.397500  1.0  -0.8722
  O  O66  1  0.944700  0.508400  0.399400  1.0  -0.8426
  O  O67  1  0.052300  0.839400  0.357000  1.0  -0.877
  O  O68  1  0.055800  0.828500  0.137100  1.0  -0.9282
  O  O69  1  0.950600  0.670300  0.370300  1.0  -0.9267
  O  O70  1  0.972100  0.683100  0.129100  1.0  -0.9576
  O  O71  1  0.303000  0.606300  0.427000  1.0  -0.945
  O  O72  1  0.806300  0.605300  0.435100  1.0  -0.9539
  O  O73  1  0.957300  0.616800  0.504900  1.0  -0.9691
  O  O74  1  0.964100  0.882600  0.475300  1.0  -0.9465
  O  O75  1  0.161700  0.605800  0.510200  1.0  -0.9428
  O  O76  1  0.072200  0.715800  0.242600  1.0  -0.9305
  O  O77  1  0.151400  0.671500  0.381700  1.0  -0.9801
  O  O78  1  0.247300  0.746300  0.486400  1.0  -0.9405
  O  O79  1  0.139700  0.899800  0.477000  1.0  -0.9979
  O  O80  1  0.149600  0.693600  0.118100  1.0  -0.9608
  O  O81  1  0.456800  0.999900  0.897500  1.0  -0.8721
  O  O82  1  0.555300  0.491600  0.899400  1.0  -0.8437
  O  O83  1  0.447700  0.160600  0.857000  1.0  -0.8768
  O  O84  1  0.444200  0.171500  0.637100  1.0  -0.9275
  O  O85  1  0.549400  0.329700  0.870300  1.0  -0.9262
  O  O86  1  0.527900  0.316900  0.629100  1.0  -0.957
  O  O87  1  0.197000  0.393700  0.927000  1.0  -0.944
  O  O88  1  0.693700  0.394700  0.935100  1.0  -0.9539
  O  O89  1  0.542700  0.383200  0.004900  1.0  -0.9691
  O  O90  1  0.535900  0.117400  0.975300  1.0  -0.9469
  O  O91  1  0.338300  0.394200  0.010200  1.0  -0.944
  O  O92  1  0.427800  0.284200  0.742600  1.0  -0.932
  O  O93  1  0.348600  0.328500  0.881700  1.0  -0.981
  O  O94  1  0.252700  0.253700  0.986400  1.0  -0.941
  O  O95  1  0.360300  0.100200  0.977000  1.0  -0.9985
  O  O96  1  0.350400  0.306400  0.618100  1.0  -0.9613
  O  O97  1  0.956800  0.500100  0.102500  1.0  -0.8748
  O  O98  1  0.055300  0.008400  0.100600  1.0  -0.8458
  O  O99  1  0.947700  0.339400  0.143000  1.0  -0.8785
  O  O100  1  0.944200  0.328500  0.362900  1.0  -0.9256
  O  O101  1  0.049400  0.170300  0.129700  1.0  -0.9275
  O  O102  1  0.027900  0.183100  0.370900  1.0  -0.9584
  O  O103  1  0.697000  0.106300  0.073000  1.0  -0.9447
  O  O104  1  0.193700  0.105300  0.064900  1.0  -0.9536
  O  O105  1  0.042700  0.116800  0.995100  1.0  -0.9666
  O  O106  1  0.035900  0.382600  0.024700  1.0  -0.9476
  O  O107  1  0.838300  0.105800  0.989800  1.0  -0.9435
  O  O108  1  0.927800  0.215800  0.257400  1.0  -0.9313
  O  O109  1  0.848600  0.171500  0.118300  1.0  -0.9813
  O  O110  1  0.752700  0.246300  0.013600  1.0  -0.9405
  O  O111  1  0.860300  0.399800  0.023000  1.0  -0.9996
  O  O112  1  0.850400  0.193600  0.381900  1.0  -0.9604
  O  O113  1  0.543200  0.499900  0.602500  1.0  -0.8751
  O  O114  1  0.444700  0.991600  0.600600  1.0  -0.8456
  O  O115  1  0.552300  0.660600  0.643000  1.0  -0.8789
  O  O116  1  0.555800  0.671500  0.862900  1.0  -0.9255
  O  O117  1  0.450600  0.829700  0.629700  1.0  -0.9285
  O  O118  1  0.472100  0.816900  0.870900  1.0  -0.9596
  O  O119  1  0.803000  0.893700  0.573000  1.0  -0.9441
  O  O120  1  0.306300  0.894700  0.564900  1.0  -0.9543
  O  O121  1  0.457300  0.883200  0.495100  1.0  -0.9667
  O  O122  1  0.464100  0.617400  0.524700  1.0  -0.9473
  O  O123  1  0.661700  0.894200  0.489800  1.0  -0.9424
  O  O124  1  0.572200  0.784200  0.757400  1.0  -0.9298
  O  O125  1  0.651400  0.828500  0.618300  1.0  -0.9808
  O  O126  1  0.747300  0.753700  0.513600  1.0  -0.9398
  O  O127  1  0.639700  0.600200  0.523000  1.0  -0.9988
  O  O128  1  0.649600  0.806400  0.881900  1.0  -0.9602
  O  O129  1  0.956800  0.999900  0.602500  1.0  -0.8747
  O  O130  1  0.055300  0.491600  0.600600  1.0  -0.8459
  O  O131  1  0.947700  0.160600  0.643000  1.0  -0.8785
  O  O132  1  0.944200  0.171500  0.862900  1.0  -0.9267
  O  O133  1  0.049400  0.329700  0.629700  1.0  -0.9274
  O  O134  1  0.027900  0.316900  0.870900  1.0  -0.9591
  O  O135  1  0.697000  0.393700  0.573000  1.0  -0.9442
  O  O136  1  0.193700  0.394700  0.564900  1.0  -0.9517
  O  O137  1  0.042700  0.383200  0.495100  1.0  -0.9658
  O  O138  1  0.035900  0.117400  0.524700  1.0  -0.9477
  O  O139  1  0.838300  0.394200  0.489800  1.0  -0.9437
  O  O140  1  0.927800  0.284200  0.757400  1.0  -0.9313
  O  O141  1  0.848600  0.328500  0.618300  1.0  -0.9821
  O  O142  1  0.752700  0.253700  0.513600  1.0  -0.9404
  O  O143  1  0.860300  0.100200  0.523000  1.0  -0.9992
  O  O144  1  0.850400  0.306400  0.881900  1.0  -0.9591
  O  O145  1  0.543200  0.000100  0.102500  1.0  -0.8751
  O  O146  1  0.444700  0.508400  0.100600  1.0  -0.8455
  O  O147  1  0.552300  0.839400  0.143000  1.0  -0.8789
  O  O148  1  0.555800  0.828500  0.362900  1.0  -0.927
  O  O149  1  0.450600  0.670300  0.129700  1.0  -0.9289
  O  O150  1  0.472100  0.683100  0.370900  1.0  -0.9603
  O  O151  1  0.803000  0.606300  0.073000  1.0  -0.9449
  O  O152  1  0.306300  0.605300  0.064900  1.0  -0.9519
  O  O153  1  0.457300  0.616800  0.995100  1.0  -0.9657
  O  O154  1  0.464100  0.882600  0.024700  1.0  -0.9468
  O  O155  1  0.661700  0.605800  0.989800  1.0  -0.9429
  O  O156  1  0.572200  0.715800  0.257400  1.0  -0.9297
  O  O157  1  0.651400  0.671500  0.118300  1.0  -0.9803
  O  O158  1  0.747300  0.746300  0.013600  1.0  -0.9401
  O  O159  1  0.639700  0.899800  0.023000  1.0  -0.9987
  O  O160  1  0.649600  0.693600  0.381900  1.0  -0.959
  O  O161  1  0.043200  0.499900  0.897500  1.0  -0.8716
  O  O162  1  0.944700  0.991600  0.899400  1.0  -0.8431
  O  O163  1  0.052300  0.660600  0.857000  1.0  -0.877
  O  O164  1  0.055800  0.671500  0.637100  1.0  -0.9276
  O  O165  1  0.950600  0.829700  0.870300  1.0  -0.927
  O  O166  1  0.972100  0.816900  0.629100  1.0  -0.9577
  O  O167  1  0.303000  0.893700  0.927000  1.0  -0.9436
  O  O168  1  0.806300  0.894700  0.935100  1.0  -0.9519
  O  O169  1  0.957300  0.883200  0.004900  1.0  -0.9685
  O  O170  1  0.964100  0.617400  0.975300  1.0  -0.9471
  O  O171  1  0.161700  0.894200  0.010200  1.0  -0.9427
  O  O172  1  0.072200  0.784200  0.742600  1.0  -0.9307
  O  O173  1  0.151400  0.828500  0.881700  1.0  -0.9805
  O  O174  1  0.247300  0.753700  0.986400  1.0  -0.9401
  O  O175  1  0.139700  0.600200  0.977000  1.0  -0.9981
  O  O176  1  0.149600  0.806400  0.618100  1.0  -0.9604
  O  O177  1  0.456800  0.500100  0.397500  1.0  -0.8713
  O  O178  1  0.555300  0.008400  0.399400  1.0  -0.8432
  O  O179  1  0.447700  0.339400  0.357000  1.0  -0.8768
  O  O180  1  0.444200  0.328500  0.137100  1.0  -0.928
  O  O181  1  0.549400  0.170300  0.370300  1.0  -0.9258
  O  O182  1  0.527900  0.183100  0.129100  1.0  -0.9571
  O  O183  1  0.197000  0.106300  0.427000  1.0  -0.945
  O  O184  1  0.693700  0.105300  0.435100  1.0  -0.9515
  O  O185  1  0.542700  0.116800  0.504900  1.0  -0.9684
  O  O186  1  0.535900  0.382600  0.475300  1.0  -0.9476
  O  O187  1  0.338300  0.105800  0.510200  1.0  -0.9435
  O  O188  1  0.427800  0.215800  0.242600  1.0  -0.932
  O  O189  1  0.348600  0.171500  0.381700  1.0  -0.9806
  O  O190  1  0.252700  0.246300  0.486400  1.0  -0.9408
  O  O191  1  0.360300  0.399800  0.477000  1.0  -0.9989
  O  O192  1  0.350400  0.193600  0.118100  1.0  -0.9608
