# generated using pymatgen
data_Cu3H28C40N8Cl
_symmetry_space_group_name_H-M   'P 1'
_cell_length_a   19.74800000
_cell_length_b   17.49400000
_cell_length_c   22.16000000
_cell_angle_alpha   90.00000000
_cell_angle_beta   109.83000000
_cell_angle_gamma   90.00000000
_symmetry_Int_Tables_number   1
_chemical_formula_structural   Cu3H28C40N8Cl
_chemical_formula_sum   'Cu12 H112 C160 N32 Cl4'
_cell_volume   7201.69382697
_cell_formula_units_Z   4
loop_
 _symmetry_equiv_pos_site_id
 _symmetry_equiv_pos_as_xyz
  1  'x, y, z'
loop_
 _atom_site_type_symbol
 _atom_site_label
 _atom_site_symmetry_multiplicity
 _atom_site_fract_x
 _atom_site_fract_y
 _atom_site_fract_z
 _atom_site_occupancy
 _atom_site_charge
  Cu  Cu1  1  0.132660  0.820630  0.334040  1.0  0.3139
  Cu  Cu2  1  0.632660  0.320630  0.334040  1.0  0.3139
  Cu  Cu3  1  0.867340  0.820630  0.165960  1.0  0.3132
  Cu  Cu4  1  0.367340  0.320630  0.165960  1.0  0.3132
  Cu  Cu5  1  0.000000  0.032690  0.750000  1.0  0.3025
  Cu  Cu6  1  0.500000  0.532690  0.750000  1.0  0.3025
  Cu  Cu7  1  0.867340  0.179370  0.665960  1.0  0.3136
  Cu  Cu8  1  0.367340  0.679370  0.665960  1.0  0.3136
  Cu  Cu9  1  0.132660  0.179370  0.834040  1.0  0.3138
  Cu  Cu10  1  0.632660  0.679370  0.834040  1.0  0.3138
  Cu  Cu11  1  0.000000  0.967310  0.250000  1.0  0.3009
  Cu  Cu12  1  0.500000  0.467310  0.250000  1.0  0.3009
  H  H13  1  0.169800  0.652300  0.171400  1.0  0.1002
  H  H14  1  0.264500  0.344900  0.240300  1.0  0.0513
  H  H15  1  0.125800  0.753300  0.211800  1.0  0.0545
  H  H16  1  0.098200  0.068900  0.681500  1.0  0.0569
  H  H17  1  0.188500  0.662300  0.382200  1.0  0.0596
  H  H18  1  0.131300  0.023700  0.598800  1.0  0.099
  H  H19  1  0.228600  0.556000  0.345100  1.0  0.0913
  H  H20  1  0.017700  0.805900  0.389600  1.0  0.0553
  H  H21  1  0.953900  0.910000  0.654000  1.0  0.0619
  H  H22  1  0.985800  0.851400  0.473200  1.0  0.1027
  H  H23  1  0.205800  0.903800  0.457400  1.0  0.0668
  H  H24  1  0.978400  0.864700  0.567100  1.0  0.1023
  H  H25  1  0.177700  0.953600  0.541300  1.0  0.095
  H  H26  1  0.337400  0.490500  0.144700  1.0  0.0519
  H  H27  1  0.669800  0.152300  0.171400  1.0  0.1002
  H  H28  1  0.764500  0.844900  0.240300  1.0  0.0513
  H  H29  1  0.625800  0.253300  0.211800  1.0  0.0545
  H  H30  1  0.598200  0.568900  0.681500  1.0  0.0569
  H  H31  1  0.688500  0.162300  0.382200  1.0  0.0596
  H  H32  1  0.631300  0.523700  0.598800  1.0  0.099
  H  H33  1  0.728600  0.056000  0.345100  1.0  0.0913
  H  H34  1  0.517700  0.305900  0.389600  1.0  0.0553
  H  H35  1  0.453900  0.410000  0.654000  1.0  0.0619
  H  H36  1  0.485800  0.351400  0.473200  1.0  0.1027
  H  H37  1  0.705800  0.403800  0.457400  1.0  0.0668
  H  H38  1  0.478400  0.364700  0.567100  1.0  0.1023
  H  H39  1  0.677700  0.453600  0.541300  1.0  0.095
  H  H40  1  0.837400  0.990500  0.144700  1.0  0.0519
  H  H41  1  0.830200  0.652300  0.328600  1.0  0.0995
  H  H42  1  0.735500  0.344900  0.259700  1.0  0.051
  H  H43  1  0.874200  0.753300  0.288200  1.0  0.0544
  H  H44  1  0.901800  0.068900  0.818500  1.0  0.0572
  H  H45  1  0.811500  0.662300  0.117800  1.0  0.0589
  H  H46  1  0.868700  0.023700  0.901200  1.0  0.0986
  H  H47  1  0.771400  0.556000  0.154900  1.0  0.0912
  H  H48  1  0.982300  0.805900  0.110400  1.0  0.0554
  H  H49  1  0.046100  0.910000  0.846000  1.0  0.0614
  H  H50  1  0.014200  0.851400  0.026800  1.0  0.102
  H  H51  1  0.794200  0.903800  0.042600  1.0  0.0672
  H  H52  1  0.021600  0.864700  0.932900  1.0  0.1024
  H  H53  1  0.822300  0.953600  0.958700  1.0  0.0944
  H  H54  1  0.662600  0.490500  0.355300  1.0  0.0518
  H  H55  1  0.330200  0.152300  0.328600  1.0  0.0995
  H  H56  1  0.235500  0.844900  0.259700  1.0  0.051
  H  H57  1  0.374200  0.253300  0.288200  1.0  0.0544
  H  H58  1  0.401800  0.568900  0.818500  1.0  0.0572
  H  H59  1  0.311500  0.162300  0.117800  1.0  0.0589
  H  H60  1  0.368700  0.523700  0.901200  1.0  0.0986
  H  H61  1  0.271400  0.056000  0.154900  1.0  0.0912
  H  H62  1  0.482300  0.305900  0.110400  1.0  0.0554
  H  H63  1  0.546100  0.410000  0.846000  1.0  0.0614
  H  H64  1  0.514200  0.351400  0.026800  1.0  0.102
  H  H65  1  0.294200  0.403800  0.042600  1.0  0.0672
  H  H66  1  0.521600  0.364700  0.932900  1.0  0.1024
  H  H67  1  0.322300  0.453600  0.958700  1.0  0.0944
  H  H68  1  0.162600  0.990500  0.355300  1.0  0.0518
  H  H69  1  0.830200  0.347700  0.828600  1.0  0.0994
  H  H70  1  0.735500  0.655100  0.759700  1.0  0.0514
  H  H71  1  0.874200  0.246700  0.788200  1.0  0.0546
  H  H72  1  0.901800  0.931100  0.318500  1.0  0.0574
  H  H73  1  0.811500  0.337700  0.617800  1.0  0.0588
  H  H74  1  0.868700  0.976300  0.401200  1.0  0.098
  H  H75  1  0.771400  0.444000  0.654900  1.0  0.0918
  H  H76  1  0.982300  0.194100  0.610400  1.0  0.053
  H  H77  1  0.046100  0.090000  0.346000  1.0  0.0629
  H  H78  1  0.014200  0.148600  0.526800  1.0  0.1034
  H  H79  1  0.794200  0.096200  0.542600  1.0  0.0674
  H  H80  1  0.021600  0.135300  0.432900  1.0  0.103
  H  H81  1  0.822300  0.046400  0.458700  1.0  0.094
  H  H82  1  0.662600  0.509500  0.855300  1.0  0.0516
  H  H83  1  0.330200  0.847700  0.828600  1.0  0.0994
  H  H84  1  0.235500  0.155100  0.759700  1.0  0.0514
  H  H85  1  0.374200  0.746700  0.788200  1.0  0.0546
  H  H86  1  0.401800  0.431100  0.318500  1.0  0.0574
  H  H87  1  0.311500  0.837700  0.617800  1.0  0.0588
  H  H88  1  0.368700  0.476300  0.401200  1.0  0.098
  H  H89  1  0.271400  0.944000  0.654900  1.0  0.0918
  H  H90  1  0.482300  0.694100  0.610400  1.0  0.053
  H  H91  1  0.546100  0.590000  0.346000  1.0  0.0629
  H  H92  1  0.514200  0.648600  0.526800  1.0  0.1034
  H  H93  1  0.294200  0.596200  0.542600  1.0  0.0674
  H  H94  1  0.521600  0.635300  0.432900  1.0  0.103
  H  H95  1  0.322300  0.546400  0.458700  1.0  0.094
  H  H96  1  0.162600  0.009500  0.855300  1.0  0.0516
  H  H97  1  0.169800  0.347700  0.671400  1.0  0.1002
  H  H98  1  0.264500  0.655100  0.740300  1.0  0.0511
  H  H99  1  0.125800  0.246700  0.711800  1.0  0.0546
  H  H100  1  0.098200  0.931100  0.181500  1.0  0.0572
  H  H101  1  0.188500  0.337700  0.882200  1.0  0.0596
  H  H102  1  0.131300  0.976300  0.098800  1.0  0.0977
  H  H103  1  0.228600  0.444000  0.845100  1.0  0.091
  H  H104  1  0.017700  0.194100  0.889600  1.0  0.054
  H  H105  1  0.953900  0.090000  0.154000  1.0  0.062
  H  H106  1  0.985800  0.148600  0.973200  1.0  0.1031
  H  H107  1  0.205800  0.096200  0.957400  1.0  0.0667
  H  H108  1  0.978400  0.135300  0.067100  1.0  0.1035
  H  H109  1  0.177700  0.046400  0.041300  1.0  0.095
  H  H110  1  0.337400  0.509500  0.644700  1.0  0.0519
  H  H111  1  0.669800  0.847700  0.671400  1.0  0.1002
  H  H112  1  0.764500  0.155100  0.740300  1.0  0.0511
  H  H113  1  0.625800  0.746700  0.711800  1.0  0.0546
  H  H114  1  0.598200  0.431100  0.181500  1.0  0.0572
  H  H115  1  0.688500  0.837700  0.882200  1.0  0.0596
  H  H116  1  0.631300  0.476300  0.098800  1.0  0.0977
  H  H117  1  0.728600  0.944000  0.845100  1.0  0.091
  H  H118  1  0.517700  0.694100  0.889600  1.0  0.054
  H  H119  1  0.453900  0.590000  0.154000  1.0  0.062
  H  H120  1  0.485800  0.648600  0.973200  1.0  0.1031
  H  H121  1  0.705800  0.596200  0.957400  1.0  0.0667
  H  H122  1  0.478400  0.635300  0.067100  1.0  0.1035
  H  H123  1  0.677700  0.546400  0.041300  1.0  0.095
  H  H124  1  0.837400  0.009500  0.644700  1.0  0.0519
  C  C125  1  0.206330  0.592230  0.254200  1.0  -0.0207
  C  C126  1  0.174200  0.652940  0.214470  1.0  -0.1671
  C  C127  1  0.268780  0.395000  0.228010  1.0  0.158
  C  C128  1  0.059160  0.938540  0.572650  1.0  0.0797
  C  C129  1  0.277200  0.540700  0.189940  1.0  0.0332
  C  C130  1  0.148700  0.714090  0.239520  1.0  0.1348
  C  C131  1  0.234550  0.451980  0.250260  1.0  0.0017
  C  C132  1  0.238760  0.527060  0.230870  1.0  -0.0375
  C  C133  1  0.074400  0.026400  0.658780  1.0  0.144
  C  C134  1  0.184700  0.660400  0.339240  1.0  0.1105
  C  C135  1  0.078410  0.907920  0.517670  1.0  0.0626
  C  C136  1  0.094150  0.000000  0.608510  1.0  -0.2099
  C  C137  1  0.209500  0.596500  0.317350  1.0  -0.1531
  C  C138  1  0.050500  0.836000  0.420500  1.0  0.1573
  C  C139  1  0.989500  0.934200  0.642300  1.0  0.1396
  C  C140  1  0.030820  0.863200  0.470900  1.0  -0.2357
  C  C141  1  0.160730  0.893700  0.460140  1.0  0.1358
  C  C142  1  0.004600  0.905700  0.590250  1.0  -0.2277
  C  C143  1  0.144330  0.923200  0.511160  1.0  -0.1923
  C  C144  1  0.311000  0.480200  0.171390  1.0  0.1736
  C  C145  1  0.706330  0.092230  0.254200  1.0  -0.0207
  C  C146  1  0.674200  0.152940  0.214470  1.0  -0.1671
  C  C147  1  0.768780  0.895000  0.228010  1.0  0.158
  C  C148  1  0.559160  0.438540  0.572650  1.0  0.0797
  C  C149  1  0.777200  0.040700  0.189940  1.0  0.0332
  C  C150  1  0.648700  0.214090  0.239520  1.0  0.1348
  C  C151  1  0.734550  0.951980  0.250260  1.0  0.0017
  C  C152  1  0.738760  0.027060  0.230870  1.0  -0.0375
  C  C153  1  0.574400  0.526400  0.658780  1.0  0.144
  C  C154  1  0.684700  0.160400  0.339240  1.0  0.1105
  C  C155  1  0.578410  0.407920  0.517670  1.0  0.0626
  C  C156  1  0.594150  0.500000  0.608510  1.0  -0.2099
  C  C157  1  0.709500  0.096500  0.317350  1.0  -0.1531
  C  C158  1  0.550500  0.336000  0.420500  1.0  0.1573
  C  C159  1  0.489500  0.434200  0.642300  1.0  0.1396
  C  C160  1  0.530820  0.363200  0.470900  1.0  -0.2357
  C  C161  1  0.660730  0.393700  0.460140  1.0  0.1358
  C  C162  1  0.504600  0.405700  0.590250  1.0  -0.2277
  C  C163  1  0.644330  0.423200  0.511160  1.0  -0.1923
  C  C164  1  0.811000  0.980200  0.171390  1.0  0.1736
  C  C165  1  0.793670  0.592230  0.245800  1.0  -0.0217
  C  C166  1  0.825800  0.652940  0.285530  1.0  -0.1682
  C  C167  1  0.731220  0.395000  0.271990  1.0  0.1591
  C  C168  1  0.940840  0.938540  0.927350  1.0  0.0798
  C  C169  1  0.722800  0.540700  0.310060  1.0  0.0341
  C  C170  1  0.851300  0.714090  0.260480  1.0  0.1342
  C  C171  1  0.765450  0.451980  0.249740  1.0  0.001
  C  C172  1  0.761240  0.527060  0.269130  1.0  -0.0378
  C  C173  1  0.925600  0.026400  0.841220  1.0  0.1433
  C  C174  1  0.815300  0.660400  0.160760  1.0  0.1104
  C  C175  1  0.921590  0.907920  0.982330  1.0  0.0624
  C  C176  1  0.905850  0.000000  0.891490  1.0  -0.2091
  C  C177  1  0.790500  0.596500  0.182650  1.0  -0.1522
  C  C178  1  0.949500  0.836000  0.079500  1.0  0.1573
  C  C179  1  0.010500  0.934200  0.857700  1.0  0.1382
  C  C180  1  0.969180  0.863200  0.029100  1.0  -0.2369
  C  C181  1  0.839270  0.893700  0.039860  1.0  0.1359
  C  C182  1  0.995400  0.905700  0.909750  1.0  -0.2289
  C  C183  1  0.855670  0.923200  0.988840  1.0  -0.1913
  C  C184  1  0.689000  0.480200  0.328610  1.0  0.1727
  C  C185  1  0.293670  0.092230  0.245800  1.0  -0.0217
  C  C186  1  0.325800  0.152940  0.285530  1.0  -0.1682
  C  C187  1  0.231220  0.895000  0.271990  1.0  0.1591
  C  C188  1  0.440840  0.438540  0.927350  1.0  0.0798
  C  C189  1  0.222800  0.040700  0.310060  1.0  0.0341
  C  C190  1  0.351300  0.214090  0.260480  1.0  0.1342
  C  C191  1  0.265450  0.951980  0.249740  1.0  0.001
  C  C192  1  0.261240  0.027060  0.269130  1.0  -0.0378
  C  C193  1  0.425600  0.526400  0.841220  1.0  0.1433
  C  C194  1  0.315300  0.160400  0.160760  1.0  0.1104
  C  C195  1  0.421590  0.407920  0.982330  1.0  0.0624
  C  C196  1  0.405850  0.500000  0.891490  1.0  -0.2091
  C  C197  1  0.290500  0.096500  0.182650  1.0  -0.1522
  C  C198  1  0.449500  0.336000  0.079500  1.0  0.1573
  C  C199  1  0.510500  0.434200  0.857700  1.0  0.1382
  C  C200  1  0.469180  0.363200  0.029100  1.0  -0.2369
  C  C201  1  0.339270  0.393700  0.039860  1.0  0.1359
  C  C202  1  0.495400  0.405700  0.909750  1.0  -0.2289
  C  C203  1  0.355670  0.423200  0.988840  1.0  -0.1913
  C  C204  1  0.189000  0.980200  0.328610  1.0  0.1727
  C  C205  1  0.793670  0.407770  0.745800  1.0  -0.0214
  C  C206  1  0.825800  0.347060  0.785530  1.0  -0.168
  C  C207  1  0.731220  0.605000  0.771990  1.0  0.1582
  C  C208  1  0.940840  0.061460  0.427350  1.0  0.08
  C  C209  1  0.722800  0.459300  0.810060  1.0  0.0326
  C  C210  1  0.851300  0.285910  0.760480  1.0  0.1348
  C  C211  1  0.765450  0.548020  0.749740  1.0  0.0002
  C  C212  1  0.761240  0.472940  0.769130  1.0  -0.0377
  C  C213  1  0.925600  0.973600  0.341220  1.0  0.1429
  C  C214  1  0.815300  0.339600  0.660760  1.0  0.1104
  C  C215  1  0.921590  0.092080  0.482330  1.0  0.0624
  C  C216  1  0.905850  0.000000  0.391490  1.0  -0.2097
  C  C217  1  0.790500  0.403500  0.682650  1.0  -0.152
  C  C218  1  0.949500  0.164000  0.579500  1.0  0.157
  C  C219  1  0.010500  0.065800  0.357700  1.0  0.1372
  C  C220  1  0.969180  0.136800  0.529100  1.0  -0.239
  C  C221  1  0.839270  0.106300  0.539860  1.0  0.1352
  C  C222  1  0.995400  0.094300  0.409750  1.0  -0.2287
  C  C223  1  0.855670  0.076800  0.488840  1.0  -0.1918
  C  C224  1  0.689000  0.519800  0.828610  1.0  0.1729
  C  C225  1  0.293670  0.907770  0.745800  1.0  -0.0214
  C  C226  1  0.325800  0.847060  0.785530  1.0  -0.168
  C  C227  1  0.231220  0.105000  0.771990  1.0  0.1582
  C  C228  1  0.440840  0.561460  0.427350  1.0  0.08
  C  C229  1  0.222800  0.959300  0.810060  1.0  0.0326
  C  C230  1  0.351300  0.785910  0.760480  1.0  0.1348
  C  C231  1  0.265450  0.048020  0.749740  1.0  0.0002
  C  C232  1  0.261240  0.972940  0.769130  1.0  -0.0377
  C  C233  1  0.425600  0.473600  0.341220  1.0  0.1429
  C  C234  1  0.315300  0.839600  0.660760  1.0  0.1104
  C  C235  1  0.421590  0.592080  0.482330  1.0  0.0624
  C  C236  1  0.405850  0.500000  0.391490  1.0  -0.2097
  C  C237  1  0.290500  0.903500  0.682650  1.0  -0.152
  C  C238  1  0.449500  0.664000  0.579500  1.0  0.157
  C  C239  1  0.510500  0.565800  0.357700  1.0  0.1372
  C  C240  1  0.469180  0.636800  0.529100  1.0  -0.239
  C  C241  1  0.339270  0.606300  0.539860  1.0  0.1352
  C  C242  1  0.495400  0.594300  0.409750  1.0  -0.2287
  C  C243  1  0.355670  0.576800  0.488840  1.0  -0.1918
  C  C244  1  0.189000  0.019800  0.828610  1.0  0.1729
  C  C245  1  0.206330  0.407770  0.754200  1.0  -0.0198
  C  C246  1  0.174200  0.347060  0.714470  1.0  -0.1672
  C  C247  1  0.268780  0.605000  0.728010  1.0  0.1568
  C  C248  1  0.059160  0.061460  0.072650  1.0  0.0791
  C  C249  1  0.277200  0.459300  0.689940  1.0  0.033
  C  C250  1  0.148700  0.285910  0.739520  1.0  0.1351
  C  C251  1  0.234550  0.548020  0.750260  1.0  0.0022
  C  C252  1  0.238760  0.472940  0.730870  1.0  -0.0375
  C  C253  1  0.074400  0.973600  0.158780  1.0  0.1433
  C  C254  1  0.184700  0.339600  0.839240  1.0  0.1109
  C  C255  1  0.078410  0.092080  0.017670  1.0  0.0623
  C  C256  1  0.094150  0.000000  0.108510  1.0  -0.21
  C  C257  1  0.209500  0.403500  0.817350  1.0  -0.1528
  C  C258  1  0.050500  0.164000  0.920500  1.0  0.1573
  C  C259  1  0.989500  0.065800  0.142300  1.0  0.1387
  C  C260  1  0.030820  0.136800  0.970900  1.0  -0.2383
  C  C261  1  0.160730  0.106300  0.960140  1.0  0.1362
  C  C262  1  0.004600  0.094300  0.090250  1.0  -0.2296
  C  C263  1  0.144330  0.076800  0.011160  1.0  -0.1928
  C  C264  1  0.311000  0.519800  0.671390  1.0  0.1721
  C  C265  1  0.706330  0.907770  0.754200  1.0  -0.0198
  C  C266  1  0.674200  0.847060  0.714470  1.0  -0.1672
  C  C267  1  0.768780  0.105000  0.728010  1.0  0.1568
  C  C268  1  0.559160  0.561460  0.072650  1.0  0.0791
  C  C269  1  0.777200  0.959300  0.689940  1.0  0.033
  C  C270  1  0.648700  0.785910  0.739520  1.0  0.1351
  C  C271  1  0.734550  0.048020  0.750260  1.0  0.0022
  C  C272  1  0.738760  0.972940  0.730870  1.0  -0.0375
  C  C273  1  0.574400  0.473600  0.158780  1.0  0.1433
  C  C274  1  0.684700  0.839600  0.839240  1.0  0.1109
  C  C275  1  0.578410  0.592080  0.017670  1.0  0.0623
  C  C276  1  0.594150  0.500000  0.108510  1.0  -0.21
  C  C277  1  0.709500  0.903500  0.817350  1.0  -0.1528
  C  C278  1  0.550500  0.664000  0.920500  1.0  0.1573
  C  C279  1  0.489500  0.565800  0.142300  1.0  0.1387
  C  C280  1  0.530820  0.636800  0.970900  1.0  -0.2383
  C  C281  1  0.660730  0.606300  0.960140  1.0  0.1362
  C  C282  1  0.504600  0.594300  0.090250  1.0  -0.2296
  C  C283  1  0.644330  0.576800  0.011160  1.0  -0.1928
  C  C284  1  0.811000  0.019800  0.671390  1.0  0.1721
  N  N285  1  0.155070  0.720430  0.301490  1.0  -0.3469
  N  N286  1  0.022520  0.993720  0.676530  1.0  -0.3119
  N  N287  1  0.307800  0.407740  0.189780  1.0  -0.3198
  N  N288  1  0.114130  0.850600  0.413900  1.0  -0.3455
  N  N289  1  0.655070  0.220430  0.301490  1.0  -0.3469
  N  N290  1  0.522520  0.493720  0.676530  1.0  -0.3119
  N  N291  1  0.807800  0.907740  0.189780  1.0  -0.3198
  N  N292  1  0.614130  0.350600  0.413900  1.0  -0.3455
  N  N293  1  0.844930  0.720430  0.198510  1.0  -0.3459
  N  N294  1  0.977480  0.993720  0.823470  1.0  -0.3144
  N  N295  1  0.692200  0.407740  0.310220  1.0  -0.3196
  N  N296  1  0.885870  0.850600  0.086100  1.0  -0.3453
  N  N297  1  0.344930  0.220430  0.198510  1.0  -0.3459
  N  N298  1  0.477480  0.493720  0.823470  1.0  -0.3144
  N  N299  1  0.192200  0.907740  0.310220  1.0  -0.3196
  N  N300  1  0.385870  0.350600  0.086100  1.0  -0.3453
  N  N301  1  0.844930  0.279570  0.698510  1.0  -0.3456
  N  N302  1  0.977480  0.006280  0.323470  1.0  -0.316
  N  N303  1  0.692200  0.592260  0.810220  1.0  -0.3192
  N  N304  1  0.885870  0.149400  0.586100  1.0  -0.343
  N  N305  1  0.344930  0.779570  0.698510  1.0  -0.3456
  N  N306  1  0.477480  0.506280  0.323470  1.0  -0.316
  N  N307  1  0.192200  0.092260  0.810220  1.0  -0.3192
  N  N308  1  0.385870  0.649400  0.586100  1.0  -0.343
  N  N309  1  0.155070  0.279570  0.801490  1.0  -0.3448
  N  N310  1  0.022520  0.006280  0.176530  1.0  -0.3115
  N  N311  1  0.307800  0.592260  0.689780  1.0  -0.3193
  N  N312  1  0.114130  0.149400  0.913900  1.0  -0.3434
  N  N313  1  0.655070  0.779570  0.801490  1.0  -0.3448
  N  N314  1  0.522520  0.506280  0.176530  1.0  -0.3115
  N  N315  1  0.807800  0.092260  0.689780  1.0  -0.3193
  N  N316  1  0.614130  0.649400  0.913900  1.0  -0.3434
  Cl  Cl317  1  0.000000  0.165890  0.750000  1.0  -0.5385
  Cl  Cl318  1  0.500000  0.665890  0.750000  1.0  -0.5385
  Cl  Cl319  1  0.000000  0.834110  0.250000  1.0  -0.5389
  Cl  Cl320  1  0.500000  0.334110  0.250000  1.0  -0.5389
