# generated using pymatgen
data_Cu3H32C40N8Cl
_symmetry_space_group_name_H-M   'P 1'
_cell_length_a   19.75950000
_cell_length_b   17.51760000
_cell_length_c   22.16100000
_cell_angle_alpha   90.00000000
_cell_angle_beta   109.78600000
_cell_angle_gamma   90.00000000
_symmetry_Int_Tables_number   1
_chemical_formula_structural   Cu3H32C40N8Cl
_chemical_formula_sum   'Cu12 H128 C160 N32 Cl4'
_cell_volume   7217.93043549
_cell_formula_units_Z   4
loop_
 _symmetry_equiv_pos_site_id
 _symmetry_equiv_pos_as_xyz
  1  'x, y, z'
loop_
 _atom_site_type_symbol
 _atom_site_label
 _atom_site_symmetry_multiplicity
 _atom_site_fract_x
 _atom_site_fract_y
 _atom_site_fract_z
 _atom_site_occupancy
 _atom_site_charge
  Cu  Cu1  1  0.867240  0.820680  0.165920  1.0  0.3166
  Cu  Cu2  1  0.367240  0.320680  0.165920  1.0  0.3166
  Cu  Cu3  1  0.132760  0.820680  0.334080  1.0  0.3165
  Cu  Cu4  1  0.632760  0.320680  0.334080  1.0  0.3165
  Cu  Cu5  1  0.500000  0.532550  0.750000  1.0  0.3163
  Cu  Cu6  1  0.000000  0.032550  0.750000  1.0  0.3163
  Cu  Cu7  1  0.132760  0.179320  0.834080  1.0  0.3169
  Cu  Cu8  1  0.632760  0.679320  0.834080  1.0  0.3169
  Cu  Cu9  1  0.867240  0.179320  0.665920  1.0  0.3174
  Cu  Cu10  1  0.367240  0.679320  0.665920  1.0  0.3174
  Cu  Cu11  1  0.500000  0.467450  0.250000  1.0  0.3141
  Cu  Cu12  1  0.000000  0.967450  0.250000  1.0  0.3141
  H  H13  1  0.729600  0.056700  0.345400  1.0  0.0909
  H  H14  1  0.688400  0.162700  0.381900  1.0  0.0681
  H  H15  1  0.625900  0.253800  0.212500  1.0  0.0565
  H  H16  1  0.670400  0.152900  0.171700  1.0  0.1076
  H  H17  1  0.779200  0.088500  0.174200  1.0  0.1104
  H  H18  1  0.836900  0.990400  0.144900  1.0  0.0553
  H  H19  1  0.764300  0.845800  0.240300  1.0  0.0632
  H  H20  1  0.709200  0.940900  0.277300  1.0  0.1139
  H  H21  1  0.367900  0.522800  0.900100  1.0  0.1026
  H  H22  1  0.294800  0.403200  0.043200  1.0  0.0629
  H  H23  1  0.521700  0.365800  0.933500  1.0  0.1016
  H  H24  1  0.482000  0.306700  0.109700  1.0  0.0575
  H  H25  1  0.513700  0.350900  0.027000  1.0  0.1091
  H  H26  1  0.402100  0.568500  0.818900  1.0  0.057
  H  H27  1  0.547300  0.410700  0.847100  1.0  0.0656
  H  H28  1  0.321800  0.452200  0.958700  1.0  0.0942
  H  H29  1  0.229600  0.556700  0.345400  1.0  0.0909
  H  H30  1  0.188400  0.662700  0.381900  1.0  0.0681
  H  H31  1  0.125900  0.753800  0.212500  1.0  0.0565
  H  H32  1  0.170400  0.652900  0.171700  1.0  0.1076
  H  H33  1  0.279200  0.588500  0.174200  1.0  0.1104
  H  H34  1  0.336900  0.490400  0.144900  1.0  0.0553
  H  H35  1  0.264300  0.345800  0.240300  1.0  0.0632
  H  H36  1  0.209200  0.440900  0.277300  1.0  0.1139
  H  H37  1  0.867900  0.022800  0.900100  1.0  0.1026
  H  H38  1  0.794800  0.903200  0.043200  1.0  0.0632
  H  H39  1  0.021700  0.865800  0.933500  1.0  0.1016
  H  H40  1  0.982000  0.806700  0.109700  1.0  0.0575
  H  H41  1  0.013700  0.850900  0.027000  1.0  0.1091
  H  H42  1  0.902100  0.068500  0.818900  1.0  0.057
  H  H43  1  0.047300  0.910700  0.847100  1.0  0.0656
  H  H44  1  0.821800  0.952200  0.958700  1.0  0.0942
  H  H45  1  0.270400  0.056700  0.154600  1.0  0.0908
  H  H46  1  0.311600  0.162700  0.118100  1.0  0.0681
  H  H47  1  0.374100  0.253800  0.287500  1.0  0.0567
  H  H48  1  0.329600  0.152900  0.328300  1.0  0.1077
  H  H49  1  0.220800  0.088500  0.325800  1.0  0.11
  H  H50  1  0.163100  0.990400  0.355100  1.0  0.0555
  H  H51  1  0.235700  0.845800  0.259700  1.0  0.0628
  H  H52  1  0.290800  0.940900  0.222700  1.0  0.1136
  H  H53  1  0.632100  0.522800  0.599900  1.0  0.1029
  H  H54  1  0.705200  0.403200  0.456800  1.0  0.0631
  H  H55  1  0.478300  0.365800  0.566500  1.0  0.1017
  H  H56  1  0.518000  0.306700  0.390300  1.0  0.0573
  H  H57  1  0.486300  0.350900  0.473000  1.0  0.1098
  H  H58  1  0.597900  0.568500  0.681100  1.0  0.0566
  H  H59  1  0.452700  0.410700  0.652900  1.0  0.0667
  H  H60  1  0.678200  0.452200  0.541300  1.0  0.095
  H  H61  1  0.770400  0.556700  0.154600  1.0  0.0908
  H  H62  1  0.811600  0.662700  0.118100  1.0  0.0681
  H  H63  1  0.874100  0.753800  0.287500  1.0  0.0567
  H  H64  1  0.829600  0.652900  0.328300  1.0  0.1077
  H  H65  1  0.720800  0.588500  0.325800  1.0  0.11
  H  H66  1  0.663100  0.490400  0.355100  1.0  0.0555
  H  H67  1  0.735700  0.345800  0.259700  1.0  0.0628
  H  H68  1  0.790800  0.440900  0.222700  1.0  0.1136
  H  H69  1  0.132100  0.022800  0.599900  1.0  0.1029
  H  H70  1  0.205200  0.903200  0.456800  1.0  0.0637
  H  H71  1  0.978300  0.865800  0.566500  1.0  0.1017
  H  H72  1  0.018000  0.806700  0.390300  1.0  0.0573
  H  H73  1  0.986300  0.850900  0.473000  1.0  0.1098
  H  H74  1  0.097900  0.068500  0.681100  1.0  0.0566
  H  H75  1  0.952700  0.910700  0.652900  1.0  0.0667
  H  H76  1  0.178200  0.952200  0.541300  1.0  0.095
  H  H77  1  0.270400  0.943300  0.654600  1.0  0.0917
  H  H78  1  0.311600  0.837300  0.618100  1.0  0.067
  H  H79  1  0.374100  0.746200  0.787500  1.0  0.0569
  H  H80  1  0.329600  0.847100  0.828300  1.0  0.1078
  H  H81  1  0.220800  0.911500  0.825800  1.0  0.1098
  H  H82  1  0.163100  0.009600  0.855100  1.0  0.0554
  H  H83  1  0.235700  0.154200  0.759700  1.0  0.0638
  H  H84  1  0.290800  0.059100  0.722700  1.0  0.1137
  H  H85  1  0.632100  0.477200  0.099900  1.0  0.1026
  H  H86  1  0.705200  0.596800  0.956800  1.0  0.063
  H  H87  1  0.478300  0.634200  0.066500  1.0  0.1026
  H  H88  1  0.518000  0.693300  0.890300  1.0  0.0561
  H  H89  1  0.486300  0.649100  0.973000  1.0  0.1103
  H  H90  1  0.597900  0.431500  0.181100  1.0  0.0567
  H  H91  1  0.452700  0.589300  0.152900  1.0  0.0669
  H  H92  1  0.678200  0.547800  0.041300  1.0  0.0943
  H  H93  1  0.770400  0.443300  0.654600  1.0  0.0917
  H  H94  1  0.811600  0.337300  0.618100  1.0  0.067
  H  H95  1  0.874100  0.246200  0.787500  1.0  0.0569
  H  H96  1  0.829600  0.347100  0.828300  1.0  0.1078
  H  H97  1  0.720800  0.411500  0.825800  1.0  0.1098
  H  H98  1  0.663100  0.509600  0.855100  1.0  0.0554
  H  H99  1  0.735700  0.654200  0.759700  1.0  0.0638
  H  H100  1  0.790800  0.559100  0.722700  1.0  0.1137
  H  H101  1  0.132100  0.977200  0.099900  1.0  0.1026
  H  H102  1  0.205200  0.096800  0.956800  1.0  0.0635
  H  H103  1  0.978300  0.134200  0.066500  1.0  0.1026
  H  H104  1  0.018000  0.193300  0.890300  1.0  0.0561
  H  H105  1  0.986300  0.149100  0.973000  1.0  0.1103
  H  H106  1  0.097900  0.931500  0.181100  1.0  0.0567
  H  H107  1  0.952700  0.089300  0.152900  1.0  0.0669
  H  H108  1  0.178200  0.047800  0.041300  1.0  0.0943
  H  H109  1  0.729600  0.943300  0.845400  1.0  0.0904
  H  H110  1  0.688400  0.837300  0.881900  1.0  0.0668
  H  H111  1  0.625900  0.746200  0.712500  1.0  0.0565
  H  H112  1  0.670400  0.847100  0.671700  1.0  0.1076
  H  H113  1  0.779200  0.911500  0.674200  1.0  0.1102
  H  H114  1  0.836900  0.009600  0.644900  1.0  0.0556
  H  H115  1  0.764300  0.154200  0.740300  1.0  0.0633
  H  H116  1  0.709200  0.059100  0.777300  1.0  0.1138
  H  H117  1  0.367900  0.477200  0.400100  1.0  0.1027
  H  H118  1  0.294800  0.596800  0.543200  1.0  0.0629
  H  H119  1  0.521700  0.634200  0.433500  1.0  0.1022
  H  H120  1  0.482000  0.693300  0.609700  1.0  0.055
  H  H121  1  0.513700  0.649100  0.527000  1.0  0.1102
  H  H122  1  0.402100  0.431500  0.318900  1.0  0.0568
  H  H123  1  0.547300  0.589300  0.347100  1.0  0.0676
  H  H124  1  0.321800  0.547800  0.458700  1.0  0.0934
  H  H125  1  0.229600  0.443300  0.845400  1.0  0.0904
  H  H126  1  0.188400  0.337300  0.881900  1.0  0.0668
  H  H127  1  0.125900  0.246200  0.712500  1.0  0.0565
  H  H128  1  0.170400  0.347100  0.671700  1.0  0.1076
  H  H129  1  0.279200  0.411500  0.674200  1.0  0.1102
  H  H130  1  0.336900  0.509600  0.644900  1.0  0.0556
  H  H131  1  0.264300  0.654200  0.740300  1.0  0.0633
  H  H132  1  0.209200  0.559100  0.777300  1.0  0.1138
  H  H133  1  0.867900  0.977200  0.400100  1.0  0.1027
  H  H134  1  0.794800  0.096800  0.543200  1.0  0.0632
  H  H135  1  0.021700  0.134200  0.433500  1.0  0.1022
  H  H136  1  0.982000  0.193300  0.609700  1.0  0.055
  H  H137  1  0.013700  0.149100  0.527000  1.0  0.1102
  H  H138  1  0.902100  0.931500  0.318900  1.0  0.0568
  H  H139  1  0.047300  0.089300  0.347100  1.0  0.0676
  H  H140  1  0.821800  0.047800  0.458700  1.0  0.0934
  C  C141  1  0.709800  0.096700  0.317320  1.0  -0.2123
  C  C142  1  0.684600  0.160700  0.339000  1.0  0.1132
  C  C143  1  0.648700  0.214500  0.240020  1.0  0.143
  C  C144  1  0.674300  0.153100  0.214700  1.0  -0.2356
  C  C145  1  0.706000  0.091600  0.254200  1.0  0.0797
  C  C146  1  0.738600  0.026900  0.230860  1.0  0.093
  C  C147  1  0.776600  0.039600  0.189600  1.0  -0.2242
  C  C148  1  0.810500  0.979900  0.171500  1.0  0.1611
  C  C149  1  0.768700  0.895700  0.227860  1.0  0.1588
  C  C150  1  0.734500  0.952600  0.250000  1.0  -0.2034
  C  C151  1  0.405600  0.499400  0.891000  1.0  -0.2091
  C  C152  1  0.339800  0.393100  0.040300  1.0  0.1481
  C  C153  1  0.355600  0.422400  0.989000  1.0  -0.1927
  C  C154  1  0.421400  0.407900  0.982080  1.0  0.0727
  C  C155  1  0.440700  0.438500  0.927430  1.0  0.0764
  C  C156  1  0.495400  0.406500  0.910100  1.0  -0.213
  C  C157  1  0.449100  0.336700  0.078800  1.0  0.1622
  C  C158  1  0.468700  0.363000  0.029200  1.0  -0.2197
  C  C159  1  0.511200  0.434400  0.858300  1.0  0.1442
  C  C160  1  0.425700  0.525800  0.841300  1.0  0.1534
  C  C161  1  0.209800  0.596700  0.317320  1.0  -0.2123
  C  C162  1  0.184600  0.660700  0.339000  1.0  0.1132
  C  C163  1  0.148700  0.714500  0.240020  1.0  0.143
  C  C164  1  0.174300  0.653100  0.214700  1.0  -0.2356
  C  C165  1  0.206000  0.591600  0.254200  1.0  0.0797
  C  C166  1  0.238600  0.526900  0.230860  1.0  0.093
  C  C167  1  0.276600  0.539600  0.189600  1.0  -0.2242
  C  C168  1  0.310500  0.479900  0.171500  1.0  0.1611
  C  C169  1  0.268700  0.395700  0.227860  1.0  0.1588
  C  C170  1  0.234500  0.452600  0.250000  1.0  -0.2034
  C  C171  1  0.905600  0.999400  0.891000  1.0  -0.2091
  C  C172  1  0.839800  0.893100  0.040300  1.0  0.1481
  C  C173  1  0.855600  0.922400  0.989000  1.0  -0.1927
  C  C174  1  0.921400  0.907900  0.982080  1.0  0.0727
  C  C175  1  0.940700  0.938500  0.927430  1.0  0.0764
  C  C176  1  0.995400  0.906500  0.910100  1.0  -0.213
  C  C177  1  0.949100  0.836700  0.078800  1.0  0.1622
  C  C178  1  0.968700  0.863000  0.029200  1.0  -0.2197
  C  C179  1  0.011200  0.934400  0.858300  1.0  0.1442
  C  C180  1  0.925700  0.025800  0.841300  1.0  0.1534
  C  C181  1  0.290200  0.096700  0.182680  1.0  -0.2101
  C  C182  1  0.315400  0.160700  0.161000  1.0  0.1142
  C  C183  1  0.351300  0.214500  0.259980  1.0  0.1429
  C  C184  1  0.325700  0.153100  0.285300  1.0  -0.2346
  C  C185  1  0.294000  0.091600  0.245800  1.0  0.0807
  C  C186  1  0.261400  0.026900  0.269140  1.0  0.092
  C  C187  1  0.223400  0.039600  0.310400  1.0  -0.2248
  C  C188  1  0.189500  0.979900  0.328500  1.0  0.1607
  C  C189  1  0.231300  0.895700  0.272140  1.0  0.1597
  C  C190  1  0.265500  0.952600  0.250000  1.0  -0.203
  C  C191  1  0.594400  0.499400  0.609000  1.0  -0.2094
  C  C192  1  0.660200  0.393100  0.459700  1.0  0.1476
  C  C193  1  0.644400  0.422400  0.511000  1.0  -0.1941
  C  C194  1  0.578600  0.407900  0.517920  1.0  0.0715
  C  C195  1  0.559300  0.438500  0.572570  1.0  0.0773
  C  C196  1  0.504600  0.406500  0.589900  1.0  -0.2113
  C  C197  1  0.550900  0.336700  0.421200  1.0  0.1616
  C  C198  1  0.531300  0.363000  0.470800  1.0  -0.2176
  C  C199  1  0.488800  0.434400  0.641700  1.0  0.1449
  C  C200  1  0.574300  0.525800  0.658700  1.0  0.1531
  C  C201  1  0.790200  0.596700  0.182680  1.0  -0.2101
  C  C202  1  0.815400  0.660700  0.161000  1.0  0.1142
  C  C203  1  0.851300  0.714500  0.259980  1.0  0.1429
  C  C204  1  0.825700  0.653100  0.285300  1.0  -0.2346
  C  C205  1  0.794000  0.591600  0.245800  1.0  0.0807
  C  C206  1  0.761400  0.526900  0.269140  1.0  0.092
  C  C207  1  0.723400  0.539600  0.310400  1.0  -0.2248
  C  C208  1  0.689500  0.479900  0.328500  1.0  0.1607
  C  C209  1  0.731300  0.395700  0.272140  1.0  0.1597
  C  C210  1  0.765500  0.452600  0.250000  1.0  -0.203
  C  C211  1  0.094400  0.999400  0.609000  1.0  -0.2094
  C  C212  1  0.160200  0.893100  0.459700  1.0  0.1476
  C  C213  1  0.144400  0.922400  0.511000  1.0  -0.1941
  C  C214  1  0.078600  0.907900  0.517920  1.0  0.0715
  C  C215  1  0.059300  0.938500  0.572570  1.0  0.0773
  C  C216  1  0.004600  0.906500  0.589900  1.0  -0.2113
  C  C217  1  0.050900  0.836700  0.421200  1.0  0.1616
  C  C218  1  0.031300  0.863000  0.470800  1.0  -0.2176
  C  C219  1  0.988800  0.934400  0.641700  1.0  0.1449
  C  C220  1  0.074300  0.025800  0.658700  1.0  0.1531
  C  C221  1  0.290200  0.903300  0.682680  1.0  -0.21
  C  C222  1  0.315400  0.839300  0.661000  1.0  0.1136
  C  C223  1  0.351300  0.785500  0.759980  1.0  0.1434
  C  C224  1  0.325700  0.846900  0.785300  1.0  -0.2345
  C  C225  1  0.294000  0.908400  0.745800  1.0  0.0804
  C  C226  1  0.261400  0.973100  0.769140  1.0  0.0922
  C  C227  1  0.223400  0.960400  0.810400  1.0  -0.2252
  C  C228  1  0.189500  0.020100  0.828500  1.0  0.161
  C  C229  1  0.231300  0.104300  0.772140  1.0  0.1588
  C  C230  1  0.265500  0.047400  0.750000  1.0  -0.2034
  C  C231  1  0.594400  0.500600  0.109000  1.0  -0.2091
  C  C232  1  0.660200  0.606900  0.959700  1.0  0.1483
  C  C233  1  0.644400  0.577600  0.011000  1.0  -0.1946
  C  C234  1  0.578600  0.592100  0.017920  1.0  0.0718
  C  C235  1  0.559300  0.561500  0.072570  1.0  0.0768
  C  C236  1  0.504600  0.593500  0.089900  1.0  -0.2119
  C  C237  1  0.550900  0.663300  0.921200  1.0  0.1617
  C  C238  1  0.531300  0.637000  0.970800  1.0  -0.2199
  C  C239  1  0.488800  0.565600  0.141700  1.0  0.1446
  C  C240  1  0.574300  0.474200  0.158700  1.0  0.1525
  C  C241  1  0.790200  0.403300  0.682680  1.0  -0.21
  C  C242  1  0.815400  0.339300  0.661000  1.0  0.1136
  C  C243  1  0.851300  0.285500  0.759980  1.0  0.1434
  C  C244  1  0.825700  0.346900  0.785300  1.0  -0.2345
  C  C245  1  0.794000  0.408400  0.745800  1.0  0.0804
  C  C246  1  0.761400  0.473100  0.769140  1.0  0.0922
  C  C247  1  0.723400  0.460400  0.810400  1.0  -0.2252
  C  C248  1  0.689500  0.520100  0.828500  1.0  0.161
  C  C249  1  0.731300  0.604300  0.772140  1.0  0.1588
  C  C250  1  0.765500  0.547400  0.750000  1.0  -0.2034
  C  C251  1  0.094400  0.000600  0.109000  1.0  -0.2091
  C  C252  1  0.160200  0.106900  0.959700  1.0  0.1483
  C  C253  1  0.144400  0.077600  0.011000  1.0  -0.1946
  C  C254  1  0.078600  0.092100  0.017920  1.0  0.0718
  C  C255  1  0.059300  0.061500  0.072570  1.0  0.0768
  C  C256  1  0.004600  0.093500  0.089900  1.0  -0.2119
  C  C257  1  0.050900  0.163300  0.921200  1.0  0.1617
  C  C258  1  0.031300  0.137000  0.970800  1.0  -0.2199
  C  C259  1  0.988800  0.065600  0.141700  1.0  0.1446
  C  C260  1  0.074300  0.974200  0.158700  1.0  0.1525
  C  C261  1  0.709800  0.903300  0.817320  1.0  -0.2123
  C  C262  1  0.684600  0.839300  0.839000  1.0  0.1142
  C  C263  1  0.648700  0.785500  0.740020  1.0  0.1438
  C  C264  1  0.674300  0.846900  0.714700  1.0  -0.235
  C  C265  1  0.706000  0.908400  0.754200  1.0  0.08
  C  C266  1  0.738600  0.973100  0.730860  1.0  0.093
  C  C267  1  0.776600  0.960400  0.689600  1.0  -0.2246
  C  C268  1  0.810500  0.020100  0.671500  1.0  0.1603
  C  C269  1  0.768700  0.104300  0.727860  1.0  0.1586
  C  C270  1  0.734500  0.047400  0.750000  1.0  -0.2051
  C  C271  1  0.405600  0.500600  0.391000  1.0  -0.2093
  C  C272  1  0.339800  0.606900  0.540300  1.0  0.1478
  C  C273  1  0.355600  0.577600  0.489000  1.0  -0.1934
  C  C274  1  0.421400  0.592100  0.482080  1.0  0.0729
  C  C275  1  0.440700  0.561500  0.427430  1.0  0.0763
  C  C276  1  0.495400  0.593500  0.410100  1.0  -0.2127
  C  C277  1  0.449100  0.663300  0.578800  1.0  0.1622
  C  C278  1  0.468700  0.637000  0.529200  1.0  -0.2223
  C  C279  1  0.511200  0.565600  0.358300  1.0  0.1438
  C  C280  1  0.425700  0.474200  0.341300  1.0  0.1528
  C  C281  1  0.209800  0.403300  0.817320  1.0  -0.2123
  C  C282  1  0.184600  0.339300  0.839000  1.0  0.1142
  C  C283  1  0.148700  0.285500  0.740020  1.0  0.1438
  C  C284  1  0.174300  0.346900  0.714700  1.0  -0.235
  C  C285  1  0.206000  0.408400  0.754200  1.0  0.08
  C  C286  1  0.238600  0.473100  0.730860  1.0  0.093
  C  C287  1  0.276600  0.460400  0.689600  1.0  -0.2246
  C  C288  1  0.310500  0.520100  0.671500  1.0  0.1603
  C  C289  1  0.268700  0.604300  0.727860  1.0  0.1586
  C  C290  1  0.234500  0.547400  0.750000  1.0  -0.2051
  C  C291  1  0.905600  0.000600  0.391000  1.0  -0.2093
  C  C292  1  0.839800  0.106900  0.540300  1.0  0.1478
  C  C293  1  0.855600  0.077600  0.489000  1.0  -0.1934
  C  C294  1  0.921400  0.092100  0.482080  1.0  0.0729
  C  C295  1  0.940700  0.061500  0.427430  1.0  0.0763
  C  C296  1  0.995400  0.093500  0.410100  1.0  -0.2127
  C  C297  1  0.949100  0.163300  0.578800  1.0  0.1622
  C  C298  1  0.968700  0.137000  0.529200  1.0  -0.2223
  C  C299  1  0.011200  0.065600  0.358300  1.0  0.1438
  C  C300  1  0.925700  0.974200  0.341300  1.0  0.1528
  N  N301  1  0.654900  0.220340  0.301400  1.0  -0.3366
  N  N302  1  0.807730  0.907580  0.189880  1.0  -0.3296
  N  N303  1  0.477110  0.493920  0.823220  1.0  -0.3156
  N  N304  1  0.386000  0.350700  0.086210  1.0  -0.3397
  N  N305  1  0.154900  0.720340  0.301400  1.0  -0.3366
  N  N306  1  0.307730  0.407580  0.189880  1.0  -0.3296
  N  N307  1  0.977110  0.993920  0.823220  1.0  -0.3156
  N  N308  1  0.886000  0.850700  0.086210  1.0  -0.3397
  N  N309  1  0.345100  0.220340  0.198600  1.0  -0.3373
  N  N310  1  0.192270  0.907580  0.310120  1.0  -0.3308
  N  N311  1  0.522890  0.493920  0.676780  1.0  -0.3127
  N  N312  1  0.614000  0.350700  0.413790  1.0  -0.3392
  N  N313  1  0.845100  0.720340  0.198600  1.0  -0.3373
  N  N314  1  0.692270  0.407580  0.310120  1.0  -0.3308
  N  N315  1  0.022890  0.993920  0.676780  1.0  -0.3127
  N  N316  1  0.114000  0.850700  0.413790  1.0  -0.3392
  N  N317  1  0.345100  0.779660  0.698600  1.0  -0.3371
  N  N318  1  0.192270  0.092420  0.810120  1.0  -0.3305
  N  N319  1  0.522890  0.506080  0.176780  1.0  -0.312
  N  N320  1  0.614000  0.649300  0.913790  1.0  -0.3366
  N  N321  1  0.845100  0.279660  0.698600  1.0  -0.3371
  N  N322  1  0.692270  0.592420  0.810120  1.0  -0.3305
  N  N323  1  0.022890  0.006080  0.176780  1.0  -0.312
  N  N324  1  0.114000  0.149300  0.913790  1.0  -0.3366
  N  N325  1  0.654900  0.779660  0.801400  1.0  -0.3351
  N  N326  1  0.807730  0.092420  0.689880  1.0  -0.3297
  N  N327  1  0.477110  0.506080  0.323220  1.0  -0.3169
  N  N328  1  0.386000  0.649300  0.586210  1.0  -0.3373
  N  N329  1  0.154900  0.279660  0.801400  1.0  -0.3351
  N  N330  1  0.307730  0.592420  0.689880  1.0  -0.3297
  N  N331  1  0.977110  0.006080  0.323220  1.0  -0.3169
  N  N332  1  0.886000  0.149300  0.586210  1.0  -0.3373
  Cl  Cl333  1  0.500000  0.665730  0.750000  1.0  -0.5371
  Cl  Cl334  1  0.000000  0.165730  0.750000  1.0  -0.5371
  Cl  Cl335  1  0.500000  0.334270  0.250000  1.0  -0.5373
  Cl  Cl336  1  0.000000  0.834270  0.250000  1.0  -0.5373
