# generated using pymatgen
data_Cd2H11C17(NO4)2
_symmetry_space_group_name_H-M   'P 1'
_cell_length_a   14.20830000
_cell_length_b   18.08610000
_cell_length_c   19.29800000
_cell_angle_alpha   97.83600000
_cell_angle_beta   90.00000000
_cell_angle_gamma   90.00000000
_symmetry_Int_Tables_number   1
_chemical_formula_structural   Cd2H11C17(NO4)2
_chemical_formula_sum   'Cd16 H88 C136 N16 O64'
_cell_volume   4912.75397844
_cell_formula_units_Z   8
loop_
 _symmetry_equiv_pos_site_id
 _symmetry_equiv_pos_as_xyz
  1  'x, y, z'
loop_
 _atom_site_type_symbol
 _atom_site_label
 _atom_site_symmetry_multiplicity
 _atom_site_fract_x
 _atom_site_fract_y
 _atom_site_fract_z
 _atom_site_occupancy
 _atom_site_charge
  Cd  Cd1  1  0.204980  0.836600  0.562840  1.0  1.0145
  Cd  Cd2  1  0.201870  0.670880  0.375540  1.0  1.1242
  Cd  Cd3  1  0.133520  0.488070  0.977960  1.0  1.099
  Cd  Cd4  1  0.270140  0.599740  0.164450  1.0  1.0351
  Cd  Cd5  1  0.204980  0.163400  0.937160  1.0  1.0143
  Cd  Cd6  1  0.201870  0.329120  0.124460  1.0  1.1261
  Cd  Cd7  1  0.133520  0.511930  0.522040  1.0  1.0999
  Cd  Cd8  1  0.270140  0.400260  0.335550  1.0  1.0354
  Cd  Cd9  1  0.795020  0.163400  0.437160  1.0  1.0142
  Cd  Cd10  1  0.798130  0.329120  0.624460  1.0  1.1189
  Cd  Cd11  1  0.866480  0.511930  0.022040  1.0  1.1
  Cd  Cd12  1  0.729860  0.400260  0.835550  1.0  1.0349
  Cd  Cd13  1  0.795020  0.836600  0.062840  1.0  1.0142
  Cd  Cd14  1  0.798130  0.670880  0.875540  1.0  1.1168
  Cd  Cd15  1  0.866480  0.488070  0.477960  1.0  1.099
  Cd  Cd16  1  0.729860  0.599740  0.664450  1.0  1.0347
  H  H17  1  0.033300  0.926400  0.393100  1.0  0.1005
  H  H18  1  0.963900  0.943500  0.287200  1.0  0.1169
  H  H19  1  0.958700  0.719000  0.232000  1.0  0.1149
  H  H20  1  0.912600  0.638400  0.393500  1.0  0.1282
  H  H21  1  0.961400  0.707600  0.440500  1.0  0.1362
  H  H22  1  0.958900  0.621300  0.265200  1.0  0.1231
  H  H23  1  0.014800  0.567100  0.309700  1.0  0.131
  H  H24  1  0.346000  0.686600  0.928400  1.0  0.1145
  H  H25  1  0.479100  0.761600  0.941100  1.0  0.1247
  H  H26  1  0.562900  0.659400  0.103400  1.0  0.1242
  H  H27  1  0.472300  0.457700  0.074200  1.0  0.1334
  H  H28  1  0.397600  0.486900  0.022300  1.0  0.1152
  H  H29  1  0.556100  0.567500  0.150300  1.0  0.1106
  H  H30  1  0.484700  0.516300  0.186700  1.0  0.1327
  H  H31  1  0.113200  0.701400  0.096000  1.0  0.0783
  H  H32  1  0.093200  0.813700  0.053400  1.0  0.1316
  H  H33  1  0.361000  0.866300  0.111900  1.0  0.1359
  H  H34  1  0.369500  0.755700  0.158500  1.0  0.0866
  H  H35  1  0.116700  0.893900  0.975800  1.0  0.1158
  H  H36  1  0.118900  0.002600  0.925300  1.0  0.0801
  H  H37  1  0.310100  0.087800  0.054800  1.0  0.0961
  H  H38  1  0.312100  0.983800  0.110200  1.0  0.1289
  H  H39  1  0.033300  0.073600  0.106900  1.0  0.101
  H  H40  1  0.963900  0.056500  0.212800  1.0  0.1171
  H  H41  1  0.958700  0.281000  0.268000  1.0  0.1151
  H  H42  1  0.912600  0.361600  0.106500  1.0  0.1286
  H  H43  1  0.961400  0.292400  0.059500  1.0  0.1364
  H  H44  1  0.958900  0.378700  0.234800  1.0  0.1224
  H  H45  1  0.014800  0.432900  0.190300  1.0  0.1302
  H  H46  1  0.346000  0.313400  0.571600  1.0  0.1143
  H  H47  1  0.479100  0.238400  0.558900  1.0  0.1238
  H  H48  1  0.562900  0.340600  0.396600  1.0  0.1242
  H  H49  1  0.472300  0.542300  0.425800  1.0  0.1338
  H  H50  1  0.397600  0.513100  0.477700  1.0  0.1134
  H  H51  1  0.556100  0.432500  0.349700  1.0  0.1119
  H  H52  1  0.484700  0.483700  0.313300  1.0  0.1326
  H  H53  1  0.113200  0.298600  0.404000  1.0  0.0783
  H  H54  1  0.093200  0.186300  0.446600  1.0  0.1314
  H  H55  1  0.361000  0.133700  0.388100  1.0  0.1356
  H  H56  1  0.369500  0.244300  0.341500  1.0  0.0862
  H  H57  1  0.116700  0.106100  0.524200  1.0  0.1157
  H  H58  1  0.118900  0.997400  0.574700  1.0  0.0803
  H  H59  1  0.310100  0.912200  0.445200  1.0  0.0967
  H  H60  1  0.312100  0.016200  0.389800  1.0  0.1301
  H  H61  1  0.966700  0.073600  0.606900  1.0  0.1012
  H  H62  1  0.036100  0.056500  0.712800  1.0  0.117
  H  H63  1  0.041300  0.281000  0.768000  1.0  0.1146
  H  H64  1  0.087400  0.361600  0.606500  1.0  0.1283
  H  H65  1  0.038600  0.292400  0.559500  1.0  0.1365
  H  H66  1  0.041100  0.378700  0.734800  1.0  0.1227
  H  H67  1  0.985200  0.432900  0.690300  1.0  0.1297
  H  H68  1  0.654000  0.313400  0.071600  1.0  0.1145
  H  H69  1  0.520900  0.238400  0.058900  1.0  0.124
  H  H70  1  0.437100  0.340600  0.896600  1.0  0.1236
  H  H71  1  0.527700  0.542300  0.925800  1.0  0.1338
  H  H72  1  0.602400  0.513100  0.977700  1.0  0.1129
  H  H73  1  0.443900  0.432500  0.849700  1.0  0.1115
  H  H74  1  0.515300  0.483700  0.813300  1.0  0.1333
  H  H75  1  0.886800  0.298600  0.904000  1.0  0.0781
  H  H76  1  0.906800  0.186300  0.946600  1.0  0.1315
  H  H77  1  0.639000  0.133700  0.888100  1.0  0.1362
  H  H78  1  0.630500  0.244300  0.841500  1.0  0.0863
  H  H79  1  0.883300  0.106100  0.024200  1.0  0.116
  H  H80  1  0.881100  0.997400  0.074700  1.0  0.0805
  H  H81  1  0.689900  0.912200  0.945200  1.0  0.0964
  H  H82  1  0.687900  0.016200  0.889800  1.0  0.1299
  H  H83  1  0.966700  0.926400  0.893100  1.0  0.1006
  H  H84  1  0.036100  0.943500  0.787200  1.0  0.1169
  H  H85  1  0.041300  0.719000  0.732000  1.0  0.1149
  H  H86  1  0.087400  0.638400  0.893500  1.0  0.1283
  H  H87  1  0.038600  0.707600  0.940500  1.0  0.1366
  H  H88  1  0.041100  0.621300  0.765200  1.0  0.1233
  H  H89  1  0.985200  0.567100  0.809700  1.0  0.1314
  H  H90  1  0.654000  0.686600  0.428400  1.0  0.1144
  H  H91  1  0.520900  0.761600  0.441100  1.0  0.1249
  H  H92  1  0.437100  0.659400  0.603400  1.0  0.1243
  H  H93  1  0.527700  0.457700  0.574200  1.0  0.1333
  H  H94  1  0.602400  0.486900  0.522300  1.0  0.1149
  H  H95  1  0.443900  0.567500  0.650300  1.0  0.1111
  H  H96  1  0.515300  0.516300  0.686700  1.0  0.1336
  H  H97  1  0.886800  0.701400  0.596000  1.0  0.0786
  H  H98  1  0.906800  0.813700  0.553400  1.0  0.1314
  H  H99  1  0.639000  0.866300  0.611900  1.0  0.1364
  H  H100  1  0.630500  0.755700  0.658500  1.0  0.0863
  H  H101  1  0.883300  0.893900  0.475800  1.0  0.116
  H  H102  1  0.881100  0.002600  0.425300  1.0  0.08
  H  H103  1  0.689900  0.087800  0.554800  1.0  0.0964
  H  H104  1  0.687900  0.983800  0.610200  1.0  0.1295
  C  C105  1  0.080900  0.809500  0.447200  1.0  0.6646
  C  C106  1  0.035000  0.813300  0.377300  1.0  -0.2158
  C  C107  1  0.017200  0.884100  0.360500  1.0  -0.0263
  C  C108  1  0.976900  0.894700  0.297600  1.0  -0.0808
  C  C109  1  0.955800  0.832300  0.249800  1.0  -0.0564
  C  C110  1  0.905500  0.841800  0.181500  1.0  0.6616
  C  C111  1  0.973300  0.761000  0.265500  1.0  -0.1492
  C  C112  1  0.011500  0.750100  0.329000  1.0  0.1493
  C  C113  1  0.973900  0.660400  0.409500  1.0  -0.2193
  C  C114  1  0.025300  0.606900  0.450700  1.0  0.7138
  C  C115  1  0.018600  0.614800  0.290200  1.0  -0.2364
  C  C116  1  0.098900  0.611000  0.238800  1.0  0.7128
  C  C117  1  0.282600  0.585500  0.996100  1.0  0.6723
  C  C118  1  0.373600  0.627600  0.008700  1.0  -0.265
  C  C119  1  0.390100  0.680800  0.964300  1.0  -0.0037
  C  C120  1  0.469200  0.725200  0.971500  1.0  -0.0924
  C  C121  1  0.533600  0.716600  0.022500  1.0  -0.0342
  C  C122  1  0.623100  0.762100  0.028000  1.0  0.6687
  C  C123  1  0.518500  0.664000  0.067400  1.0  -0.164
  C  C124  1  0.439800  0.617600  0.060900  1.0  0.1635
  C  C125  1  0.412600  0.485500  0.072200  1.0  -0.2205
  C  C126  1  0.335000  0.444100  0.104700  1.0  0.6967
  C  C127  1  0.490600  0.563900  0.167100  1.0  -0.2431
  C  C128  1  0.472800  0.628100  0.225100  1.0  0.7075
  C  C129  1  0.163500  0.736300  0.100500  1.0  0.1719
  C  C130  1  0.151600  0.802400  0.073600  1.0  -0.2005
  C  C131  1  0.226700  0.852600  0.076400  1.0  0.1036
  C  C132  1  0.308300  0.833700  0.108600  1.0  -0.2063
  C  C133  1  0.312900  0.767300  0.136100  1.0  0.1809
  C  C134  1  0.160600  0.932000  0.991800  1.0  -0.1829
  C  C135  1  0.162100  0.997700  0.962000  1.0  0.1883
  C  C136  1  0.271800  0.046600  0.036800  1.0  0.1716
  C  C137  1  0.274300  0.984400  0.069600  1.0  -0.2082
  C  C138  1  0.222000  0.922300  0.043900  1.0  0.1146
  C  C139  1  0.080900  0.190500  0.052800  1.0  0.6644
  C  C140  1  0.035000  0.186700  0.122700  1.0  -0.2171
  C  C141  1  0.017200  0.115900  0.139500  1.0  -0.0259
  C  C142  1  0.976900  0.105300  0.202400  1.0  -0.08
  C  C143  1  0.955800  0.167700  0.250200  1.0  -0.0567
  C  C144  1  0.905500  0.158200  0.318500  1.0  0.6622
  C  C145  1  0.973300  0.239000  0.234500  1.0  -0.1497
  C  C146  1  0.011500  0.249900  0.171000  1.0  0.1496
  C  C147  1  0.973900  0.339600  0.090500  1.0  -0.2205
  C  C148  1  0.025300  0.393100  0.049300  1.0  0.7141
  C  C149  1  0.018600  0.385200  0.209800  1.0  -0.2395
  C  C150  1  0.098900  0.389000  0.261200  1.0  0.7167
  C  C151  1  0.282600  0.414500  0.503900  1.0  0.6721
  C  C152  1  0.373600  0.372400  0.491300  1.0  -0.2648
  C  C153  1  0.390100  0.319200  0.535700  1.0  -0.0033
  C  C154  1  0.469200  0.274800  0.528500  1.0  -0.0951
  C  C155  1  0.533600  0.283400  0.477500  1.0  -0.0341
  C  C156  1  0.623100  0.237900  0.472000  1.0  0.669
  C  C157  1  0.518500  0.336000  0.432600  1.0  -0.1638
  C  C158  1  0.439800  0.382400  0.439100  1.0  0.1631
  C  C159  1  0.412600  0.514500  0.427800  1.0  -0.2192
  C  C160  1  0.335000  0.555900  0.395300  1.0  0.6985
  C  C161  1  0.490600  0.436100  0.332900  1.0  -0.244
  C  C162  1  0.472800  0.371900  0.274900  1.0  0.7012
  C  C163  1  0.163500  0.263700  0.399500  1.0  0.1723
  C  C164  1  0.151600  0.197600  0.426400  1.0  -0.2004
  C  C165  1  0.226700  0.147400  0.423600  1.0  0.1038
  C  C166  1  0.308300  0.166300  0.391400  1.0  -0.2062
  C  C167  1  0.312900  0.232700  0.363900  1.0  0.1813
  C  C168  1  0.160600  0.068000  0.508200  1.0  -0.1825
  C  C169  1  0.162100  0.002300  0.538000  1.0  0.1894
  C  C170  1  0.271800  0.953400  0.463200  1.0  0.1714
  C  C171  1  0.274300  0.015600  0.430400  1.0  -0.2074
  C  C172  1  0.222000  0.077700  0.456100  1.0  0.1144
  C  C173  1  0.919100  0.190500  0.552800  1.0  0.665
  C  C174  1  0.965000  0.186700  0.622700  1.0  -0.218
  C  C175  1  0.982800  0.115900  0.639500  1.0  -0.025
  C  C176  1  0.023100  0.105300  0.702400  1.0  -0.0793
  C  C177  1  0.044200  0.167700  0.750200  1.0  -0.0583
  C  C178  1  0.094500  0.158200  0.818500  1.0  0.6606
  C  C179  1  0.026700  0.239000  0.734500  1.0  -0.1485
  C  C180  1  0.988500  0.249900  0.671000  1.0  0.1499
  C  C181  1  0.026100  0.339600  0.590500  1.0  -0.2199
  C  C182  1  0.974700  0.393100  0.549300  1.0  0.7158
  C  C183  1  0.981400  0.385200  0.709800  1.0  -0.2382
  C  C184  1  0.901100  0.389000  0.761200  1.0  0.7128
  C  C185  1  0.717400  0.414500  0.003900  1.0  0.6733
  C  C186  1  0.626400  0.372400  0.991300  1.0  -0.2638
  C  C187  1  0.609900  0.319200  0.035700  1.0  -0.0034
  C  C188  1  0.530800  0.274800  0.028500  1.0  -0.0953
  C  C189  1  0.466400  0.283400  0.977500  1.0  -0.0326
  C  C190  1  0.376900  0.237900  0.972000  1.0  0.6682
  C  C191  1  0.481500  0.336000  0.932600  1.0  -0.1638
  C  C192  1  0.560200  0.382400  0.939100  1.0  0.1626
  C  C193  1  0.587400  0.514500  0.927800  1.0  -0.2217
  C  C194  1  0.665000  0.555900  0.895300  1.0  0.7
  C  C195  1  0.509400  0.436100  0.832900  1.0  -0.2445
  C  C196  1  0.527200  0.371900  0.774900  1.0  0.7037
  C  C197  1  0.836500  0.263700  0.899500  1.0  0.1725
  C  C198  1  0.848400  0.197600  0.926400  1.0  -0.1997
  C  C199  1  0.773300  0.147400  0.923600  1.0  0.1035
  C  C200  1  0.691700  0.166300  0.891400  1.0  -0.2063
  C  C201  1  0.687100  0.232700  0.863900  1.0  0.1821
  C  C202  1  0.839400  0.068000  0.008200  1.0  -0.1845
  C  C203  1  0.837900  0.002300  0.038000  1.0  0.1884
  C  C204  1  0.728200  0.953400  0.963200  1.0  0.1721
  C  C205  1  0.725700  0.015600  0.930400  1.0  -0.2083
  C  C206  1  0.778000  0.077700  0.956100  1.0  0.1155
  C  C207  1  0.919100  0.809500  0.947200  1.0  0.6646
  C  C208  1  0.965000  0.813300  0.877300  1.0  -0.2166
  C  C209  1  0.982800  0.884100  0.860500  1.0  -0.0256
  C  C210  1  0.023100  0.894700  0.797600  1.0  -0.0804
  C  C211  1  0.044200  0.832300  0.749800  1.0  -0.0568
  C  C212  1  0.094500  0.841800  0.681500  1.0  0.6596
  C  C213  1  0.026700  0.761000  0.765500  1.0  -0.1487
  C  C214  1  0.988500  0.750100  0.829000  1.0  0.1496
  C  C215  1  0.026100  0.660400  0.909500  1.0  -0.2185
  C  C216  1  0.974700  0.606900  0.950700  1.0  0.7139
  C  C217  1  0.981400  0.614800  0.790200  1.0  -0.2359
  C  C218  1  0.901100  0.611000  0.738800  1.0  0.7104
  C  C219  1  0.717400  0.585500  0.496100  1.0  0.6722
  C  C220  1  0.626400  0.627600  0.508700  1.0  -0.2642
  C  C221  1  0.609900  0.680800  0.464300  1.0  -0.0056
  C  C222  1  0.530800  0.725200  0.471500  1.0  -0.0931
  C  C223  1  0.466400  0.716600  0.522500  1.0  -0.0333
  C  C224  1  0.376900  0.762100  0.528000  1.0  0.6678
  C  C225  1  0.481500  0.664000  0.567400  1.0  -0.1646
  C  C226  1  0.560200  0.617600  0.560900  1.0  0.1629
  C  C227  1  0.587400  0.485500  0.572200  1.0  -0.2218
  C  C228  1  0.665000  0.444100  0.604700  1.0  0.6985
  C  C229  1  0.509400  0.563900  0.667100  1.0  -0.2441
  C  C230  1  0.527200  0.628100  0.725100  1.0  0.7113
  C  C231  1  0.836500  0.736300  0.600500  1.0  0.1718
  C  C232  1  0.848400  0.802400  0.573600  1.0  -0.2001
  C  C233  1  0.773300  0.852600  0.576400  1.0  0.1036
  C  C234  1  0.691700  0.833700  0.608600  1.0  -0.2065
  C  C235  1  0.687100  0.767300  0.636100  1.0  0.1798
  C  C236  1  0.839400  0.932000  0.491800  1.0  -0.1843
  C  C237  1  0.837900  0.997700  0.462000  1.0  0.1881
  C  C238  1  0.728200  0.046600  0.536800  1.0  0.1713
  C  C239  1  0.725700  0.984400  0.569600  1.0  -0.2086
  C  C240  1  0.778000  0.922300  0.543900  1.0  0.1152
  N  N241  1  0.029100  0.676600  0.348000  1.0  -0.163
  N  N242  1  0.426000  0.562400  0.107100  1.0  -0.1242
  N  N243  1  0.242200  0.718500  0.132700  1.0  -0.3542
  N  N244  1  0.219100  0.053100  0.981200  1.0  -0.3405
  N  N245  1  0.029100  0.323400  0.152000  1.0  -0.1633
  N  N246  1  0.426000  0.437600  0.392900  1.0  -0.1249
  N  N247  1  0.242200  0.281500  0.367300  1.0  -0.3541
  N  N248  1  0.219100  0.946900  0.518800  1.0  -0.3402
  N  N249  1  0.970900  0.323400  0.652000  1.0  -0.1629
  N  N250  1  0.574000  0.437600  0.892900  1.0  -0.1244
  N  N251  1  0.757800  0.281500  0.867300  1.0  -0.3544
  N  N252  1  0.780900  0.946900  0.018800  1.0  -0.3392
  N  N253  1  0.970900  0.676600  0.848000  1.0  -0.1634
  N  N254  1  0.574000  0.562400  0.607100  1.0  -0.123
  N  N255  1  0.757800  0.718500  0.632700  1.0  -0.354
  N  N256  1  0.780900  0.053100  0.481200  1.0  -0.3385
  O  O257  1  0.151600  0.766700  0.451490  1.0  -0.6572
  O  O258  1  0.051500  0.851500  0.498460  1.0  -0.5529
  O  O259  1  0.892000  0.904600  0.166300  1.0  -0.6096
  O  O260  1  0.878200  0.784400  0.144100  1.0  -0.6028
  O  O261  1  0.109200  0.590200  0.436800  1.0  -0.6197
  O  O262  1  0.981300  0.582100  0.499230  1.0  -0.6353
  O  O263  1  0.178600  0.634800  0.260880  1.0  -0.6287
  O  O264  1  0.088600  0.581500  0.177460  1.0  -0.6114
  O  O265  1  0.247400  0.576500  0.936600  1.0  -0.577
  O  O266  1  0.241500  0.559800  0.046690  1.0  -0.6389
  O  O267  1  0.634600  0.807700  0.986500  1.0  -0.6397
  O  O268  1  0.683000  0.749000  0.070600  1.0  -0.5967
  O  O269  1  0.292300  0.472300  0.157600  1.0  -0.5862
  O  O270  1  0.319300  0.379200  0.073900  1.0  -0.5855
  O  O271  1  0.389600  0.654300  0.232200  1.0  -0.6653
  O  O272  1  0.537600  0.649100  0.264300  1.0  -0.5809
  O  O273  1  0.151600  0.233300  0.048510  1.0  -0.6566
  O  O274  1  0.051500  0.148500  0.001540  1.0  -0.5532
  O  O275  1  0.892000  0.095400  0.333700  1.0  -0.6082
  O  O276  1  0.878200  0.215600  0.355900  1.0  -0.6019
  O  O277  1  0.109200  0.409800  0.063200  1.0  -0.6203
  O  O278  1  0.981300  0.417900  0.000770  1.0  -0.6343
  O  O279  1  0.178600  0.365200  0.239120  1.0  -0.6278
  O  O280  1  0.088600  0.418500  0.322540  1.0  -0.605
  O  O281  1  0.247400  0.423500  0.563400  1.0  -0.577
  O  O282  1  0.241500  0.440200  0.453310  1.0  -0.638
  O  O283  1  0.634600  0.192300  0.513500  1.0  -0.6391
  O  O284  1  0.683000  0.251000  0.429400  1.0  -0.5967
  O  O285  1  0.292300  0.527700  0.342400  1.0  -0.5854
  O  O286  1  0.319300  0.620800  0.426100  1.0  -0.5861
  O  O287  1  0.389600  0.345700  0.267800  1.0  -0.6647
  O  O288  1  0.537600  0.350900  0.235700  1.0  -0.5767
  O  O289  1  0.848400  0.233300  0.548510  1.0  -0.659
  O  O290  1  0.948500  0.148500  0.501540  1.0  -0.5532
  O  O291  1  0.108000  0.095400  0.833700  1.0  -0.6085
  O  O292  1  0.121800  0.215600  0.855900  1.0  -0.6005
  O  O293  1  0.890800  0.409800  0.563200  1.0  -0.6294
  O  O294  1  0.018700  0.417900  0.500770  1.0  -0.6338
  O  O295  1  0.821400  0.365200  0.739120  1.0  -0.628
  O  O296  1  0.911400  0.418500  0.822540  1.0  -0.6045
  O  O297  1  0.752600  0.423500  0.063400  1.0  -0.5762
  O  O298  1  0.758500  0.440200  0.953310  1.0  -0.6373
  O  O299  1  0.365400  0.192300  0.013500  1.0  -0.6391
  O  O300  1  0.317000  0.251000  0.929400  1.0  -0.5951
  O  O301  1  0.707700  0.527700  0.842400  1.0  -0.5856
  O  O302  1  0.680700  0.620800  0.926100  1.0  -0.5853
  O  O303  1  0.610400  0.345700  0.767800  1.0  -0.665
  O  O304  1  0.462400  0.350900  0.735700  1.0  -0.5779
  O  O305  1  0.848400  0.766700  0.951490  1.0  -0.6608
  O  O306  1  0.948500  0.851500  0.998460  1.0  -0.5528
  O  O307  1  0.108000  0.904600  0.666300  1.0  -0.608
  O  O308  1  0.121800  0.784400  0.644100  1.0  -0.6032
  O  O309  1  0.890800  0.590200  0.936800  1.0  -0.6295
  O  O310  1  0.018700  0.582100  0.999230  1.0  -0.6347
  O  O311  1  0.821400  0.634800  0.760880  1.0  -0.6286
  O  O312  1  0.911400  0.581500  0.677460  1.0  -0.6118
  O  O313  1  0.752600  0.576500  0.436600  1.0  -0.5778
  O  O314  1  0.758500  0.559800  0.546690  1.0  -0.6383
  O  O315  1  0.365400  0.807700  0.486500  1.0  -0.6394
  O  O316  1  0.317000  0.749000  0.570600  1.0  -0.5969
  O  O317  1  0.707700  0.472300  0.657600  1.0  -0.5864
  O  O318  1  0.680700  0.379200  0.573900  1.0  -0.5857
  O  O319  1  0.610400  0.654300  0.732200  1.0  -0.6664
  O  O320  1  0.462400  0.649100  0.764300  1.0  -0.5765
