# generated using pymatgen
data_Zn3H19C27N4O9
_symmetry_space_group_name_H-M   'P 1'
_cell_length_a   15.79910000
_cell_length_b   11.42570000
_cell_length_c   18.75820000
_cell_angle_alpha   90.00000000
_cell_angle_beta   103.36700000
_cell_angle_gamma   90.00000000
_symmetry_Int_Tables_number   1
_chemical_formula_structural   Zn3H19C27N4O9
_chemical_formula_sum   'Zn12 H76 C108 N16 O36'
_cell_volume   3294.41748483
_cell_formula_units_Z   4
loop_
 _symmetry_equiv_pos_site_id
 _symmetry_equiv_pos_as_xyz
  1  'x, y, z'
loop_
 _atom_site_type_symbol
 _atom_site_label
 _atom_site_symmetry_multiplicity
 _atom_site_fract_x
 _atom_site_fract_y
 _atom_site_fract_z
 _atom_site_occupancy
 _atom_site_charge
  Zn  Zn1  1  0.578980  0.683560  0.193970  1.0  0.9145
  Zn  Zn2  1  0.773750  0.808380  0.170130  1.0  0.9844
  Zn  Zn3  1  0.582960  0.090880  0.999660  1.0  0.9199
  Zn  Zn4  1  0.921020  0.683560  0.306030  1.0  0.9157
  Zn  Zn5  1  0.726250  0.808380  0.329870  1.0  0.9804
  Zn  Zn6  1  0.917040  0.090880  0.500350  1.0  0.9202
  Zn  Zn7  1  0.421020  0.316440  0.806040  1.0  0.9164
  Zn  Zn8  1  0.226250  0.191620  0.829870  1.0  0.98
  Zn  Zn9  1  0.417040  0.909120  0.000350  1.0  0.9202
  Zn  Zn10  1  0.078980  0.316440  0.693970  1.0  0.9149
  Zn  Zn11  1  0.273750  0.191620  0.670130  1.0  0.9847
  Zn  Zn12  1  0.082960  0.909120  0.499650  1.0  0.9207
  H  H13  1  0.857900  0.155300  0.193200  1.0  0.1017
  H  H14  1  0.901200  0.348800  0.216100  1.0  0.1154
  H  H15  1  0.659600  0.455000  0.113300  1.0  0.0998
  H  H16  1  0.495200  0.280600  0.136100  1.0  0.1379
  H  H17  1  0.571500  0.194600  0.175000  1.0  0.13
  H  H18  1  0.294100  0.715400  0.034300  1.0  0.0673
  H  H19  1  0.160300  0.690800  0.059700  1.0  0.1229
  H  H20  1  0.136200  0.042900  0.060900  1.0  0.1216
  H  H21  1  0.270000  0.057100  0.032700  1.0  0.0874
  H  H22  1  0.010500  0.696600  0.035200  1.0  0.1203
  H  H23  1  0.883500  0.677500  0.076400  1.0  0.0762
  H  H24  1  0.924200  0.979300  0.176900  1.0  0.0802
  H  H25  1  0.050400  0.007600  0.138300  1.0  0.1228
  H  H26  1  0.438700  0.867800  0.193700  1.0  0.0846
  H  H27  1  0.300300  0.877800  0.213200  1.0  0.1202
  H  H28  1  0.321200  0.538300  0.274600  1.0  0.1158
  H  H29  1  0.464000  0.540200  0.266100  1.0  0.1024
  H  H30  1  0.499300  0.379400  0.051900  1.0  0.1023
  H  H31  1  0.581900  0.401600  0.024300  1.0  0.2071
  H  H32  1  0.642100  0.155300  0.306800  1.0  0.1022
  H  H33  1  0.598800  0.348800  0.283900  1.0  0.1146
  H  H34  1  0.840400  0.455000  0.386700  1.0  0.1
  H  H35  1  0.004800  0.280600  0.363900  1.0  0.1377
  H  H36  1  0.928500  0.194600  0.325000  1.0  0.131
  H  H37  1  0.205900  0.715400  0.465700  1.0  0.0675
  H  H38  1  0.339700  0.690800  0.440300  1.0  0.1239
  H  H39  1  0.363800  0.042900  0.439100  1.0  0.121
  H  H40  1  0.230000  0.057100  0.467300  1.0  0.0873
  H  H41  1  0.489500  0.696600  0.464800  1.0  0.121
  H  H42  1  0.616500  0.677500  0.423600  1.0  0.0772
  H  H43  1  0.575800  0.979300  0.323100  1.0  0.0798
  H  H44  1  0.449600  0.007600  0.361700  1.0  0.1231
  H  H45  1  0.061300  0.867800  0.306300  1.0  0.0843
  H  H46  1  0.199700  0.877800  0.286800  1.0  0.1205
  H  H47  1  0.178800  0.538300  0.225400  1.0  0.1166
  H  H48  1  0.036000  0.540200  0.233900  1.0  0.1023
  H  H49  1  0.000700  0.379400  0.448100  1.0  0.1009
  H  H50  1  0.918100  0.401600  0.475700  1.0  0.2068
  H  H51  1  0.142100  0.844700  0.806800  1.0  0.1023
  H  H52  1  0.098800  0.651200  0.783900  1.0  0.1148
  H  H53  1  0.340400  0.545000  0.886700  1.0  0.1009
  H  H54  1  0.504800  0.719400  0.863900  1.0  0.1378
  H  H55  1  0.428500  0.805400  0.825000  1.0  0.1312
  H  H56  1  0.705900  0.284600  0.965700  1.0  0.068
  H  H57  1  0.839700  0.309200  0.940300  1.0  0.1233
  H  H58  1  0.863800  0.957100  0.939100  1.0  0.1212
  H  H59  1  0.730000  0.942900  0.967300  1.0  0.0873
  H  H60  1  0.989500  0.303400  0.964800  1.0  0.1206
  H  H61  1  0.116500  0.322500  0.923600  1.0  0.0771
  H  H62  1  0.075800  0.020700  0.823100  1.0  0.0797
  H  H63  1  0.949600  0.992400  0.861700  1.0  0.1223
  H  H64  1  0.561300  0.132200  0.806300  1.0  0.0844
  H  H65  1  0.699700  0.122200  0.786800  1.0  0.1208
  H  H66  1  0.678800  0.461700  0.725400  1.0  0.1175
  H  H67  1  0.536000  0.459800  0.733900  1.0  0.1031
  H  H68  1  0.500700  0.620600  0.948100  1.0  0.1
  H  H69  1  0.418100  0.598400  0.975700  1.0  0.2064
  H  H70  1  0.357900  0.844700  0.693200  1.0  0.1017
  H  H71  1  0.401200  0.651200  0.716100  1.0  0.1152
  H  H72  1  0.159600  0.545000  0.613300  1.0  0.1004
  H  H73  1  0.995200  0.719400  0.636100  1.0  0.1378
  H  H74  1  0.071500  0.805400  0.675000  1.0  0.1301
  H  H75  1  0.794100  0.284600  0.534300  1.0  0.0673
  H  H76  1  0.660300  0.309200  0.559700  1.0  0.1237
  H  H77  1  0.636200  0.957100  0.560900  1.0  0.1214
  H  H78  1  0.770000  0.942900  0.532700  1.0  0.0872
  H  H79  1  0.510500  0.303400  0.535200  1.0  0.1209
  H  H80  1  0.383500  0.322500  0.576400  1.0  0.0768
  H  H81  1  0.424200  0.020700  0.676900  1.0  0.0805
  H  H82  1  0.550400  0.992400  0.638300  1.0  0.123
  H  H83  1  0.938700  0.132200  0.693700  1.0  0.0848
  H  H84  1  0.800300  0.122200  0.713200  1.0  0.1206
  H  H85  1  0.821200  0.461700  0.774600  1.0  0.1164
  H  H86  1  0.964000  0.459800  0.766100  1.0  0.1029
  H  H87  1  0.999300  0.620600  0.551900  1.0  0.1032
  H  H88  1  0.081900  0.598400  0.524300  1.0  0.2062
  C  C89  1  0.712410  0.056400  0.137210  1.0  0.6629
  C  C90  1  0.731720  0.186100  0.141860  1.0  -0.0934
  C  C91  1  0.816750  0.216100  0.177750  1.0  -0.0503
  C  C92  1  0.843040  0.330900  0.191490  1.0  -0.1592
  C  C93  1  0.782970  0.419400  0.168650  1.0  -0.1577
  C  C94  1  0.699470  0.393200  0.129950  1.0  -0.173
  C  C95  1  0.672700  0.277800  0.114970  1.0  0.0678
  C  C96  1  0.809080  0.542700  0.191980  1.0  0.653
  C  C97  1  0.531070  0.213200  0.127610  1.0  -0.231
  C  C98  1  0.471070  0.108800  0.105300  1.0  0.7058
  C  C99  1  0.541250  0.345700  0.025710  1.0  -0.1619
  C  C100  1  0.500070  0.305200  0.948360  1.0  0.6926
  C  C101  1  0.261100  0.783100  0.039430  1.0  0.1794
  C  C102  1  0.181800  0.767400  0.054930  1.0  -0.2052
  C  C103  1  0.132200  0.866200  0.063720  1.0  0.0899
  C  C104  1  0.167400  0.973700  0.055300  1.0  -0.2061
  C  C105  1  0.247600  0.981500  0.038820  1.0  0.156
  C  C106  1  0.047090  0.853100  0.084400  1.0  0.0852
  C  C107  1  0.994600  0.755900  0.065100  1.0  -0.2273
  C  C108  1  0.918200  0.745400  0.089900  1.0  0.1643
  C  C109  1  0.942100  0.920200  0.147900  1.0  0.1695
  C  C110  1  0.018000  0.937600  0.125500  1.0  -0.2109
  C  C111  1  0.414400  0.800200  0.210590  1.0  0.1768
  C  C112  1  0.332000  0.806500  0.221690  1.0  -0.1875
  C  C113  1  0.295150  0.708500  0.245330  1.0  0.0657
  C  C114  1  0.345300  0.607500  0.259400  1.0  -0.1666
  C  C115  1  0.428600  0.607130  0.251470  1.0  0.1351
  C  C116  1  0.787590  0.056400  0.362790  1.0  0.664
  C  C117  1  0.768280  0.186100  0.358140  1.0  -0.0931
  C  C118  1  0.683250  0.216100  0.322250  1.0  -0.0507
  C  C119  1  0.656960  0.330900  0.308510  1.0  -0.1556
  C  C120  1  0.717030  0.419400  0.331350  1.0  -0.1597
  C  C121  1  0.800530  0.393200  0.370050  1.0  -0.1725
  C  C122  1  0.827300  0.277800  0.385030  1.0  0.0671
  C  C123  1  0.690920  0.542700  0.308020  1.0  0.652
  C  C124  1  0.968930  0.213200  0.372390  1.0  -0.2308
  C  C125  1  0.028930  0.108800  0.394700  1.0  0.7024
  C  C126  1  0.958750  0.345700  0.474290  1.0  -0.1597
  C  C127  1  0.999930  0.305200  0.551640  1.0  0.6912
  C  C128  1  0.238900  0.783100  0.460570  1.0  0.1803
  C  C129  1  0.318200  0.767400  0.445070  1.0  -0.205
  C  C130  1  0.367800  0.866200  0.436280  1.0  0.0901
  C  C131  1  0.332600  0.973700  0.444700  1.0  -0.2055
  C  C132  1  0.252400  0.981500  0.461180  1.0  0.1538
  C  C133  1  0.452910  0.853100  0.415600  1.0  0.085
  C  C134  1  0.505400  0.755900  0.434900  1.0  -0.2277
  C  C135  1  0.581800  0.745400  0.410100  1.0  0.1655
  C  C136  1  0.557900  0.920200  0.352100  1.0  0.1697
  C  C137  1  0.482000  0.937600  0.374500  1.0  -0.2115
  C  C138  1  0.085600  0.800200  0.289410  1.0  0.1762
  C  C139  1  0.168000  0.806500  0.278310  1.0  -0.1877
  C  C140  1  0.204850  0.708500  0.254670  1.0  0.0665
  C  C141  1  0.154700  0.607500  0.240600  1.0  -0.1667
  C  C142  1  0.071400  0.607130  0.248530  1.0  0.1355
  C  C143  1  0.287590  0.943600  0.862790  1.0  0.6653
  C  C144  1  0.268280  0.813900  0.858140  1.0  -0.0926
  C  C145  1  0.183250  0.783900  0.822250  1.0  -0.0497
  C  C146  1  0.156960  0.669100  0.808510  1.0  -0.1552
  C  C147  1  0.217030  0.580600  0.831350  1.0  -0.1587
  C  C148  1  0.300530  0.606800  0.870050  1.0  -0.1725
  C  C149  1  0.327300  0.722200  0.885030  1.0  0.0674
  C  C150  1  0.190920  0.457300  0.808020  1.0  0.6532
  C  C151  1  0.468930  0.786800  0.872390  1.0  -0.2285
  C  C152  1  0.528930  0.891200  0.894700  1.0  0.7033
  C  C153  1  0.458750  0.654300  0.974290  1.0  -0.1603
  C  C154  1  0.499930  0.694800  0.051640  1.0  0.6922
  C  C155  1  0.738900  0.216900  0.960570  1.0  0.1794
  C  C156  1  0.818200  0.232600  0.945070  1.0  -0.2048
  C  C157  1  0.867800  0.133800  0.936280  1.0  0.0901
  C  C158  1  0.832600  0.026300  0.944700  1.0  -0.2054
  C  C159  1  0.752400  0.018500  0.961180  1.0  0.1541
  C  C160  1  0.952910  0.146900  0.915600  1.0  0.085
  C  C161  1  0.005400  0.244100  0.934900  1.0  -0.2268
  C  C162  1  0.081800  0.254600  0.910100  1.0  0.1648
  C  C163  1  0.057900  0.079800  0.852100  1.0  0.1698
  C  C164  1  0.982000  0.062400  0.874500  1.0  -0.2122
  C  C165  1  0.585600  0.199800  0.789410  1.0  0.1769
  C  C166  1  0.668000  0.193500  0.778310  1.0  -0.187
  C  C167  1  0.704850  0.291500  0.754670  1.0  0.0667
  C  C168  1  0.654700  0.392500  0.740600  1.0  -0.1661
  C  C169  1  0.571400  0.392870  0.748530  1.0  0.1344
  C  C170  1  0.212410  0.943600  0.637210  1.0  0.6645
  C  C171  1  0.231720  0.813900  0.641860  1.0  -0.0925
  C  C172  1  0.316750  0.783900  0.677750  1.0  -0.0498
  C  C173  1  0.343040  0.669100  0.691490  1.0  -0.1591
  C  C174  1  0.282970  0.580600  0.668650  1.0  -0.1582
  C  C175  1  0.199470  0.606800  0.629950  1.0  -0.1728
  C  C176  1  0.172700  0.722200  0.614970  1.0  0.0687
  C  C177  1  0.309080  0.457300  0.691980  1.0  0.6535
  C  C178  1  0.031070  0.786800  0.627610  1.0  -0.2322
  C  C179  1  0.971070  0.891200  0.605300  1.0  0.7063
  C  C180  1  0.041250  0.654300  0.525710  1.0  -0.1611
  C  C181  1  0.000070  0.694800  0.448360  1.0  0.6936
  C  C182  1  0.761100  0.216900  0.539430  1.0  0.1791
  C  C183  1  0.681800  0.232600  0.554930  1.0  -0.2052
  C  C184  1  0.632200  0.133800  0.563720  1.0  0.0899
  C  C185  1  0.667400  0.026300  0.555300  1.0  -0.205
  C  C186  1  0.747600  0.018500  0.538820  1.0  0.1559
  C  C187  1  0.547090  0.146900  0.584400  1.0  0.0851
  C  C188  1  0.494600  0.244100  0.565100  1.0  -0.2258
  C  C189  1  0.418200  0.254600  0.589900  1.0  0.1648
  C  C190  1  0.442100  0.079800  0.647900  1.0  0.1697
  C  C191  1  0.518000  0.062400  0.625500  1.0  -0.2127
  C  C192  1  0.914400  0.199800  0.710590  1.0  0.1774
  C  C193  1  0.832000  0.193500  0.721690  1.0  -0.187
  C  C194  1  0.795150  0.291500  0.745330  1.0  0.0664
  C  C195  1  0.845300  0.392500  0.759400  1.0  -0.1675
  C  C196  1  0.928600  0.392870  0.751470  1.0  0.1341
  N  N197  1  0.583810  0.250670  0.075090  1.0  -0.1405
  N  N198  1  0.295820  0.887800  0.030910  1.0  -0.3516
  N  N199  1  0.891420  0.824800  0.131430  1.0  -0.3467
  N  N200  1  0.462410  0.702000  0.222670  1.0  -0.3549
  N  N201  1  0.916190  0.250670  0.424910  1.0  -0.1414
  N  N202  1  0.204180  0.887800  0.469090  1.0  -0.3527
  N  N203  1  0.608580  0.824800  0.368570  1.0  -0.3463
  N  N204  1  0.037590  0.702000  0.277330  1.0  -0.3547
  N  N205  1  0.416190  0.749330  0.924910  1.0  -0.1418
  N  N206  1  0.704180  0.112200  0.969090  1.0  -0.3529
  N  N207  1  0.108580  0.175200  0.868570  1.0  -0.3463
  N  N208  1  0.537590  0.298000  0.777330  1.0  -0.355
  N  N209  1  0.083810  0.749330  0.575090  1.0  -0.1409
  N  N210  1  0.795820  0.112200  0.530910  1.0  -0.3514
  N  N211  1  0.391420  0.175200  0.631430  1.0  -0.3465
  N  N212  1  0.962410  0.298000  0.722670  1.0  -0.3548
  O  O213  1  0.435000  0.068300  0.151270  1.0  -0.5812
  O  O214  1  0.514530  0.204790  0.926110  1.0  -0.6045
  O  O215  1  0.454510  0.380140  0.907040  1.0  -0.5811
  O  O216  1  0.640410  0.019030  0.099690  1.0  -0.5904
  O  O217  1  0.770180  0.991030  0.172000  1.0  -0.5885
  O  O218  1  0.878040  0.551060  0.242180  1.0  -0.5931
  O  O219  1  0.762150  0.625970  0.163660  1.0  -0.6073
  O  O220  1  0.661000  0.810080  0.216800  1.0  -0.7068
  O  O221  1  0.461110  0.071680  0.039000  1.0  -0.6668
  O  O222  1  0.065000  0.068300  0.348730  1.0  -0.5816
  O  O223  1  0.985470  0.204790  0.573890  1.0  -0.604
  O  O224  1  0.045490  0.380140  0.592960  1.0  -0.5799
  O  O225  1  0.859590  0.019030  0.400310  1.0  -0.5901
  O  O226  1  0.729820  0.991030  0.328000  1.0  -0.5875
  O  O227  1  0.621960  0.551060  0.257820  1.0  -0.5936
  O  O228  1  0.737850  0.625970  0.336340  1.0  -0.6092
  O  O229  1  0.839000  0.810080  0.283200  1.0  -0.7052
  O  O230  1  0.038890  0.071680  0.461000  1.0  -0.6658
  O  O231  1  0.565000  0.931700  0.848730  1.0  -0.5812
  O  O232  1  0.485470  0.795210  0.073890  1.0  -0.6055
  O  O233  1  0.545490  0.619860  0.092960  1.0  -0.58
  O  O234  1  0.359590  0.980970  0.900310  1.0  -0.5899
  O  O235  1  0.229820  0.008970  0.828000  1.0  -0.5877
  O  O236  1  0.121960  0.448940  0.757820  1.0  -0.5936
  O  O237  1  0.237850  0.374030  0.836340  1.0  -0.609
  O  O238  1  0.339000  0.189920  0.783200  1.0  -0.7059
  O  O239  1  0.538890  0.928320  0.961000  1.0  -0.6656
  O  O240  1  0.935000  0.931700  0.651270  1.0  -0.581
  O  O241  1  0.014530  0.795210  0.426110  1.0  -0.6046
  O  O242  1  0.954510  0.619860  0.407040  1.0  -0.5815
  O  O243  1  0.140410  0.980970  0.599690  1.0  -0.59
  O  O244  1  0.270180  0.008970  0.672000  1.0  -0.5883
  O  O245  1  0.378040  0.448940  0.742180  1.0  -0.5931
  O  O246  1  0.262150  0.374030  0.663660  1.0  -0.6075
  O  O247  1  0.161000  0.189920  0.716800  1.0  -0.7077
  O  O248  1  0.961110  0.928320  0.539000  1.0  -0.6668
