# generated using pymatgen
data_CdCu3H16C16(N4Cl)6
_symmetry_space_group_name_H-M   'P 1'
_cell_length_a   13.25600000
_cell_length_b   18.19300000
_cell_length_c   18.19300000
_cell_angle_alpha   90.00000000
_cell_angle_beta   90.00000000
_cell_angle_gamma   90.00000000
_symmetry_Int_Tables_number   1
_chemical_formula_structural   CdCu3H16C16(N4Cl)6
_chemical_formula_sum   'Cd4 Cu12 H64 C64 N96 Cl24'
_cell_volume   4387.54046074
_cell_formula_units_Z   4
loop_
 _symmetry_equiv_pos_site_id
 _symmetry_equiv_pos_as_xyz
  1  'x, y, z'
loop_
 _atom_site_type_symbol
 _atom_site_label
 _atom_site_symmetry_multiplicity
 _atom_site_fract_x
 _atom_site_fract_y
 _atom_site_fract_z
 _atom_site_occupancy
 _atom_site_charge
  Cd  Cd1  1  0.750000  0.750000  0.250000  1.0  0.7733
  Cd  Cd2  1  0.250000  0.250000  0.750000  1.0  0.773
  Cd  Cd3  1  0.750000  0.250000  0.750000  1.0  0.7733
  Cd  Cd4  1  0.250000  0.750000  0.250000  1.0  0.773
  Cu  Cu5  1  0.767280  0.988330  0.511670  1.0  0.5802
  Cu  Cu6  1  0.767280  0.511670  0.988330  1.0  0.5793
  Cu  Cu7  1  0.267280  0.988330  0.988330  1.0  0.5794
  Cu  Cu8  1  0.267280  0.511670  0.511670  1.0  0.5788
  Cu  Cu9  1  0.732720  0.011670  0.011670  1.0  0.5795
  Cu  Cu10  1  0.732720  0.488330  0.488330  1.0  0.5799
  Cu  Cu11  1  0.232720  0.011670  0.488330  1.0  0.5799
  Cu  Cu12  1  0.232720  0.488330  0.011670  1.0  0.5807
  Cu  Cu13  1  0.500000  0.000000  0.500000  1.0  0.5076
  Cu  Cu14  1  0.500000  0.500000  0.000000  1.0  0.5076
  Cu  Cu15  1  0.000000  0.000000  0.000000  1.0  0.5076
  Cu  Cu16  1  0.000000  0.500000  0.500000  1.0  0.5076
  H  H17  1  0.487900  0.980300  0.325100  1.0  0.1273
  H  H18  1  0.790400  0.965700  0.330200  1.0  0.1159
  H  H19  1  0.559800  0.870700  0.205000  1.0  0.1198
  H  H20  1  0.721200  0.056700  0.188100  1.0  0.1293
  H  H21  1  0.487900  0.519700  0.174900  1.0  0.1271
  H  H22  1  0.790400  0.534300  0.169800  1.0  0.1162
  H  H23  1  0.559800  0.629300  0.295000  1.0  0.1191
  H  H24  1  0.721200  0.443300  0.311900  1.0  0.1289
  H  H25  1  0.987900  0.174900  0.980300  1.0  0.1263
  H  H26  1  0.290400  0.169800  0.965700  1.0  0.1163
  H  H27  1  0.059800  0.295000  0.870700  1.0  0.1186
  H  H28  1  0.221200  0.311900  0.056700  1.0  0.1289
  H  H29  1  0.987900  0.325100  0.519700  1.0  0.1262
  H  H30  1  0.290400  0.330200  0.534300  1.0  0.1169
  H  H31  1  0.059800  0.205000  0.629300  1.0  0.1182
  H  H32  1  0.221200  0.188100  0.443300  1.0  0.1303
  H  H33  1  0.012100  0.019700  0.825100  1.0  0.1269
  H  H34  1  0.709600  0.034300  0.830200  1.0  0.1164
  H  H35  1  0.940200  0.129300  0.705000  1.0  0.1191
  H  H36  1  0.778800  0.943300  0.688100  1.0  0.129
  H  H37  1  0.012100  0.480300  0.674900  1.0  0.1268
  H  H38  1  0.709600  0.465700  0.669800  1.0  0.116
  H  H39  1  0.940200  0.370700  0.795000  1.0  0.1199
  H  H40  1  0.778800  0.556700  0.811900  1.0  0.1295
  H  H41  1  0.512100  0.825100  0.480300  1.0  0.1264
  H  H42  1  0.209600  0.830200  0.465700  1.0  0.1167
  H  H43  1  0.440200  0.705000  0.370700  1.0  0.1185
  H  H44  1  0.278800  0.688100  0.556700  1.0  0.1283
  H  H45  1  0.512100  0.674900  0.019700  1.0  0.1269
  H  H46  1  0.209600  0.669800  0.034300  1.0  0.117
  H  H47  1  0.440200  0.795000  0.129300  1.0  0.1191
  H  H48  1  0.278800  0.811900  0.943300  1.0  0.1297
  H  H49  1  0.512100  0.019700  0.674900  1.0  0.1273
  H  H50  1  0.209600  0.034300  0.669800  1.0  0.1164
  H  H51  1  0.440200  0.129300  0.795000  1.0  0.1194
  H  H52  1  0.278800  0.943300  0.811900  1.0  0.1286
  H  H53  1  0.512100  0.480300  0.825100  1.0  0.1271
  H  H54  1  0.209600  0.465700  0.830200  1.0  0.1165
  H  H55  1  0.440200  0.370700  0.705000  1.0  0.1198
  H  H56  1  0.278800  0.556700  0.688100  1.0  0.1293
  H  H57  1  0.012100  0.825100  0.019700  1.0  0.1262
  H  H58  1  0.709600  0.830200  0.034300  1.0  0.1169
  H  H59  1  0.940200  0.705000  0.129300  1.0  0.1183
  H  H60  1  0.778800  0.688100  0.943300  1.0  0.1301
  H  H61  1  0.012100  0.674900  0.480300  1.0  0.1262
  H  H62  1  0.709600  0.669800  0.465700  1.0  0.1164
  H  H63  1  0.940200  0.795000  0.370700  1.0  0.1191
  H  H64  1  0.778800  0.811900  0.556700  1.0  0.1284
  H  H65  1  0.987900  0.980300  0.174900  1.0  0.1269
  H  H66  1  0.290400  0.965700  0.169800  1.0  0.1157
  H  H67  1  0.059800  0.870700  0.295000  1.0  0.1198
  H  H68  1  0.221200  0.056700  0.311900  1.0  0.1295
  H  H69  1  0.987900  0.519700  0.325100  1.0  0.127
  H  H70  1  0.290400  0.534300  0.330200  1.0  0.1161
  H  H71  1  0.059800  0.629300  0.205000  1.0  0.1189
  H  H72  1  0.221200  0.443300  0.188100  1.0  0.1291
  H  H73  1  0.487900  0.174900  0.519700  1.0  0.1266
  H  H74  1  0.790400  0.169800  0.534300  1.0  0.1172
  H  H75  1  0.559800  0.295000  0.629300  1.0  0.1187
  H  H76  1  0.721200  0.311900  0.443300  1.0  0.1302
  H  H77  1  0.487900  0.325100  0.980300  1.0  0.1265
  H  H78  1  0.790400  0.330200  0.965700  1.0  0.1165
  H  H79  1  0.559800  0.205000  0.870700  1.0  0.1183
  H  H80  1  0.721200  0.188100  0.056700  1.0  0.1287
  C  C81  1  0.556300  0.978600  0.342300  1.0  0.1183
  C  C82  1  0.721300  0.970500  0.345200  1.0  0.0909
  C  C83  1  0.596300  0.911500  0.184600  1.0  0.1212
  C  C84  1  0.684100  0.013100  0.175800  1.0  0.0937
  C  C85  1  0.556300  0.521400  0.157700  1.0  0.1182
  C  C86  1  0.721300  0.529500  0.154800  1.0  0.0901
  C  C87  1  0.596300  0.588500  0.315400  1.0  0.1201
  C  C88  1  0.684100  0.486900  0.324200  1.0  0.0913
  C  C89  1  0.056300  0.157700  0.978600  1.0  0.1179
  C  C90  1  0.221300  0.154800  0.970500  1.0  0.0907
  C  C91  1  0.096300  0.315400  0.911500  1.0  0.1221
  C  C92  1  0.184100  0.324200  0.013100  1.0  0.0935
  C  C93  1  0.056300  0.342300  0.521400  1.0  0.1185
  C  C94  1  0.221300  0.345200  0.529500  1.0  0.0906
  C  C95  1  0.096300  0.184600  0.588500  1.0  0.1222
  C  C96  1  0.184100  0.175800  0.486900  1.0  0.0951
  C  C97  1  0.943700  0.021400  0.842300  1.0  0.1181
  C  C98  1  0.778700  0.029500  0.845200  1.0  0.0911
  C  C99  1  0.903700  0.088500  0.684600  1.0  0.1206
  C  C100  1  0.815900  0.986900  0.675800  1.0  0.0917
  C  C101  1  0.943700  0.478600  0.657700  1.0  0.1189
  C  C102  1  0.778700  0.470500  0.654800  1.0  0.0908
  C  C103  1  0.903700  0.411500  0.815400  1.0  0.121
  C  C104  1  0.815900  0.513100  0.824200  1.0  0.0934
  C  C105  1  0.443700  0.842300  0.478600  1.0  0.1194
  C  C106  1  0.278700  0.845200  0.470500  1.0  0.0912
  C  C107  1  0.403700  0.684600  0.411500  1.0  0.1218
  C  C108  1  0.315900  0.675800  0.513100  1.0  0.0928
  C  C109  1  0.443700  0.657700  0.021400  1.0  0.1189
  C  C110  1  0.278700  0.654800  0.029500  1.0  0.091
  C  C111  1  0.403700  0.815400  0.088500  1.0  0.1231
  C  C112  1  0.315900  0.824200  0.986900  1.0  0.0947
  C  C113  1  0.443700  0.021400  0.657700  1.0  0.1187
  C  C114  1  0.278700  0.029500  0.654800  1.0  0.0909
  C  C115  1  0.403700  0.088500  0.815400  1.0  0.1205
  C  C116  1  0.315900  0.986900  0.824200  1.0  0.0916
  C  C117  1  0.443700  0.478600  0.842300  1.0  0.1191
  C  C118  1  0.278700  0.470500  0.845200  1.0  0.0907
  C  C119  1  0.403700  0.411500  0.684600  1.0  0.1215
  C  C120  1  0.315900  0.513100  0.675800  1.0  0.093
  C  C121  1  0.943700  0.842300  0.021400  1.0  0.1189
  C  C122  1  0.778700  0.845200  0.029500  1.0  0.091
  C  C123  1  0.903700  0.684600  0.088500  1.0  0.123
  C  C124  1  0.815900  0.675800  0.986900  1.0  0.0947
  C  C125  1  0.943700  0.657700  0.478600  1.0  0.1188
  C  C126  1  0.778700  0.654800  0.470500  1.0  0.0908
  C  C127  1  0.903700  0.815400  0.411500  1.0  0.1221
  C  C128  1  0.815900  0.824200  0.513100  1.0  0.0928
  C  C129  1  0.056300  0.978600  0.157700  1.0  0.118
  C  C130  1  0.221300  0.970500  0.154800  1.0  0.0905
  C  C131  1  0.096300  0.911500  0.315400  1.0  0.1206
  C  C132  1  0.184100  0.013100  0.324200  1.0  0.094
  C  C133  1  0.056300  0.521400  0.342300  1.0  0.1175
  C  C134  1  0.221300  0.529500  0.345200  1.0  0.0899
  C  C135  1  0.096300  0.588500  0.184600  1.0  0.1201
  C  C136  1  0.184100  0.486900  0.175800  1.0  0.0916
  C  C137  1  0.556300  0.157700  0.521400  1.0  0.1183
  C  C138  1  0.721300  0.154800  0.529500  1.0  0.0903
  C  C139  1  0.596300  0.315400  0.588500  1.0  0.1224
  C  C140  1  0.684100  0.324200  0.486900  1.0  0.0947
  C  C141  1  0.556300  0.342300  0.978600  1.0  0.119
  C  C142  1  0.721300  0.345200  0.970500  1.0  0.0905
  C  C143  1  0.596300  0.184600  0.911500  1.0  0.1218
  C  C144  1  0.684100  0.175800  0.013100  1.0  0.0938
  N  N145  1  0.585300  0.981450  0.410450  1.0  -0.1431
  N  N146  1  0.689500  0.977060  0.412320  1.0  -0.1778
  N  N147  1  0.639300  0.972200  0.299670  1.0  0.0662
  N  N148  1  0.610900  0.923300  0.115000  1.0  -0.2556
  N  N149  1  0.666667  0.988300  0.109800  1.0  -0.2087
  N  N150  1  0.639900  0.966200  0.224040  1.0  0.0716
  N  N151  1  0.585300  0.518550  0.089550  1.0  -0.1425
  N  N152  1  0.689500  0.522940  0.087680  1.0  -0.1777
  N  N153  1  0.639300  0.527800  0.200330  1.0  0.0655
  N  N154  1  0.610900  0.576700  0.385000  1.0  -0.2577
  N  N155  1  0.666667  0.511700  0.390200  1.0  -0.2089
  N  N156  1  0.639900  0.533800  0.275960  1.0  0.0721
  N  N157  1  0.085300  0.089550  0.981450  1.0  -0.1448
  N  N158  1  0.189500  0.087680  0.977060  1.0  -0.1797
  N  N159  1  0.139300  0.200330  0.972200  1.0  0.0656
  N  N160  1  0.110900  0.385000  0.923300  1.0  -0.2571
  N  N161  1  0.166700  0.390200  0.988300  1.0  -0.2136
  N  N162  1  0.139900  0.275960  0.966200  1.0  0.0718
  N  N163  1  0.085300  0.410450  0.518550  1.0  -0.1446
  N  N164  1  0.189500  0.412320  0.522940  1.0  -0.1814
  N  N165  1  0.139300  0.299670  0.527800  1.0  0.0662
  N  N166  1  0.110900  0.115000  0.576700  1.0  -0.2579
  N  N167  1  0.166700  0.109800  0.511700  1.0  -0.2131
  N  N168  1  0.139900  0.224040  0.533800  1.0  0.0714
  N  N169  1  0.914700  0.018550  0.910450  1.0  -0.1419
  N  N170  1  0.810500  0.022940  0.912320  1.0  -0.1788
  N  N171  1  0.860700  0.027800  0.799670  1.0  0.0654
  N  N172  1  0.889100  0.076700  0.615000  1.0  -0.2562
  N  N173  1  0.833300  0.011700  0.609800  1.0  -0.2112
  N  N174  1  0.860100  0.033800  0.724040  1.0  0.0719
  N  N175  1  0.914700  0.481450  0.589550  1.0  -0.1422
  N  N176  1  0.810500  0.477060  0.587680  1.0  -0.1786
  N  N177  1  0.860700  0.472200  0.700330  1.0  0.0661
  N  N178  1  0.889100  0.423300  0.885000  1.0  -0.2572
  N  N179  1  0.833300  0.488300  0.890200  1.0  -0.2118
  N  N180  1  0.860100  0.466200  0.775960  1.0  0.0723
  N  N181  1  0.414700  0.910450  0.481450  1.0  -0.1437
  N  N182  1  0.310500  0.912320  0.477060  1.0  -0.1817
  N  N183  1  0.360700  0.799670  0.472200  1.0  0.0658
  N  N184  1  0.389100  0.615000  0.423300  1.0  -0.2573
  N  N185  1  0.333333  0.609800  0.488300  1.0  -0.2121
  N  N186  1  0.360100  0.724040  0.466200  1.0  0.0718
  N  N187  1  0.414700  0.589550  0.018550  1.0  -0.1445
  N  N188  1  0.310500  0.587680  0.022940  1.0  -0.1803
  N  N189  1  0.360700  0.700330  0.027800  1.0  0.0662
  N  N190  1  0.389100  0.885000  0.076700  1.0  -0.2591
  N  N191  1  0.333333  0.890200  0.011700  1.0  -0.2121
  N  N192  1  0.360100  0.775960  0.033800  1.0  0.0713
  N  N193  1  0.414700  0.018550  0.589550  1.0  -0.1419
  N  N194  1  0.310500  0.022940  0.587680  1.0  -0.1783
  N  N195  1  0.360700  0.027800  0.700330  1.0  0.0655
  N  N196  1  0.389100  0.076700  0.885000  1.0  -0.2578
  N  N197  1  0.333333  0.011700  0.890200  1.0  -0.2093
  N  N198  1  0.360100  0.033800  0.775960  1.0  0.0724
  N  N199  1  0.414700  0.481450  0.910450  1.0  -0.1425
  N  N200  1  0.310500  0.477060  0.912320  1.0  -0.1783
  N  N201  1  0.360700  0.472200  0.799670  1.0  0.0662
  N  N202  1  0.389100  0.423300  0.615000  1.0  -0.2566
  N  N203  1  0.333333  0.488300  0.609800  1.0  -0.2092
  N  N204  1  0.360100  0.466200  0.724040  1.0  0.0718
  N  N205  1  0.914700  0.910450  0.018550  1.0  -0.1438
  N  N206  1  0.810500  0.912320  0.022940  1.0  -0.1825
  N  N207  1  0.860700  0.799670  0.027800  1.0  0.0662
  N  N208  1  0.889100  0.615000  0.076700  1.0  -0.2578
  N  N209  1  0.833300  0.609800  0.011700  1.0  -0.2135
  N  N210  1  0.860100  0.724040  0.033800  1.0  0.0716
  N  N211  1  0.914700  0.589550  0.481450  1.0  -0.1442
  N  N212  1  0.810500  0.587680  0.477060  1.0  -0.1805
  N  N213  1  0.860700  0.700330  0.472200  1.0  0.0656
  N  N214  1  0.889100  0.885000  0.423300  1.0  -0.2576
  N  N215  1  0.833300  0.890200  0.488300  1.0  -0.2136
  N  N216  1  0.860100  0.775960  0.466200  1.0  0.0718
  N  N217  1  0.085300  0.981450  0.089550  1.0  -0.1425
  N  N218  1  0.189500  0.977060  0.087680  1.0  -0.1784
  N  N219  1  0.139300  0.972200  0.200330  1.0  0.0661
  N  N220  1  0.110900  0.923300  0.385000  1.0  -0.257
  N  N221  1  0.166700  0.988300  0.390200  1.0  -0.2117
  N  N222  1  0.139900  0.966200  0.275960  1.0  0.0721
  N  N223  1  0.085300  0.518550  0.410450  1.0  -0.1427
  N  N224  1  0.189500  0.522940  0.412320  1.0  -0.1779
  N  N225  1  0.139300  0.527800  0.299670  1.0  0.0654
  N  N226  1  0.110900  0.576700  0.115000  1.0  -0.255
  N  N227  1  0.166700  0.511700  0.109800  1.0  -0.2106
  N  N228  1  0.139900  0.533800  0.224040  1.0  0.0716
  N  N229  1  0.585300  0.089550  0.518550  1.0  -0.145
  N  N230  1  0.689500  0.087680  0.522940  1.0  -0.1795
  N  N231  1  0.639300  0.200330  0.527800  1.0  0.0662
  N  N232  1  0.610900  0.385000  0.576700  1.0  -0.2591
  N  N233  1  0.666667  0.390200  0.511700  1.0  -0.2118
  N  N234  1  0.639900  0.275960  0.533800  1.0  0.0711
  N  N235  1  0.585300  0.410450  0.981450  1.0  -0.1445
  N  N236  1  0.689500  0.412320  0.977060  1.0  -0.1805
  N  N237  1  0.639300  0.299670  0.972200  1.0  0.0658
  N  N238  1  0.610900  0.115000  0.923300  1.0  -0.2573
  N  N239  1  0.666667  0.109800  0.988300  1.0  -0.2118
  N  N240  1  0.639900  0.224040  0.966200  1.0  0.0719
  Cl  Cl241  1  0.858350  0.855450  0.213670  1.0  -0.5572
  Cl  Cl242  1  0.858350  0.644550  0.286330  1.0  -0.5567
  Cl  Cl243  1  0.641650  0.713670  0.144550  1.0  -0.5571
  Cl  Cl244  1  0.641650  0.786330  0.355450  1.0  -0.5568
  Cl  Cl245  1  0.358350  0.286330  0.855450  1.0  -0.5565
  Cl  Cl246  1  0.358350  0.213670  0.644550  1.0  -0.5568
  Cl  Cl247  1  0.141650  0.144550  0.786330  1.0  -0.557
  Cl  Cl248  1  0.141650  0.355450  0.713670  1.0  -0.5575
  Cl  Cl249  1  0.641650  0.144550  0.713670  1.0  -0.5575
  Cl  Cl250  1  0.641650  0.355450  0.786330  1.0  -0.5571
  Cl  Cl251  1  0.858350  0.286330  0.644550  1.0  -0.5564
  Cl  Cl252  1  0.858350  0.213670  0.855450  1.0  -0.5567
  Cl  Cl253  1  0.141650  0.713670  0.355450  1.0  -0.557
  Cl  Cl254  1  0.141650  0.786330  0.144550  1.0  -0.5567
  Cl  Cl255  1  0.358350  0.855450  0.286330  1.0  -0.5567
  Cl  Cl256  1  0.358350  0.644550  0.213670  1.0  -0.5571
  Cl  Cl257  1  0.623060  0.920040  0.579960  1.0  -0.6293
  Cl  Cl258  1  0.623060  0.579960  0.920040  1.0  -0.6305
  Cl  Cl259  1  0.123060  0.920040  0.920040  1.0  -0.6292
  Cl  Cl260  1  0.123060  0.579960  0.579960  1.0  -0.6281
  Cl  Cl261  1  0.876940  0.079960  0.079960  1.0  -0.6279
  Cl  Cl262  1  0.876940  0.420040  0.420040  1.0  -0.6293
  Cl  Cl263  1  0.376940  0.079960  0.420040  1.0  -0.6307
  Cl  Cl264  1  0.376940  0.420040  0.079960  1.0  -0.6293
