# generated using pymatgen
data_Cu3H16C16(N12Cl)2
_symmetry_space_group_name_H-M   'P 1'
_cell_length_a   18.11360000
_cell_length_b   18.11360000
_cell_length_c   13.18660000
_cell_angle_alpha   90.00000000
_cell_angle_beta   90.00000000
_cell_angle_gamma   90.00000000
_symmetry_Int_Tables_number   1
_chemical_formula_structural   Cu3H16C16(N12Cl)2
_chemical_formula_sum   'Cu12 H64 C64 N96 Cl8'
_cell_volume   4326.55649191
_cell_formula_units_Z   4
loop_
 _symmetry_equiv_pos_site_id
 _symmetry_equiv_pos_as_xyz
  1  'x, y, z'
loop_
 _atom_site_type_symbol
 _atom_site_label
 _atom_site_symmetry_multiplicity
 _atom_site_fract_x
 _atom_site_fract_y
 _atom_site_fract_z
 _atom_site_occupancy
 _atom_site_charge
  Cu  Cu1  1  0.011940  0.488060  0.234500  1.0  0.5653
  Cu  Cu2  1  0.488060  0.011940  0.234500  1.0  0.5648
  Cu  Cu3  1  0.011940  0.011940  0.734500  1.0  0.5654
  Cu  Cu4  1  0.488060  0.488060  0.734500  1.0  0.5647
  Cu  Cu5  1  0.988060  0.988060  0.265500  1.0  0.5646
  Cu  Cu6  1  0.511940  0.511940  0.265500  1.0  0.565
  Cu  Cu7  1  0.988060  0.511940  0.765500  1.0  0.5648
  Cu  Cu8  1  0.511940  0.988060  0.765500  1.0  0.5648
  Cu  Cu9  1  0.000000  0.500000  0.500000  1.0  0.5244
  Cu  Cu10  1  0.500000  0.000000  0.500000  1.0  0.5244
  Cu  Cu11  1  0.000000  0.000000  0.000000  1.0  0.5244
  Cu  Cu12  1  0.500000  0.500000  0.000000  1.0  0.5244
  H  H13  1  0.020000  0.674700  0.511200  1.0  0.107
  H  H14  1  0.034900  0.670000  0.208700  1.0  0.0985
  H  H15  1  0.131200  0.795400  0.437000  1.0  0.0927
  H  H16  1  0.943400  0.812300  0.279300  1.0  0.1055
  H  H17  1  0.480000  0.825300  0.511200  1.0  0.1066
  H  H18  1  0.465100  0.830000  0.208700  1.0  0.0983
  H  H19  1  0.368800  0.704600  0.437000  1.0  0.0926
  H  H20  1  0.556600  0.687700  0.279300  1.0  0.1059
  H  H21  1  0.825300  0.020000  0.011200  1.0  0.1075
  H  H22  1  0.830000  0.034900  0.708700  1.0  0.0995
  H  H23  1  0.704600  0.131200  0.937000  1.0  0.094
  H  H24  1  0.687700  0.943400  0.779300  1.0  0.1062
  H  H25  1  0.674700  0.480000  0.011200  1.0  0.1069
  H  H26  1  0.670000  0.465100  0.708700  1.0  0.0992
  H  H27  1  0.795400  0.368800  0.937000  1.0  0.0936
  H  H28  1  0.812300  0.556600  0.779300  1.0  0.1071
  H  H29  1  0.980000  0.174700  0.988800  1.0  0.1091
  H  H30  1  0.965100  0.170000  0.291300  1.0  0.0958
  H  H31  1  0.868800  0.295400  0.063000  1.0  0.0925
  H  H32  1  0.056600  0.312300  0.220700  1.0  0.1056
  H  H33  1  0.520000  0.325300  0.988800  1.0  0.1091
  H  H34  1  0.534900  0.330000  0.291300  1.0  0.0961
  H  H35  1  0.631200  0.204600  0.063000  1.0  0.0933
  H  H36  1  0.443400  0.187700  0.220700  1.0  0.1056
  H  H37  1  0.174700  0.520000  0.488800  1.0  0.109
  H  H38  1  0.170000  0.534900  0.791300  1.0  0.0968
  H  H39  1  0.295400  0.631200  0.563000  1.0  0.0942
  H  H40  1  0.312300  0.443400  0.720700  1.0  0.1068
  H  H41  1  0.325300  0.980000  0.488800  1.0  0.1097
  H  H42  1  0.330000  0.965100  0.791300  1.0  0.0971
  H  H43  1  0.204600  0.868800  0.563000  1.0  0.0932
  H  H44  1  0.187700  0.056600  0.720700  1.0  0.1069
  H  H45  1  0.980000  0.325300  0.488800  1.0  0.1087
  H  H46  1  0.965100  0.330000  0.791300  1.0  0.0959
  H  H47  1  0.868800  0.204600  0.563000  1.0  0.0933
  H  H48  1  0.056600  0.187700  0.720700  1.0  0.1055
  H  H49  1  0.520000  0.174700  0.488800  1.0  0.1095
  H  H50  1  0.534900  0.170000  0.791300  1.0  0.0961
  H  H51  1  0.631200  0.295400  0.563000  1.0  0.0926
  H  H52  1  0.443400  0.312300  0.720700  1.0  0.106
  H  H53  1  0.174700  0.980000  0.988800  1.0  0.1093
  H  H54  1  0.170000  0.965100  0.291300  1.0  0.0967
  H  H55  1  0.295400  0.868800  0.063000  1.0  0.0937
  H  H56  1  0.312300  0.056600  0.220700  1.0  0.107
  H  H57  1  0.325300  0.520000  0.988800  1.0  0.1094
  H  H58  1  0.330000  0.534900  0.291300  1.0  0.0971
  H  H59  1  0.204600  0.631200  0.063000  1.0  0.0943
  H  H60  1  0.187700  0.443400  0.220700  1.0  0.1067
  H  H61  1  0.020000  0.825300  0.011200  1.0  0.1068
  H  H62  1  0.034900  0.830000  0.708700  1.0  0.0984
  H  H63  1  0.131200  0.704600  0.937000  1.0  0.0928
  H  H64  1  0.943400  0.687700  0.779300  1.0  0.1058
  H  H65  1  0.480000  0.674700  0.011200  1.0  0.1069
  H  H66  1  0.465100  0.670000  0.708700  1.0  0.0985
  H  H67  1  0.368800  0.795400  0.937000  1.0  0.0925
  H  H68  1  0.556600  0.812300  0.779300  1.0  0.1055
  H  H69  1  0.825300  0.480000  0.511200  1.0  0.1075
  H  H70  1  0.830000  0.465100  0.208700  1.0  0.0994
  H  H71  1  0.704600  0.368800  0.437000  1.0  0.0934
  H  H72  1  0.687700  0.556600  0.279300  1.0  0.1067
  H  H73  1  0.674700  0.020000  0.511200  1.0  0.1069
  H  H74  1  0.670000  0.034900  0.208700  1.0  0.0993
  H  H75  1  0.795400  0.131200  0.437000  1.0  0.0937
  H  H76  1  0.812300  0.943400  0.279300  1.0  0.1064
  C  C77  1  0.021700  0.657590  0.442800  1.0  0.0953
  C  C78  1  0.030100  0.654930  0.277800  1.0  0.0878
  C  C79  1  0.090400  0.815700  0.400500  1.0  0.0941
  C  C80  1  0.987000  0.824500  0.316400  1.0  0.0737
  C  C81  1  0.478300  0.842410  0.442800  1.0  0.0949
  C  C82  1  0.469900  0.845070  0.277800  1.0  0.0879
  C  C83  1  0.409600  0.684300  0.400500  1.0  0.0944
  C  C84  1  0.513000  0.675500  0.316400  1.0  0.0759
  C  C85  1  0.842410  0.021700  0.942800  1.0  0.0949
  C  C86  1  0.845070  0.030100  0.777800  1.0  0.0867
  C  C87  1  0.684300  0.090400  0.900500  1.0  0.0961
  C  C88  1  0.675500  0.987000  0.816400  1.0  0.0736
  C  C89  1  0.657590  0.478300  0.942800  1.0  0.0941
  C  C90  1  0.654930  0.469900  0.777800  1.0  0.0858
  C  C91  1  0.815700  0.409600  0.900500  1.0  0.0954
  C  C92  1  0.824500  0.513000  0.816400  1.0  0.0751
  C  C93  1  0.978300  0.157590  0.057200  1.0  0.0957
  C  C94  1  0.969900  0.154930  0.222200  1.0  0.0868
  C  C95  1  0.909600  0.315700  0.099500  1.0  0.0937
  C  C96  1  0.013000  0.324500  0.183600  1.0  0.0766
  C  C97  1  0.521700  0.342410  0.057200  1.0  0.0958
  C  C98  1  0.530100  0.345070  0.222200  1.0  0.0873
  C  C99  1  0.590400  0.184300  0.099500  1.0  0.0939
  C  C100  1  0.487000  0.175500  0.183600  1.0  0.075
  C  C101  1  0.157590  0.521700  0.557200  1.0  0.0948
  C  C102  1  0.154930  0.530100  0.722200  1.0  0.0858
  C  C103  1  0.315700  0.590400  0.599500  1.0  0.096
  C  C104  1  0.324500  0.487000  0.683600  1.0  0.0754
  C  C105  1  0.342410  0.978300  0.557200  1.0  0.0952
  C  C106  1  0.345070  0.969900  0.722200  1.0  0.0847
  C  C107  1  0.184300  0.909600  0.599500  1.0  0.0946
  C  C108  1  0.175500  0.013000  0.683600  1.0  0.0762
  C  C109  1  0.978300  0.342410  0.557200  1.0  0.0955
  C  C110  1  0.969900  0.345070  0.722200  1.0  0.0872
  C  C111  1  0.909600  0.184300  0.599500  1.0  0.0942
  C  C112  1  0.013000  0.175500  0.683600  1.0  0.0773
  C  C113  1  0.521700  0.157590  0.557200  1.0  0.0961
  C  C114  1  0.530100  0.154930  0.722200  1.0  0.0868
  C  C115  1  0.590400  0.315700  0.599500  1.0  0.0937
  C  C116  1  0.487000  0.324500  0.683600  1.0  0.0747
  C  C117  1  0.157590  0.978300  0.057200  1.0  0.0948
  C  C118  1  0.154930  0.969900  0.222200  1.0  0.0855
  C  C119  1  0.315700  0.909600  0.099500  1.0  0.0946
  C  C120  1  0.324500  0.013000  0.183600  1.0  0.0758
  C  C121  1  0.342410  0.521700  0.057200  1.0  0.0951
  C  C122  1  0.345070  0.530100  0.222200  1.0  0.0853
  C  C123  1  0.184300  0.590400  0.099500  1.0  0.0962
  C  C124  1  0.175500  0.487000  0.183600  1.0  0.0751
  C  C125  1  0.021700  0.842410  0.942800  1.0  0.0955
  C  C126  1  0.030100  0.845070  0.777800  1.0  0.0882
  C  C127  1  0.090400  0.684300  0.900500  1.0  0.0943
  C  C128  1  0.987000  0.675500  0.816400  1.0  0.074
  C  C129  1  0.478300  0.657590  0.942800  1.0  0.0947
  C  C130  1  0.469900  0.654930  0.777800  1.0  0.0874
  C  C131  1  0.409600  0.815700  0.900500  1.0  0.094
  C  C132  1  0.513000  0.824500  0.816400  1.0  0.0751
  C  C133  1  0.842410  0.478300  0.442800  1.0  0.0942
  C  C134  1  0.845070  0.469900  0.277800  1.0  0.086
  C  C135  1  0.684300  0.409600  0.400500  1.0  0.0956
  C  C136  1  0.675500  0.513000  0.316400  1.0  0.0753
  C  C137  1  0.657590  0.021700  0.442800  1.0  0.0948
  C  C138  1  0.654930  0.030100  0.277800  1.0  0.0864
  C  C139  1  0.815700  0.090400  0.400500  1.0  0.0955
  C  C140  1  0.824500  0.987000  0.316400  1.0  0.0739
  N  N141  1  0.018910  0.589310  0.414100  1.0  -0.185
  N  N142  1  0.023080  0.587170  0.309500  1.0  -0.2489
  N  N143  1  0.028610  0.699860  0.359200  1.0  0.0441
  N  N144  1  0.077920  0.885570  0.387300  1.0  -0.2721
  N  N145  1  0.012210  0.890980  0.332600  1.0  -0.2384
  N  N146  1  0.034650  0.776250  0.358400  1.0  0.0447
  N  N147  1  0.481090  0.910690  0.414100  1.0  -0.1842
  N  N148  1  0.476920  0.912830  0.309500  1.0  -0.2499
  N  N149  1  0.471390  0.800140  0.359200  1.0  0.0457
  N  N150  1  0.422080  0.614430  0.387300  1.0  -0.2704
  N  N151  1  0.487790  0.609020  0.332600  1.0  -0.2375
  N  N152  1  0.465350  0.723750  0.358400  1.0  0.0455
  N  N153  1  0.910690  0.018910  0.914100  1.0  -0.1861
  N  N154  1  0.912830  0.023080  0.809500  1.0  -0.2495
  N  N155  1  0.800140  0.028610  0.859200  1.0  0.0466
  N  N156  1  0.614430  0.077920  0.887300  1.0  -0.2716
  N  N157  1  0.609020  0.012210  0.832600  1.0  -0.2357
  N  N158  1  0.723750  0.034650  0.858400  1.0  0.0483
  N  N159  1  0.589310  0.481090  0.914100  1.0  -0.1851
  N  N160  1  0.587170  0.476920  0.809500  1.0  -0.2494
  N  N161  1  0.699860  0.471390  0.859200  1.0  0.0454
  N  N162  1  0.885570  0.422080  0.887300  1.0  -0.2732
  N  N163  1  0.890980  0.487790  0.832600  1.0  -0.2374
  N  N164  1  0.776250  0.465350  0.858400  1.0  0.0476
  N  N165  1  0.981090  0.089310  0.085900  1.0  -0.1845
  N  N166  1  0.976920  0.087170  0.190500  1.0  -0.2496
  N  N167  1  0.971390  0.199860  0.140800  1.0  0.0443
  N  N168  1  0.922080  0.385570  0.112700  1.0  -0.2702
  N  N169  1  0.987790  0.390980  0.167400  1.0  -0.2392
  N  N170  1  0.965350  0.276250  0.141600  1.0  0.0447
  N  N171  1  0.518910  0.410690  0.085900  1.0  -0.1837
  N  N172  1  0.523080  0.412830  0.190500  1.0  -0.251
  N  N173  1  0.528610  0.300140  0.140800  1.0  0.0449
  N  N174  1  0.577920  0.114430  0.112700  1.0  -0.2703
  N  N175  1  0.512210  0.109020  0.167400  1.0  -0.2399
  N  N176  1  0.534650  0.223750  0.141600  1.0  0.0449
  N  N177  1  0.089310  0.518910  0.585900  1.0  -0.1841
  N  N178  1  0.087170  0.523080  0.690500  1.0  -0.2502
  N  N179  1  0.199860  0.528610  0.640800  1.0  0.0462
  N  N180  1  0.385570  0.577920  0.612700  1.0  -0.2726
  N  N181  1  0.390980  0.512210  0.667400  1.0  -0.2386
  N  N182  1  0.276250  0.534650  0.641600  1.0  0.047
  N  N183  1  0.410690  0.981090  0.585900  1.0  -0.1857
  N  N184  1  0.412830  0.976920  0.690500  1.0  -0.2508
  N  N185  1  0.300140  0.971390  0.640800  1.0  0.0458
  N  N186  1  0.114430  0.922080  0.612700  1.0  -0.2702
  N  N187  1  0.109020  0.987790  0.667400  1.0  -0.2361
  N  N188  1  0.223750  0.965350  0.641600  1.0  0.048
  N  N189  1  0.981090  0.410690  0.585900  1.0  -0.1837
  N  N190  1  0.976920  0.412830  0.690500  1.0  -0.2505
  N  N191  1  0.971390  0.300140  0.640800  1.0  0.0454
  N  N192  1  0.922080  0.114430  0.612700  1.0  -0.27
  N  N193  1  0.987790  0.109020  0.667400  1.0  -0.2386
  N  N194  1  0.965350  0.223750  0.641600  1.0  0.0452
  N  N195  1  0.518910  0.089310  0.585900  1.0  -0.1844
  N  N196  1  0.523080  0.087170  0.690500  1.0  -0.2496
  N  N197  1  0.528610  0.199860  0.640800  1.0  0.0439
  N  N198  1  0.577920  0.385570  0.612700  1.0  -0.2708
  N  N199  1  0.512210  0.390980  0.667400  1.0  -0.2406
  N  N200  1  0.534650  0.276250  0.641600  1.0  0.0444
  N  N201  1  0.089310  0.981090  0.085900  1.0  -0.1841
  N  N202  1  0.087170  0.976920  0.190500  1.0  -0.2501
  N  N203  1  0.199860  0.971390  0.140800  1.0  0.0453
  N  N204  1  0.385570  0.922080  0.112700  1.0  -0.2726
  N  N205  1  0.390980  0.987790  0.167400  1.0  -0.2392
  N  N206  1  0.276250  0.965350  0.141600  1.0  0.0473
  N  N207  1  0.410690  0.518910  0.085900  1.0  -0.1859
  N  N208  1  0.412830  0.523080  0.190500  1.0  -0.2502
  N  N209  1  0.300140  0.528610  0.140800  1.0  0.0465
  N  N210  1  0.114430  0.577920  0.112700  1.0  -0.2698
  N  N211  1  0.109020  0.512210  0.167400  1.0  -0.2366
  N  N212  1  0.223750  0.534650  0.141600  1.0  0.0479
  N  N213  1  0.018910  0.910690  0.914100  1.0  -0.1845
  N  N214  1  0.023080  0.912830  0.809500  1.0  -0.2501
  N  N215  1  0.028610  0.800140  0.859200  1.0  0.0452
  N  N216  1  0.077920  0.614430  0.887300  1.0  -0.2707
  N  N217  1  0.012210  0.609020  0.832600  1.0  -0.2388
  N  N218  1  0.034650  0.723750  0.858400  1.0  0.0452
  N  N219  1  0.481090  0.589310  0.914100  1.0  -0.185
  N  N220  1  0.476920  0.587170  0.809500  1.0  -0.2491
  N  N221  1  0.471390  0.699860  0.859200  1.0  0.0444
  N  N222  1  0.422080  0.885570  0.887300  1.0  -0.2718
  N  N223  1  0.487790  0.890980  0.832600  1.0  -0.2373
  N  N224  1  0.465350  0.776250  0.858400  1.0  0.045
  N  N225  1  0.910690  0.481090  0.414100  1.0  -0.1863
  N  N226  1  0.912830  0.476920  0.309500  1.0  -0.2495
  N  N227  1  0.800140  0.471390  0.359200  1.0  0.0459
  N  N228  1  0.614430  0.422080  0.387300  1.0  -0.2712
  N  N229  1  0.609020  0.487790  0.332600  1.0  -0.235
  N  N230  1  0.723750  0.465350  0.358400  1.0  0.0483
  N  N231  1  0.589310  0.018910  0.414100  1.0  -0.1848
  N  N232  1  0.587170  0.023080  0.309500  1.0  -0.2497
  N  N233  1  0.699860  0.028610  0.359200  1.0  0.0463
  N  N234  1  0.885570  0.077920  0.387300  1.0  -0.2736
  N  N235  1  0.890980  0.012210  0.332600  1.0  -0.2371
  N  N236  1  0.776250  0.034650  0.358400  1.0  0.0474
  Cl  Cl237  1  0.080120  0.419880  0.376300  1.0  -0.6376
  Cl  Cl238  1  0.419880  0.080120  0.376300  1.0  -0.6356
  Cl  Cl239  1  0.080120  0.080120  0.876300  1.0  -0.6372
  Cl  Cl240  1  0.419880  0.419880  0.876300  1.0  -0.6356
  Cl  Cl241  1  0.919880  0.919880  0.123700  1.0  -0.6356
  Cl  Cl242  1  0.580120  0.580120  0.123700  1.0  -0.6373
  Cl  Cl243  1  0.919880  0.580120  0.623700  1.0  -0.6355
  Cl  Cl244  1  0.580120  0.919880  0.623700  1.0  -0.6376
