# generated using pymatgen
data_Cu3HgH16C16(N4Cl)6
_symmetry_space_group_name_H-M   'P 1'
_cell_length_a   13.23420000
_cell_length_b   18.08080000
_cell_length_c   18.08080000
_cell_angle_alpha   90.00000000
_cell_angle_beta   90.00000000
_cell_angle_gamma   90.00000000
_symmetry_Int_Tables_number   1
_chemical_formula_structural   Cu3HgH16C16(N4Cl)6
_chemical_formula_sum   'Cu12 Hg4 H64 C64 N96 Cl24'
_cell_volume   4326.46284229
_cell_formula_units_Z   4
loop_
 _symmetry_equiv_pos_site_id
 _symmetry_equiv_pos_as_xyz
  1  'x, y, z'
loop_
 _atom_site_type_symbol
 _atom_site_label
 _atom_site_symmetry_multiplicity
 _atom_site_fract_x
 _atom_site_fract_y
 _atom_site_fract_z
 _atom_site_occupancy
 _atom_site_charge
  Cu  Cu1  1  0.765010  0.988440  0.511560  1.0  0.5733
  Cu  Cu2  1  0.765010  0.511560  0.988440  1.0  0.5733
  Cu  Cu3  1  0.265010  0.988440  0.988440  1.0  0.5733
  Cu  Cu4  1  0.265010  0.511560  0.511560  1.0  0.5734
  Cu  Cu5  1  0.734990  0.011560  0.011560  1.0  0.5738
  Cu  Cu6  1  0.734990  0.488440  0.488440  1.0  0.5737
  Cu  Cu7  1  0.234990  0.011560  0.488440  1.0  0.5737
  Cu  Cu8  1  0.234990  0.488440  0.011560  1.0  0.5738
  Cu  Cu9  1  0.500000  0.000000  0.500000  1.0  0.4896
  Cu  Cu10  1  0.500000  0.500000  0.000000  1.0  0.4896
  Cu  Cu11  1  0.000000  0.000000  0.000000  1.0  0.4896
  Cu  Cu12  1  0.000000  0.500000  0.500000  1.0  0.4896
  Hg  Hg13  1  0.750000  0.750000  0.250000  1.0  0.5982
  Hg  Hg14  1  0.250000  0.250000  0.750000  1.0  0.5982
  Hg  Hg15  1  0.750000  0.250000  0.750000  1.0  0.5982
  Hg  Hg16  1  0.250000  0.750000  0.250000  1.0  0.5982
  H  H17  1  0.488400  0.980100  0.325100  1.0  0.1259
  H  H18  1  0.790900  0.966200  0.329900  1.0  0.1192
  H  H19  1  0.560900  0.870700  0.203900  1.0  0.1103
  H  H20  1  0.721300  0.056600  0.187300  1.0  0.1224
  H  H21  1  0.488400  0.519900  0.174900  1.0  0.126
  H  H22  1  0.790900  0.533800  0.170100  1.0  0.1179
  H  H23  1  0.560900  0.629300  0.296100  1.0  0.1099
  H  H24  1  0.721300  0.443400  0.312700  1.0  0.1249
  H  H25  1  0.988400  0.174900  0.980100  1.0  0.1251
  H  H26  1  0.290900  0.170100  0.966200  1.0  0.1182
  H  H27  1  0.060900  0.296100  0.870700  1.0  0.11
  H  H28  1  0.221300  0.312700  0.056600  1.0  0.1249
  H  H29  1  0.988400  0.325100  0.519900  1.0  0.1247
  H  H30  1  0.290900  0.329900  0.533800  1.0  0.119
  H  H31  1  0.060900  0.203900  0.629300  1.0  0.1092
  H  H32  1  0.221300  0.187300  0.443400  1.0  0.1239
  H  H33  1  0.011600  0.019900  0.825100  1.0  0.1251
  H  H34  1  0.709100  0.033800  0.829900  1.0  0.1177
  H  H35  1  0.939100  0.129300  0.703900  1.0  0.1096
  H  H36  1  0.778700  0.943400  0.687300  1.0  0.1249
  H  H37  1  0.011600  0.480100  0.674900  1.0  0.1252
  H  H38  1  0.709100  0.466200  0.670100  1.0  0.1181
  H  H39  1  0.939100  0.370700  0.796100  1.0  0.1108
  H  H40  1  0.778700  0.556600  0.812700  1.0  0.1271
  H  H41  1  0.511600  0.825100  0.480100  1.0  0.1246
  H  H42  1  0.209100  0.829900  0.466200  1.0  0.119
  H  H43  1  0.439100  0.703900  0.370700  1.0  0.1097
  H  H44  1  0.278700  0.687300  0.556600  1.0  0.1248
  H  H45  1  0.511600  0.674900  0.019900  1.0  0.1249
  H  H46  1  0.209100  0.670100  0.033800  1.0  0.1175
  H  H47  1  0.439100  0.796100  0.129300  1.0  0.11
  H  H48  1  0.278700  0.812700  0.943400  1.0  0.1259
  H  H49  1  0.511600  0.019900  0.674900  1.0  0.1256
  H  H50  1  0.209100  0.033800  0.670100  1.0  0.1174
  H  H51  1  0.439100  0.129300  0.796100  1.0  0.1101
  H  H52  1  0.278700  0.943400  0.812700  1.0  0.1274
  H  H53  1  0.511600  0.480100  0.825100  1.0  0.1252
  H  H54  1  0.209100  0.466200  0.829900  1.0  0.1191
  H  H55  1  0.439100  0.370700  0.703900  1.0  0.1104
  H  H56  1  0.278700  0.556600  0.687300  1.0  0.1251
  H  H57  1  0.011600  0.825100  0.019900  1.0  0.1242
  H  H58  1  0.709100  0.829900  0.033800  1.0  0.1185
  H  H59  1  0.939100  0.703900  0.129300  1.0  0.1092
  H  H60  1  0.778700  0.687300  0.943400  1.0  0.1249
  H  H61  1  0.011600  0.674900  0.480100  1.0  0.1245
  H  H62  1  0.709100  0.670100  0.466200  1.0  0.1183
  H  H63  1  0.939100  0.796100  0.370700  1.0  0.1103
  H  H64  1  0.778700  0.812700  0.556600  1.0  0.1261
  H  H65  1  0.988400  0.980100  0.174900  1.0  0.1256
  H  H66  1  0.290900  0.966200  0.170100  1.0  0.1186
  H  H67  1  0.060900  0.870700  0.296100  1.0  0.1106
  H  H68  1  0.221300  0.056600  0.312700  1.0  0.1253
  H  H69  1  0.988400  0.519900  0.325100  1.0  0.1256
  H  H70  1  0.290900  0.533800  0.329900  1.0  0.1182
  H  H71  1  0.060900  0.629300  0.203900  1.0  0.1093
  H  H72  1  0.221300  0.443400  0.187300  1.0  0.1239
  H  H73  1  0.488400  0.174900  0.519900  1.0  0.1251
  H  H74  1  0.790900  0.170100  0.533800  1.0  0.1188
  H  H75  1  0.560900  0.296100  0.629300  1.0  0.1098
  H  H76  1  0.721300  0.312700  0.443400  1.0  0.1252
  H  H77  1  0.488400  0.325100  0.980100  1.0  0.1253
  H  H78  1  0.790900  0.329900  0.966200  1.0  0.1191
  H  H79  1  0.560900  0.203900  0.870700  1.0  0.1095
  H  H80  1  0.721300  0.187300  0.056600  1.0  0.1217
  C  C81  1  0.556900  0.978400  0.342300  1.0  0.1174
  C  C82  1  0.721800  0.971000  0.345000  1.0  0.1031
  C  C83  1  0.597400  0.911500  0.183500  1.0  0.1213
  C  C84  1  0.684200  0.013000  0.175100  1.0  0.093
  C  C85  1  0.556900  0.521600  0.157700  1.0  0.1185
  C  C86  1  0.721800  0.529000  0.155000  1.0  0.102
  C  C87  1  0.597400  0.588500  0.316500  1.0  0.1205
  C  C88  1  0.684200  0.487000  0.324900  1.0  0.0917
  C  C89  1  0.056900  0.157700  0.978400  1.0  0.1181
  C  C90  1  0.221800  0.155000  0.971000  1.0  0.1025
  C  C91  1  0.097400  0.316500  0.911500  1.0  0.1226
  C  C92  1  0.184200  0.324900  0.013000  1.0  0.0932
  C  C93  1  0.056900  0.342300  0.521600  1.0  0.1181
  C  C94  1  0.221800  0.345000  0.529000  1.0  0.1031
  C  C95  1  0.097400  0.183500  0.588500  1.0  0.123
  C  C96  1  0.184200  0.175100  0.487000  1.0  0.0945
  C  C97  1  0.943100  0.021600  0.842300  1.0  0.1186
  C  C98  1  0.778200  0.029000  0.845000  1.0  0.1034
  C  C99  1  0.902600  0.088500  0.683500  1.0  0.1204
  C  C100  1  0.815800  0.987000  0.675100  1.0  0.092
  C  C101  1  0.943100  0.478400  0.657700  1.0  0.1196
  C  C102  1  0.778200  0.471000  0.655000  1.0  0.1033
  C  C103  1  0.902600  0.411500  0.816500  1.0  0.1208
  C  C104  1  0.815800  0.513000  0.824900  1.0  0.0924
  C  C105  1  0.443100  0.842300  0.478400  1.0  0.1193
  C  C106  1  0.278200  0.845000  0.471000  1.0  0.1033
  C  C107  1  0.402600  0.683500  0.411500  1.0  0.1223
  C  C108  1  0.315800  0.675100  0.513000  1.0  0.0926
  C  C109  1  0.443100  0.657700  0.021600  1.0  0.1189
  C  C110  1  0.278200  0.655000  0.029000  1.0  0.1035
  C  C111  1  0.402600  0.816500  0.088500  1.0  0.1233
  C  C112  1  0.315800  0.824900  0.987000  1.0  0.0949
  C  C113  1  0.443100  0.021600  0.657700  1.0  0.1192
  C  C114  1  0.278200  0.029000  0.655000  1.0  0.1031
  C  C115  1  0.402600  0.088500  0.816500  1.0  0.1204
  C  C116  1  0.315800  0.987000  0.824900  1.0  0.0923
  C  C117  1  0.443100  0.478400  0.842300  1.0  0.1193
  C  C118  1  0.278200  0.471000  0.845000  1.0  0.1036
  C  C119  1  0.402600  0.411500  0.683500  1.0  0.1212
  C  C120  1  0.315800  0.513000  0.675100  1.0  0.0922
  C  C121  1  0.943100  0.842300  0.021600  1.0  0.1189
  C  C122  1  0.778200  0.845000  0.029000  1.0  0.104
  C  C123  1  0.902600  0.683500  0.088500  1.0  0.1233
  C  C124  1  0.815800  0.675100  0.987000  1.0  0.0943
  C  C125  1  0.943100  0.657700  0.478400  1.0  0.1192
  C  C126  1  0.778200  0.655000  0.471000  1.0  0.1029
  C  C127  1  0.902600  0.816500  0.411500  1.0  0.1225
  C  C128  1  0.815800  0.824900  0.513000  1.0  0.0932
  C  C129  1  0.056900  0.978400  0.157700  1.0  0.1188
  C  C130  1  0.221800  0.971000  0.155000  1.0  0.1028
  C  C131  1  0.097400  0.911500  0.316500  1.0  0.121
  C  C132  1  0.184200  0.013000  0.324900  1.0  0.0931
  C  C133  1  0.056900  0.521600  0.342300  1.0  0.118
  C  C134  1  0.221800  0.529000  0.345000  1.0  0.1022
  C  C135  1  0.097400  0.588500  0.183500  1.0  0.1204
  C  C136  1  0.184200  0.487000  0.175100  1.0  0.0921
  C  C137  1  0.556900  0.157700  0.521600  1.0  0.118
  C  C138  1  0.721800  0.155000  0.529000  1.0  0.1027
  C  C139  1  0.597400  0.316500  0.588500  1.0  0.1231
  C  C140  1  0.684200  0.324900  0.487000  1.0  0.0941
  C  C141  1  0.556900  0.342300  0.978400  1.0  0.1177
  C  C142  1  0.721800  0.345000  0.971000  1.0  0.1027
  C  C143  1  0.597400  0.183500  0.911500  1.0  0.1225
  C  C144  1  0.684200  0.175100  0.013000  1.0  0.0935
  N  N145  1  0.585500  0.980600  0.410400  1.0  -0.142
  N  N146  1  0.689900  0.977300  0.412800  1.0  -0.1672
  N  N147  1  0.639500  0.971700  0.299200  1.0  0.065
  N  N148  1  0.612900  0.922500  0.113700  1.0  -0.2597
  N  N149  1  0.668200  0.988000  0.109100  1.0  -0.1919
  N  N150  1  0.639900  0.965800  0.223300  1.0  0.0647
  N  N151  1  0.585500  0.519400  0.089600  1.0  -0.1417
  N  N152  1  0.689900  0.522700  0.087200  1.0  -0.1686
  N  N153  1  0.639500  0.528300  0.200800  1.0  0.0644
  N  N154  1  0.612900  0.577500  0.386300  1.0  -0.2612
  N  N155  1  0.668200  0.512000  0.390900  1.0  -0.1921
  N  N156  1  0.639900  0.534200  0.276700  1.0  0.0649
  N  N157  1  0.085500  0.089600  0.980600  1.0  -0.1436
  N  N158  1  0.189900  0.087200  0.977300  1.0  -0.1691
  N  N159  1  0.139500  0.200800  0.971700  1.0  0.0645
  N  N160  1  0.112900  0.386300  0.922500  1.0  -0.2615
  N  N161  1  0.168200  0.390900  0.988000  1.0  -0.195
  N  N162  1  0.139900  0.276700  0.965800  1.0  0.0648
  N  N163  1  0.085500  0.410400  0.519400  1.0  -0.1431
  N  N164  1  0.189900  0.412800  0.522700  1.0  -0.1714
  N  N165  1  0.139500  0.299200  0.528300  1.0  0.0649
  N  N166  1  0.112900  0.113700  0.577500  1.0  -0.2622
  N  N167  1  0.168200  0.109100  0.512000  1.0  -0.1946
  N  N168  1  0.139900  0.223300  0.534200  1.0  0.0651
  N  N169  1  0.914500  0.019400  0.910400  1.0  -0.1413
  N  N170  1  0.810100  0.022700  0.912800  1.0  -0.1679
  N  N171  1  0.860500  0.028300  0.799200  1.0  0.064
  N  N172  1  0.887100  0.077500  0.613700  1.0  -0.2594
  N  N173  1  0.831800  0.012000  0.609100  1.0  -0.1928
  N  N174  1  0.860100  0.034200  0.723300  1.0  0.0646
  N  N175  1  0.914500  0.480600  0.589600  1.0  -0.141
  N  N176  1  0.810100  0.477300  0.587200  1.0  -0.1694
  N  N177  1  0.860500  0.471700  0.700800  1.0  0.0651
  N  N178  1  0.887100  0.422500  0.886300  1.0  -0.2605
  N  N179  1  0.831800  0.488000  0.890900  1.0  -0.1936
  N  N180  1  0.860100  0.465800  0.776700  1.0  0.0649
  N  N181  1  0.414500  0.910400  0.480600  1.0  -0.1423
  N  N182  1  0.310100  0.912800  0.477300  1.0  -0.1713
  N  N183  1  0.360500  0.799200  0.471700  1.0  0.0651
  N  N184  1  0.387100  0.613700  0.422500  1.0  -0.2616
  N  N185  1  0.331800  0.609100  0.488000  1.0  -0.1943
  N  N186  1  0.360100  0.723300  0.465800  1.0  0.0647
  N  N187  1  0.414500  0.589600  0.019400  1.0  -0.1432
  N  N188  1  0.310100  0.587200  0.022700  1.0  -0.1713
  N  N189  1  0.360500  0.700800  0.028300  1.0  0.0647
  N  N190  1  0.387100  0.886300  0.077500  1.0  -0.2622
  N  N191  1  0.331800  0.890900  0.012000  1.0  -0.195
  N  N192  1  0.360100  0.776700  0.034200  1.0  0.0645
  N  N193  1  0.414500  0.019400  0.589600  1.0  -0.1412
  N  N194  1  0.310100  0.022700  0.587200  1.0  -0.1696
  N  N195  1  0.360500  0.028300  0.700800  1.0  0.0645
  N  N196  1  0.387100  0.077500  0.886300  1.0  -0.2611
  N  N197  1  0.331800  0.012000  0.890900  1.0  -0.1926
  N  N198  1  0.360100  0.034200  0.776700  1.0  0.0649
  N  N199  1  0.414500  0.480600  0.910400  1.0  -0.1417
  N  N200  1  0.310100  0.477300  0.912800  1.0  -0.1681
  N  N201  1  0.360500  0.471700  0.799200  1.0  0.065
  N  N202  1  0.387100  0.422500  0.613700  1.0  -0.26
  N  N203  1  0.331800  0.488000  0.609100  1.0  -0.1923
  N  N204  1  0.360100  0.465800  0.723300  1.0  0.0645
  N  N205  1  0.914500  0.910400  0.019400  1.0  -0.1424
  N  N206  1  0.810100  0.912800  0.022700  1.0  -0.1727
  N  N207  1  0.860500  0.799200  0.028300  1.0  0.0649
  N  N208  1  0.887100  0.613700  0.077500  1.0  -0.2613
  N  N209  1  0.831800  0.609100  0.012000  1.0  -0.1949
  N  N210  1  0.860100  0.723300  0.034200  1.0  0.0649
  N  N211  1  0.914500  0.589600  0.480600  1.0  -0.143
  N  N212  1  0.810100  0.587200  0.477300  1.0  -0.1699
  N  N213  1  0.860500  0.700800  0.471700  1.0  0.0645
  N  N214  1  0.887100  0.886300  0.422500  1.0  -0.2612
  N  N215  1  0.831800  0.890900  0.488000  1.0  -0.1947
  N  N216  1  0.860100  0.776700  0.465800  1.0  0.0645
  N  N217  1  0.085500  0.980600  0.089600  1.0  -0.1414
  N  N218  1  0.189900  0.977300  0.087200  1.0  -0.1688
  N  N219  1  0.139500  0.971700  0.200800  1.0  0.065
  N  N220  1  0.112900  0.922500  0.386300  1.0  -0.2605
  N  N221  1  0.168200  0.988000  0.390900  1.0  -0.1934
  N  N222  1  0.139900  0.965800  0.276700  1.0  0.0651
  N  N223  1  0.085500  0.519400  0.410400  1.0  -0.142
  N  N224  1  0.189900  0.522700  0.412800  1.0  -0.1667
  N  N225  1  0.139500  0.528300  0.299200  1.0  0.064
  N  N226  1  0.112900  0.577500  0.113700  1.0  -0.2592
  N  N227  1  0.168200  0.512000  0.109100  1.0  -0.1923
  N  N228  1  0.139900  0.534200  0.223300  1.0  0.0647
  N  N229  1  0.585500  0.089600  0.519400  1.0  -0.1437
  N  N230  1  0.689900  0.087200  0.522700  1.0  -0.1704
  N  N231  1  0.639500  0.200800  0.528300  1.0  0.0646
  N  N232  1  0.612900  0.386300  0.577500  1.0  -0.2627
  N  N233  1  0.668200  0.390900  0.512000  1.0  -0.1948
  N  N234  1  0.639900  0.276700  0.534200  1.0  0.0646
  N  N235  1  0.585500  0.410400  0.980600  1.0  -0.1429
  N  N236  1  0.689900  0.412800  0.977300  1.0  -0.1702
  N  N237  1  0.639500  0.299200  0.971700  1.0  0.0651
  N  N238  1  0.612900  0.113700  0.922500  1.0  -0.2619
  N  N239  1  0.668200  0.109100  0.988000  1.0  -0.1942
  N  N240  1  0.639900  0.223300  0.965800  1.0  0.065
  Cl  Cl241  1  0.623200  0.920000  0.580000  1.0  -0.6356
  Cl  Cl242  1  0.623200  0.580000  0.920000  1.0  -0.6364
  Cl  Cl243  1  0.123200  0.920000  0.920000  1.0  -0.6354
  Cl  Cl244  1  0.123200  0.580000  0.580000  1.0  -0.6345
  Cl  Cl245  1  0.876800  0.080000  0.080000  1.0  -0.6343
  Cl  Cl246  1  0.876800  0.420000  0.420000  1.0  -0.6354
  Cl  Cl247  1  0.376800  0.080000  0.420000  1.0  -0.6364
  Cl  Cl248  1  0.376800  0.420000  0.080000  1.0  -0.6355
  Cl  Cl249  1  0.858810  0.856400  0.213440  1.0  -0.519
  Cl  Cl250  1  0.858810  0.643600  0.286560  1.0  -0.5188
  Cl  Cl251  1  0.641190  0.713440  0.143600  1.0  -0.5189
  Cl  Cl252  1  0.641190  0.786560  0.356400  1.0  -0.5189
  Cl  Cl253  1  0.358810  0.286560  0.856400  1.0  -0.5185
  Cl  Cl254  1  0.358810  0.213440  0.643600  1.0  -0.5185
  Cl  Cl255  1  0.141190  0.143600  0.786560  1.0  -0.5191
  Cl  Cl256  1  0.141190  0.356400  0.713440  1.0  -0.5193
  Cl  Cl257  1  0.641190  0.143600  0.713440  1.0  -0.5194
  Cl  Cl258  1  0.641190  0.356400  0.786560  1.0  -0.5192
  Cl  Cl259  1  0.858810  0.286560  0.643600  1.0  -0.5183
  Cl  Cl260  1  0.858810  0.213440  0.856400  1.0  -0.5185
  Cl  Cl261  1  0.141190  0.713440  0.356400  1.0  -0.5188
  Cl  Cl262  1  0.141190  0.786560  0.143600  1.0  -0.5186
  Cl  Cl263  1  0.358810  0.856400  0.286560  1.0  -0.5189
  Cl  Cl264  1  0.358810  0.643600  0.213440  1.0  -0.519
