# generated using pymatgen
data_Co3H8C14(NO5)2
_symmetry_space_group_name_H-M   'P 1'
_cell_length_a   10.82500000
_cell_length_b   11.14960000
_cell_length_c   11.14960000
_cell_angle_alpha   103.00400000
_cell_angle_beta   102.28600000
_cell_angle_gamma   77.71400000
_symmetry_Int_Tables_number   1
_chemical_formula_structural   Co3H8C14(NO5)2
_chemical_formula_sum   'Co6 H16 C28 N4 O20'
_cell_volume   1261.78771232
_cell_formula_units_Z   2
loop_
 _symmetry_equiv_pos_site_id
 _symmetry_equiv_pos_as_xyz
  1  'x, y, z'
loop_
 _atom_site_type_symbol
 _atom_site_label
 _atom_site_symmetry_multiplicity
 _atom_site_fract_x
 _atom_site_fract_y
 _atom_site_fract_z
 _atom_site_occupancy
 _atom_site_charge
  Co  Co1  1  0.449880  0.060870  0.878900  1.0  1.0793
  Co  Co2  1  0.050120  0.878910  0.060880  1.0  1.0795
  Co  Co3  1  0.750000  0.095160  0.095160  1.0  1.1101
  Co  Co4  1  0.550120  0.939120  0.121100  1.0  1.0765
  Co  Co5  1  0.250000  0.904840  0.904840  1.0  1.109
  Co  Co6  1  0.949880  0.121100  0.939130  1.0  1.0792
  H  H7  1  0.479800  0.832200  0.901800  1.0  0.5048
  H  H8  1  0.522000  0.314700  0.836900  1.0  0.0749
  H  H9  1  0.020200  0.901800  0.832200  1.0  0.5043
  H  H10  1  0.478000  0.685300  0.163100  1.0  0.078
  H  H11  1  0.454200  0.515700  0.854900  1.0  0.1066
  H  H12  1  0.022000  0.163100  0.685300  1.0  0.0771
  H  H13  1  0.979800  0.098200  0.167800  1.0  0.5019
  H  H14  1  0.520200  0.167800  0.098200  1.0  0.5048
  H  H15  1  0.134300  0.450200  0.959400  1.0  0.1041
  H  H16  1  0.545800  0.484300  0.145100  1.0  0.107
  H  H17  1  0.954200  0.145100  0.484300  1.0  0.106
  H  H18  1  0.978000  0.836900  0.314700  1.0  0.0779
  H  H19  1  0.634300  0.040600  0.549800  1.0  0.1054
  H  H20  1  0.865700  0.549800  0.040600  1.0  0.1043
  H  H21  1  0.045800  0.854900  0.515700  1.0  0.1068
  H  H22  1  0.365700  0.959400  0.450200  1.0  0.1049
  C  C23  1  0.787600  0.574460  0.067520  1.0  -0.0024
  C  C24  1  0.220500  0.911630  0.510370  1.0  -0.0821
  C  C25  1  0.604400  0.534970  0.130030  1.0  -0.1114
  C  C26  1  0.729300  0.066040  0.350260  1.0  0.6966
  C  C27  1  0.233800  0.914820  0.299940  1.0  0.0767
  C  C28  1  0.712400  0.067520  0.574460  1.0  -0.0055
  C  C29  1  0.270700  0.933960  0.649740  1.0  0.6976
  C  C30  1  0.104400  0.869970  0.465030  1.0  -0.1133
  C  C31  1  0.779500  0.088370  0.489630  1.0  -0.0818
  C  C32  1  0.943700  0.143610  0.662030  1.0  0.1617
  C  C33  1  0.556300  0.662030  0.143610  1.0  0.1621
  C  C34  1  0.266200  0.299940  0.914820  1.0  0.0744
  C  C35  1  0.056300  0.856390  0.337970  1.0  0.1622
  C  C36  1  0.770700  0.350260  0.066040  1.0  0.6974
  C  C37  1  0.200600  0.201440  0.934800  1.0  0.6478
  C  C38  1  0.299400  0.934800  0.201440  1.0  0.6456
  C  C39  1  0.766200  0.085180  0.700060  1.0  0.0761
  C  C40  1  0.212400  0.425540  0.932480  1.0  -0.002
  C  C41  1  0.395600  0.465030  0.869970  1.0  -0.112
  C  C42  1  0.229300  0.649740  0.933960  1.0  0.6977
  C  C43  1  0.279500  0.510370  0.911630  1.0  -0.0799
  C  C44  1  0.733800  0.700060  0.085180  1.0  0.0748
  C  C45  1  0.443700  0.337970  0.856390  1.0  0.1604
  C  C46  1  0.287600  0.932480  0.425540  1.0  -0.0039
  C  C47  1  0.895600  0.130030  0.534970  1.0  -0.1149
  C  C48  1  0.799400  0.798560  0.065200  1.0  0.6485
  C  C49  1  0.700600  0.065200  0.798560  1.0  0.6448
  C  C50  1  0.720500  0.489630  0.088370  1.0  -0.0788
  N  N51  1  0.881290  0.120800  0.743540  1.0  -0.3425
  N  N52  1  0.618710  0.743540  0.120800  1.0  -0.3411
  N  N53  1  0.381290  0.256460  0.879200  1.0  -0.3407
  N  N54  1  0.118710  0.879200  0.256460  1.0  -0.3419
  O  O55  1  0.150640  0.690150  0.007950  1.0  -0.6146
  O  O56  1  0.849360  0.309850  0.992050  1.0  -0.6148
  O  O57  1  0.267580  0.093770  0.930250  1.0  -0.6497
  O  O58  1  0.650640  0.992050  0.309850  1.0  -0.6154
  O  O59  1  0.948150  0.061830  0.103490  1.0  -1.0012
  O  O60  1  0.273030  0.712050  0.878690  1.0  -0.6013
  O  O61  1  0.767580  0.069750  0.906230  1.0  -0.6504
  O  O62  1  0.448150  0.896510  0.938170  1.0  -1.0017
  O  O63  1  0.087890  0.230810  0.951870  1.0  -0.6
  O  O64  1  0.773030  0.121310  0.287950  1.0  -0.5982
  O  O65  1  0.912110  0.769190  0.048130  1.0  -0.5998
  O  O66  1  0.732420  0.906230  0.069750  1.0  -0.649
  O  O67  1  0.349360  0.007950  0.690150  1.0  -0.6134
  O  O68  1  0.226970  0.878690  0.712050  1.0  -0.5989
  O  O69  1  0.051850  0.938170  0.896510  1.0  -1.0029
  O  O70  1  0.726970  0.287950  0.121310  1.0  -0.6012
  O  O71  1  0.232420  0.930250  0.093770  1.0  -0.6497
  O  O72  1  0.551850  0.103490  0.061830  1.0  -1.0032
  O  O73  1  0.412110  0.951870  0.230810  1.0  -0.6033
  O  O74  1  0.587890  0.048130  0.769190  1.0  -0.6041
