# generated using pymatgen
data_Co3H8C14(NO5)2
_symmetry_space_group_name_H-M   'P 1'
_cell_length_a   10.76700000
_cell_length_b   14.34500000
_cell_length_c   17.04900000
_cell_angle_alpha   90.00000000
_cell_angle_beta   106.51800000
_cell_angle_gamma   90.00000000
_symmetry_Int_Tables_number   1
_chemical_formula_structural   Co3H8C14(NO5)2
_chemical_formula_sum   'Co12 H32 C56 N8 O40'
_cell_volume   2524.58909952
_cell_formula_units_Z   4
loop_
 _symmetry_equiv_pos_site_id
 _symmetry_equiv_pos_as_xyz
  1  'x, y, z'
loop_
 _atom_site_type_symbol
 _atom_site_label
 _atom_site_symmetry_multiplicity
 _atom_site_fract_x
 _atom_site_fract_y
 _atom_site_fract_z
 _atom_site_occupancy
 _atom_site_charge
  Co  Co1  1  0.446910  0.473480  0.405500  1.0  1.0661
  Co  Co2  1  0.053090  0.973480  0.094500  1.0  1.0647
  Co  Co3  1  0.553090  0.526520  0.594500  1.0  1.0645
  Co  Co4  1  0.249140  0.908680  0.999260  1.0  1.1301
  Co  Co5  1  0.948170  0.528420  0.407010  1.0  1.0778
  Co  Co6  1  0.448170  0.971580  0.907010  1.0  1.0765
  Co  Co7  1  0.749140  0.591320  0.499260  1.0  1.1289
  Co  Co8  1  0.750860  0.091320  0.000740  1.0  1.129
  Co  Co9  1  0.551830  0.028420  0.092990  1.0  1.0784
  Co  Co10  1  0.250860  0.408680  0.500740  1.0  1.1305
  Co  Co11  1  0.946910  0.026520  0.905500  1.0  1.0659
  Co  Co12  1  0.051830  0.471580  0.592990  1.0  1.0769
  H  H13  1  0.015200  0.866800  0.967500  1.0  0.5138
  H  H14  1  0.867000  0.289500  0.743500  1.0  0.1138
  H  H15  1  0.484800  0.366800  0.532500  1.0  0.5148
  H  H16  1  0.070000  0.187100  0.342800  1.0  0.1127
  H  H17  1  0.930000  0.812900  0.657200  1.0  0.1125
  H  H18  1  0.430000  0.687100  0.157200  1.0  0.113
  H  H19  1  0.014100  0.931900  0.751500  1.0  0.079
  H  H20  1  0.985900  0.068100  0.248500  1.0  0.0791
  H  H21  1  0.133000  0.710500  0.256500  1.0  0.1133
  H  H22  1  0.023000  0.367900  0.468700  1.0  0.4701
  H  H23  1  0.049600  0.701400  0.827300  1.0  0.1164
  H  H24  1  0.485900  0.431900  0.748500  1.0  0.0791
  H  H25  1  0.529400  0.080200  0.763300  1.0  0.0777
  H  H26  1  0.477000  0.867900  0.031300  1.0  0.4711
  H  H27  1  0.984800  0.133200  0.032500  1.0  0.513
  H  H28  1  0.549600  0.798600  0.327300  1.0  0.1154
  H  H29  1  0.523000  0.132100  0.968700  1.0  0.4695
  H  H30  1  0.470600  0.919800  0.236700  1.0  0.0779
  H  H31  1  0.633000  0.789500  0.756500  1.0  0.1134
  H  H32  1  0.367000  0.210500  0.243500  1.0  0.1143
  H  H33  1  0.970600  0.580200  0.736700  1.0  0.078
  H  H34  1  0.514100  0.568100  0.251500  1.0  0.0794
  H  H35  1  0.977000  0.632100  0.531300  1.0  0.4692
  H  H36  1  0.130000  0.204800  0.748300  1.0  0.1198
  H  H37  1  0.370000  0.704800  0.751700  1.0  0.1205
  H  H38  1  0.029400  0.419800  0.263300  1.0  0.0775
  H  H39  1  0.515200  0.633200  0.467500  1.0  0.5135
  H  H40  1  0.450400  0.201400  0.672700  1.0  0.1157
  H  H41  1  0.630000  0.295200  0.248300  1.0  0.1203
  H  H42  1  0.870000  0.795200  0.251700  1.0  0.1208
  H  H43  1  0.950400  0.298600  0.172700  1.0  0.1148
  H  H44  1  0.570000  0.312900  0.842800  1.0  0.1133
  C  C45  1  0.304100  0.563730  0.639480  1.0  0.6818
  C  C46  1  0.763500  0.890720  0.805880  1.0  0.0906
  C  C47  1  0.775300  0.785910  0.699510  1.0  -0.1491
  C  C48  1  0.063800  0.097050  0.248730  1.0  0.1514
  C  C49  1  0.598300  0.821350  0.293910  1.0  -0.1185
  C  C50  1  0.195900  0.063730  0.860520  1.0  0.6812
  C  C51  1  0.766100  0.699480  0.352990  1.0  0.6683
  C  C52  1  0.448000  0.105370  0.760220  1.0  0.169
  C  C53  1  0.224700  0.214090  0.300490  1.0  -0.1497
  C  C54  1  0.612000  0.330850  0.803830  1.0  -0.0869
  C  C55  1  0.552000  0.894630  0.239780  1.0  0.1685
  C  C56  1  0.266100  0.800520  0.852990  1.0  0.6681
  C  C57  1  0.233900  0.300520  0.647010  1.0  0.6676
  C  C58  1  0.724700  0.285910  0.800490  1.0  -0.1489
  C  C59  1  0.236500  0.109280  0.194120  1.0  0.0909
  C  C60  1  0.789400  0.316820  0.745650  1.0  -0.0387
  C  C61  1  0.273600  0.295910  0.357070  1.0  0.689
  C  C62  1  0.782000  0.282400  0.202940  1.0  -0.1409
  C  C63  1  0.236400  0.606190  0.696710  1.0  0.0815
  C  C64  1  0.901700  0.321350  0.206090  1.0  -0.1184
  C  C65  1  0.112000  0.169150  0.303830  1.0  -0.0862
  C  C66  1  0.289600  0.680120  0.748430  1.0  -0.0264
  C  C67  1  0.710400  0.319880  0.251570  1.0  -0.0247
  C  C68  1  0.802000  0.431530  0.634810  1.0  0.6692
  C  C69  1  0.726400  0.704090  0.642930  1.0  0.6894
  C  C70  1  0.289400  0.183180  0.245650  1.0  -0.0385
  C  C71  1  0.052000  0.605370  0.739780  1.0  0.1704
  C  C72  1  0.282000  0.217600  0.702940  1.0  -0.141
  C  C73  1  0.275300  0.714090  0.199510  1.0  -0.149
  C  C74  1  0.098300  0.678650  0.793910  1.0  -0.1209
  C  C75  1  0.198000  0.568470  0.365190  1.0  0.6695
  C  C76  1  0.436200  0.597050  0.251270  1.0  0.1492
  C  C77  1  0.718000  0.782400  0.297060  1.0  -0.1407
  C  C78  1  0.563800  0.402950  0.748730  1.0  0.1508
  C  C79  1  0.888000  0.830850  0.696170  1.0  -0.0879
  C  C80  1  0.736400  0.893810  0.196710  1.0  0.0818
  C  C81  1  0.226400  0.795910  0.142930  1.0  0.6894
  C  C82  1  0.388000  0.669150  0.196170  1.0  -0.0865
  C  C83  1  0.936200  0.902950  0.751270  1.0  0.1506
  C  C84  1  0.789600  0.819880  0.248430  1.0  -0.027
  C  C85  1  0.218000  0.717600  0.797060  1.0  -0.1414
  C  C86  1  0.733900  0.199480  0.147010  1.0  0.6675
  C  C87  1  0.736500  0.390720  0.694120  1.0  0.0907
  C  C88  1  0.263600  0.106190  0.803290  1.0  0.0811
  C  C89  1  0.804100  0.936270  0.139480  1.0  0.6815
  C  C90  1  0.773600  0.204090  0.857070  1.0  0.6884
  C  C91  1  0.263500  0.609280  0.305880  1.0  0.0908
  C  C92  1  0.948000  0.394630  0.260220  1.0  0.1683
  C  C93  1  0.302000  0.068470  0.134810  1.0  0.6706
  C  C94  1  0.710600  0.816820  0.754350  1.0  -0.0377
  C  C95  1  0.210600  0.683180  0.254350  1.0  -0.0382
  C  C96  1  0.695900  0.436270  0.360520  1.0  0.6807
  C  C97  1  0.210400  0.180120  0.751570  1.0  -0.0245
  C  C98  1  0.763600  0.393810  0.303290  1.0  0.081
  C  C99  1  0.401700  0.178650  0.706090  1.0  -0.1182
  C  C100  1  0.698000  0.931530  0.865190  1.0  0.668
  N  N101  1  0.618540  0.929880  0.191570  1.0  -0.3193
  N  N102  1  0.381460  0.070120  0.808430  1.0  -0.3148
  N  N103  1  0.376110  0.568410  0.305820  1.0  -0.3158
  N  N104  1  0.623890  0.431590  0.694180  1.0  -0.3166
  N  N105  1  0.876110  0.931590  0.805820  1.0  -0.3171
  N  N106  1  0.118540  0.570120  0.691570  1.0  -0.3143
  N  N107  1  0.881460  0.429880  0.308430  1.0  -0.3194
  N  N108  1  0.123890  0.068410  0.194180  1.0  -0.315
  O  O109  1  0.847540  0.146630  0.836720  1.0  -0.5982
  O  O110  1  0.265870  0.511100  0.415710  1.0  -0.6536
  O  O111  1  0.265870  0.799460  0.080590  1.0  -0.5985
  O  O112  1  0.234130  0.011100  0.084290  1.0  -0.6523
  O  O113  1  0.552110  0.080330  0.979150  1.0  -0.9861
  O  O114  1  0.652460  0.646630  0.663280  1.0  -0.5984
  O  O115  1  0.765870  0.700540  0.580590  1.0  -0.5988
  O  O116  1  0.843840  0.644110  0.334500  1.0  -0.5996
  O  O117  1  0.343840  0.855890  0.834500  1.0  -0.5993
  O  O118  1  0.947890  0.580330  0.520850  1.0  -0.986
  O  O119  1  0.765870  0.988900  0.915710  1.0  -0.6523
  O  O120  1  0.156160  0.355890  0.665500  1.0  -0.5978
  O  O121  1  0.584760  0.909410  0.859630  1.0  -0.5978
  O  O122  1  0.735470  0.987370  0.084570  1.0  -0.6394
  O  O123  1  0.578770  0.418400  0.349860  1.0  -0.6056
  O  O124  1  0.220960  0.805560  0.913220  1.0  -0.6065
  O  O125  1  0.915240  0.409410  0.640370  1.0  -0.5988
  O  O126  1  0.084760  0.590590  0.359630  1.0  -0.5969
  O  O127  1  0.734130  0.488900  0.584290  1.0  -0.6524
  O  O128  1  0.952990  0.081300  0.020970  1.0  -0.9979
  O  O129  1  0.415240  0.090590  0.140370  1.0  -0.5979
  O  O130  1  0.720960  0.694440  0.413220  1.0  -0.6051
  O  O131  1  0.734130  0.200540  0.919410  1.0  -0.5988
  O  O132  1  0.921230  0.918400  0.150140  1.0  -0.6067
  O  O133  1  0.234130  0.299460  0.419410  1.0  -0.599
  O  O134  1  0.421230  0.581600  0.650140  1.0  -0.6072
  O  O135  1  0.779040  0.194440  0.086780  1.0  -0.6051
  O  O136  1  0.452990  0.418700  0.520970  1.0  -0.9979
  O  O137  1  0.152460  0.853370  0.163280  1.0  -0.597
  O  O138  1  0.547010  0.581300  0.479030  1.0  -0.9979
  O  O139  1  0.078770  0.081600  0.849860  1.0  -0.6054
  O  O140  1  0.447890  0.919670  0.020850  1.0  -0.9852
  O  O141  1  0.656160  0.144110  0.165500  1.0  -0.598
  O  O142  1  0.235470  0.512630  0.584570  1.0  -0.6393
  O  O143  1  0.347540  0.353370  0.336720  1.0  -0.5993
  O  O144  1  0.052110  0.419670  0.479150  1.0  -0.9863
  O  O145  1  0.264530  0.012630  0.915430  1.0  -0.6402
  O  O146  1  0.047010  0.918700  0.979030  1.0  -0.9988
  O  O147  1  0.279040  0.305560  0.586780  1.0  -0.6054
  O  O148  1  0.764530  0.487370  0.415430  1.0  -0.6395
