# generated using pymatgen
data_CoH3C6SNO2
_symmetry_space_group_name_H-M   'P 1'
_cell_length_a   8.75770000
_cell_length_b   8.75770000
_cell_length_c   11.95800000
_cell_angle_alpha   90.00000000
_cell_angle_beta   90.00000000
_cell_angle_gamma   101.79000000
_symmetry_Int_Tables_number   1
_chemical_formula_structural   CoH3C6SNO2
_chemical_formula_sum   'Co4 H12 C24 S4 N4 O8'
_cell_volume   897.79744612
_cell_formula_units_Z   4
loop_
 _symmetry_equiv_pos_site_id
 _symmetry_equiv_pos_as_xyz
  1  'x, y, z'
loop_
 _atom_site_type_symbol
 _atom_site_label
 _atom_site_symmetry_multiplicity
 _atom_site_fract_x
 _atom_site_fract_y
 _atom_site_fract_z
 _atom_site_occupancy
 _atom_site_charge
  Co  Co1  1  0.116730  0.116730  0.000000  1.0  0.7064
  Co  Co2  1  0.883270  0.883270  0.500000  1.0  0.7059
  Co  Co3  1  0.105130  0.894870  0.250000  1.0  0.7373
  Co  Co4  1  0.894870  0.105130  0.750000  1.0  0.7367
  H  H5  1  0.488000  0.140000  0.296000  1.0  0.1321
  H  H6  1  0.719000  0.119000  0.190000  1.0  0.1053
  H  H7  1  0.481600  0.140400  0.905000  1.0  0.0857
  H  H8  1  0.512000  0.860000  0.796000  1.0  0.1314
  H  H9  1  0.281000  0.881000  0.690000  1.0  0.1046
  H  H10  1  0.518400  0.859600  0.405000  1.0  0.0855
  H  H11  1  0.860000  0.512000  0.204000  1.0  0.1321
  H  H12  1  0.881000  0.281000  0.310000  1.0  0.1051
  H  H13  1  0.859600  0.518400  0.595000  1.0  0.0857
  H  H14  1  0.140000  0.488000  0.704000  1.0  0.1326
  H  H15  1  0.119000  0.719000  0.810000  1.0  0.1046
  H  H16  1  0.140400  0.481600  0.095000  1.0  0.0853
  C  C17  1  0.357130  0.146370  0.152760  1.0  0.2671
  C  C18  1  0.492060  0.140140  0.213100  1.0  -0.1855
  C  C19  1  0.624390  0.127810  0.154100  1.0  0.0059
  C  C20  1  0.623480  0.130860  0.037050  1.0  -0.2182
  C  C21  1  0.485190  0.137630  0.983700  1.0  0.2005
  C  C22  1  0.767760  0.125280  0.971660  1.0  0.684
  C  C23  1  0.642870  0.853630  0.652760  1.0  0.2731
  C  C24  1  0.507940  0.859860  0.713100  1.0  -0.1842
  C  C25  1  0.375610  0.872190  0.654100  1.0  0.0098
  C  C26  1  0.376520  0.869140  0.537050  1.0  -0.2186
  C  C27  1  0.514810  0.862370  0.483700  1.0  0.2
  C  C28  1  0.232240  0.874720  0.471660  1.0  0.6846
  C  C29  1  0.853630  0.642870  0.347240  1.0  0.2697
  C  C30  1  0.859860  0.507940  0.286900  1.0  -0.1824
  C  C31  1  0.872190  0.375610  0.345900  1.0  0.009
  C  C32  1  0.869140  0.376520  0.462950  1.0  -0.2178
  C  C33  1  0.862370  0.514810  0.516300  1.0  0.1997
  C  C34  1  0.874720  0.232240  0.528340  1.0  0.6851
  C  C35  1  0.146370  0.357130  0.847240  1.0  0.2691
  C  C36  1  0.140140  0.492060  0.786900  1.0  -0.1833
  C  C37  1  0.127810  0.624390  0.845900  1.0  0.0094
  C  C38  1  0.130860  0.623480  0.962950  1.0  -0.2179
  C  C39  1  0.137630  0.485190  0.016300  1.0  0.199
  C  C40  1  0.125280  0.767760  0.028340  1.0  0.6857
  S  S41  1  0.173990  0.156430  0.210820  1.0  -0.3682
  S  S42  1  0.826010  0.843570  0.710820  1.0  -0.3694
  S  S43  1  0.843570  0.826010  0.289180  1.0  -0.3724
  S  S44  1  0.156430  0.173990  0.789180  1.0  -0.3693
  N  N45  1  0.354120  0.141520  0.039970  1.0  -0.3236
  N  N46  1  0.645880  0.858480  0.539970  1.0  -0.3243
  N  N47  1  0.858480  0.645880  0.460030  1.0  -0.3249
  N  N48  1  0.141520  0.354120  0.960030  1.0  -0.3246
  O  O49  1  0.880690  0.092350  0.022240  1.0  -0.552
  O  O50  1  0.238370  0.842790  0.368240  1.0  -0.5592
  O  O51  1  0.119310  0.907650  0.522240  1.0  -0.5506
  O  O52  1  0.761630  0.157210  0.868240  1.0  -0.5597
  O  O53  1  0.907650  0.119310  0.477760  1.0  -0.5505
  O  O54  1  0.157210  0.761630  0.131760  1.0  -0.5596
  O  O55  1  0.092350  0.880690  0.977760  1.0  -0.5516
  O  O56  1  0.842790  0.238370  0.631760  1.0  -0.5599
