# generated using pymatgen
data_Co3H8C14(NO5)2
_symmetry_space_group_name_H-M   'P 1'
_cell_length_a   10.77380000
_cell_length_b   11.14820000
_cell_length_c   11.14820000
_cell_angle_alpha   99.98660000
_cell_angle_beta   102.48800000
_cell_angle_gamma   77.51250000
_symmetry_Int_Tables_number   1
_chemical_formula_structural   Co3H8C14(NO5)2
_chemical_formula_sum   'Co6 H16 C28 N4 O20'
_cell_volume   1265.06970053
_cell_formula_units_Z   2
loop_
 _symmetry_equiv_pos_site_id
 _symmetry_equiv_pos_as_xyz
  1  'x, y, z'
loop_
 _atom_site_type_symbol
 _atom_site_label
 _atom_site_symmetry_multiplicity
 _atom_site_fract_x
 _atom_site_fract_y
 _atom_site_fract_z
 _atom_site_occupancy
 _atom_site_charge
  Co  Co1  1  0.052410  0.933890  0.121070  1.0  1.0576
  Co  Co2  1  0.447590  0.121070  0.933890  1.0  1.0571
  Co  Co3  1  0.947590  0.066110  0.878930  1.0  1.0575
  Co  Co4  1  0.552410  0.878930  0.066110  1.0  1.0579
  Co  Co5  1  0.250000  0.091480  0.091480  1.0  1.148
  Co  Co6  1  0.750000  0.908520  0.908520  1.0  1.1475
  H  H7  1  0.019000  0.166000  0.098000  1.0  0.4783
  H  H8  1  0.361000  0.547800  0.040200  1.0  0.1668
  H  H9  1  0.061000  0.473000  0.137000  1.0  0.1204
  H  H10  1  0.979000  0.686000  0.174000  1.0  0.0853
  H  H11  1  0.481000  0.098000  0.166000  1.0  0.4792
  H  H12  1  0.139000  0.040200  0.547800  1.0  0.166
  H  H13  1  0.439000  0.137000  0.473000  1.0  0.1193
  H  H14  1  0.521000  0.174000  0.686000  1.0  0.085
  H  H15  1  0.981000  0.834000  0.902000  1.0  0.4778
  H  H16  1  0.639000  0.452200  0.959800  1.0  0.1664
  H  H17  1  0.939000  0.527000  0.863000  1.0  0.1197
  H  H18  1  0.021000  0.314000  0.826000  1.0  0.0861
  H  H19  1  0.519000  0.902000  0.834000  1.0  0.4807
  H  H20  1  0.861000  0.959800  0.452200  1.0  0.1632
  H  H21  1  0.561000  0.863000  0.527000  1.0  0.1192
  H  H22  1  0.479000  0.826000  0.314000  1.0  0.0843
  C  C23  1  0.236700  0.696710  0.088070  1.0  0.0812
  C  C24  1  0.289400  0.571780  0.065860  1.0  -0.0623
  C  C25  1  0.221200  0.485680  0.082760  1.0  -0.0673
  C  C26  1  0.105200  0.528170  0.124630  1.0  -0.128
  C  C27  1  0.058300  0.654610  0.142590  1.0  0.1444
  C  C28  1  0.303000  0.796610  0.071170  1.0  0.6456
  C  C29  1  0.269800  0.347090  0.057630  1.0  0.6587
  C  C30  1  0.263300  0.088070  0.696710  1.0  0.0813
  C  C31  1  0.210600  0.065860  0.571780  1.0  -0.064
  C  C32  1  0.278800  0.082760  0.485680  1.0  -0.0734
  C  C33  1  0.394800  0.124630  0.528170  1.0  -0.1297
  C  C34  1  0.441700  0.142590  0.654610  1.0  0.1431
  C  C35  1  0.197000  0.071170  0.796610  1.0  0.6442
  C  C36  1  0.230200  0.057630  0.347090  1.0  0.6586
  C  C37  1  0.763300  0.303290  0.911930  1.0  0.0802
  C  C38  1  0.710600  0.428220  0.934140  1.0  -0.0624
  C  C39  1  0.778800  0.514320  0.917240  1.0  -0.0682
  C  C40  1  0.894800  0.471830  0.875370  1.0  -0.1279
  C  C41  1  0.941700  0.345390  0.857410  1.0  0.1452
  C  C42  1  0.697000  0.203390  0.928830  1.0  0.646
  C  C43  1  0.730200  0.652910  0.942370  1.0  0.659
  C  C44  1  0.736700  0.911930  0.303290  1.0  0.081
  C  C45  1  0.789400  0.934140  0.428220  1.0  -0.0668
  C  C46  1  0.721200  0.917240  0.514320  1.0  -0.0745
  C  C47  1  0.605200  0.875370  0.471830  1.0  -0.1299
  C  C48  1  0.558300  0.857410  0.345390  1.0  0.1429
  C  C49  1  0.803000  0.928830  0.203390  1.0  0.6446
  C  C50  1  0.769800  0.942370  0.652910  1.0  0.6592
  N  N51  1  0.121500  0.738050  0.123370  1.0  -0.34
  N  N52  1  0.378500  0.123370  0.738050  1.0  -0.3401
  N  N53  1  0.878500  0.261950  0.876630  1.0  -0.3407
  N  N54  1  0.621500  0.876630  0.261950  1.0  -0.3414
  O  O55  1  0.234730  0.903790  0.072250  1.0  -0.6385
  O  O56  1  0.418130  0.769020  0.059800  1.0  -0.5597
  O  O57  1  0.345560  0.309970  0.981770  1.0  -0.6009
  O  O58  1  0.227700  0.281540  0.114100  1.0  -0.6092
  O  O59  1  0.050170  0.101370  0.059850  1.0  -0.9978
  O  O60  1  0.265270  0.072250  0.903790  1.0  -0.6414
  O  O61  1  0.081870  0.059800  0.769020  1.0  -0.5642
  O  O62  1  0.154440  0.981770  0.309970  1.0  -0.6012
  O  O63  1  0.272300  0.114100  0.281540  1.0  -0.606
  O  O64  1  0.449830  0.059850  0.101370  1.0  -0.9953
  O  O65  1  0.765270  0.096210  0.927750  1.0  -0.6385
  O  O66  1  0.581870  0.230980  0.940200  1.0  -0.5579
  O  O67  1  0.654440  0.690030  0.018230  1.0  -0.6009
  O  O68  1  0.772300  0.718460  0.885900  1.0  -0.6087
  O  O69  1  0.949830  0.898630  0.940150  1.0  -0.9962
  O  O70  1  0.734730  0.927750  0.096210  1.0  -0.6412
  O  O71  1  0.918130  0.940200  0.230980  1.0  -0.5629
  O  O72  1  0.845560  0.018230  0.690030  1.0  -0.6007
  O  O73  1  0.727700  0.885900  0.718460  1.0  -0.6062
  O  O74  1  0.550170  0.940150  0.898630  1.0  -0.995
