# generated using pymatgen
data_Na7Fe2H36C72N12(ClO6)6
_symmetry_space_group_name_H-M   'P 1'
_cell_length_a   23.62700000
_cell_length_b   23.62700000
_cell_length_c   23.62700000
_cell_angle_alpha   90.00000000
_cell_angle_beta   90.00000000
_cell_angle_gamma   90.00000000
_symmetry_Int_Tables_number   1
_chemical_formula_structural   Na7Fe2H36C72N12(ClO6)6
_chemical_formula_sum   'Na28 Fe8 H144 C288 N48 Cl24 O144'
_cell_volume   13189.42139288
_cell_formula_units_Z   4
loop_
 _symmetry_equiv_pos_site_id
 _symmetry_equiv_pos_as_xyz
  1  'x, y, z'
loop_
 _atom_site_type_symbol
 _atom_site_label
 _atom_site_symmetry_multiplicity
 _atom_site_fract_x
 _atom_site_fract_y
 _atom_site_fract_z
 _atom_site_occupancy
 _atom_site_charge
  Na  Na1  1  0.500000  0.750000  0.000000  1.0  0.8976
  Na  Na2  1  0.500000  0.250000  0.000000  1.0  0.8976
  Na  Na3  1  0.000000  0.500000  0.750000  1.0  0.8976
  Na  Na4  1  0.000000  0.500000  0.250000  1.0  0.8976
  Na  Na5  1  0.750000  0.000000  0.500000  1.0  0.8976
  Na  Na6  1  0.250000  0.000000  0.500000  1.0  0.8976
  Na  Na7  1  0.500000  0.000000  0.250000  1.0  0.9972
  Na  Na8  1  0.500000  0.000000  0.750000  1.0  0.9972
  Na  Na9  1  0.250000  0.500000  0.000000  1.0  0.9972
  Na  Na10  1  0.750000  0.500000  0.000000  1.0  0.9972
  Na  Na11  1  0.000000  0.250000  0.500000  1.0  0.9972
  Na  Na12  1  0.000000  0.750000  0.500000  1.0  0.9972
  Na  Na13  1  0.879900  0.879900  0.879900  1.0  0.9838
  Na  Na14  1  0.120100  0.120100  0.879900  1.0  0.9815
  Na  Na15  1  0.120100  0.879900  0.120100  1.0  0.9815
  Na  Na16  1  0.879900  0.120100  0.120100  1.0  0.9822
  Na  Na17  1  0.379900  0.379900  0.620100  1.0  0.9829
  Na  Na18  1  0.620100  0.620100  0.620100  1.0  0.9811
  Na  Na19  1  0.379900  0.620100  0.379900  1.0  0.9824
  Na  Na20  1  0.620100  0.379900  0.379900  1.0  0.983
  Na  Na21  1  0.120100  0.120100  0.120100  1.0  0.9811
  Na  Na22  1  0.879900  0.879900  0.120100  1.0  0.9829
  Na  Na23  1  0.879900  0.120100  0.879900  1.0  0.9824
  Na  Na24  1  0.120100  0.879900  0.879900  1.0  0.983
  Na  Na25  1  0.620100  0.620100  0.379900  1.0  0.9815
  Na  Na26  1  0.379900  0.379900  0.379900  1.0  0.9838
  Na  Na27  1  0.620100  0.379900  0.620100  1.0  0.9815
  Na  Na28  1  0.379900  0.620100  0.620100  1.0  0.9822
  Fe  Fe29  1  0.750000  0.750000  0.750000  1.0  0.5597
  Fe  Fe30  1  0.250000  0.250000  0.750000  1.0  0.5597
  Fe  Fe31  1  0.250000  0.750000  0.250000  1.0  0.5597
  Fe  Fe32  1  0.750000  0.250000  0.250000  1.0  0.5597
  Fe  Fe33  1  0.250000  0.250000  0.250000  1.0  0.5597
  Fe  Fe34  1  0.750000  0.750000  0.250000  1.0  0.5597
  Fe  Fe35  1  0.750000  0.250000  0.750000  1.0  0.5597
  Fe  Fe36  1  0.250000  0.750000  0.750000  1.0  0.5597
  H  H37  1  0.758900  0.873400  0.797100  1.0  0.0584
  H  H38  1  0.720500  0.924600  0.863200  1.0  0.1103
  H  H39  1  0.640800  0.888500  0.913600  1.0  0.1246
  H  H40  1  0.241100  0.126600  0.797100  1.0  0.0592
  H  H41  1  0.279500  0.075400  0.863200  1.0  0.1099
  H  H42  1  0.359200  0.111500  0.913600  1.0  0.1244
  H  H43  1  0.241100  0.873400  0.202900  1.0  0.0586
  H  H44  1  0.279500  0.924600  0.136800  1.0  0.1102
  H  H45  1  0.359200  0.888500  0.086400  1.0  0.1241
  H  H46  1  0.758900  0.126600  0.202900  1.0  0.0589
  H  H47  1  0.720500  0.075400  0.136800  1.0  0.1098
  H  H48  1  0.640800  0.111500  0.086400  1.0  0.1243
  H  H49  1  0.797100  0.758900  0.873400  1.0  0.0606
  H  H50  1  0.863200  0.720500  0.924600  1.0  0.1086
  H  H51  1  0.913600  0.640800  0.888500  1.0  0.1237
  H  H52  1  0.797100  0.241100  0.126600  1.0  0.0608
  H  H53  1  0.863200  0.279500  0.075400  1.0  0.1098
  H  H54  1  0.913600  0.359200  0.111500  1.0  0.1235
  H  H55  1  0.202900  0.241100  0.873400  1.0  0.0607
  H  H56  1  0.136800  0.279500  0.924600  1.0  0.1101
  H  H57  1  0.086400  0.359200  0.888500  1.0  0.1239
  H  H58  1  0.202900  0.758900  0.126600  1.0  0.0603
  H  H59  1  0.136800  0.720500  0.075400  1.0  0.1095
  H  H60  1  0.086400  0.640800  0.111500  1.0  0.123
  H  H61  1  0.873400  0.797100  0.758900  1.0  0.0597
  H  H62  1  0.924600  0.863200  0.720500  1.0  0.1084
  H  H63  1  0.888500  0.913600  0.640800  1.0  0.1244
  H  H64  1  0.126600  0.797100  0.241100  1.0  0.0599
  H  H65  1  0.075400  0.863200  0.279500  1.0  0.1092
  H  H66  1  0.111500  0.913600  0.359200  1.0  0.1243
  H  H67  1  0.873400  0.202900  0.241100  1.0  0.0595
  H  H68  1  0.924600  0.136800  0.279500  1.0  0.1088
  H  H69  1  0.888500  0.086400  0.359200  1.0  0.1241
  H  H70  1  0.126600  0.202900  0.758900  1.0  0.0602
  H  H71  1  0.075400  0.136800  0.720500  1.0  0.1093
  H  H72  1  0.111500  0.086400  0.640800  1.0  0.1241
  H  H73  1  0.373400  0.258900  0.702900  1.0  0.0585
  H  H74  1  0.424600  0.220500  0.636800  1.0  0.1091
  H  H75  1  0.388500  0.140800  0.586400  1.0  0.1242
  H  H76  1  0.626600  0.741100  0.702900  1.0  0.0585
  H  H77  1  0.575400  0.779500  0.636800  1.0  0.1097
  H  H78  1  0.611500  0.859200  0.586400  1.0  0.1242
  H  H79  1  0.373400  0.741100  0.297100  1.0  0.0592
  H  H80  1  0.424600  0.779500  0.363200  1.0  0.1083
  H  H81  1  0.388500  0.859200  0.413600  1.0  0.124
  H  H82  1  0.626600  0.258900  0.297100  1.0  0.0594
  H  H83  1  0.575400  0.220500  0.363200  1.0  0.1091
  H  H84  1  0.611500  0.140800  0.413600  1.0  0.1244
  H  H85  1  0.258900  0.297100  0.626600  1.0  0.0609
  H  H86  1  0.220500  0.363200  0.575400  1.0  0.1097
  H  H87  1  0.140800  0.413600  0.611500  1.0  0.1238
  H  H88  1  0.741100  0.297100  0.373400  1.0  0.061
  H  H89  1  0.779500  0.363200  0.424600  1.0  0.1097
  H  H90  1  0.859200  0.413600  0.388500  1.0  0.1236
  H  H91  1  0.741100  0.702900  0.626600  1.0  0.0612
  H  H92  1  0.779500  0.636800  0.575400  1.0  0.1095
  H  H93  1  0.859200  0.586400  0.611500  1.0  0.1234
  H  H94  1  0.258900  0.702900  0.373400  1.0  0.0617
  H  H95  1  0.220500  0.636800  0.424600  1.0  0.1093
  H  H96  1  0.140800  0.586400  0.388500  1.0  0.1246
  H  H97  1  0.297100  0.373400  0.741100  1.0  0.0587
  H  H98  1  0.363200  0.424600  0.779500  1.0  0.1096
  H  H99  1  0.413600  0.388500  0.859200  1.0  0.1236
  H  H100  1  0.297100  0.626600  0.258900  1.0  0.0596
  H  H101  1  0.363200  0.575400  0.220500  1.0  0.1088
  H  H102  1  0.413600  0.611500  0.140800  1.0  0.1239
  H  H103  1  0.702900  0.373400  0.258900  1.0  0.059
  H  H104  1  0.636800  0.424600  0.220500  1.0  0.1097
  H  H105  1  0.586400  0.388500  0.140800  1.0  0.1242
  H  H106  1  0.702900  0.626600  0.741100  1.0  0.0588
  H  H107  1  0.636800  0.575400  0.779500  1.0  0.1098
  H  H108  1  0.586400  0.611500  0.859200  1.0  0.1241
  H  H109  1  0.241100  0.126600  0.202900  1.0  0.059
  H  H110  1  0.279500  0.075400  0.136800  1.0  0.1101
  H  H111  1  0.359200  0.111500  0.086400  1.0  0.1242
  H  H112  1  0.758900  0.873400  0.202900  1.0  0.0582
  H  H113  1  0.720500  0.924600  0.136800  1.0  0.1101
  H  H114  1  0.640800  0.888500  0.086400  1.0  0.1245
  H  H115  1  0.758900  0.126600  0.797100  1.0  0.0591
  H  H116  1  0.720500  0.075400  0.863200  1.0  0.1095
  H  H117  1  0.640800  0.111500  0.913600  1.0  0.1249
  H  H118  1  0.241100  0.873400  0.797100  1.0  0.0588
  H  H119  1  0.279500  0.924600  0.863200  1.0  0.1105
  H  H120  1  0.359200  0.888500  0.913600  1.0  0.1242
  H  H121  1  0.202900  0.241100  0.126600  1.0  0.0603
  H  H122  1  0.136800  0.279500  0.075400  1.0  0.1098
  H  H123  1  0.086400  0.359200  0.111500  1.0  0.1233
  H  H124  1  0.202900  0.758900  0.873400  1.0  0.0605
  H  H125  1  0.136800  0.720500  0.924600  1.0  0.1095
  H  H126  1  0.086400  0.640800  0.888500  1.0  0.1242
  H  H127  1  0.797100  0.758900  0.126600  1.0  0.0609
  H  H128  1  0.863200  0.720500  0.075400  1.0  0.1097
  H  H129  1  0.913600  0.640800  0.111500  1.0  0.1234
  H  H130  1  0.797100  0.241100  0.873400  1.0  0.0607
  H  H131  1  0.863200  0.279500  0.924600  1.0  0.1087
  H  H132  1  0.913600  0.359200  0.888500  1.0  0.1236
  H  H133  1  0.126600  0.202900  0.241100  1.0  0.0596
  H  H134  1  0.075400  0.136800  0.279500  1.0  0.1093
  H  H135  1  0.111500  0.086400  0.359200  1.0  0.1243
  H  H136  1  0.873400  0.202900  0.758900  1.0  0.06
  H  H137  1  0.924600  0.136800  0.720500  1.0  0.1087
  H  H138  1  0.888500  0.086400  0.640800  1.0  0.1245
  H  H139  1  0.126600  0.797100  0.758900  1.0  0.0602
  H  H140  1  0.075400  0.863200  0.720500  1.0  0.1086
  H  H141  1  0.111500  0.913600  0.640800  1.0  0.1243
  H  H142  1  0.873400  0.797100  0.241100  1.0  0.0597
  H  H143  1  0.924600  0.863200  0.279500  1.0  0.109
  H  H144  1  0.888500  0.913600  0.359200  1.0  0.1236
  H  H145  1  0.626600  0.741100  0.297100  1.0  0.059
  H  H146  1  0.575400  0.779500  0.363200  1.0  0.1095
  H  H147  1  0.611500  0.859200  0.413600  1.0  0.1244
  H  H148  1  0.373400  0.258900  0.297100  1.0  0.059
  H  H149  1  0.424600  0.220500  0.363200  1.0  0.1084
  H  H150  1  0.388500  0.140800  0.413600  1.0  0.1241
  H  H151  1  0.626600  0.258900  0.702900  1.0  0.0591
  H  H152  1  0.575400  0.220500  0.636800  1.0  0.109
  H  H153  1  0.611500  0.140800  0.586400  1.0  0.1239
  H  H154  1  0.373400  0.741100  0.702900  1.0  0.0586
  H  H155  1  0.424600  0.779500  0.636800  1.0  0.109
  H  H156  1  0.388500  0.859200  0.586400  1.0  0.1243
  H  H157  1  0.741100  0.702900  0.373400  1.0  0.0615
  H  H158  1  0.779500  0.636800  0.424600  1.0  0.1099
  H  H159  1  0.859200  0.586400  0.388500  1.0  0.1241
  H  H160  1  0.258900  0.702900  0.626600  1.0  0.0608
  H  H161  1  0.220500  0.636800  0.575400  1.0  0.1096
  H  H162  1  0.140800  0.586400  0.611500  1.0  0.1233
  H  H163  1  0.258900  0.297100  0.373400  1.0  0.0611
  H  H164  1  0.220500  0.363200  0.424600  1.0  0.1095
  H  H165  1  0.140800  0.413600  0.388500  1.0  0.1242
  H  H166  1  0.741100  0.297100  0.626600  1.0  0.0612
  H  H167  1  0.779500  0.363200  0.575400  1.0  0.1095
  H  H168  1  0.859200  0.413600  0.611500  1.0  0.1235
  H  H169  1  0.702900  0.626600  0.258900  1.0  0.0596
  H  H170  1  0.636800  0.575400  0.220500  1.0  0.1096
  H  H171  1  0.586400  0.611500  0.140800  1.0  0.1237
  H  H172  1  0.702900  0.373400  0.741100  1.0  0.0582
  H  H173  1  0.636800  0.424600  0.779500  1.0  0.11
  H  H174  1  0.586400  0.388500  0.859200  1.0  0.124
  H  H175  1  0.297100  0.626600  0.741100  1.0  0.0591
  H  H176  1  0.363200  0.575400  0.779500  1.0  0.1094
  H  H177  1  0.413600  0.611500  0.859200  1.0  0.124
  H  H178  1  0.297100  0.373400  0.258900  1.0  0.0589
  H  H179  1  0.363200  0.424600  0.220500  1.0  0.109
  H  H180  1  0.413600  0.388500  0.140800  1.0  0.124
  C  C181  1  0.730210  0.856910  0.818480  1.0  0.1816
  C  C182  1  0.707100  0.888200  0.856320  1.0  -0.134
  C  C183  1  0.660450  0.866220  0.887760  1.0  -0.1048
  C  C184  1  0.645040  0.807990  0.877770  1.0  -0.0026
  C  C185  1  0.674750  0.781720  0.836160  1.0  0.1264
  C  C186  1  0.601220  0.783370  0.909250  1.0  0.3089
  C  C187  1  0.269790  0.143090  0.818480  1.0  0.1832
  C  C188  1  0.292900  0.111800  0.856320  1.0  -0.1358
  C  C189  1  0.339550  0.133780  0.887760  1.0  -0.1058
  C  C190  1  0.354960  0.192010  0.877770  1.0  -0.0048
  C  C191  1  0.325250  0.218280  0.836160  1.0  0.1266
  C  C192  1  0.398780  0.216630  0.909250  1.0  0.3115
  C  C193  1  0.269790  0.856910  0.181520  1.0  0.1825
  C  C194  1  0.292900  0.888200  0.143680  1.0  -0.1364
  C  C195  1  0.339550  0.866220  0.112240  1.0  -0.1042
  C  C196  1  0.354960  0.807990  0.122230  1.0  -0.0048
  C  C197  1  0.325250  0.781720  0.163840  1.0  0.126
  C  C198  1  0.398780  0.783370  0.090750  1.0  0.3107
  C  C199  1  0.730210  0.143090  0.181520  1.0  0.1833
  C  C200  1  0.707100  0.111800  0.143680  1.0  -0.1383
  C  C201  1  0.660450  0.133780  0.112240  1.0  -0.1032
  C  C202  1  0.645040  0.192010  0.122230  1.0  -0.0042
  C  C203  1  0.674750  0.218280  0.163840  1.0  0.1261
  C  C204  1  0.601220  0.216630  0.090750  1.0  0.311
  C  C205  1  0.818480  0.730210  0.856910  1.0  0.1781
  C  C206  1  0.856320  0.707100  0.888200  1.0  -0.1311
  C  C207  1  0.887760  0.660450  0.866220  1.0  -0.1049
  C  C208  1  0.877770  0.645040  0.807990  1.0  -0.0061
  C  C209  1  0.836160  0.674750  0.781720  1.0  0.1268
  C  C210  1  0.909250  0.601220  0.783370  1.0  0.3088
  C  C211  1  0.818480  0.269790  0.143090  1.0  0.1785
  C  C212  1  0.856320  0.292900  0.111800  1.0  -0.1287
  C  C213  1  0.887760  0.339550  0.133780  1.0  -0.1026
  C  C214  1  0.877770  0.354960  0.192010  1.0  -0.0056
  C  C215  1  0.836160  0.325250  0.218280  1.0  0.1261
  C  C216  1  0.909250  0.398780  0.216630  1.0  0.308
  C  C217  1  0.181520  0.269790  0.856910  1.0  0.1778
  C  C218  1  0.143680  0.292900  0.888200  1.0  -0.1308
  C  C219  1  0.112240  0.339550  0.866220  1.0  -0.1066
  C  C220  1  0.122230  0.354960  0.807990  1.0  -0.0049
  C  C221  1  0.163840  0.325250  0.781720  1.0  0.1265
  C  C222  1  0.090750  0.398780  0.783370  1.0  0.306
  C  C223  1  0.181520  0.730210  0.143090  1.0  0.1776
  C  C224  1  0.143680  0.707100  0.111800  1.0  -0.1282
  C  C225  1  0.112240  0.660450  0.133780  1.0  -0.1018
  C  C226  1  0.122230  0.645040  0.192010  1.0  -0.0056
  C  C227  1  0.163840  0.674750  0.218280  1.0  0.1259
  C  C228  1  0.090750  0.601220  0.216630  1.0  0.3085
  C  C229  1  0.856910  0.818480  0.730210  1.0  0.1809
  C  C230  1  0.888200  0.856320  0.707100  1.0  -0.1379
  C  C231  1  0.866220  0.887760  0.660450  1.0  -0.1044
  C  C232  1  0.807990  0.877770  0.645040  1.0  -0.0031
  C  C233  1  0.781720  0.836160  0.674750  1.0  0.1261
  C  C234  1  0.783370  0.909250  0.601220  1.0  0.3105
  C  C235  1  0.143090  0.818480  0.269790  1.0  0.1797
  C  C236  1  0.111800  0.856320  0.292900  1.0  -0.1378
  C  C237  1  0.133780  0.887760  0.339550  1.0  -0.1051
  C  C238  1  0.192010  0.877770  0.354960  1.0  -0.0019
  C  C239  1  0.218280  0.836160  0.325250  1.0  0.1255
  C  C240  1  0.216630  0.909250  0.398780  1.0  0.308
  C  C241  1  0.856910  0.181520  0.269790  1.0  0.1806
  C  C242  1  0.888200  0.143680  0.292900  1.0  -0.1369
  C  C243  1  0.866220  0.112240  0.339550  1.0  -0.1039
  C  C244  1  0.807990  0.122230  0.354960  1.0  -0.0032
  C  C245  1  0.781720  0.163840  0.325250  1.0  0.1264
  C  C246  1  0.783370  0.090750  0.398780  1.0  0.3112
  C  C247  1  0.143090  0.181520  0.730210  1.0  0.1799
  C  C248  1  0.111800  0.143680  0.707100  1.0  -0.1376
  C  C249  1  0.133780  0.112240  0.660450  1.0  -0.1048
  C  C250  1  0.192010  0.122230  0.645040  1.0  -0.0039
  C  C251  1  0.218280  0.163840  0.674750  1.0  0.1257
  C  C252  1  0.216630  0.090750  0.601220  1.0  0.3091
  C  C253  1  0.356910  0.230210  0.681520  1.0  0.1836
  C  C254  1  0.388200  0.207100  0.643680  1.0  -0.1391
  C  C255  1  0.366220  0.160450  0.612240  1.0  -0.1041
  C  C256  1  0.307990  0.145040  0.622230  1.0  -0.0043
  C  C257  1  0.281720  0.174750  0.663840  1.0  0.1265
  C  C258  1  0.283370  0.101220  0.590750  1.0  0.3097
  C  C259  1  0.643090  0.769790  0.681520  1.0  0.1828
  C  C260  1  0.611800  0.792900  0.643680  1.0  -0.1401
  C  C261  1  0.633780  0.839550  0.612240  1.0  -0.1042
  C  C262  1  0.692010  0.854960  0.622230  1.0  -0.0039
  C  C263  1  0.718280  0.825250  0.663840  1.0  0.1261
  C  C264  1  0.716630  0.898780  0.590750  1.0  0.3088
  C  C265  1  0.356910  0.769790  0.318480  1.0  0.1833
  C  C266  1  0.388200  0.792900  0.356320  1.0  -0.1389
  C  C267  1  0.366220  0.839550  0.387760  1.0  -0.104
  C  C268  1  0.307990  0.854960  0.377770  1.0  -0.0041
  C  C269  1  0.281720  0.825250  0.336160  1.0  0.1272
  C  C270  1  0.283370  0.898780  0.409250  1.0  0.3092
  C  C271  1  0.643090  0.230210  0.318480  1.0  0.182
  C  C272  1  0.611800  0.207100  0.356320  1.0  -0.1379
  C  C273  1  0.633780  0.160450  0.387760  1.0  -0.1047
  C  C274  1  0.692010  0.145040  0.377770  1.0  -0.0042
  C  C275  1  0.718280  0.174750  0.336160  1.0  0.1264
  C  C276  1  0.716630  0.101220  0.409250  1.0  0.3086
  C  C277  1  0.230210  0.318480  0.643090  1.0  0.1788
  C  C278  1  0.207100  0.356320  0.611800  1.0  -0.1294
  C  C279  1  0.160450  0.387760  0.633780  1.0  -0.1031
  C  C280  1  0.145040  0.377770  0.692010  1.0  -0.0052
  C  C281  1  0.174750  0.336160  0.718280  1.0  0.1255
  C  C282  1  0.101220  0.409250  0.716630  1.0  0.3103
  C  C283  1  0.769790  0.318480  0.356910  1.0  0.1789
  C  C284  1  0.792900  0.356320  0.388200  1.0  -0.1323
  C  C285  1  0.839550  0.387760  0.366220  1.0  -0.106
  C  C286  1  0.854960  0.377770  0.307990  1.0  -0.0081
  C  C287  1  0.825250  0.336160  0.281720  1.0  0.1259
  C  C288  1  0.898780  0.409250  0.283370  1.0  0.3098
  C  C289  1  0.769790  0.681520  0.643090  1.0  0.1792
  C  C290  1  0.792900  0.643680  0.611800  1.0  -0.1284
  C  C291  1  0.839550  0.612240  0.633780  1.0  -0.1052
  C  C292  1  0.854960  0.622230  0.692010  1.0  -0.0074
  C  C293  1  0.825250  0.663840  0.718280  1.0  0.1254
  C  C294  1  0.898780  0.590750  0.716630  1.0  0.31
  C  C295  1  0.230210  0.681520  0.356910  1.0  0.1791
  C  C296  1  0.207100  0.643680  0.388200  1.0  -0.1303
  C  C297  1  0.160450  0.612240  0.366220  1.0  -0.108
  C  C298  1  0.145040  0.622230  0.307990  1.0  -0.0066
  C  C299  1  0.174750  0.663840  0.281720  1.0  0.1262
  C  C300  1  0.101220  0.590750  0.283370  1.0  0.3093
  C  C301  1  0.318480  0.356910  0.769790  1.0  0.1795
  C  C302  1  0.356320  0.388200  0.792900  1.0  -0.133
  C  C303  1  0.387760  0.366220  0.839550  1.0  -0.1026
  C  C304  1  0.377770  0.307990  0.854960  1.0  -0.0047
  C  C305  1  0.336160  0.281720  0.825250  1.0  0.1269
  C  C306  1  0.409250  0.283370  0.898780  1.0  0.3108
  C  C307  1  0.318480  0.643090  0.230210  1.0  0.1811
  C  C308  1  0.356320  0.611800  0.207100  1.0  -0.1351
  C  C309  1  0.387760  0.633780  0.160450  1.0  -0.1038
  C  C310  1  0.377770  0.692010  0.145040  1.0  -0.0052
  C  C311  1  0.336160  0.718280  0.174750  1.0  0.1269
  C  C312  1  0.409250  0.716630  0.101220  1.0  0.3113
  C  C313  1  0.681520  0.356910  0.230210  1.0  0.1785
  C  C314  1  0.643680  0.388200  0.207100  1.0  -0.1344
  C  C315  1  0.612240  0.366220  0.160450  1.0  -0.1033
  C  C316  1  0.622230  0.307990  0.145040  1.0  -0.0042
  C  C317  1  0.663840  0.281720  0.174750  1.0  0.1266
  C  C318  1  0.590750  0.283370  0.101220  1.0  0.3111
  C  C319  1  0.681520  0.643090  0.769790  1.0  0.1785
  C  C320  1  0.643680  0.611800  0.792900  1.0  -0.1349
  C  C321  1  0.612240  0.633780  0.839550  1.0  -0.1036
  C  C322  1  0.622230  0.692010  0.854960  1.0  -0.0043
  C  C323  1  0.663840  0.718280  0.825250  1.0  0.127
  C  C324  1  0.590750  0.716630  0.898780  1.0  0.3109
  C  C325  1  0.269790  0.143090  0.181520  1.0  0.184
  C  C326  1  0.292900  0.111800  0.143680  1.0  -0.1377
  C  C327  1  0.339550  0.133780  0.112240  1.0  -0.1046
  C  C328  1  0.354960  0.192010  0.122230  1.0  -0.0051
  C  C329  1  0.325250  0.218280  0.163840  1.0  0.1262
  C  C330  1  0.398780  0.216630  0.090750  1.0  0.311
  C  C331  1  0.730210  0.856910  0.181520  1.0  0.1826
  C  C332  1  0.707100  0.888200  0.143680  1.0  -0.1359
  C  C333  1  0.660450  0.866220  0.112240  1.0  -0.1036
  C  C334  1  0.645040  0.807990  0.122230  1.0  -0.0034
  C  C335  1  0.674750  0.781720  0.163840  1.0  0.126
  C  C336  1  0.601220  0.783370  0.090750  1.0  0.3105
  C  C337  1  0.730210  0.143090  0.818480  1.0  0.1824
  C  C338  1  0.707100  0.111800  0.856320  1.0  -0.1365
  C  C339  1  0.660450  0.133780  0.887760  1.0  -0.1048
  C  C340  1  0.645040  0.192010  0.877770  1.0  -0.0035
  C  C341  1  0.674750  0.218280  0.836160  1.0  0.1266
  C  C342  1  0.601220  0.216630  0.909250  1.0  0.3104
  C  C343  1  0.269790  0.856910  0.818480  1.0  0.1817
  C  C344  1  0.292900  0.888200  0.856320  1.0  -0.1345
  C  C345  1  0.339550  0.866220  0.887760  1.0  -0.104
  C  C346  1  0.354960  0.807990  0.877770  1.0  -0.0044
  C  C347  1  0.325250  0.781720  0.836160  1.0  0.1262
  C  C348  1  0.398780  0.783370  0.909250  1.0  0.3106
  C  C349  1  0.181520  0.269790  0.143090  1.0  0.1774
  C  C350  1  0.143680  0.292900  0.111800  1.0  -0.1278
  C  C351  1  0.112240  0.339550  0.133780  1.0  -0.102
  C  C352  1  0.122230  0.354960  0.192010  1.0  -0.0047
  C  C353  1  0.163840  0.325250  0.218280  1.0  0.1262
  C  C354  1  0.090750  0.398780  0.216630  1.0  0.3083
  C  C355  1  0.181520  0.730210  0.856910  1.0  0.1773
  C  C356  1  0.143680  0.707100  0.888200  1.0  -0.1313
  C  C357  1  0.112240  0.660450  0.866220  1.0  -0.1062
  C  C358  1  0.122230  0.645040  0.807990  1.0  -0.0056
  C  C359  1  0.163840  0.674750  0.781720  1.0  0.1267
  C  C360  1  0.090750  0.601220  0.783370  1.0  0.3078
  C  C361  1  0.818480  0.730210  0.143090  1.0  0.1782
  C  C362  1  0.856320  0.707100  0.111800  1.0  -0.1286
  C  C363  1  0.887760  0.660450  0.133780  1.0  -0.1027
  C  C364  1  0.877770  0.645040  0.192010  1.0  -0.0058
  C  C365  1  0.836160  0.674750  0.218280  1.0  0.1259
  C  C366  1  0.909250  0.601220  0.216630  1.0  0.3082
  C  C367  1  0.818480  0.269790  0.856910  1.0  0.1792
  C  C368  1  0.856320  0.292900  0.888200  1.0  -0.131
  C  C369  1  0.887760  0.339550  0.866220  1.0  -0.1049
  C  C370  1  0.877770  0.354960  0.807990  1.0  -0.0062
  C  C371  1  0.836160  0.325250  0.781720  1.0  0.1266
  C  C372  1  0.909250  0.398780  0.783370  1.0  0.3074
  C  C373  1  0.143090  0.181520  0.269790  1.0  0.1794
  C  C374  1  0.111800  0.143680  0.292900  1.0  -0.1369
  C  C375  1  0.133780  0.112240  0.339550  1.0  -0.104
  C  C376  1  0.192010  0.122230  0.354960  1.0  -0.003
  C  C377  1  0.218280  0.163840  0.325250  1.0  0.1259
  C  C378  1  0.216630  0.090750  0.398780  1.0  0.3091
  C  C379  1  0.856910  0.181520  0.730210  1.0  0.1809
  C  C380  1  0.888200  0.143680  0.707100  1.0  -0.1366
  C  C381  1  0.866220  0.112240  0.660450  1.0  -0.105
  C  C382  1  0.807990  0.122230  0.645040  1.0  -0.0031
  C  C383  1  0.781720  0.163840  0.674750  1.0  0.1261
  C  C384  1  0.783370  0.090750  0.601220  1.0  0.3101
  C  C385  1  0.143090  0.818480  0.730210  1.0  0.1805
  C  C386  1  0.111800  0.856320  0.707100  1.0  -0.1389
  C  C387  1  0.133780  0.887760  0.660450  1.0  -0.1047
  C  C388  1  0.192010  0.877770  0.645040  1.0  -0.0028
  C  C389  1  0.218280  0.836160  0.674750  1.0  0.1257
  C  C390  1  0.216630  0.909250  0.601220  1.0  0.3096
  C  C391  1  0.856910  0.818480  0.269790  1.0  0.1804
  C  C392  1  0.888200  0.856320  0.292900  1.0  -0.1378
  C  C393  1  0.866220  0.887760  0.339550  1.0  -0.104
  C  C394  1  0.807990  0.877770  0.354960  1.0  -0.003
  C  C395  1  0.781720  0.836160  0.325250  1.0  0.1266
  C  C396  1  0.783370  0.909250  0.398780  1.0  0.3105
  C  C397  1  0.643090  0.769790  0.318480  1.0  0.1824
  C  C398  1  0.611800  0.792900  0.356320  1.0  -0.138
  C  C399  1  0.633780  0.839550  0.387760  1.0  -0.1054
  C  C400  1  0.692010  0.854960  0.377770  1.0  -0.003
  C  C401  1  0.718280  0.825250  0.336160  1.0  0.1263
  C  C402  1  0.716630  0.898780  0.409250  1.0  0.307
  C  C403  1  0.356910  0.230210  0.318480  1.0  0.1826
  C  C404  1  0.388200  0.207100  0.356320  1.0  -0.1387
  C  C405  1  0.366220  0.160450  0.387760  1.0  -0.1044
  C  C406  1  0.307990  0.145040  0.377770  1.0  -0.0045
  C  C407  1  0.281720  0.174750  0.336160  1.0  0.1273
  C  C408  1  0.283370  0.101220  0.409250  1.0  0.3106
  C  C409  1  0.643090  0.230210  0.681520  1.0  0.1825
  C  C410  1  0.611800  0.207100  0.643680  1.0  -0.14
  C  C411  1  0.633780  0.160450  0.612240  1.0  -0.1032
  C  C412  1  0.692010  0.145040  0.622230  1.0  -0.005
  C  C413  1  0.718280  0.174750  0.663840  1.0  0.126
  C  C414  1  0.716630  0.101220  0.590750  1.0  0.3086
  C  C415  1  0.356910  0.769790  0.681520  1.0  0.1841
  C  C416  1  0.388200  0.792900  0.643680  1.0  -0.1394
  C  C417  1  0.366220  0.839550  0.612240  1.0  -0.1044
  C  C418  1  0.307990  0.854960  0.622230  1.0  -0.0042
  C  C419  1  0.281720  0.825250  0.663840  1.0  0.1266
  C  C420  1  0.283370  0.898780  0.590750  1.0  0.3096
  C  C421  1  0.769790  0.681520  0.356910  1.0  0.1789
  C  C422  1  0.792900  0.643680  0.388200  1.0  -0.1301
  C  C423  1  0.839550  0.612240  0.366220  1.0  -0.1067
  C  C424  1  0.854960  0.622230  0.307990  1.0  -0.0078
  C  C425  1  0.825250  0.663840  0.281720  1.0  0.1262
  C  C426  1  0.898780  0.590750  0.283370  1.0  0.3105
  C  C427  1  0.230210  0.681520  0.643090  1.0  0.1788
  C  C428  1  0.207100  0.643680  0.611800  1.0  -0.1285
  C  C429  1  0.160450  0.612240  0.633780  1.0  -0.1035
  C  C430  1  0.145040  0.622230  0.692010  1.0  -0.0064
  C  C431  1  0.174750  0.663840  0.718280  1.0  0.1253
  C  C432  1  0.101220  0.590750  0.716630  1.0  0.3101
  C  C433  1  0.230210  0.318480  0.356910  1.0  0.1791
  C  C434  1  0.207100  0.356320  0.388200  1.0  -0.132
  C  C435  1  0.160450  0.387760  0.366220  1.0  -0.108
  C  C436  1  0.145040  0.377770  0.307990  1.0  -0.0061
  C  C437  1  0.174750  0.336160  0.281720  1.0  0.1259
  C  C438  1  0.101220  0.409250  0.283370  1.0  0.3081
  C  C439  1  0.769790  0.318480  0.643090  1.0  0.1788
  C  C440  1  0.792900  0.356320  0.611800  1.0  -0.1295
  C  C441  1  0.839550  0.387760  0.633780  1.0  -0.1044
  C  C442  1  0.854960  0.377770  0.692010  1.0  -0.0069
  C  C443  1  0.825250  0.336160  0.718280  1.0  0.1256
  C  C444  1  0.898780  0.409250  0.716630  1.0  0.3103
  C  C445  1  0.681520  0.643090  0.230210  1.0  0.179
  C  C446  1  0.643680  0.611800  0.207100  1.0  -0.1355
  C  C447  1  0.612240  0.633780  0.160450  1.0  -0.1042
  C  C448  1  0.622230  0.692010  0.145040  1.0  -0.0051
  C  C449  1  0.663840  0.718280  0.174750  1.0  0.127
  C  C450  1  0.590750  0.716630  0.101220  1.0  0.3116
  C  C451  1  0.681520  0.356910  0.769790  1.0  0.1786
  C  C452  1  0.643680  0.388200  0.792900  1.0  -0.1332
  C  C453  1  0.612240  0.366220  0.839550  1.0  -0.1032
  C  C454  1  0.622230  0.307990  0.854960  1.0  -0.0036
  C  C455  1  0.663840  0.281720  0.825250  1.0  0.1269
  C  C456  1  0.590750  0.283370  0.898780  1.0  0.3093
  C  C457  1  0.318480  0.643090  0.769790  1.0  0.1804
  C  C458  1  0.356320  0.611800  0.792900  1.0  -0.1345
  C  C459  1  0.387760  0.633780  0.839550  1.0  -0.1034
  C  C460  1  0.377770  0.692010  0.854960  1.0  -0.0051
  C  C461  1  0.336160  0.718280  0.825250  1.0  0.1271
  C  C462  1  0.409250  0.716630  0.898780  1.0  0.3118
  C  C463  1  0.318480  0.356910  0.230210  1.0  0.1798
  C  C464  1  0.356320  0.388200  0.207100  1.0  -0.1339
  C  C465  1  0.387760  0.366220  0.160450  1.0  -0.1028
  C  C466  1  0.377770  0.307990  0.145040  1.0  -0.0048
  C  C467  1  0.336160  0.281720  0.174750  1.0  0.1264
  C  C468  1  0.409250  0.283370  0.101220  1.0  0.3109
  N  N469  1  0.717550  0.803110  0.806410  1.0  -0.2951
  N  N470  1  0.282450  0.196890  0.806410  1.0  -0.2955
  N  N471  1  0.282450  0.803110  0.193590  1.0  -0.2956
  N  N472  1  0.717550  0.196890  0.193590  1.0  -0.2956
  N  N473  1  0.806410  0.717550  0.803110  1.0  -0.2954
  N  N474  1  0.806410  0.282450  0.196890  1.0  -0.2955
  N  N475  1  0.193590  0.282450  0.803110  1.0  -0.295
  N  N476  1  0.193590  0.717550  0.196890  1.0  -0.2946
  N  N477  1  0.803110  0.806410  0.717550  1.0  -0.2961
  N  N478  1  0.196890  0.806410  0.282450  1.0  -0.2952
  N  N479  1  0.803110  0.193590  0.282450  1.0  -0.2948
  N  N480  1  0.196890  0.193590  0.717550  1.0  -0.2953
  N  N481  1  0.303110  0.217550  0.693590  1.0  -0.2956
  N  N482  1  0.696890  0.782450  0.693590  1.0  -0.2949
  N  N483  1  0.303110  0.782450  0.306410  1.0  -0.2954
  N  N484  1  0.696890  0.217550  0.306410  1.0  -0.2948
  N  N485  1  0.217550  0.306410  0.696890  1.0  -0.2946
  N  N486  1  0.782450  0.306410  0.303110  1.0  -0.2956
  N  N487  1  0.782450  0.693590  0.696890  1.0  -0.2946
  N  N488  1  0.217550  0.693590  0.303110  1.0  -0.2947
  N  N489  1  0.306410  0.303110  0.782450  1.0  -0.2957
  N  N490  1  0.306410  0.696890  0.217550  1.0  -0.2964
  N  N491  1  0.693590  0.303110  0.217550  1.0  -0.2955
  N  N492  1  0.693590  0.696890  0.782450  1.0  -0.2957
  N  N493  1  0.282450  0.196890  0.193590  1.0  -0.2961
  N  N494  1  0.717550  0.803110  0.193590  1.0  -0.295
  N  N495  1  0.717550  0.196890  0.806410  1.0  -0.2953
  N  N496  1  0.282450  0.803110  0.806410  1.0  -0.2954
  N  N497  1  0.193590  0.282450  0.196890  1.0  -0.2944
  N  N498  1  0.193590  0.717550  0.803110  1.0  -0.2954
  N  N499  1  0.806410  0.717550  0.196890  1.0  -0.2952
  N  N500  1  0.806410  0.282450  0.803110  1.0  -0.2955
  N  N501  1  0.196890  0.193590  0.282450  1.0  -0.2948
  N  N502  1  0.803110  0.193590  0.717550  1.0  -0.2955
  N  N503  1  0.196890  0.806410  0.717550  1.0  -0.2956
  N  N504  1  0.803110  0.806410  0.282450  1.0  -0.2956
  N  N505  1  0.696890  0.782450  0.306410  1.0  -0.2946
  N  N506  1  0.303110  0.217550  0.306410  1.0  -0.2952
  N  N507  1  0.696890  0.217550  0.693590  1.0  -0.295
  N  N508  1  0.303110  0.782450  0.693590  1.0  -0.2957
  N  N509  1  0.782450  0.693590  0.303110  1.0  -0.295
  N  N510  1  0.217550  0.693590  0.696890  1.0  -0.2943
  N  N511  1  0.217550  0.306410  0.303110  1.0  -0.2953
  N  N512  1  0.782450  0.306410  0.696890  1.0  -0.2953
  N  N513  1  0.693590  0.696890  0.217550  1.0  -0.2963
  N  N514  1  0.693590  0.303110  0.782450  1.0  -0.2951
  N  N515  1  0.306410  0.696890  0.782450  1.0  -0.2957
  N  N516  1  0.306410  0.303110  0.217550  1.0  -0.2962
  Cl  Cl517  1  0.777010  0.500000  0.777960  1.0  1.5278
  Cl  Cl518  1  0.222990  0.500000  0.777960  1.0  1.5284
  Cl  Cl519  1  0.222990  0.500000  0.222040  1.0  1.5276
  Cl  Cl520  1  0.777010  0.500000  0.222040  1.0  1.5272
  Cl  Cl521  1  0.777960  0.777010  0.500000  1.0  1.5291
  Cl  Cl522  1  0.777960  0.222990  0.500000  1.0  1.5276
  Cl  Cl523  1  0.222040  0.222990  0.500000  1.0  1.5274
  Cl  Cl524  1  0.222040  0.777010  0.500000  1.0  1.5288
  Cl  Cl525  1  0.500000  0.777960  0.777010  1.0  1.5292
  Cl  Cl526  1  0.500000  0.777960  0.222990  1.0  1.5296
  Cl  Cl527  1  0.500000  0.222040  0.222990  1.0  1.5306
  Cl  Cl528  1  0.500000  0.222040  0.777010  1.0  1.5305
  Cl  Cl529  1  0.000000  0.277010  0.722040  1.0  1.53
  Cl  Cl530  1  0.000000  0.722990  0.722040  1.0  1.5285
  Cl  Cl531  1  0.000000  0.722990  0.277960  1.0  1.529
  Cl  Cl532  1  0.000000  0.277010  0.277960  1.0  1.5306
  Cl  Cl533  1  0.277010  0.277960  0.000000  1.0  1.5278
  Cl  Cl534  1  0.722990  0.277960  0.000000  1.0  1.5283
  Cl  Cl535  1  0.722990  0.722040  0.000000  1.0  1.5296
  Cl  Cl536  1  0.277010  0.722040  0.000000  1.0  1.5291
  Cl  Cl537  1  0.277960  0.000000  0.722990  1.0  1.5282
  Cl  Cl538  1  0.277960  0.000000  0.277010  1.0  1.5277
  Cl  Cl539  1  0.722040  0.000000  0.277010  1.0  1.5273
  Cl  Cl540  1  0.722040  0.000000  0.722990  1.0  1.5279
  O  O541  1  0.567950  0.804640  0.939960  1.0  -0.5859
  O  O542  1  0.432050  0.195360  0.939960  1.0  -0.5854
  O  O543  1  0.432050  0.804640  0.060040  1.0  -0.5853
  O  O544  1  0.567950  0.195360  0.060040  1.0  -0.5859
  O  O545  1  0.939960  0.567950  0.804640  1.0  -0.5854
  O  O546  1  0.939960  0.432050  0.195360  1.0  -0.5859
  O  O547  1  0.060040  0.432050  0.804640  1.0  -0.5861
  O  O548  1  0.060040  0.567950  0.195360  1.0  -0.5866
  O  O549  1  0.804640  0.939960  0.567950  1.0  -0.5862
  O  O550  1  0.195360  0.939960  0.432050  1.0  -0.586
  O  O551  1  0.804640  0.060040  0.432050  1.0  -0.5873
  O  O552  1  0.195360  0.060040  0.567950  1.0  -0.5868
  O  O553  1  0.304640  0.067950  0.560040  1.0  -0.5865
  O  O554  1  0.695360  0.932050  0.560040  1.0  -0.5851
  O  O555  1  0.304640  0.932050  0.439960  1.0  -0.5866
  O  O556  1  0.695360  0.067950  0.439960  1.0  -0.5852
  O  O557  1  0.067950  0.439960  0.695360  1.0  -0.5863
  O  O558  1  0.932050  0.439960  0.304640  1.0  -0.5861
  O  O559  1  0.932050  0.560040  0.695360  1.0  -0.5873
  O  O560  1  0.067950  0.560040  0.304640  1.0  -0.5862
  O  O561  1  0.439960  0.304640  0.932050  1.0  -0.5852
  O  O562  1  0.439960  0.695360  0.067950  1.0  -0.5857
  O  O563  1  0.560040  0.304640  0.067950  1.0  -0.5851
  O  O564  1  0.560040  0.695360  0.932050  1.0  -0.5859
  O  O565  1  0.432050  0.195360  0.060040  1.0  -0.5865
  O  O566  1  0.567950  0.804640  0.060040  1.0  -0.5858
  O  O567  1  0.567950  0.195360  0.939960  1.0  -0.5864
  O  O568  1  0.432050  0.804640  0.939960  1.0  -0.5866
  O  O569  1  0.060040  0.432050  0.195360  1.0  -0.5867
  O  O570  1  0.060040  0.567950  0.804640  1.0  -0.5867
  O  O571  1  0.939960  0.567950  0.195360  1.0  -0.5874
  O  O572  1  0.939960  0.432050  0.804640  1.0  -0.586
  O  O573  1  0.195360  0.060040  0.432050  1.0  -0.586
  O  O574  1  0.804640  0.060040  0.567950  1.0  -0.5876
  O  O575  1  0.195360  0.939960  0.567950  1.0  -0.5867
  O  O576  1  0.804640  0.939960  0.432050  1.0  -0.5884
  O  O577  1  0.695360  0.932050  0.439960  1.0  -0.5859
  O  O578  1  0.304640  0.067950  0.439960  1.0  -0.5866
  O  O579  1  0.695360  0.067950  0.560040  1.0  -0.5859
  O  O580  1  0.304640  0.932050  0.560040  1.0  -0.5854
  O  O581  1  0.932050  0.560040  0.304640  1.0  -0.5858
  O  O582  1  0.067950  0.560040  0.695360  1.0  -0.5868
  O  O583  1  0.067950  0.439960  0.304640  1.0  -0.5866
  O  O584  1  0.932050  0.439960  0.695360  1.0  -0.5871
  O  O585  1  0.560040  0.695360  0.067950  1.0  -0.586
  O  O586  1  0.560040  0.304640  0.932050  1.0  -0.5857
  O  O587  1  0.439960  0.695360  0.932050  1.0  -0.5855
  O  O588  1  0.439960  0.304640  0.067950  1.0  -0.5848
  O  O589  1  0.787120  0.449220  0.810210  1.0  -0.6283
  O  O590  1  0.787120  0.550780  0.810210  1.0  -0.6285
  O  O591  1  0.719700  0.500000  0.759100  1.0  -0.5312
  O  O592  1  0.814800  0.500000  0.729900  1.0  -0.622
  O  O593  1  0.212880  0.550780  0.810210  1.0  -0.6285
  O  O594  1  0.212880  0.449220  0.810210  1.0  -0.6283
  O  O595  1  0.280300  0.500000  0.759100  1.0  -0.532
  O  O596  1  0.185200  0.500000  0.729900  1.0  -0.6224
  O  O597  1  0.212880  0.449220  0.189790  1.0  -0.6277
  O  O598  1  0.212880  0.550780  0.189790  1.0  -0.628
  O  O599  1  0.280300  0.500000  0.240900  1.0  -0.5322
  O  O600  1  0.185200  0.500000  0.270100  1.0  -0.6238
  O  O601  1  0.787120  0.550780  0.189790  1.0  -0.6278
  O  O602  1  0.787120  0.449220  0.189790  1.0  -0.6279
  O  O603  1  0.719700  0.500000  0.240900  1.0  -0.5309
  O  O604  1  0.814800  0.500000  0.270100  1.0  -0.623
  O  O605  1  0.810210  0.787120  0.449220  1.0  -0.63
  O  O606  1  0.810210  0.787120  0.550780  1.0  -0.6304
  O  O607  1  0.759100  0.719700  0.500000  1.0  -0.5314
  O  O608  1  0.729900  0.814800  0.500000  1.0  -0.6182
  O  O609  1  0.810210  0.212880  0.550780  1.0  -0.63
  O  O610  1  0.810210  0.212880  0.449220  1.0  -0.6296
  O  O611  1  0.759100  0.280300  0.500000  1.0  -0.5341
  O  O612  1  0.729900  0.185200  0.500000  1.0  -0.6187
  O  O613  1  0.189790  0.212880  0.449220  1.0  -0.6275
  O  O614  1  0.189790  0.212880  0.550780  1.0  -0.6286
  O  O615  1  0.240900  0.280300  0.500000  1.0  -0.533
  O  O616  1  0.270100  0.185200  0.500000  1.0  -0.6193
  O  O617  1  0.189790  0.787120  0.550780  1.0  -0.6292
  O  O618  1  0.189790  0.787120  0.449220  1.0  -0.6279
  O  O619  1  0.240900  0.719700  0.500000  1.0  -0.5306
  O  O620  1  0.270100  0.814800  0.500000  1.0  -0.6188
  O  O621  1  0.449220  0.810210  0.787120  1.0  -0.6267
  O  O622  1  0.550780  0.810210  0.787120  1.0  -0.6312
  O  O623  1  0.500000  0.759100  0.719700  1.0  -0.5383
  O  O624  1  0.500000  0.729900  0.814800  1.0  -0.621
  O  O625  1  0.550780  0.810210  0.212880  1.0  -0.6311
  O  O626  1  0.449220  0.810210  0.212880  1.0  -0.6267
  O  O627  1  0.500000  0.759100  0.280300  1.0  -0.5389
  O  O628  1  0.500000  0.729900  0.185200  1.0  -0.6211
  O  O629  1  0.449220  0.189790  0.212880  1.0  -0.6275
  O  O630  1  0.550780  0.189790  0.212880  1.0  -0.6309
  O  O631  1  0.500000  0.240900  0.280300  1.0  -0.5389
  O  O632  1  0.500000  0.270100  0.185200  1.0  -0.6211
  O  O633  1  0.550780  0.189790  0.787120  1.0  -0.6309
  O  O634  1  0.449220  0.189790  0.787120  1.0  -0.6278
  O  O635  1  0.500000  0.240900  0.719700  1.0  -0.5388
  O  O636  1  0.500000  0.270100  0.814800  1.0  -0.6207
  O  O637  1  0.949220  0.287120  0.689790  1.0  -0.6267
  O  O638  1  0.050780  0.287120  0.689790  1.0  -0.6301
  O  O639  1  0.000000  0.219700  0.740900  1.0  -0.5346
  O  O640  1  0.000000  0.314800  0.770100  1.0  -0.6226
  O  O641  1  0.050780  0.712880  0.689790  1.0  -0.63
  O  O642  1  0.949220  0.712880  0.689790  1.0  -0.6266
  O  O643  1  0.000000  0.780300  0.740900  1.0  -0.5362
  O  O644  1  0.000000  0.685200  0.770100  1.0  -0.6231
  O  O645  1  0.949220  0.712880  0.310210  1.0  -0.6267
  O  O646  1  0.050780  0.712880  0.310210  1.0  -0.6308
  O  O647  1  0.000000  0.780300  0.259100  1.0  -0.5369
  O  O648  1  0.000000  0.685200  0.229900  1.0  -0.6219
  O  O649  1  0.050780  0.287120  0.310210  1.0  -0.631
  O  O650  1  0.949220  0.287120  0.310210  1.0  -0.6268
  O  O651  1  0.000000  0.219700  0.259100  1.0  -0.5332
  O  O652  1  0.000000  0.314800  0.229900  1.0  -0.6216
  O  O653  1  0.287120  0.310210  0.050780  1.0  -0.6312
  O  O654  1  0.287120  0.310210  0.949220  1.0  -0.6306
  O  O655  1  0.219700  0.259100  0.000000  1.0  -0.5305
  O  O656  1  0.314800  0.229900  0.000000  1.0  -0.6212
  O  O657  1  0.712880  0.310210  0.949220  1.0  -0.6306
  O  O658  1  0.712880  0.310210  0.050780  1.0  -0.6315
  O  O659  1  0.780300  0.259100  0.000000  1.0  -0.5311
  O  O660  1  0.685200  0.229900  0.000000  1.0  -0.6215
  O  O661  1  0.712880  0.689790  0.050780  1.0  -0.6318
  O  O662  1  0.712880  0.689790  0.949220  1.0  -0.6307
  O  O663  1  0.780300  0.740900  0.000000  1.0  -0.531
  O  O664  1  0.685200  0.770100  0.000000  1.0  -0.6215
  O  O665  1  0.287120  0.689790  0.949220  1.0  -0.6308
  O  O666  1  0.287120  0.689790  0.050780  1.0  -0.6315
  O  O667  1  0.219700  0.740900  0.000000  1.0  -0.5304
  O  O668  1  0.314800  0.770100  0.000000  1.0  -0.6214
  O  O669  1  0.310210  0.949220  0.712880  1.0  -0.628
  O  O670  1  0.310210  0.050780  0.712880  1.0  -0.6274
  O  O671  1  0.259100  0.000000  0.780300  1.0  -0.5376
  O  O672  1  0.229900  0.000000  0.685200  1.0  -0.6182
  O  O673  1  0.310210  0.050780  0.287120  1.0  -0.6275
  O  O674  1  0.310210  0.949220  0.287120  1.0  -0.6277
  O  O675  1  0.259100  0.000000  0.219700  1.0  -0.5371
  O  O676  1  0.229900  0.000000  0.314800  1.0  -0.6182
  O  O677  1  0.689790  0.949220  0.287120  1.0  -0.6258
  O  O678  1  0.689790  0.050780  0.287120  1.0  -0.6263
  O  O679  1  0.740900  0.000000  0.219700  1.0  -0.5365
  O  O680  1  0.770100  0.000000  0.314800  1.0  -0.6188
  O  O681  1  0.689790  0.050780  0.712880  1.0  -0.6261
  O  O682  1  0.689790  0.949220  0.712880  1.0  -0.6259
  O  O683  1  0.740900  0.000000  0.780300  1.0  -0.5363
  O  O684  1  0.770100  0.000000  0.685200  1.0  -0.6192
