# generated using pymatgen
data_Cd3H20C42(NO8)2
_symmetry_space_group_name_H-M   'P 1'
_cell_length_a   13.52310000
_cell_length_b   29.56150000
_cell_length_c   29.56150000
_cell_angle_alpha   87.00110000
_cell_angle_beta   76.77780000
_cell_angle_gamma   76.77790000
_symmetry_Int_Tables_number   1
_chemical_formula_structural   Cd3H20C42(NO8)2
_chemical_formula_sum   'Cd24 H160 C336 N16 O128'
_cell_volume   11199.34634206
_cell_formula_units_Z   8
loop_
 _symmetry_equiv_pos_site_id
 _symmetry_equiv_pos_as_xyz
  1  'x, y, z'
loop_
 _atom_site_type_symbol
 _atom_site_label
 _atom_site_symmetry_multiplicity
 _atom_site_fract_x
 _atom_site_fract_y
 _atom_site_fract_z
 _atom_site_occupancy
 _atom_site_charge
  Cd  Cd1  1  0.033930  0.949540  0.884330  1.0  1.0641
  Cd  Cd2  1  0.247970  0.010410  0.751120  1.0  0.7891
  Cd  Cd3  1  0.532890  0.941690  0.611010  1.0  0.9939
  Cd  Cd4  1  0.367790  0.550460  0.615670  1.0  1.0668
  Cd  Cd5  1  0.509510  0.489590  0.748880  1.0  0.7908
  Cd  Cd6  1  0.585590  0.558310  0.888990  1.0  0.9933
  Cd  Cd7  1  0.918250  0.115670  0.449550  1.0  1.0688
  Cd  Cd8  1  0.999100  0.248880  0.510400  1.0  0.7871
  Cd  Cd9  1  0.143900  0.388990  0.441690  1.0  0.9981
  Cd  Cd10  1  0.983470  0.384330  0.050450  1.0  1.0666
  Cd  Cd11  1  0.258380  0.251120  0.989600  1.0  0.784
  Cd  Cd12  1  0.474580  0.111010  0.058310  1.0  0.9981
  Cd  Cd13  1  0.966070  0.050460  0.115670  1.0  1.0635
  Cd  Cd14  1  0.752030  0.989590  0.248880  1.0  0.7905
  Cd  Cd15  1  0.467110  0.058310  0.388990  1.0  0.9954
  Cd  Cd16  1  0.632210  0.449540  0.384330  1.0  1.0669
  Cd  Cd17  1  0.490490  0.510410  0.251120  1.0  0.7896
  Cd  Cd18  1  0.414410  0.441690  0.111010  1.0  0.9941
  Cd  Cd19  1  0.081750  0.884330  0.550450  1.0  1.0654
  Cd  Cd20  1  0.000900  0.751120  0.489600  1.0  0.7845
  Cd  Cd21  1  0.856100  0.611010  0.558310  1.0  0.9986
  Cd  Cd22  1  0.016530  0.615670  0.949550  1.0  1.0679
  Cd  Cd23  1  0.741620  0.748880  0.010400  1.0  0.7862
  Cd  Cd24  1  0.525420  0.888990  0.941690  1.0  0.9999
  H  H25  1  0.578900  0.858300  0.793100  1.0  0.1004
  H  H26  1  0.583000  0.819700  0.728900  1.0  0.1336
  H  H27  1  0.432400  0.831900  0.700300  1.0  0.1125
  H  H28  1  0.036100  0.889700  0.665900  1.0  0.0997
  H  H29  1  0.039800  0.839300  0.729300  1.0  0.1377
  H  H30  1  0.165800  0.836100  0.772300  1.0  0.1217
  H  H31  1  0.527300  0.047600  0.831600  1.0  0.129
  H  H32  1  0.813200  0.068600  0.831600  1.0  0.1256
  H  H33  1  0.702100  0.038100  0.794100  1.0  0.1326
  H  H34  1  0.660400  0.165000  0.923800  1.0  0.1326
  H  H35  1  0.753000  0.213100  0.947700  1.0  0.1106
  H  H36  1  0.927300  0.183400  0.952800  1.0  0.127
  H  H37  1  0.019700  0.971800  0.782000  1.0  0.0919
  H  H38  1  0.926400  0.969500  0.725300  1.0  0.1436
  H  H39  1  0.718300  0.917500  0.825500  1.0  0.1419
  H  H40  1  0.822500  0.921800  0.874800  1.0  0.079
  H  H41  1  0.866100  0.931600  0.674600  1.0  0.1334
  H  H42  1  0.761700  0.930500  0.623100  1.0  0.089
  H  H43  1  0.509300  0.960400  0.720800  1.0  0.0933
  H  H44  1  0.605600  0.959400  0.776800  1.0  0.13
  H  H45  1  0.730300  0.641700  0.706900  1.0  0.1027
  H  H46  1  0.631600  0.680300  0.771100  1.0  0.1335
  H  H47  1  0.464600  0.668100  0.799700  1.0  0.1118
  H  H48  1  0.091700  0.610300  0.834100  1.0  0.1022
  H  H49  1  0.108400  0.660700  0.770700  1.0  0.1376
  H  H50  1  0.274200  0.663900  0.727700  1.0  0.1223
  H  H51  1  0.906500  0.452400  0.668400  1.0  0.129
  H  H52  1  0.213400  0.431400  0.668400  1.0  0.1255
  H  H53  1  0.034300  0.461900  0.705900  1.0  0.1339
  H  H54  1  0.249200  0.335000  0.576200  1.0  0.1335
  H  H55  1  0.413800  0.286900  0.552300  1.0  0.1109
  H  H56  1  0.563500  0.316600  0.547200  1.0  0.1267
  H  H57  1  0.273500  0.528200  0.718000  1.0  0.0909
  H  H58  1  0.121200  0.530500  0.774700  1.0  0.1455
  H  H59  1  0.961300  0.582500  0.674500  1.0  0.1426
  H  H60  1  0.119100  0.578200  0.625200  1.0  0.0797
  H  H61  1  0.972300  0.568400  0.825400  1.0  0.1334
  H  H62  1  0.815300  0.569500  0.876900  1.0  0.0884
  H  H63  1  0.690500  0.539600  0.779200  1.0  0.0926
  H  H64  1  0.841800  0.540600  0.723200  1.0  0.1315
  H  H65  1  0.372000  0.206900  0.358300  1.0  0.1022
  H  H66  1  0.311900  0.271100  0.319700  1.0  0.1344
  H  H67  1  0.132700  0.299700  0.331900  1.0  0.1126
  H  H68  1  0.702000  0.334100  0.389700  1.0  0.1002
  H  H69  1  0.769100  0.270700  0.339300  1.0  0.137
  H  H70  1  0.938100  0.227700  0.336100  1.0  0.1222
  H  H71  1  0.358900  0.168400  0.547600  1.0  0.1289
  H  H72  1  0.644800  0.168400  0.568600  1.0  0.1256
  H  H73  1  0.496200  0.205900  0.538100  1.0  0.1343
  H  H74  1  0.584200  0.076200  0.665000  1.0  0.1342
  H  H75  1  0.700700  0.052300  0.713100  1.0  0.112
  H  H76  1  0.880100  0.047200  0.683400  1.0  0.1265
  H  H77  1  0.801700  0.218000  0.471800  1.0  0.0918
  H  H78  1  0.651700  0.274700  0.469500  1.0  0.1439
  H  H79  1  0.543800  0.174500  0.417500  1.0  0.1418
  H  H80  1  0.697300  0.125200  0.421800  1.0  0.0805
  H  H81  1  0.540700  0.325400  0.431600  1.0  0.1328
  H  H82  1  0.384800  0.376900  0.430500  1.0  0.0895
  H  H83  1  0.230100  0.279200  0.460400  1.0  0.0943
  H  H84  1  0.382400  0.223200  0.459400  1.0  0.1296
  H  H85  1  0.437200  0.293100  0.141700  1.0  0.1008
  H  H86  1  0.402700  0.228900  0.180300  1.0  0.1345
  H  H87  1  0.264300  0.200300  0.168100  1.0  0.1135
  H  H88  1  0.925800  0.165900  0.110300  1.0  0.1004
  H  H89  1  0.879100  0.229300  0.160700  1.0  0.1388
  H  H90  1  0.001900  0.272300  0.163900  1.0  0.1216
  H  H91  1  0.574900  0.331600  0.952400  1.0  0.1297
  H  H92  1  0.881800  0.331600  0.931400  1.0  0.1249
  H  H93  1  0.740200  0.294100  0.961900  1.0  0.1351
  H  H94  1  0.825400  0.423800  0.835000  1.0  0.1323
  H  H95  1  0.966100  0.447700  0.786900  1.0  0.1095
  H  H96  1  0.110700  0.452800  0.816600  1.0  0.1265
  H  H97  1  0.991500  0.282000  0.028200  1.0  0.0927
  H  H98  1  0.895900  0.225300  0.030500  1.0  0.1438
  H  H99  1  0.635800  0.325500  0.082500  1.0  0.1425
  H  H100  1  0.744300  0.374800  0.078200  1.0  0.0791
  H  H101  1  0.797700  0.174600  0.068400  1.0  0.1322
  H  H102  1  0.692200  0.123100  0.069500  1.0  0.0897
  H  H103  1  0.469700  0.220800  0.039600  1.0  0.0933
  H  H104  1  0.565000  0.276800  0.040600  1.0  0.1302
  H  H105  1  0.421100  0.141700  0.206900  1.0  0.1004
  H  H106  1  0.417000  0.180300  0.271100  1.0  0.1342
  H  H107  1  0.567600  0.168100  0.299700  1.0  0.1112
  H  H108  1  0.963900  0.110300  0.334100  1.0  0.1
  H  H109  1  0.960200  0.160700  0.270700  1.0  0.1389
  H  H110  1  0.834200  0.163900  0.227700  1.0  0.122
  H  H111  1  0.472700  0.952400  0.168400  1.0  0.1296
  H  H112  1  0.186800  0.931400  0.168400  1.0  0.1274
  H  H113  1  0.297900  0.961900  0.205900  1.0  0.1337
  H  H114  1  0.339600  0.835000  0.076200  1.0  0.1327
  H  H115  1  0.247000  0.786900  0.052300  1.0  0.1103
  H  H116  1  0.072700  0.816600  0.047200  1.0  0.1269
  H  H117  1  0.980300  0.028200  0.218000  1.0  0.0919
  H  H118  1  0.073600  0.030500  0.274700  1.0  0.1434
  H  H119  1  0.281700  0.082500  0.174500  1.0  0.1428
  H  H120  1  0.177500  0.078200  0.125200  1.0  0.0792
  H  H121  1  0.133900  0.068400  0.325400  1.0  0.1341
  H  H122  1  0.238300  0.069500  0.376900  1.0  0.0884
  H  H123  1  0.490700  0.039600  0.279200  1.0  0.0941
  H  H124  1  0.394400  0.040600  0.223200  1.0  0.1304
  H  H125  1  0.269700  0.358300  0.293100  1.0  0.104
  H  H126  1  0.368400  0.319700  0.228900  1.0  0.134
  H  H127  1  0.535400  0.331900  0.200300  1.0  0.1126
  H  H128  1  0.908300  0.389700  0.165900  1.0  0.1012
  H  H129  1  0.891600  0.339300  0.229300  1.0  0.1368
  H  H130  1  0.725800  0.336100  0.272300  1.0  0.1217
  H  H131  1  0.093500  0.547600  0.331600  1.0  0.1296
  H  H132  1  0.786600  0.568600  0.331600  1.0  0.1256
  H  H133  1  0.965700  0.538100  0.294100  1.0  0.1326
  H  H134  1  0.750800  0.665000  0.423800  1.0  0.1335
  H  H135  1  0.586200  0.713100  0.447700  1.0  0.1102
  H  H136  1  0.436500  0.683400  0.452800  1.0  0.1269
  H  H137  1  0.726500  0.471800  0.282000  1.0  0.0899
  H  H138  1  0.878800  0.469500  0.225300  1.0  0.1467
  H  H139  1  0.038700  0.417500  0.325500  1.0  0.1427
  H  H140  1  0.880900  0.421800  0.374800  1.0  0.0798
  H  H141  1  0.027700  0.431600  0.174600  1.0  0.1327
  H  H142  1  0.184700  0.430500  0.123100  1.0  0.0896
  H  H143  1  0.309500  0.460400  0.220800  1.0  0.0935
  H  H144  1  0.158200  0.459400  0.276800  1.0  0.1308
  H  H145  1  0.628000  0.793100  0.641700  1.0  0.1019
  H  H146  1  0.688100  0.728900  0.680300  1.0  0.1342
  H  H147  1  0.867300  0.700300  0.668100  1.0  0.1124
  H  H148  1  0.298000  0.665900  0.610300  1.0  0.1001
  H  H149  1  0.230900  0.729300  0.660700  1.0  0.1375
  H  H150  1  0.061900  0.772300  0.663900  1.0  0.1219
  H  H151  1  0.641100  0.831600  0.452400  1.0  0.1298
  H  H152  1  0.355200  0.831600  0.431400  1.0  0.1252
  H  H153  1  0.503800  0.794100  0.461900  1.0  0.134
  H  H154  1  0.415800  0.923800  0.335000  1.0  0.1326
  H  H155  1  0.299300  0.947700  0.286900  1.0  0.1097
  H  H156  1  0.119900  0.952800  0.316600  1.0  0.1264
  H  H157  1  0.198300  0.782000  0.528200  1.0  0.0906
  H  H158  1  0.348300  0.725300  0.530500  1.0  0.1437
  H  H159  1  0.456200  0.825500  0.582500  1.0  0.1423
  H  H160  1  0.302700  0.874800  0.578200  1.0  0.0795
  H  H161  1  0.459300  0.674600  0.568400  1.0  0.133
  H  H162  1  0.615200  0.623100  0.569500  1.0  0.0902
  H  H163  1  0.769900  0.720800  0.539600  1.0  0.0957
  H  H164  1  0.617600  0.776800  0.540600  1.0  0.13
  H  H165  1  0.562800  0.706900  0.858300  1.0  0.1011
  H  H166  1  0.597300  0.771100  0.819700  1.0  0.1347
  H  H167  1  0.735700  0.799700  0.831900  1.0  0.1135
  H  H168  1  0.074200  0.834100  0.889700  1.0  0.1003
  H  H169  1  0.120900  0.770700  0.839300  1.0  0.1382
  H  H170  1  0.998100  0.727700  0.836100  1.0  0.122
  H  H171  1  0.425100  0.668400  0.047600  1.0  0.13
  H  H172  1  0.118200  0.668400  0.068600  1.0  0.1268
  H  H173  1  0.259800  0.705900  0.038100  1.0  0.1355
  H  H174  1  0.174600  0.576200  0.165000  1.0  0.1328
  H  H175  1  0.033900  0.552300  0.213100  1.0  0.1108
  H  H176  1  0.889300  0.547200  0.183400  1.0  0.1266
  H  H177  1  0.008500  0.718000  0.971800  1.0  0.0928
  H  H178  1  0.104100  0.774700  0.969500  1.0  0.1436
  H  H179  1  0.364200  0.674500  0.917500  1.0  0.1428
  H  H180  1  0.255700  0.625200  0.921800  1.0  0.0798
  H  H181  1  0.202300  0.825400  0.931600  1.0  0.1322
  H  H182  1  0.307800  0.876900  0.930500  1.0  0.0896
  H  H183  1  0.530300  0.779200  0.960400  1.0  0.094
  H  H184  1  0.435000  0.723200  0.959400  1.0  0.1292
  C  C185  1  0.338270  0.871910  0.751350  1.0  -0.0186
  C  C186  1  0.333640  0.893110  0.793410  1.0  -0.0561
  C  C187  1  0.426390  0.888710  0.808310  1.0  -0.1395
  C  C188  1  0.517670  0.861250  0.782810  1.0  -0.0304
  C  C189  1  0.521530  0.839100  0.744440  1.0  -0.1514
  C  C190  1  0.430160  0.845800  0.728080  1.0  -0.1059
  C  C191  1  0.245040  0.878720  0.730800  1.0  0.006
  C  C192  1  0.244180  0.907900  0.691540  1.0  -0.0704
  C  C193  1  0.161920  0.912640  0.666520  1.0  -0.0429
  C  C194  1  0.089130  0.887180  0.681760  1.0  -0.0767
  C  C195  1  0.089820  0.856970  0.720590  1.0  -0.092
  C  C196  1  0.166770  0.854240  0.745620  1.0  -0.0717
  C  C197  1  0.431370  0.913370  0.849690  1.0  0.7141
  C  C198  1  0.230790  0.920170  0.819850  1.0  0.7132
  C  C199  1  0.331780  0.930990  0.673850  1.0  0.6953
  C  C200  1  0.156580  0.944210  0.628430  1.0  0.7312
  C  C201  1  0.575110  0.054510  0.846870  1.0  -0.0798
  C  C202  1  0.542960  0.068780  0.894300  1.0  0.0045
  C  C203  1  0.609170  0.081480  0.915780  1.0  0.0329
  C  C204  1  0.711010  0.084200  0.891780  1.0  -0.0378
  C  C205  1  0.745370  0.068360  0.847300  1.0  -0.0295
  C  C206  1  0.677260  0.051010  0.823670  1.0  -0.1035
  C  C207  1  0.934770  0.118470  0.931390  1.0  -0.0758
  C  C208  1  0.876340  0.089920  0.914600  1.0  -0.0318
  C  C209  1  0.776650  0.108500  0.912600  1.0  0.0215
  C  C210  1  0.729700  0.153470  0.925130  1.0  -0.1199
  C  C211  1  0.784950  0.182350  0.939950  1.0  -0.0924
  C  C212  1  0.889600  0.164510  0.943090  1.0  -0.0431
  C  C213  1  0.432600  0.068950  0.919050  1.0  0.7274
  C  C214  1  0.570550  0.094510  0.966590  1.0  0.6903
  C  C215  1  0.933600  0.041050  0.901350  1.0  0.6507
  C  C216  1  0.039560  0.097580  0.941700  1.0  0.6939
  C  C217  1  0.959600  0.960160  0.789840  1.0  0.1938
  C  C218  1  0.902420  0.960100  0.755660  1.0  -0.1627
  C  C219  1  0.809060  0.945550  0.768530  1.0  0.0367
  C  C220  1  0.778390  0.928870  0.815550  1.0  -0.1591
  C  C221  1  0.842270  0.930830  0.844030  1.0  0.2028
  C  C222  1  0.745120  0.943850  0.732910  1.0  0.0692
  C  C223  1  0.794170  0.936330  0.684930  1.0  -0.1645
  C  C224  1  0.730320  0.936450  0.654310  1.0  0.1928
  C  C225  1  0.581690  0.953640  0.711780  1.0  0.1848
  C  C226  1  0.639360  0.953280  0.745800  1.0  -0.1615
  C  C227  1  0.461530  0.628090  0.748650  1.0  -0.0175
  C  C228  1  0.520160  0.606890  0.706590  1.0  -0.0573
  C  C229  1  0.623410  0.611290  0.691690  1.0  -0.138
  C  C230  1  0.661730  0.638750  0.717190  1.0  -0.0315
  C  C231  1  0.605070  0.660900  0.755560  1.0  -0.148
  C  C232  1  0.504040  0.654200  0.771920  1.0  -0.105
  C  C233  1  0.354560  0.621280  0.769200  1.0  0.0069
  C  C234  1  0.343620  0.592100  0.808460  1.0  -0.0707
  C  C235  1  0.241080  0.587360  0.833480  1.0  -0.0422
  C  C236  1  0.158070  0.612820  0.818240  1.0  -0.0777
  C  C237  1  0.167380  0.643030  0.779410  1.0  -0.0922
  C  C238  1  0.266630  0.645760  0.754380  1.0  -0.0722
  C  C239  1  0.694430  0.586630  0.650310  1.0  0.7133
  C  C240  1  0.470810  0.579830  0.680150  1.0  0.7145
  C  C241  1  0.436620  0.569010  0.826150  1.0  0.6956
  C  C242  1  0.229220  0.555790  0.871570  1.0  0.7304
  C  C243  1  0.976490  0.445490  0.653130  1.0  -0.079
  C  C244  1  0.006040  0.431220  0.605700  1.0  0.0051
  C  C245  1  0.106430  0.418520  0.584220  1.0  0.0319
  C  C246  1  0.186990  0.415800  0.608220  1.0  -0.0383
  C  C247  1  0.161030  0.431640  0.652700  1.0  -0.0263
  C  C248  1  0.051940  0.448990  0.676330  1.0  -0.1032
  C  C249  1  0.484630  0.381530  0.568610  1.0  -0.0785
  C  C250  1  0.380860  0.410080  0.585400  1.0  -0.032
  C  C251  1  0.297750  0.391500  0.587400  1.0  0.0217
  C  C252  1  0.308300  0.346530  0.574870  1.0  -0.1233
  C  C253  1  0.407250  0.317650  0.560050  1.0  -0.09
  C  C254  1  0.497200  0.335490  0.556910  1.0  -0.0509
  C  C255  1  0.920600  0.431050  0.580950  1.0  0.7289
  C  C256  1  0.131650  0.405490  0.533410  1.0  0.6911
  C  C257  1  0.376000  0.458950  0.598650  1.0  0.6508
  C  C258  1  0.578840  0.402420  0.558300  1.0  0.6942
  C  C259  1  0.209600  0.539840  0.710160  1.0  0.1935
  C  C260  1  0.118180  0.539900  0.744340  1.0  -0.1598
  C  C261  1  0.023140  0.554450  0.731470  1.0  0.0361
  C  C262  1  0.022810  0.571130  0.684450  1.0  -0.1596
  C  C263  1  0.117130  0.569170  0.655970  1.0  0.2003
  C  C264  1  0.921880  0.556150  0.767090  1.0  0.0699
  C  C265  1  0.915430  0.563670  0.815070  1.0  -0.1626
  C  C266  1  0.821080  0.563550  0.845690  1.0  0.1896
  C  C267  1  0.747110  0.546360  0.788220  1.0  0.1859
  C  C268  1  0.838440  0.546720  0.754200  1.0  -0.159
  C  C269  1  0.089620  0.248650  0.371910  1.0  -0.018
  C  C270  1  0.127050  0.206590  0.393110  1.0  -0.0575
  C  C271  1  0.234700  0.191690  0.388710  1.0  -0.1407
  C  C272  1  0.300480  0.217190  0.361250  1.0  -0.0313
  C  C273  1  0.265970  0.255560  0.339100  1.0  -0.1526
  C  C274  1  0.158240  0.271920  0.345800  1.0  -0.1014
  C  C275  1  0.975840  0.269200  0.378720  1.0  0.0063
  C  C276  1  0.935720  0.308460  0.407900  1.0  -0.0694
  C  C277  1  0.828440  0.333480  0.412640  1.0  -0.042
  C  C278  1  0.770890  0.318240  0.387180  1.0  -0.077
  C  C279  1  0.810410  0.279410  0.356970  1.0  -0.0936
  C  C280  1  0.912390  0.254380  0.354240  1.0  -0.068
  C  C281  1  0.281060  0.150310  0.413370  1.0  0.7175
  C  C282  1  0.050640  0.180150  0.420170  1.0  0.7139
  C  C283  1  0.005630  0.326150  0.430990  1.0  0.6962
  C  C284  1  0.785010  0.371570  0.444210  1.0  0.7392
  C  C285  1  0.421980  0.153130  0.554510  1.0  -0.0781
  C  C286  1  0.437260  0.105700  0.568780  1.0  0.0043
  C  C287  1  0.524950  0.084220  0.581480  1.0  0.0325
  C  C288  1  0.602790  0.108220  0.584200  1.0  -0.038
  C  C289  1  0.592670  0.152700  0.568360  1.0  -0.0331
  C  C290  1  0.500930  0.176330  0.551010  1.0  -0.1021
  C  C291  1  0.866160  0.068610  0.618470  1.0  -0.0768
  C  C292  1  0.790940  0.085400  0.589920  1.0  -0.0314
  C  C293  1  0.689250  0.087400  0.608500  1.0  0.022
  C  C294  1  0.654830  0.074870  0.653470  1.0  -0.121
  C  C295  1  0.724900  0.060050  0.682350  1.0  -0.0901
  C  C296  1  0.832690  0.056910  0.664510  1.0  -0.0511
  C  C297  1  0.351650  0.080950  0.568950  1.0  0.7285
  C  C298  1  0.537140  0.033410  0.594510  1.0  0.6911
  C  C299  1  0.834950  0.098650  0.541050  1.0  0.6511
  C  C300  1  0.981260  0.058300  0.597580  1.0  0.6948
  C  C301  1  0.749440  0.210160  0.460160  1.0  0.1951
  C  C302  1  0.658080  0.244340  0.460100  1.0  -0.1614
  C  C303  1  0.577590  0.231470  0.445550  1.0  0.0363
  C  C304  1  0.593940  0.184450  0.428870  1.0  -0.159
  C  C305  1  0.686300  0.155970  0.430830  1.0  0.2007
  C  C306  1  0.478030  0.267090  0.443850  1.0  0.0692
  C  C307  1  0.479100  0.315070  0.436330  1.0  -0.1668
  C  C308  1  0.384630  0.345690  0.436450  1.0  0.1915
  C  C309  1  0.293470  0.288220  0.453640  1.0  0.185
  C  C310  1  0.385160  0.254200  0.453280  1.0  -0.1632
  C  C311  1  0.210180  0.251350  0.128090  1.0  -0.0189
  C  C312  1  0.226750  0.293410  0.106890  1.0  -0.058
  C  C313  1  0.315100  0.308310  0.111290  1.0  -0.1401
  C  C314  1  0.378920  0.282810  0.138750  1.0  -0.0328
  C  C315  1  0.360630  0.244440  0.160900  1.0  -0.1512
  C  C316  1  0.275960  0.228080  0.154200  1.0  -0.1039
  C  C317  1  0.123760  0.230800  0.121280  1.0  0.0064
  C  C318  1  0.152080  0.191540  0.092100  1.0  -0.0706
  C  C319  1  0.074560  0.166520  0.087360  1.0  -0.0432
  C  C320  1  0.976310  0.181760  0.112820  1.0  -0.0776
  C  C321  1  0.946790  0.220590  0.143030  1.0  -0.0944
  C  C322  1  0.021010  0.245620  0.145760  1.0  -0.0662
  C  C323  1  0.344740  0.349690  0.086630  1.0  0.7156
  C  C324  1  0.150960  0.319850  0.079830  1.0  0.7132
  C  C325  1  0.262770  0.173850  0.069010  1.0  0.6957
  C  C326  1  0.100790  0.128430  0.055790  1.0  0.7379
  C  C327  1  0.629620  0.346870  0.945490  1.0  -0.0793
  C  C328  1  0.611740  0.394300  0.931220  1.0  0.0036
  C  C329  1  0.690650  0.415780  0.918520  1.0  0.033
  C  C330  1  0.795210  0.391780  0.915800  1.0  -0.037
  C  C331  1  0.813730  0.347300  0.931640  1.0  -0.0305
  C  C332  1  0.728270  0.323670  0.948990  1.0  -0.1021
  C  C333  1  0.053240  0.431390  0.881530  1.0  -0.0775
  C  C334  1  0.966260  0.414600  0.910080  1.0  -0.031
  C  C335  1  0.885150  0.412600  0.891500  1.0  0.0224
  C  C336  1  0.883170  0.425130  0.846530  1.0  -0.1195
  C  C337  1  0.967300  0.439950  0.817650  1.0  -0.0867
  C  C338  1  0.054110  0.443090  0.835490  1.0  -0.0475
  C  C339  1  0.501550  0.419050  0.931050  1.0  0.7277
  C  C340  1  0.665060  0.466590  0.905490  1.0  0.6901
  C  C341  1  0.974650  0.401350  0.958950  1.0  0.6506
  C  C342  1  0.137140  0.441700  0.902420  1.0  0.6937
  C  C343  1  0.919760  0.289840  0.039840  1.0  0.1947
  C  C344  1  0.862520  0.255660  0.039900  1.0  -0.1648
  C  C345  1  0.754610  0.268530  0.054450  1.0  0.0353
  C  C346  1  0.707260  0.315550  0.071130  1.0  -0.1598
  C  C347  1  0.773100  0.344030  0.069170  1.0  0.199
  C  C348  1  0.688970  0.232910  0.056150  1.0  0.0692
  C  C349  1  0.730500  0.184930  0.063670  1.0  -0.1644
  C  C350  1  0.666770  0.154310  0.063550  1.0  0.1909
  C  C351  1  0.535330  0.211780  0.046360  1.0  0.1867
  C  C352  1  0.592640  0.245800  0.046720  1.0  -0.1622
  C  C353  1  0.661730  0.128090  0.248650  1.0  -0.018
  C  C354  1  0.666360  0.106890  0.206590  1.0  -0.0564
  C  C355  1  0.573610  0.111290  0.191690  1.0  -0.1403
  C  C356  1  0.482330  0.138750  0.217190  1.0  -0.0294
  C  C357  1  0.478470  0.160900  0.255560  1.0  -0.1515
  C  C358  1  0.569840  0.154200  0.271920  1.0  -0.1039
  C  C359  1  0.754960  0.121280  0.269200  1.0  0.0062
  C  C360  1  0.755820  0.092100  0.308460  1.0  -0.0708
  C  C361  1  0.838080  0.087360  0.333480  1.0  -0.042
  C  C362  1  0.910870  0.112820  0.318240  1.0  -0.0777
  C  C363  1  0.910180  0.143030  0.279410  1.0  -0.0899
  C  C364  1  0.833230  0.145760  0.254380  1.0  -0.0714
  C  C365  1  0.568630  0.086630  0.150310  1.0  0.7149
  C  C366  1  0.769210  0.079830  0.180150  1.0  0.7141
  C  C367  1  0.668220  0.069010  0.326150  1.0  0.6946
  C  C368  1  0.843420  0.055790  0.371570  1.0  0.73
  C  C369  1  0.424890  0.945490  0.153130  1.0  -0.0804
  C  C370  1  0.457040  0.931220  0.105700  1.0  0.0029
  C  C371  1  0.390830  0.918520  0.084220  1.0  0.0315
  C  C372  1  0.288990  0.915800  0.108220  1.0  -0.0377
  C  C373  1  0.254630  0.931640  0.152700  1.0  -0.029
  C  C374  1  0.322740  0.948990  0.176330  1.0  -0.1038
  C  C375  1  0.065230  0.881530  0.068610  1.0  -0.0758
  C  C376  1  0.123660  0.910080  0.085400  1.0  -0.0314
  C  C377  1  0.223350  0.891500  0.087400  1.0  0.0219
  C  C378  1  0.270300  0.846530  0.074870  1.0  -0.1232
  C  C379  1  0.215050  0.817650  0.060050  1.0  -0.0909
  C  C380  1  0.110400  0.835490  0.056910  1.0  -0.0444
  C  C381  1  0.567400  0.931050  0.080950  1.0  0.7265
  C  C382  1  0.429450  0.905490  0.033410  1.0  0.691
  C  C383  1  0.066400  0.958950  0.098650  1.0  0.651
  C  C384  1  0.960440  0.902420  0.058300  1.0  0.6946
  C  C385  1  0.040400  0.039840  0.210160  1.0  0.1915
  C  C386  1  0.097580  0.039900  0.244340  1.0  -0.1616
  C  C387  1  0.190940  0.054450  0.231470  1.0  0.0365
  C  C388  1  0.221610  0.071130  0.184450  1.0  -0.1597
  C  C389  1  0.157730  0.069170  0.155970  1.0  0.2012
  C  C390  1  0.254880  0.056150  0.267090  1.0  0.0696
  C  C391  1  0.205830  0.063670  0.315070  1.0  -0.1676
  C  C392  1  0.269680  0.063550  0.345690  1.0  0.1928
  C  C393  1  0.418310  0.046360  0.288220  1.0  0.1854
  C  C394  1  0.360640  0.046720  0.254200  1.0  -0.1629
  C  C395  1  0.538470  0.371910  0.251350  1.0  -0.0181
  C  C396  1  0.479840  0.393110  0.293410  1.0  -0.0571
  C  C397  1  0.376590  0.388710  0.308310  1.0  -0.1368
  C  C398  1  0.338270  0.361250  0.282810  1.0  -0.0299
  C  C399  1  0.394930  0.339100  0.244440  1.0  -0.1504
  C  C400  1  0.495960  0.345800  0.228080  1.0  -0.1074
  C  C401  1  0.645440  0.378720  0.230800  1.0  0.0056
  C  C402  1  0.656380  0.407900  0.191540  1.0  -0.0705
  C  C403  1  0.758920  0.412640  0.166520  1.0  -0.0413
  C  C404  1  0.841930  0.387180  0.181760  1.0  -0.0805
  C  C405  1  0.832620  0.356970  0.220590  1.0  -0.0916
  C  C406  1  0.733370  0.354240  0.245620  1.0  -0.0735
  C  C407  1  0.305570  0.413370  0.349690  1.0  0.7156
  C  C408  1  0.529190  0.420170  0.319850  1.0  0.7153
  C  C409  1  0.563380  0.430990  0.173850  1.0  0.6944
  C  C410  1  0.770780  0.444210  0.128430  1.0  0.7326
  C  C411  1  0.023510  0.554510  0.346870  1.0  -0.0802
  C  C412  1  0.993960  0.568780  0.394300  1.0  0.0026
  C  C413  1  0.893570  0.581480  0.415780  1.0  0.0312
  C  C414  1  0.813010  0.584200  0.391780  1.0  -0.0366
  C  C415  1  0.838970  0.568360  0.347300  1.0  -0.0277
  C  C416  1  0.948060  0.551010  0.323670  1.0  -0.1036
  C  C417  1  0.515370  0.618470  0.431390  1.0  -0.0797
  C  C418  1  0.619140  0.589920  0.414600  1.0  -0.0323
  C  C419  1  0.702250  0.608500  0.412600  1.0  0.0213
  C  C420  1  0.691700  0.653470  0.425130  1.0  -0.1229
  C  C421  1  0.592750  0.682350  0.439950  1.0  -0.0919
  C  C422  1  0.502800  0.664510  0.443090  1.0  -0.0497
  C  C423  1  0.079400  0.568950  0.419050  1.0  0.7267
  C  C424  1  0.868350  0.594510  0.466590  1.0  0.6911
  C  C425  1  0.624000  0.541050  0.401350  1.0  0.6528
  C  C426  1  0.421160  0.597580  0.441700  1.0  0.6949
  C  C427  1  0.790400  0.460160  0.289840  1.0  0.1929
  C  C428  1  0.881820  0.460100  0.255660  1.0  -0.1601
  C  C429  1  0.976860  0.445550  0.268530  1.0  0.036
  C  C430  1  0.977190  0.428870  0.315550  1.0  -0.1588
  C  C431  1  0.882870  0.430830  0.344030  1.0  0.2007
  C  C432  1  0.078120  0.443850  0.232910  1.0  0.0687
  C  C433  1  0.084570  0.436330  0.184930  1.0  -0.1633
  C  C434  1  0.178920  0.436450  0.154310  1.0  0.1928
  C  C435  1  0.252890  0.453640  0.211780  1.0  0.1866
  C  C436  1  0.161560  0.453280  0.245800  1.0  -0.1602
  C  C437  1  0.910380  0.751350  0.628090  1.0  -0.0182
  C  C438  1  0.872950  0.793410  0.606890  1.0  -0.0566
  C  C439  1  0.765300  0.808310  0.611290  1.0  -0.1408
  C  C440  1  0.699520  0.782810  0.638750  1.0  -0.0301
  C  C441  1  0.734030  0.744440  0.660900  1.0  -0.1532
  C  C442  1  0.841760  0.728080  0.654200  1.0  -0.1006
  C  C443  1  0.024160  0.730800  0.621280  1.0  0.0064
  C  C444  1  0.064280  0.691540  0.592100  1.0  -0.0697
  C  C445  1  0.171560  0.666520  0.587360  1.0  -0.0421
  C  C446  1  0.229110  0.681760  0.612820  1.0  -0.0785
  C  C447  1  0.189590  0.720590  0.643030  1.0  -0.0912
  C  C448  1  0.087610  0.745620  0.645760  1.0  -0.0685
  C  C449  1  0.718940  0.849690  0.586630  1.0  0.7176
  C  C450  1  0.949360  0.819850  0.579830  1.0  0.7144
  C  C451  1  0.994370  0.673850  0.569010  1.0  0.6947
  C  C452  1  0.214990  0.628430  0.555790  1.0  0.7388
  C  C453  1  0.578020  0.846870  0.445490  1.0  -0.0786
  C  C454  1  0.562740  0.894300  0.431220  1.0  0.003
  C  C455  1  0.475050  0.915780  0.418520  1.0  0.033
  C  C456  1  0.397210  0.891780  0.415800  1.0  -0.0374
  C  C457  1  0.407330  0.847300  0.431640  1.0  -0.031
  C  C458  1  0.499070  0.823670  0.448990  1.0  -0.1015
  C  C459  1  0.133840  0.931390  0.381530  1.0  -0.0783
  C  C460  1  0.209060  0.914600  0.410080  1.0  -0.0314
  C  C461  1  0.310750  0.912600  0.391500  1.0  0.023
  C  C462  1  0.345170  0.925130  0.346530  1.0  -0.1209
  C  C463  1  0.275100  0.939950  0.317650  1.0  -0.0895
  C  C464  1  0.167310  0.943090  0.335490  1.0  -0.0494
  C  C465  1  0.648350  0.919050  0.431050  1.0  0.7267
  C  C466  1  0.462860  0.966590  0.405490  1.0  0.69
  C  C467  1  0.165050  0.901350  0.458950  1.0  0.653
  C  C468  1  0.018740  0.941700  0.402420  1.0  0.695
  C  C469  1  0.250560  0.789840  0.539840  1.0  0.1936
  C  C470  1  0.341920  0.755660  0.539900  1.0  -0.1626
  C  C471  1  0.422410  0.768530  0.554450  1.0  0.0353
  C  C472  1  0.406060  0.815550  0.571130  1.0  -0.1585
  C  C473  1  0.313700  0.844030  0.569170  1.0  0.1997
  C  C474  1  0.521970  0.732910  0.556150  1.0  0.0693
  C  C475  1  0.520900  0.684930  0.563670  1.0  -0.1685
  C  C476  1  0.615370  0.654310  0.563550  1.0  0.19
  C  C477  1  0.706530  0.711780  0.546360  1.0  0.1847
  C  C478  1  0.614840  0.745800  0.546720  1.0  -0.1632
  C  C479  1  0.789820  0.748650  0.871910  1.0  -0.019
  C  C480  1  0.773250  0.706590  0.893110  1.0  -0.0574
  C  C481  1  0.684900  0.691690  0.888710  1.0  -0.1399
  C  C482  1  0.621080  0.717190  0.861250  1.0  -0.0306
  C  C483  1  0.639370  0.755560  0.839100  1.0  -0.1516
  C  C484  1  0.724040  0.771920  0.845800  1.0  -0.1048
  C  C485  1  0.876240  0.769200  0.878720  1.0  0.0057
  C  C486  1  0.847920  0.808460  0.907900  1.0  -0.0696
  C  C487  1  0.925440  0.833480  0.912640  1.0  -0.0411
  C  C488  1  0.023690  0.818240  0.887180  1.0  -0.0791
  C  C489  1  0.053210  0.779410  0.856970  1.0  -0.0964
  C  C490  1  0.978990  0.754380  0.854240  1.0  -0.0665
  C  C491  1  0.655260  0.650310  0.913370  1.0  0.7174
  C  C492  1  0.849040  0.680150  0.920170  1.0  0.7149
  C  C493  1  0.737230  0.826150  0.930990  1.0  0.6941
  C  C494  1  0.899210  0.871570  0.944210  1.0  0.7388
  C  C495  1  0.370380  0.653130  0.054510  1.0  -0.0813
  C  C496  1  0.388260  0.605700  0.068780  1.0  0.0022
  C  C497  1  0.309350  0.584220  0.081480  1.0  0.033
  C  C498  1  0.204790  0.608220  0.084200  1.0  -0.037
  C  C499  1  0.186270  0.652700  0.068360  1.0  -0.0321
  C  C500  1  0.271730  0.676330  0.051010  1.0  -0.1017
  C  C501  1  0.946760  0.568610  0.118470  1.0  -0.0789
  C  C502  1  0.033740  0.585400  0.089920  1.0  -0.0328
  C  C503  1  0.114850  0.587400  0.108500  1.0  0.0215
  C  C504  1  0.116830  0.574870  0.153470  1.0  -0.1191
  C  C505  1  0.032700  0.560050  0.182350  1.0  -0.0871
  C  C506  1  0.945890  0.556910  0.164510  1.0  -0.0487
  C  C507  1  0.498450  0.580950  0.068950  1.0  0.7268
  C  C508  1  0.334940  0.533410  0.094510  1.0  0.6908
  C  C509  1  0.025350  0.598650  0.041050  1.0  0.6516
  C  C510  1  0.862860  0.558300  0.097580  1.0  0.6939
  C  C511  1  0.080240  0.710160  0.960160  1.0  0.1925
  C  C512  1  0.137480  0.744340  0.960100  1.0  -0.1633
  C  C513  1  0.245390  0.731470  0.945550  1.0  0.0352
  C  C514  1  0.292740  0.684450  0.928870  1.0  -0.1601
  C  C515  1  0.226900  0.655970  0.930830  1.0  0.2004
  C  C516  1  0.311030  0.767090  0.943850  1.0  0.0695
  C  C517  1  0.269500  0.815070  0.936330  1.0  -0.1659
  C  C518  1  0.333230  0.845690  0.936450  1.0  0.1916
  C  C519  1  0.464670  0.788220  0.953640  1.0  0.1867
  C  C520  1  0.407360  0.754200  0.953280  1.0  -0.1617
  N  N521  1  0.933010  0.945000  0.831180  1.0  -0.3139
  N  N522  1  0.627080  0.944620  0.666820  1.0  -0.3106
  N  N523  1  0.209190  0.555000  0.668820  1.0  -0.3155
  N  N524  1  0.738520  0.555380  0.833180  1.0  -0.3083
  N  N525  1  0.764190  0.168820  0.445000  1.0  -0.3138
  N  N526  1  0.293900  0.333180  0.444620  1.0  -0.3068
  N  N527  1  0.878010  0.331180  0.055000  1.0  -0.3172
  N  N528  1  0.571700  0.166820  0.055380  1.0  -0.3088
  N  N529  1  0.066990  0.055000  0.168820  1.0  -0.3151
  N  N530  1  0.372920  0.055380  0.333180  1.0  -0.3086
  N  N531  1  0.790810  0.445000  0.331180  1.0  -0.3155
  N  N532  1  0.261480  0.444620  0.166820  1.0  -0.3087
  N  N533  1  0.235810  0.831180  0.555000  1.0  -0.3163
  N  N534  1  0.706100  0.666820  0.555380  1.0  -0.308
  N  N535  1  0.121990  0.668820  0.945000  1.0  -0.3148
  N  N536  1  0.428300  0.833180  0.944620  1.0  -0.3088
  O  O537  1  0.189030  0.959810  0.804730  1.0  -0.7366
  O  O538  1  0.183820  0.901610  0.853750  1.0  -0.5348
  O  O539  1  0.364540  0.950350  0.862570  1.0  -0.4763
  O  O540  1  0.503770  0.898170  0.869490  1.0  -0.6152
  O  O541  1  0.349470  0.960600  0.696260  1.0  -0.6445
  O  O542  1  0.391770  0.913660  0.636800  1.0  -0.6225
  O  O543  1  0.189070  0.981760  0.628300  1.0  -0.4573
  O  O544  1  0.121940  0.934860  0.595660  1.0  -0.6819
  O  O545  1  0.617250  0.073580  0.995520  1.0  -0.5924
  O  O546  1  0.486470  0.125860  0.977800  1.0  -0.6105
  O  O547  1  0.416960  0.040700  0.951980  1.0  -0.5107
  O  O548  1  0.357030  0.097580  0.907760  1.0  -0.4384
  O  O549  1  0.021350  0.032960  0.876740  1.0  -0.5664
  O  O550  1  0.887370  0.009260  0.918200  1.0  -0.6079
  O  O551  1  0.111630  0.118520  0.924020  1.0  -0.4618
  O  O552  1  0.051160  0.065250  0.967630  1.0  -0.4642
  O  O553  1  0.453570  0.540190  0.695270  1.0  -0.7371
  O  O554  1  0.439180  0.598390  0.646250  1.0  -0.5386
  O  O555  1  0.677460  0.549650  0.637430  1.0  -0.4805
  O  O556  1  0.771430  0.601830  0.630510  1.0  -0.6173
  O  O557  1  0.506330  0.539400  0.803740  1.0  -0.6445
  O  O558  1  0.442230  0.586340  0.863200  1.0  -0.6259
  O  O559  1  0.299130  0.518240  0.871700  1.0  -0.4559
  O  O560  1  0.152460  0.565140  0.904340  1.0  -0.6807
  O  O561  1  0.186350  0.426420  0.504480  1.0  -0.5909
  O  O562  1  0.090130  0.374140  0.522200  1.0  -0.6145
  O  O563  1  0.909640  0.459300  0.548020  1.0  -0.5173
  O  O564  1  0.862370  0.402420  0.592240  1.0  -0.4353
  O  O565  1  0.431050  0.467040  0.623260  1.0  -0.5706
  O  O566  1  0.314830  0.490740  0.581800  1.0  -0.6095
  O  O567  1  0.654170  0.381480  0.575980  1.0  -0.4662
  O  O568  1  0.584040  0.434750  0.532370  1.0  -0.4582
  O  O569  1  0.993760  0.195270  0.459810  1.0  -0.7388
  O  O570  1  0.037570  0.146250  0.401610  1.0  -0.5377
  O  O571  1  0.227110  0.137430  0.450350  1.0  -0.4835
  O  O572  1  0.373260  0.130510  0.398170  1.0  -0.6172
  O  O573  1  0.045730  0.303740  0.460600  1.0  -0.6483
  O  O574  1  0.028570  0.363200  0.413660  1.0  -0.6225
  O  O575  1  0.817370  0.371700  0.481760  1.0  -0.455
  O  O576  1  0.717600  0.404340  0.434860  1.0  -0.6788
  O  O577  1  0.612770  0.004480  0.573580  1.0  -0.5966
  O  O578  1  0.464270  0.022200  0.625860  1.0  -0.6111
  O  O579  1  0.368940  0.048020  0.540700  1.0  -0.5158
  O  O580  1  0.264790  0.092240  0.597580  1.0  -0.438
  O  O581  1  0.898090  0.123260  0.532960  1.0  -0.5708
  O  O582  1  0.805570  0.081800  0.509260  1.0  -0.6076
  O  O583  1  0.035650  0.075980  0.618520  1.0  -0.466
  O  O584  1  0.018790  0.032370  0.565250  1.0  -0.4651
  O  O585  1  0.148840  0.304730  0.040190  1.0  -0.7406
  O  O586  1  0.085430  0.353750  0.098390  1.0  -0.5368
  O  O587  1  0.314890  0.362570  0.049650  1.0  -0.4836
  O  O588  1  0.401940  0.369490  0.101830  1.0  -0.6188
  O  O589  1  0.310070  0.196260  0.039400  1.0  -0.6466
  O  O590  1  0.305430  0.136800  0.086340  1.0  -0.6224
  O  O591  1  0.170830  0.128300  0.018240  1.0  -0.4628
  O  O592  1  0.056800  0.095660  0.065140  1.0  -0.6785
  O  O593  1  0.690830  0.495520  0.926420  1.0  -0.5972
  O  O594  1  0.612330  0.477800  0.874140  1.0  -0.6135
  O  O595  1  0.457660  0.451980  0.959300  1.0  -0.5128
  O  O596  1  0.454610  0.407760  0.902420  1.0  -0.4408
  O  O597  1  0.054310  0.376740  0.967040  1.0  -0.5722
  O  O598  1  0.896630  0.418200  0.990740  1.0  -0.604
  O  O599  1  0.230150  0.424020  0.881480  1.0  -0.461
  O  O600  1  0.116410  0.467630  0.934750  1.0  -0.4631
  O  O601  1  0.810970  0.040190  0.195270  1.0  -0.7367
  O  O602  1  0.816180  0.098390  0.146250  1.0  -0.5371
  O  O603  1  0.635460  0.049650  0.137430  1.0  -0.4789
  O  O604  1  0.496230  0.101830  0.130510  1.0  -0.6169
  O  O605  1  0.650530  0.039400  0.303740  1.0  -0.6458
  O  O606  1  0.608230  0.086340  0.363200  1.0  -0.6255
  O  O607  1  0.810930  0.018240  0.371700  1.0  -0.4562
  O  O608  1  0.878060  0.065140  0.404340  1.0  -0.6813
  O  O609  1  0.382750  0.926420  0.004480  1.0  -0.5927
  O  O610  1  0.513530  0.874140  0.022200  1.0  -0.6113
  O  O611  1  0.583040  0.959300  0.048020  1.0  -0.5122
  O  O612  1  0.642970  0.902420  0.092240  1.0  -0.436
  O  O613  1  0.978650  0.967040  0.123260  1.0  -0.5684
  O  O614  1  0.112630  0.990740  0.081800  1.0  -0.6076
  O  O615  1  0.888370  0.881480  0.075980  1.0  -0.4608
  O  O616  1  0.948840  0.934750  0.032370  1.0  -0.4634
  O  O617  1  0.546430  0.459810  0.304730  1.0  -0.7358
  O  O618  1  0.560820  0.401610  0.353750  1.0  -0.5386
  O  O619  1  0.322540  0.450350  0.362570  1.0  -0.4776
  O  O620  1  0.228570  0.398170  0.369490  1.0  -0.6162
  O  O621  1  0.493670  0.460600  0.196260  1.0  -0.6429
  O  O622  1  0.557770  0.413660  0.136800  1.0  -0.6232
  O  O623  1  0.700870  0.481760  0.128300  1.0  -0.4599
  O  O624  1  0.847540  0.434860  0.095660  1.0  -0.6805
  O  O625  1  0.813650  0.573580  0.495520  1.0  -0.5892
  O  O626  1  0.909870  0.625860  0.477800  1.0  -0.6138
  O  O627  1  0.090360  0.540700  0.451980  1.0  -0.5136
  O  O628  1  0.137630  0.597580  0.407760  1.0  -0.4335
  O  O629  1  0.568950  0.532960  0.376740  1.0  -0.5694
  O  O630  1  0.685170  0.509260  0.418200  1.0  -0.6111
  O  O631  1  0.345830  0.618520  0.424020  1.0  -0.4653
  O  O632  1  0.415960  0.565250  0.467630  1.0  -0.46
  O  O633  1  0.006240  0.804730  0.540190  1.0  -0.7383
  O  O634  1  0.962430  0.853750  0.598390  1.0  -0.5372
  O  O635  1  0.772890  0.862570  0.549650  1.0  -0.488
  O  O636  1  0.626740  0.869490  0.601830  1.0  -0.6175
  O  O637  1  0.954270  0.696260  0.539400  1.0  -0.6491
  O  O638  1  0.971430  0.636800  0.586340  1.0  -0.6214
  O  O639  1  0.182630  0.628300  0.518240  1.0  -0.4565
  O  O640  1  0.282400  0.595660  0.565140  1.0  -0.6777
  O  O641  1  0.387230  0.995520  0.426420  1.0  -0.593
  O  O642  1  0.535730  0.977800  0.374140  1.0  -0.6115
  O  O643  1  0.631060  0.951980  0.459300  1.0  -0.513
  O  O644  1  0.735210  0.907760  0.402420  1.0  -0.4375
  O  O645  1  0.101910  0.876740  0.467040  1.0  -0.5709
  O  O646  1  0.194430  0.918200  0.490740  1.0  -0.6097
  O  O647  1  0.964350  0.924020  0.381480  1.0  -0.4654
  O  O648  1  0.981210  0.967630  0.434750  1.0  -0.4641
  O  O649  1  0.851160  0.695270  0.959810  1.0  -0.7404
  O  O650  1  0.914570  0.646250  0.901610  1.0  -0.5379
  O  O651  1  0.685110  0.637430  0.950350  1.0  -0.4791
  O  O652  1  0.598060  0.630510  0.898170  1.0  -0.6192
  O  O653  1  0.689930  0.803740  0.960600  1.0  -0.6473
  O  O654  1  0.694570  0.863200  0.913660  1.0  -0.6236
  O  O655  1  0.829170  0.871700  0.981760  1.0  -0.462
  O  O656  1  0.943200  0.904340  0.934860  1.0  -0.6781
  O  O657  1  0.309170  0.504480  0.073580  1.0  -0.5971
  O  O658  1  0.387670  0.522200  0.125860  1.0  -0.6134
  O  O659  1  0.542340  0.548020  0.040700  1.0  -0.5118
  O  O660  1  0.545390  0.592240  0.097580  1.0  -0.4401
  O  O661  1  0.945690  0.623260  0.032960  1.0  -0.5723
  O  O662  1  0.103370  0.581800  0.009260  1.0  -0.6047
  O  O663  1  0.769850  0.575980  0.118520  1.0  -0.4634
  O  O664  1  0.883590  0.532370  0.065250  1.0  -0.4656
