# generated using pymatgen
data_Ni4H12C24O13
_symmetry_space_group_name_H-M   'P 1'
_cell_length_a   25.83800000
_cell_length_b   25.83800000
_cell_length_c   25.83800000
_cell_angle_alpha   90.00000000
_cell_angle_beta   90.00000000
_cell_angle_gamma   90.00000000
_symmetry_Int_Tables_number   1
_chemical_formula_structural   Ni4H12C24O13
_chemical_formula_sum   'Ni32 H96 C192 O104'
_cell_volume   17249.50678047
_cell_formula_units_Z   8
loop_
 _symmetry_equiv_pos_site_id
 _symmetry_equiv_pos_as_xyz
  1  'x, y, z'
loop_
 _atom_site_type_symbol
 _atom_site_label
 _atom_site_symmetry_multiplicity
 _atom_site_fract_x
 _atom_site_fract_y
 _atom_site_fract_z
 _atom_site_occupancy
 _atom_site_charge
  Ni  Ni1  1  0.206540  0.206540  0.206540  1.0  0.7928
  Ni  Ni2  1  0.206540  0.706540  0.706540  1.0  0.7928
  Ni  Ni3  1  0.706540  0.206540  0.706540  1.0  0.7928
  Ni  Ni4  1  0.706540  0.706540  0.206540  1.0  0.7928
  Ni  Ni5  1  0.793460  0.793460  0.206540  1.0  0.7914
  Ni  Ni6  1  0.793460  0.293460  0.706540  1.0  0.7914
  Ni  Ni7  1  0.293460  0.793460  0.706540  1.0  0.7914
  Ni  Ni8  1  0.293460  0.293460  0.206540  1.0  0.7914
  Ni  Ni9  1  0.793460  0.206540  0.793460  1.0  0.7931
  Ni  Ni10  1  0.793460  0.706540  0.293460  1.0  0.7931
  Ni  Ni11  1  0.293460  0.206540  0.293460  1.0  0.7931
  Ni  Ni12  1  0.293460  0.706540  0.793460  1.0  0.7931
  Ni  Ni13  1  0.206540  0.793460  0.793460  1.0  0.7937
  Ni  Ni14  1  0.206540  0.293460  0.293460  1.0  0.7937
  Ni  Ni15  1  0.706540  0.793460  0.293460  1.0  0.7937
  Ni  Ni16  1  0.706540  0.293460  0.793460  1.0  0.7937
  Ni  Ni17  1  0.206540  0.206540  0.793460  1.0  0.7938
  Ni  Ni18  1  0.206540  0.706540  0.293460  1.0  0.7938
  Ni  Ni19  1  0.706540  0.206540  0.293460  1.0  0.7938
  Ni  Ni20  1  0.706540  0.706540  0.793460  1.0  0.7938
  Ni  Ni21  1  0.793460  0.793460  0.793460  1.0  0.7929
  Ni  Ni22  1  0.793460  0.293460  0.293460  1.0  0.7929
  Ni  Ni23  1  0.293460  0.793460  0.293460  1.0  0.7929
  Ni  Ni24  1  0.293460  0.293460  0.793460  1.0  0.7929
  Ni  Ni25  1  0.206540  0.793460  0.206540  1.0  0.7923
  Ni  Ni26  1  0.206540  0.293460  0.706540  1.0  0.7923
  Ni  Ni27  1  0.706540  0.793460  0.706540  1.0  0.7923
  Ni  Ni28  1  0.706540  0.293460  0.206540  1.0  0.7923
  Ni  Ni29  1  0.793460  0.206540  0.206540  1.0  0.7919
  Ni  Ni30  1  0.793460  0.706540  0.706540  1.0  0.7919
  Ni  Ni31  1  0.293460  0.206540  0.706540  1.0  0.7919
  Ni  Ni32  1  0.293460  0.706540  0.206540  1.0  0.7919
  H  H33  1  0.195000  0.195000  0.045500  1.0  0.1374
  H  H34  1  0.195000  0.695000  0.545500  1.0  0.1374
  H  H35  1  0.695000  0.195000  0.545500  1.0  0.1374
  H  H36  1  0.695000  0.695000  0.045500  1.0  0.1374
  H  H37  1  0.805000  0.805000  0.045500  1.0  0.1371
  H  H38  1  0.805000  0.305000  0.545500  1.0  0.1371
  H  H39  1  0.305000  0.805000  0.545500  1.0  0.1371
  H  H40  1  0.305000  0.305000  0.045500  1.0  0.1371
  H  H41  1  0.805000  0.195000  0.954500  1.0  0.1374
  H  H42  1  0.805000  0.695000  0.454500  1.0  0.1374
  H  H43  1  0.305000  0.195000  0.454500  1.0  0.1374
  H  H44  1  0.305000  0.695000  0.954500  1.0  0.1374
  H  H45  1  0.195000  0.805000  0.954500  1.0  0.1377
  H  H46  1  0.195000  0.305000  0.454500  1.0  0.1377
  H  H47  1  0.695000  0.805000  0.454500  1.0  0.1377
  H  H48  1  0.695000  0.305000  0.954500  1.0  0.1377
  H  H49  1  0.045500  0.195000  0.195000  1.0  0.1372
  H  H50  1  0.045500  0.695000  0.695000  1.0  0.1372
  H  H51  1  0.545500  0.195000  0.695000  1.0  0.1372
  H  H52  1  0.545500  0.695000  0.195000  1.0  0.1372
  H  H53  1  0.045500  0.805000  0.805000  1.0  0.1377
  H  H54  1  0.045500  0.305000  0.305000  1.0  0.1377
  H  H55  1  0.545500  0.805000  0.305000  1.0  0.1377
  H  H56  1  0.545500  0.305000  0.805000  1.0  0.1377
  H  H57  1  0.954500  0.805000  0.195000  1.0  0.1378
  H  H58  1  0.954500  0.305000  0.695000  1.0  0.1378
  H  H59  1  0.454500  0.805000  0.695000  1.0  0.1378
  H  H60  1  0.454500  0.305000  0.195000  1.0  0.1378
  H  H61  1  0.954500  0.195000  0.805000  1.0  0.1378
  H  H62  1  0.954500  0.695000  0.305000  1.0  0.1378
  H  H63  1  0.454500  0.195000  0.305000  1.0  0.1378
  H  H64  1  0.454500  0.695000  0.805000  1.0  0.1378
  H  H65  1  0.195000  0.045500  0.195000  1.0  0.1368
  H  H66  1  0.195000  0.545500  0.695000  1.0  0.1368
  H  H67  1  0.695000  0.045500  0.695000  1.0  0.1368
  H  H68  1  0.695000  0.545500  0.195000  1.0  0.1368
  H  H69  1  0.805000  0.045500  0.805000  1.0  0.1367
  H  H70  1  0.805000  0.545500  0.305000  1.0  0.1367
  H  H71  1  0.305000  0.045500  0.305000  1.0  0.1367
  H  H72  1  0.305000  0.545500  0.805000  1.0  0.1367
  H  H73  1  0.195000  0.954500  0.805000  1.0  0.1371
  H  H74  1  0.195000  0.454500  0.305000  1.0  0.1371
  H  H75  1  0.695000  0.954500  0.305000  1.0  0.1371
  H  H76  1  0.695000  0.454500  0.805000  1.0  0.1371
  H  H77  1  0.805000  0.954500  0.195000  1.0  0.1367
  H  H78  1  0.805000  0.454500  0.695000  1.0  0.1367
  H  H79  1  0.305000  0.954500  0.695000  1.0  0.1367
  H  H80  1  0.305000  0.454500  0.195000  1.0  0.1367
  H  H81  1  0.195000  0.195000  0.954500  1.0  0.1373
  H  H82  1  0.195000  0.695000  0.454500  1.0  0.1373
  H  H83  1  0.695000  0.195000  0.454500  1.0  0.1373
  H  H84  1  0.695000  0.695000  0.954500  1.0  0.1373
  H  H85  1  0.805000  0.805000  0.954500  1.0  0.1376
  H  H86  1  0.805000  0.305000  0.454500  1.0  0.1376
  H  H87  1  0.305000  0.805000  0.454500  1.0  0.1376
  H  H88  1  0.305000  0.305000  0.954500  1.0  0.1376
  H  H89  1  0.195000  0.805000  0.045500  1.0  0.1373
  H  H90  1  0.195000  0.305000  0.545500  1.0  0.1373
  H  H91  1  0.695000  0.805000  0.545500  1.0  0.1373
  H  H92  1  0.695000  0.305000  0.045500  1.0  0.1373
  H  H93  1  0.805000  0.195000  0.045500  1.0  0.1372
  H  H94  1  0.805000  0.695000  0.545500  1.0  0.1372
  H  H95  1  0.305000  0.195000  0.545500  1.0  0.1372
  H  H96  1  0.305000  0.695000  0.045500  1.0  0.1372
  H  H97  1  0.195000  0.045500  0.805000  1.0  0.1367
  H  H98  1  0.195000  0.545500  0.305000  1.0  0.1367
  H  H99  1  0.695000  0.045500  0.305000  1.0  0.1367
  H  H100  1  0.695000  0.545500  0.805000  1.0  0.1367
  H  H101  1  0.805000  0.045500  0.195000  1.0  0.1373
  H  H102  1  0.805000  0.545500  0.695000  1.0  0.1373
  H  H103  1  0.305000  0.045500  0.695000  1.0  0.1373
  H  H104  1  0.305000  0.545500  0.195000  1.0  0.1373
  H  H105  1  0.805000  0.954500  0.805000  1.0  0.1368
  H  H106  1  0.805000  0.454500  0.305000  1.0  0.1368
  H  H107  1  0.305000  0.954500  0.305000  1.0  0.1368
  H  H108  1  0.305000  0.454500  0.805000  1.0  0.1368
  H  H109  1  0.195000  0.954500  0.195000  1.0  0.1367
  H  H110  1  0.195000  0.454500  0.695000  1.0  0.1367
  H  H111  1  0.695000  0.954500  0.695000  1.0  0.1367
  H  H112  1  0.695000  0.454500  0.195000  1.0  0.1367
  H  H113  1  0.045500  0.195000  0.805000  1.0  0.1379
  H  H114  1  0.045500  0.695000  0.305000  1.0  0.1379
  H  H115  1  0.545500  0.195000  0.305000  1.0  0.1379
  H  H116  1  0.545500  0.695000  0.805000  1.0  0.1379
  H  H117  1  0.045500  0.805000  0.195000  1.0  0.1377
  H  H118  1  0.045500  0.305000  0.695000  1.0  0.1377
  H  H119  1  0.545500  0.805000  0.695000  1.0  0.1377
  H  H120  1  0.545500  0.305000  0.195000  1.0  0.1377
  H  H121  1  0.954500  0.195000  0.195000  1.0  0.1372
  H  H122  1  0.954500  0.695000  0.695000  1.0  0.1372
  H  H123  1  0.454500  0.195000  0.695000  1.0  0.1372
  H  H124  1  0.454500  0.695000  0.195000  1.0  0.1372
  H  H125  1  0.954500  0.805000  0.805000  1.0  0.1377
  H  H126  1  0.954500  0.305000  0.305000  1.0  0.1377
  H  H127  1  0.454500  0.805000  0.305000  1.0  0.1377
  H  H128  1  0.454500  0.305000  0.805000  1.0  0.1377
  C  C129  1  0.217490  0.217490  0.027100  1.0  -0.0377
  C  C130  1  0.217490  0.717490  0.527100  1.0  -0.0377
  C  C131  1  0.717490  0.217490  0.527100  1.0  -0.0377
  C  C132  1  0.717490  0.717490  0.027100  1.0  -0.0377
  C  C133  1  0.782510  0.782510  0.027100  1.0  -0.0385
  C  C134  1  0.782510  0.282510  0.527100  1.0  -0.0385
  C  C135  1  0.282510  0.782510  0.527100  1.0  -0.0385
  C  C136  1  0.282510  0.282510  0.027100  1.0  -0.0385
  C  C137  1  0.782510  0.217490  0.972900  1.0  -0.0373
  C  C138  1  0.782510  0.717490  0.472900  1.0  -0.0373
  C  C139  1  0.282510  0.217490  0.472900  1.0  -0.0373
  C  C140  1  0.282510  0.717490  0.972900  1.0  -0.0373
  C  C141  1  0.217490  0.782510  0.972900  1.0  -0.0374
  C  C142  1  0.217490  0.282510  0.472900  1.0  -0.0374
  C  C143  1  0.717490  0.782510  0.472900  1.0  -0.0374
  C  C144  1  0.717490  0.282510  0.972900  1.0  -0.0374
  C  C145  1  0.027100  0.217490  0.217490  1.0  -0.0384
  C  C146  1  0.027100  0.717490  0.717490  1.0  -0.0384
  C  C147  1  0.527100  0.217490  0.717490  1.0  -0.0384
  C  C148  1  0.527100  0.717490  0.217490  1.0  -0.0384
  C  C149  1  0.027100  0.782510  0.782510  1.0  -0.0382
  C  C150  1  0.027100  0.282510  0.282510  1.0  -0.0382
  C  C151  1  0.527100  0.782510  0.282510  1.0  -0.0382
  C  C152  1  0.527100  0.282510  0.782510  1.0  -0.0382
  C  C153  1  0.972900  0.782510  0.217490  1.0  -0.038
  C  C154  1  0.972900  0.282510  0.717490  1.0  -0.038
  C  C155  1  0.472900  0.782510  0.717490  1.0  -0.038
  C  C156  1  0.472900  0.282510  0.217490  1.0  -0.038
  C  C157  1  0.972900  0.217490  0.782510  1.0  -0.0382
  C  C158  1  0.972900  0.717490  0.282510  1.0  -0.0382
  C  C159  1  0.472900  0.217490  0.282510  1.0  -0.0382
  C  C160  1  0.472900  0.717490  0.782510  1.0  -0.0382
  C  C161  1  0.217490  0.027100  0.217490  1.0  -0.0375
  C  C162  1  0.217490  0.527100  0.717490  1.0  -0.0375
  C  C163  1  0.717490  0.027100  0.717490  1.0  -0.0375
  C  C164  1  0.717490  0.527100  0.217490  1.0  -0.0375
  C  C165  1  0.782510  0.027100  0.782510  1.0  -0.0376
  C  C166  1  0.782510  0.527100  0.282510  1.0  -0.0376
  C  C167  1  0.282510  0.027100  0.282510  1.0  -0.0376
  C  C168  1  0.282510  0.527100  0.782510  1.0  -0.0376
  C  C169  1  0.217490  0.972900  0.782510  1.0  -0.0382
  C  C170  1  0.217490  0.472900  0.282510  1.0  -0.0382
  C  C171  1  0.717490  0.972900  0.282510  1.0  -0.0382
  C  C172  1  0.717490  0.472900  0.782510  1.0  -0.0382
  C  C173  1  0.782510  0.972900  0.217490  1.0  -0.0376
  C  C174  1  0.782510  0.472900  0.717490  1.0  -0.0376
  C  C175  1  0.282510  0.972900  0.717490  1.0  -0.0376
  C  C176  1  0.282510  0.472900  0.217490  1.0  -0.0376
  C  C177  1  0.217490  0.217490  0.972900  1.0  -0.0374
  C  C178  1  0.217490  0.717490  0.472900  1.0  -0.0374
  C  C179  1  0.717490  0.217490  0.472900  1.0  -0.0374
  C  C180  1  0.717490  0.717490  0.972900  1.0  -0.0374
  C  C181  1  0.782510  0.782510  0.972900  1.0  -0.037
  C  C182  1  0.782510  0.282510  0.472900  1.0  -0.037
  C  C183  1  0.282510  0.782510  0.472900  1.0  -0.037
  C  C184  1  0.282510  0.282510  0.972900  1.0  -0.037
  C  C185  1  0.217490  0.782510  0.027100  1.0  -0.039
  C  C186  1  0.217490  0.282510  0.527100  1.0  -0.039
  C  C187  1  0.717490  0.782510  0.527100  1.0  -0.039
  C  C188  1  0.717490  0.282510  0.027100  1.0  -0.039
  C  C189  1  0.782510  0.217490  0.027100  1.0  -0.0378
  C  C190  1  0.782510  0.717490  0.527100  1.0  -0.0378
  C  C191  1  0.282510  0.217490  0.527100  1.0  -0.0378
  C  C192  1  0.282510  0.717490  0.027100  1.0  -0.0378
  C  C193  1  0.217490  0.027100  0.782510  1.0  -0.0384
  C  C194  1  0.217490  0.527100  0.282510  1.0  -0.0384
  C  C195  1  0.717490  0.027100  0.282510  1.0  -0.0384
  C  C196  1  0.717490  0.527100  0.782510  1.0  -0.0384
  C  C197  1  0.782510  0.027100  0.217490  1.0  -0.0381
  C  C198  1  0.782510  0.527100  0.717490  1.0  -0.0381
  C  C199  1  0.282510  0.027100  0.717490  1.0  -0.0381
  C  C200  1  0.282510  0.527100  0.217490  1.0  -0.0381
  C  C201  1  0.782510  0.972900  0.782510  1.0  -0.0374
  C  C202  1  0.782510  0.472900  0.282510  1.0  -0.0374
  C  C203  1  0.282510  0.972900  0.282510  1.0  -0.0374
  C  C204  1  0.282510  0.472900  0.782510  1.0  -0.0374
  C  C205  1  0.217490  0.972900  0.217490  1.0  -0.0371
  C  C206  1  0.217490  0.472900  0.717490  1.0  -0.0371
  C  C207  1  0.717490  0.972900  0.717490  1.0  -0.0371
  C  C208  1  0.717490  0.472900  0.217490  1.0  -0.0371
  C  C209  1  0.027100  0.217490  0.782510  1.0  -0.0382
  C  C210  1  0.027100  0.717490  0.282510  1.0  -0.0382
  C  C211  1  0.527100  0.217490  0.282510  1.0  -0.0382
  C  C212  1  0.527100  0.717490  0.782510  1.0  -0.0382
  C  C213  1  0.027100  0.782510  0.217490  1.0  -0.0387
  C  C214  1  0.027100  0.282510  0.717490  1.0  -0.0387
  C  C215  1  0.527100  0.782510  0.717490  1.0  -0.0387
  C  C216  1  0.527100  0.282510  0.217490  1.0  -0.0387
  C  C217  1  0.972900  0.217490  0.217490  1.0  -0.0375
  C  C218  1  0.972900  0.717490  0.717490  1.0  -0.0375
  C  C219  1  0.472900  0.217490  0.717490  1.0  -0.0375
  C  C220  1  0.472900  0.717490  0.217490  1.0  -0.0375
  C  C221  1  0.972900  0.782510  0.782510  1.0  -0.0386
  C  C222  1  0.972900  0.282510  0.282510  1.0  -0.0386
  C  C223  1  0.472900  0.782510  0.282510  1.0  -0.0386
  C  C224  1  0.472900  0.282510  0.782510  1.0  -0.0386
  C  C225  1  0.250000  0.250000  0.110800  1.0  0.717
  C  C226  1  0.250000  0.250000  0.053200  1.0  -0.0693
  C  C227  1  0.250000  0.750000  0.610800  1.0  0.717
  C  C228  1  0.250000  0.750000  0.553200  1.0  -0.0693
  C  C229  1  0.750000  0.750000  0.110800  1.0  0.717
  C  C230  1  0.750000  0.750000  0.053200  1.0  -0.0693
  C  C231  1  0.750000  0.250000  0.610800  1.0  0.717
  C  C232  1  0.750000  0.250000  0.553200  1.0  -0.0693
  C  C233  1  0.750000  0.250000  0.889200  1.0  0.716
  C  C234  1  0.750000  0.250000  0.946800  1.0  -0.0685
  C  C235  1  0.750000  0.750000  0.389200  1.0  0.716
  C  C236  1  0.750000  0.750000  0.446800  1.0  -0.0685
  C  C237  1  0.250000  0.250000  0.389200  1.0  0.716
  C  C238  1  0.250000  0.250000  0.446800  1.0  -0.0685
  C  C239  1  0.250000  0.750000  0.889200  1.0  0.716
  C  C240  1  0.250000  0.750000  0.946800  1.0  -0.0685
  C  C241  1  0.110800  0.250000  0.250000  1.0  0.7104
  C  C242  1  0.053200  0.250000  0.250000  1.0  -0.0686
  C  C243  1  0.610800  0.250000  0.750000  1.0  0.7104
  C  C244  1  0.553200  0.250000  0.750000  1.0  -0.0686
  C  C245  1  0.110800  0.750000  0.750000  1.0  0.7104
  C  C246  1  0.053200  0.750000  0.750000  1.0  -0.0686
  C  C247  1  0.610800  0.750000  0.250000  1.0  0.7104
  C  C248  1  0.553200  0.750000  0.250000  1.0  -0.0686
  C  C249  1  0.889200  0.750000  0.250000  1.0  0.7129
  C  C250  1  0.946800  0.750000  0.250000  1.0  -0.0694
  C  C251  1  0.389200  0.750000  0.750000  1.0  0.7129
  C  C252  1  0.446800  0.750000  0.750000  1.0  -0.0694
  C  C253  1  0.389200  0.250000  0.250000  1.0  0.7129
  C  C254  1  0.446800  0.250000  0.250000  1.0  -0.0694
  C  C255  1  0.889200  0.250000  0.750000  1.0  0.7129
  C  C256  1  0.946800  0.250000  0.750000  1.0  -0.0694
  C  C257  1  0.250000  0.110800  0.250000  1.0  0.7102
  C  C258  1  0.250000  0.053200  0.250000  1.0  -0.0676
  C  C259  1  0.250000  0.610800  0.750000  1.0  0.7102
  C  C260  1  0.250000  0.553200  0.750000  1.0  -0.0676
  C  C261  1  0.750000  0.110800  0.750000  1.0  0.7102
  C  C262  1  0.750000  0.053200  0.750000  1.0  -0.0676
  C  C263  1  0.750000  0.610800  0.250000  1.0  0.7102
  C  C264  1  0.750000  0.553200  0.250000  1.0  -0.0676
  C  C265  1  0.250000  0.889200  0.750000  1.0  0.7098
  C  C266  1  0.250000  0.946800  0.750000  1.0  -0.0692
  C  C267  1  0.250000  0.389200  0.250000  1.0  0.7098
  C  C268  1  0.250000  0.446800  0.250000  1.0  -0.0692
  C  C269  1  0.750000  0.889200  0.250000  1.0  0.7098
  C  C270  1  0.750000  0.946800  0.250000  1.0  -0.0692
  C  C271  1  0.750000  0.389200  0.750000  1.0  0.7098
  C  C272  1  0.750000  0.446800  0.750000  1.0  -0.0692
  C  C273  1  0.250000  0.250000  0.889200  1.0  0.716
  C  C274  1  0.250000  0.250000  0.946800  1.0  -0.0685
  C  C275  1  0.250000  0.750000  0.389200  1.0  0.716
  C  C276  1  0.250000  0.750000  0.446800  1.0  -0.0685
  C  C277  1  0.750000  0.750000  0.889200  1.0  0.716
  C  C278  1  0.750000  0.750000  0.946800  1.0  -0.0685
  C  C279  1  0.750000  0.250000  0.389200  1.0  0.716
  C  C280  1  0.750000  0.250000  0.446800  1.0  -0.0685
  C  C281  1  0.250000  0.750000  0.110800  1.0  0.717
  C  C282  1  0.250000  0.750000  0.053200  1.0  -0.0693
  C  C283  1  0.250000  0.250000  0.610800  1.0  0.717
  C  C284  1  0.250000  0.250000  0.553200  1.0  -0.0693
  C  C285  1  0.750000  0.250000  0.110800  1.0  0.717
  C  C286  1  0.750000  0.250000  0.053200  1.0  -0.0693
  C  C287  1  0.750000  0.750000  0.610800  1.0  0.717
  C  C288  1  0.750000  0.750000  0.553200  1.0  -0.0693
  C  C289  1  0.250000  0.110800  0.750000  1.0  0.7102
  C  C290  1  0.250000  0.053200  0.750000  1.0  -0.0676
  C  C291  1  0.250000  0.610800  0.250000  1.0  0.7102
  C  C292  1  0.250000  0.553200  0.250000  1.0  -0.0676
  C  C293  1  0.750000  0.110800  0.250000  1.0  0.7102
  C  C294  1  0.750000  0.053200  0.250000  1.0  -0.0676
  C  C295  1  0.750000  0.610800  0.750000  1.0  0.7102
  C  C296  1  0.750000  0.553200  0.750000  1.0  -0.0676
  C  C297  1  0.750000  0.889200  0.750000  1.0  0.7098
  C  C298  1  0.750000  0.946800  0.750000  1.0  -0.0692
  C  C299  1  0.750000  0.389200  0.250000  1.0  0.7098
  C  C300  1  0.750000  0.446800  0.250000  1.0  -0.0692
  C  C301  1  0.250000  0.889200  0.250000  1.0  0.7098
  C  C302  1  0.250000  0.946800  0.250000  1.0  -0.0692
  C  C303  1  0.250000  0.389200  0.750000  1.0  0.7098
  C  C304  1  0.250000  0.446800  0.750000  1.0  -0.0692
  C  C305  1  0.110800  0.250000  0.750000  1.0  0.7104
  C  C306  1  0.053200  0.250000  0.750000  1.0  -0.0686
  C  C307  1  0.610800  0.250000  0.250000  1.0  0.7104
  C  C308  1  0.553200  0.250000  0.250000  1.0  -0.0686
  C  C309  1  0.110800  0.750000  0.250000  1.0  0.7104
  C  C310  1  0.053200  0.750000  0.250000  1.0  -0.0686
  C  C311  1  0.610800  0.750000  0.750000  1.0  0.7104
  C  C312  1  0.553200  0.750000  0.750000  1.0  -0.0686
  C  C313  1  0.889200  0.250000  0.250000  1.0  0.7129
  C  C314  1  0.946800  0.250000  0.250000  1.0  -0.0694
  C  C315  1  0.389200  0.250000  0.750000  1.0  0.7129
  C  C316  1  0.446800  0.250000  0.750000  1.0  -0.0694
  C  C317  1  0.889200  0.750000  0.750000  1.0  0.7129
  C  C318  1  0.946800  0.750000  0.750000  1.0  -0.0694
  C  C319  1  0.389200  0.750000  0.250000  1.0  0.7129
  C  C320  1  0.446800  0.750000  0.250000  1.0  -0.0694
  O  O321  1  0.250000  0.250000  0.250000  1.0  -1.2552
  O  O322  1  0.750000  0.750000  0.250000  1.0  -1.2552
  O  O323  1  0.750000  0.250000  0.750000  1.0  -1.2552
  O  O324  1  0.250000  0.750000  0.750000  1.0  -1.2552
  O  O325  1  0.250000  0.250000  0.750000  1.0  -1.2552
  O  O326  1  0.750000  0.750000  0.750000  1.0  -1.2552
  O  O327  1  0.750000  0.250000  0.250000  1.0  -1.2552
  O  O328  1  0.250000  0.750000  0.250000  1.0  -1.2552
  O  O329  1  0.218930  0.218930  0.133380  1.0  -0.5812
  O  O330  1  0.218930  0.718930  0.633380  1.0  -0.5812
  O  O331  1  0.718930  0.218930  0.633380  1.0  -0.5812
  O  O332  1  0.718930  0.718930  0.133380  1.0  -0.5812
  O  O333  1  0.781070  0.781070  0.133380  1.0  -0.5806
  O  O334  1  0.781070  0.281070  0.633380  1.0  -0.5806
  O  O335  1  0.281070  0.781070  0.633380  1.0  -0.5806
  O  O336  1  0.281070  0.281070  0.133380  1.0  -0.5806
  O  O337  1  0.781070  0.218930  0.866620  1.0  -0.5805
  O  O338  1  0.781070  0.718930  0.366620  1.0  -0.5805
  O  O339  1  0.281070  0.218930  0.366620  1.0  -0.5805
  O  O340  1  0.281070  0.718930  0.866620  1.0  -0.5805
  O  O341  1  0.218930  0.781070  0.866620  1.0  -0.5804
  O  O342  1  0.218930  0.281070  0.366620  1.0  -0.5804
  O  O343  1  0.718930  0.781070  0.366620  1.0  -0.5804
  O  O344  1  0.718930  0.281070  0.866620  1.0  -0.5804
  O  O345  1  0.133380  0.218930  0.218930  1.0  -0.5825
  O  O346  1  0.133380  0.718930  0.718930  1.0  -0.5825
  O  O347  1  0.633380  0.218930  0.718930  1.0  -0.5825
  O  O348  1  0.633380  0.718930  0.218930  1.0  -0.5825
  O  O349  1  0.133380  0.781070  0.781070  1.0  -0.5821
  O  O350  1  0.133380  0.281070  0.281070  1.0  -0.5821
  O  O351  1  0.633380  0.781070  0.281070  1.0  -0.5821
  O  O352  1  0.633380  0.281070  0.781070  1.0  -0.5821
  O  O353  1  0.866620  0.781070  0.218930  1.0  -0.5815
  O  O354  1  0.866620  0.281070  0.718930  1.0  -0.5815
  O  O355  1  0.366620  0.781070  0.718930  1.0  -0.5815
  O  O356  1  0.366620  0.281070  0.218930  1.0  -0.5815
  O  O357  1  0.866620  0.218930  0.781070  1.0  -0.5823
  O  O358  1  0.866620  0.718930  0.281070  1.0  -0.5823
  O  O359  1  0.366620  0.218930  0.281070  1.0  -0.5823
  O  O360  1  0.366620  0.718930  0.781070  1.0  -0.5823
  O  O361  1  0.218930  0.133380  0.218930  1.0  -0.5801
  O  O362  1  0.218930  0.633380  0.718930  1.0  -0.5801
  O  O363  1  0.718930  0.133380  0.718930  1.0  -0.5801
  O  O364  1  0.718930  0.633380  0.218930  1.0  -0.5801
  O  O365  1  0.781070  0.133380  0.781070  1.0  -0.5798
  O  O366  1  0.781070  0.633380  0.281070  1.0  -0.5798
  O  O367  1  0.281070  0.133380  0.281070  1.0  -0.5798
  O  O368  1  0.281070  0.633380  0.781070  1.0  -0.5798
  O  O369  1  0.218930  0.866620  0.781070  1.0  -0.5807
  O  O370  1  0.218930  0.366620  0.281070  1.0  -0.5807
  O  O371  1  0.718930  0.866620  0.281070  1.0  -0.5807
  O  O372  1  0.718930  0.366620  0.781070  1.0  -0.5807
  O  O373  1  0.781070  0.866620  0.218930  1.0  -0.58
  O  O374  1  0.781070  0.366620  0.718930  1.0  -0.58
  O  O375  1  0.281070  0.866620  0.718930  1.0  -0.58
  O  O376  1  0.281070  0.366620  0.218930  1.0  -0.58
  O  O377  1  0.218930  0.218930  0.866620  1.0  -0.5807
  O  O378  1  0.218930  0.718930  0.366620  1.0  -0.5807
  O  O379  1  0.718930  0.218930  0.366620  1.0  -0.5807
  O  O380  1  0.718930  0.718930  0.866620  1.0  -0.5807
  O  O381  1  0.781070  0.781070  0.866620  1.0  -0.5803
  O  O382  1  0.781070  0.281070  0.366620  1.0  -0.5803
  O  O383  1  0.281070  0.781070  0.366620  1.0  -0.5803
  O  O384  1  0.281070  0.281070  0.866620  1.0  -0.5803
  O  O385  1  0.218930  0.781070  0.133380  1.0  -0.5806
  O  O386  1  0.218930  0.281070  0.633380  1.0  -0.5806
  O  O387  1  0.718930  0.781070  0.633380  1.0  -0.5806
  O  O388  1  0.718930  0.281070  0.133380  1.0  -0.5806
  O  O389  1  0.781070  0.218930  0.133380  1.0  -0.581
  O  O390  1  0.781070  0.718930  0.633380  1.0  -0.581
  O  O391  1  0.281070  0.218930  0.633380  1.0  -0.581
  O  O392  1  0.281070  0.718930  0.133380  1.0  -0.581
  O  O393  1  0.218930  0.133380  0.781070  1.0  -0.5802
  O  O394  1  0.218930  0.633380  0.281070  1.0  -0.5802
  O  O395  1  0.718930  0.133380  0.281070  1.0  -0.5802
  O  O396  1  0.718930  0.633380  0.781070  1.0  -0.5802
  O  O397  1  0.781070  0.133380  0.218930  1.0  -0.5802
  O  O398  1  0.781070  0.633380  0.718930  1.0  -0.5802
  O  O399  1  0.281070  0.133380  0.718930  1.0  -0.5802
  O  O400  1  0.281070  0.633380  0.218930  1.0  -0.5802
  O  O401  1  0.781070  0.866620  0.781070  1.0  -0.5803
  O  O402  1  0.781070  0.366620  0.281070  1.0  -0.5803
  O  O403  1  0.281070  0.866620  0.281070  1.0  -0.5803
  O  O404  1  0.281070  0.366620  0.781070  1.0  -0.5803
  O  O405  1  0.218930  0.866620  0.218930  1.0  -0.5799
  O  O406  1  0.218930  0.366620  0.718930  1.0  -0.5799
  O  O407  1  0.718930  0.866620  0.718930  1.0  -0.5799
  O  O408  1  0.718930  0.366620  0.218930  1.0  -0.5799
  O  O409  1  0.133380  0.218930  0.781070  1.0  -0.583
  O  O410  1  0.133380  0.718930  0.281070  1.0  -0.583
  O  O411  1  0.633380  0.218930  0.281070  1.0  -0.583
  O  O412  1  0.633380  0.718930  0.781070  1.0  -0.583
  O  O413  1  0.133380  0.781070  0.218930  1.0  -0.5821
  O  O414  1  0.133380  0.281070  0.718930  1.0  -0.5821
  O  O415  1  0.633380  0.781070  0.718930  1.0  -0.5821
  O  O416  1  0.633380  0.281070  0.218930  1.0  -0.5821
  O  O417  1  0.866620  0.218930  0.218930  1.0  -0.5821
  O  O418  1  0.866620  0.718930  0.718930  1.0  -0.5821
  O  O419  1  0.366620  0.218930  0.718930  1.0  -0.5821
  O  O420  1  0.366620  0.718930  0.218930  1.0  -0.5821
  O  O421  1  0.866620  0.781070  0.781070  1.0  -0.5814
  O  O422  1  0.866620  0.281070  0.281070  1.0  -0.5814
  O  O423  1  0.366620  0.781070  0.281070  1.0  -0.5814
  O  O424  1  0.366620  0.281070  0.781070  1.0  -0.5814
