# generated using pymatgen
data_Li4H19C30(NO4)2
_symmetry_space_group_name_H-M   'P 1'
_cell_length_a   12.96000000
_cell_length_b   21.18930000
_cell_length_c   21.18930000
_cell_angle_alpha   84.40150000
_cell_angle_beta   72.19290000
_cell_angle_gamma   72.19280000
_symmetry_Int_Tables_number   1
_chemical_formula_structural   Li4H19C30(NO4)2
_chemical_formula_sum   'Li16 H76 C120 N8 O32'
_cell_volume   5274.61852353
_cell_formula_units_Z   4
loop_
 _symmetry_equiv_pos_site_id
 _symmetry_equiv_pos_as_xyz
  1  'x, y, z'
loop_
 _atom_site_type_symbol
 _atom_site_label
 _atom_site_symmetry_multiplicity
 _atom_site_fract_x
 _atom_site_fract_y
 _atom_site_fract_z
 _atom_site_occupancy
 _atom_site_charge
  Li  Li1  1  0.953100  0.514150  0.048850  1.0  0.8972
  Li  Li2  1  0.193170  0.954040  0.522420  1.0  0.8919
  Li  Li3  1  0.797960  0.006370  0.563310  1.0  0.8904
  Li  Li4  1  0.946900  0.304900  0.978700  1.0  0.8959
  Li  Li5  1  0.516100  0.485850  0.951150  1.0  0.8951
  Li  Li6  1  0.669630  0.045960  0.477580  1.0  0.8894
  Li  Li7  1  0.367640  0.993630  0.436690  1.0  0.8916
  Li  Li8  1  0.230500  0.695100  0.021300  1.0  0.903
  Li  Li9  1  0.016100  0.951150  0.485850  1.0  0.8933
  Li  Li10  1  0.169630  0.477580  0.045960  1.0  0.8935
  Li  Li11  1  0.867640  0.436690  0.993630  1.0  0.8918
  Li  Li12  1  0.730500  0.021300  0.695100  1.0  0.8765
  Li  Li13  1  0.453100  0.048850  0.514150  1.0  0.8946
  Li  Li14  1  0.693170  0.522420  0.954040  1.0  0.8909
  Li  Li15  1  0.297960  0.563310  0.006370  1.0  0.8912
  Li  Li16  1  0.446900  0.978700  0.304900  1.0  0.8622
  H  H17  1  0.080700  0.572000  0.940800  1.0  0.0877
  H  H18  1  0.173200  0.652100  0.894900  1.0  0.1133
  H  H19  1  0.955700  0.722400  0.784400  1.0  0.0995
  H  H20  1  0.866000  0.642600  0.830200  1.0  0.0943
  H  H21  1  0.861600  0.915600  0.750200  1.0  0.1074
  H  H22  1  0.924700  0.840400  0.828800  1.0  0.1211
  H  H23  1  0.233100  0.770000  0.692400  1.0  0.1277
  H  H24  1  0.171000  0.848000  0.616200  1.0  0.0958
  H  H25  1  0.267200  0.773400  0.790200  1.0  0.1054
  H  H26  1  0.237300  0.740800  0.862400  1.0  0.106
  H  H27  1  0.283100  0.695400  0.797800  1.0  0.1031
  H  H28  1  0.012900  0.070700  0.558500  1.0  0.0875
  H  H29  1  0.840600  0.127000  0.632400  1.0  0.1092
  H  H30  1  0.989100  0.254900  0.671700  1.0  0.1022
  H  H31  1  0.162700  0.196200  0.600400  1.0  0.1041
  H  H32  1  0.906400  0.272300  0.867700  1.0  0.1132
  H  H33  1  0.914800  0.208800  0.781400  1.0  0.0992
  H  H34  1  0.644500  0.344300  0.747100  1.0  0.1075
  H  H35  1  0.629200  0.404900  0.837100  1.0  0.0911
  H  H36  1  0.593500  0.428000  0.059200  1.0  0.088
  H  H37  1  0.720200  0.347900  0.105100  1.0  0.1136
  H  H38  1  0.462500  0.277600  0.215600  1.0  0.099
  H  H39  1  0.338800  0.357400  0.169800  1.0  0.0968
  H  H40  1  0.527400  0.084400  0.249800  1.0  0.1061
  H  H41  1  0.593900  0.159600  0.171200  1.0  0.1217
  H  H42  1  0.695500  0.230000  0.307600  1.0  0.1279
  H  H43  1  0.635200  0.152000  0.383800  1.0  0.096
  H  H44  1  0.830800  0.226600  0.209800  1.0  0.1044
  H  H45  1  0.840500  0.259200  0.137600  1.0  0.1063
  H  H46  1  0.776300  0.304600  0.202200  1.0  0.104
  H  H47  1  0.642100  0.929300  0.441500  1.0  0.0877
  H  H48  1  0.600000  0.873000  0.367600  1.0  0.1079
  H  H49  1  0.915700  0.745100  0.328300  1.0  0.1034
  H  H50  1  0.959300  0.803800  0.399600  1.0  0.1049
  H  H51  1  0.046400  0.727700  0.132300  1.0  0.1126
  H  H52  1  0.905000  0.791200  0.218600  1.0  0.0999
  H  H53  1  0.735900  0.655700  0.252900  1.0  0.1068
  H  H54  1  0.871200  0.595100  0.162900  1.0  0.0899
  H  H55  1  0.093500  0.059200  0.428000  1.0  0.088
  H  H56  1  0.220200  0.105100  0.347900  1.0  0.1133
  H  H57  1  0.962500  0.215600  0.277600  1.0  0.0982
  H  H58  1  0.838800  0.169800  0.357400  1.0  0.0935
  H  H59  1  0.027400  0.249800  0.084400  1.0  0.1052
  H  H60  1  0.093900  0.171200  0.159600  1.0  0.1215
  H  H61  1  0.195500  0.307600  0.230000  1.0  0.1289
  H  H62  1  0.135200  0.383800  0.152000  1.0  0.0958
  H  H63  1  0.330800  0.209800  0.226600  1.0  0.1035
  H  H64  1  0.340500  0.137600  0.259200  1.0  0.1077
  H  H65  1  0.276300  0.202200  0.304600  1.0  0.1043
  H  H66  1  0.142100  0.441500  0.929300  1.0  0.0883
  H  H67  1  0.100000  0.367600  0.873000  1.0  0.1101
  H  H68  1  0.415700  0.328300  0.745100  1.0  0.1027
  H  H69  1  0.459300  0.399600  0.803800  1.0  0.105
  H  H70  1  0.546400  0.132300  0.727700  1.0  0.1133
  H  H71  1  0.405000  0.218600  0.791200  1.0  0.0982
  H  H72  1  0.235900  0.252900  0.655700  1.0  0.1077
  H  H73  1  0.371200  0.162900  0.595100  1.0  0.0904
  H  H74  1  0.580700  0.940800  0.572000  1.0  0.0888
  H  H75  1  0.673200  0.894900  0.652100  1.0  0.1133
  H  H76  1  0.455700  0.784400  0.722400  1.0  0.0991
  H  H77  1  0.366000  0.830200  0.642600  1.0  0.0942
  H  H78  1  0.361600  0.750200  0.915600  1.0  0.1057
  H  H79  1  0.424700  0.828800  0.840400  1.0  0.1218
  H  H80  1  0.733100  0.692400  0.770000  1.0  0.1275
  H  H81  1  0.671000  0.616200  0.848000  1.0  0.0966
  H  H82  1  0.767200  0.790200  0.773400  1.0  0.1037
  H  H83  1  0.737300  0.862400  0.740800  1.0  0.1078
  H  H84  1  0.783100  0.797800  0.695400  1.0  0.1047
  H  H85  1  0.512900  0.558500  0.070700  1.0  0.0887
  H  H86  1  0.340600  0.632400  0.127000  1.0  0.1082
  H  H87  1  0.489100  0.671700  0.254900  1.0  0.1026
  H  H88  1  0.662700  0.600400  0.196200  1.0  0.1057
  H  H89  1  0.406400  0.867700  0.272300  1.0  0.1129
  H  H90  1  0.414800  0.781400  0.208800  1.0  0.0979
  H  H91  1  0.144500  0.747100  0.344300  1.0  0.1074
  H  H92  1  0.129200  0.837100  0.404900  1.0  0.0892
  C  C93  1  0.906380  0.546730  0.918170  1.0  0.6945
  C  C94  1  0.965530  0.598100  0.888880  1.0  -0.1111
  C  C95  1  0.055300  0.602510  0.908930  1.0  -0.0292
  C  C96  1  0.108860  0.651260  0.882800  1.0  -0.1795
  C  C97  1  0.067970  0.698980  0.838660  1.0  0.1608
  C  C98  1  0.980170  0.692970  0.817250  1.0  -0.1
  C  C99  1  0.928620  0.644450  0.843490  1.0  -0.0393
  C  C100  1  0.971120  0.935320  0.623200  1.0  0.6744
  C  C101  1  0.011310  0.889420  0.675280  1.0  -0.127
  C  C102  1  0.936740  0.886630  0.738890  1.0  -0.0828
  C  C103  1  0.973720  0.841190  0.785170  1.0  -0.1926
  C  C104  1  0.082550  0.796870  0.767630  1.0  0.1446
  C  C105  1  0.158390  0.799330  0.704090  1.0  -0.287
  C  C106  1  0.120790  0.845800  0.659220  1.0  -0.0268
  C  C107  1  0.236500  0.739110  0.816490  1.0  -0.1779
  C  C108  1  0.217310  0.088450  0.529510  1.0  0.6859
  C  C109  1  0.104770  0.127130  0.573010  1.0  -0.1285
  C  C110  1  0.008600  0.107750  0.582170  1.0  -0.0421
  C  C111  1  0.905390  0.141840  0.625580  1.0  -0.1387
  C  C112  1  0.896950  0.197250  0.658850  1.0  0.1645
  C  C113  1  0.993720  0.217080  0.649080  1.0  -0.2115
  C  C114  1  0.097250  0.182200  0.606500  1.0  -0.0376
  C  C115  1  0.762210  0.390530  0.913590  1.0  0.6965
  C  C116  1  0.767080  0.345900  0.860840  1.0  -0.1251
  C  C117  1  0.851990  0.287370  0.843850  1.0  -0.1151
  C  C118  1  0.857680  0.250120  0.791320  1.0  -0.1901
  C  C119  1  0.784310  0.270690  0.753290  1.0  0.2505
  C  C120  1  0.698240  0.329060  0.771260  1.0  -0.1553
  C  C121  1  0.689940  0.365410  0.824910  1.0  -0.0082
  C  C122  1  0.689300  0.244800  0.678400  1.0  -0.0496
  C  C123  1  0.371280  0.453270  0.081830  1.0  0.6944
  C  C124  1  0.452510  0.401900  0.111120  1.0  -0.1105
  C  C125  1  0.566740  0.397490  0.091070  1.0  -0.0297
  C  C126  1  0.642920  0.348740  0.117200  1.0  -0.1802
  C  C127  1  0.605610  0.301020  0.161340  1.0  0.1612
  C  C128  1  0.490390  0.307030  0.182750  1.0  -0.1006
  C  C129  1  0.416560  0.355550  0.156510  1.0  -0.039
  C  C130  1  0.529640  0.064680  0.376800  1.0  0.6734
  C  C131  1  0.576010  0.110580  0.324720  1.0  -0.129
  C  C132  1  0.562260  0.113370  0.261110  1.0  -0.0841
  C  C133  1  0.600080  0.158810  0.214830  1.0  -0.1915
  C  C134  1  0.647050  0.203130  0.232370  1.0  0.1451
  C  C135  1  0.661810  0.200670  0.295910  1.0  -0.2832
  C  C136  1  0.625810  0.154200  0.340780  1.0  -0.0264
  C  C137  1  0.792100  0.260890  0.183510  1.0  -0.1785
  C  C138  1  0.835270  0.911550  0.470490  1.0  0.6887
  C  C139  1  0.804910  0.872870  0.426990  1.0  -0.1311
  C  C140  1  0.698520  0.892250  0.417830  1.0  -0.0419
  C  C141  1  0.672810  0.858160  0.374420  1.0  -0.1376
  C  C142  1  0.753050  0.802750  0.341150  1.0  0.1646
  C  C143  1  0.859880  0.782920  0.350920  1.0  -0.2094
  C  C144  1  0.885950  0.817800  0.393500  1.0  -0.0399
  C  C145  1  0.066330  0.609470  0.086410  1.0  0.6956
  C  C146  1  0.973820  0.654100  0.139160  1.0  -0.1268
  C  C147  1  0.983210  0.712630  0.156150  1.0  -0.1179
  C  C148  1  0.899120  0.749880  0.208680  1.0  -0.1884
  C  C149  1  0.808290  0.729310  0.246710  1.0  0.2511
  C  C150  1  0.798560  0.670940  0.228740  1.0  -0.1562
  C  C151  1  0.880260  0.634590  0.175090  1.0  -0.0098
  C  C152  1  0.612500  0.755200  0.321600  1.0  -0.0487
  C  C153  1  0.871280  0.081830  0.453270  1.0  0.6925
  C  C154  1  0.952510  0.111120  0.401900  1.0  -0.1138
  C  C155  1  0.066740  0.091070  0.397490  1.0  -0.0276
  C  C156  1  0.142920  0.117200  0.348740  1.0  -0.1798
  C  C157  1  0.105610  0.161340  0.301020  1.0  0.1607
  C  C158  1  0.990390  0.182750  0.307030  1.0  -0.1006
  C  C159  1  0.916560  0.156510  0.355550  1.0  -0.0387
  C  C160  1  0.029640  0.376800  0.064680  1.0  0.6758
  C  C161  1  0.076010  0.324720  0.110580  1.0  -0.1298
  C  C162  1  0.062260  0.261110  0.113370  1.0  -0.0806
  C  C163  1  0.100080  0.214830  0.158810  1.0  -0.1934
  C  C164  1  0.147050  0.232370  0.203130  1.0  0.1449
  C  C165  1  0.161810  0.295910  0.200670  1.0  -0.2876
  C  C166  1  0.125810  0.340780  0.154200  1.0  -0.0251
  C  C167  1  0.292100  0.183510  0.260890  1.0  -0.178
  C  C168  1  0.335270  0.470490  0.911550  1.0  0.6882
  C  C169  1  0.304910  0.426990  0.872870  1.0  -0.1284
  C  C170  1  0.198520  0.417830  0.892250  1.0  -0.0407
  C  C171  1  0.172810  0.374420  0.858160  1.0  -0.1375
  C  C172  1  0.253050  0.341150  0.802750  1.0  0.165
  C  C173  1  0.359880  0.350920  0.782920  1.0  -0.2088
  C  C174  1  0.385950  0.393500  0.817800  1.0  -0.0365
  C  C175  1  0.566330  0.086410  0.609470  1.0  0.6955
  C  C176  1  0.473820  0.139160  0.654100  1.0  -0.1236
  C  C177  1  0.483210  0.156150  0.712630  1.0  -0.1174
  C  C178  1  0.399120  0.208680  0.749880  1.0  -0.1864
  C  C179  1  0.308290  0.246710  0.729310  1.0  0.2503
  C  C180  1  0.298560  0.228740  0.670940  1.0  -0.1559
  C  C181  1  0.380260  0.175090  0.634590  1.0  -0.0157
  C  C182  1  0.112500  0.321600  0.755200  1.0  -0.047
  C  C183  1  0.406380  0.918170  0.546730  1.0  0.6949
  C  C184  1  0.465530  0.888880  0.598100  1.0  -0.1142
  C  C185  1  0.555300  0.908930  0.602510  1.0  -0.0292
  C  C186  1  0.608860  0.882800  0.651260  1.0  -0.1814
  C  C187  1  0.567970  0.838660  0.698980  1.0  0.161
  C  C188  1  0.480170  0.817250  0.692970  1.0  -0.098
  C  C189  1  0.428620  0.843490  0.644450  1.0  -0.0385
  C  C190  1  0.471120  0.623200  0.935320  1.0  0.6752
  C  C191  1  0.511310  0.675280  0.889420  1.0  -0.1292
  C  C192  1  0.436740  0.738890  0.886630  1.0  -0.0788
  C  C193  1  0.473720  0.785170  0.841190  1.0  -0.1948
  C  C194  1  0.582550  0.767630  0.796870  1.0  0.1443
  C  C195  1  0.658390  0.704090  0.799330  1.0  -0.2881
  C  C196  1  0.620790  0.659220  0.845800  1.0  -0.0261
  C  C197  1  0.736500  0.816490  0.739110  1.0  -0.1788
  C  C198  1  0.717310  0.529510  0.088450  1.0  0.6856
  C  C199  1  0.604770  0.573010  0.127130  1.0  -0.1238
  C  C200  1  0.508600  0.582170  0.107750  1.0  -0.0414
  C  C201  1  0.405390  0.625580  0.141840  1.0  -0.1373
  C  C202  1  0.396950  0.658850  0.197250  1.0  0.1648
  C  C203  1  0.493720  0.649080  0.217080  1.0  -0.2073
  C  C204  1  0.597250  0.606500  0.182200  1.0  -0.0393
  C  C205  1  0.262210  0.913590  0.390530  1.0  0.6964
  C  C206  1  0.267080  0.860840  0.345900  1.0  -0.1251
  C  C207  1  0.351990  0.843850  0.287370  1.0  -0.1157
  C  C208  1  0.357680  0.791320  0.250120  1.0  -0.1862
  C  C209  1  0.284310  0.753290  0.270690  1.0  0.2505
  C  C210  1  0.198240  0.771260  0.329060  1.0  -0.1575
  C  C211  1  0.189940  0.824910  0.365410  1.0  -0.011
  C  C212  1  0.189300  0.678400  0.244800  1.0  -0.0501
  N  N213  1  0.118780  0.750470  0.815010  1.0  -0.158
  N  N214  1  0.791880  0.233920  0.700520  1.0  -0.2094
  N  N215  1  0.684260  0.249530  0.184990  1.0  -0.1572
  N  N216  1  0.726320  0.766080  0.299480  1.0  -0.2091
  N  N217  1  0.184260  0.184990  0.249530  1.0  -0.1562
  N  N218  1  0.226320  0.299480  0.766080  1.0  -0.2083
  N  N219  1  0.618780  0.815010  0.750470  1.0  -0.1571
  N  N220  1  0.291880  0.700520  0.233920  1.0  -0.2067
  O  O221  1  0.941650  0.507390  0.961230  1.0  -0.8619
  O  O222  1  0.824010  0.545350  0.899310  1.0  -0.6044
  O  O223  1  0.046280  0.941870  0.571010  1.0  -0.8354
  O  O224  1  0.866760  0.963090  0.633850  1.0  -0.7683
  O  O225  1  0.219540  0.039110  0.499350  1.0  -0.871
  O  O226  1  0.302450  0.107260  0.525140  1.0  -0.6099
  O  O227  1  0.843030  0.376790  0.938350  1.0  -0.7072
  O  O228  1  0.676970  0.440140  0.929060  1.0  -0.8315
  O  O229  1  0.410270  0.492610  0.038770  1.0  -0.8634
  O  O230  1  0.268670  0.454650  0.100690  1.0  -0.6049
  O  O231  1  0.559160  0.058130  0.428990  1.0  -0.8374
  O  O232  1  0.463700  0.036910  0.366150  1.0  -0.7691
  O  O233  1  0.758000  0.960890  0.500650  1.0  -0.8718
  O  O234  1  0.934850  0.892740  0.474860  1.0  -0.6097
  O  O235  1  0.158170  0.623210  0.061650  1.0  -0.7046
  O  O236  1  0.046170  0.559860  0.070940  1.0  -0.8323
  O  O237  1  0.910270  0.038770  0.492610  1.0  -0.8627
  O  O238  1  0.768670  0.100690  0.454650  1.0  -0.6056
  O  O239  1  0.059160  0.428990  0.058130  1.0  -0.8345
  O  O240  1  0.963700  0.366150  0.036910  1.0  -0.7681
  O  O241  1  0.258000  0.500650  0.960890  1.0  -0.8736
  O  O242  1  0.434850  0.474860  0.892740  1.0  -0.61
  O  O243  1  0.658170  0.061650  0.623210  1.0  -0.7054
  O  O244  1  0.546170  0.070940  0.559860  1.0  -0.8313
  O  O245  1  0.441650  0.961230  0.507390  1.0  -0.8627
  O  O246  1  0.324010  0.899310  0.545350  1.0  -0.6039
  O  O247  1  0.546280  0.571010  0.941870  1.0  -0.8353
  O  O248  1  0.366760  0.633850  0.963090  1.0  -0.7663
  O  O249  1  0.719540  0.499350  0.039110  1.0  -0.8719
  O  O250  1  0.802450  0.525140  0.107260  1.0  -0.6106
  O  O251  1  0.343030  0.938350  0.376790  1.0  -0.7063
  O  O252  1  0.176970  0.929060  0.440140  1.0  -0.8308
