# generated using pymatgen
data_Li2H8C15NO4
_symmetry_space_group_name_H-M   'P 1'
_cell_length_a   12.91500000
_cell_length_b   21.26420000
_cell_length_c   21.26420000
_cell_angle_alpha   84.67580000
_cell_angle_beta   72.32130000
_cell_angle_gamma   72.32130000
_symmetry_Int_Tables_number   1
_chemical_formula_structural   Li2H8C15NO4
_chemical_formula_sum   'Li16 H64 C120 N8 O32'
_cell_volume   5301.18082495
_cell_formula_units_Z   8
loop_
 _symmetry_equiv_pos_site_id
 _symmetry_equiv_pos_as_xyz
  1  'x, y, z'
loop_
 _atom_site_type_symbol
 _atom_site_label
 _atom_site_symmetry_multiplicity
 _atom_site_fract_x
 _atom_site_fract_y
 _atom_site_fract_z
 _atom_site_occupancy
 _atom_site_charge
  Li  Li1  1  0.915200  0.004050  0.561750  1.0  0.8535
  Li  Li2  1  0.761950  0.517550  0.049150  1.0  0.8914
  Li  Li3  1  0.587970  0.477830  0.044430  1.0  0.899
  Li  Li4  1  0.050200  0.305900  0.990500  1.0  0.9081
  Li  Li5  1  0.481000  0.995950  0.438250  1.0  0.8538
  Li  Li6  1  0.328650  0.482450  0.950850  1.0  0.8886
  Li  Li7  1  0.110230  0.522170  0.955570  1.0  0.8975
  Li  Li8  1  0.346600  0.694100  0.009500  1.0  0.9108
  Li  Li9  1  0.981000  0.438250  0.995950  1.0  0.8537
  Li  Li10  1  0.828650  0.950850  0.482450  1.0  0.8873
  Li  Li11  1  0.610230  0.955570  0.522170  1.0  0.8982
  Li  Li12  1  0.846600  0.009500  0.694100  1.0  0.8787
  Li  Li13  1  0.415200  0.561750  0.004050  1.0  0.853
  Li  Li14  1  0.261950  0.049150  0.517550  1.0  0.8889
  Li  Li15  1  0.087970  0.044430  0.477830  1.0  0.8971
  Li  Li16  1  0.550200  0.990500  0.305900  1.0  0.8723
  H  H17  1  0.607300  0.389800  0.152800  1.0  0.0994
  H  H18  1  0.541300  0.318800  0.236800  1.0  0.1195
  H  H19  1  0.844300  0.179800  0.172000  1.0  0.1144
  H  H20  1  0.911700  0.251900  0.090300  1.0  0.1154
  H  H21  1  0.691500  0.064600  0.429200  1.0  0.0832
  H  H22  1  0.603200  0.109400  0.349000  1.0  0.1125
  H  H23  1  0.821600  0.220600  0.285000  1.0  0.1028
  H  H24  1  0.912700  0.171400  0.361800  1.0  0.0892
  H  H25  1  0.119100  0.803800  0.396200  1.0  0.1102
  H  H26  1  0.291600  0.749600  0.319400  1.0  0.096
  H  H27  1  0.445000  0.866900  0.372300  1.0  0.1006
  H  H28  1  0.271300  0.928000  0.440000  1.0  0.1
  H  H29  1  0.636200  0.588700  0.170900  1.0  0.1054
  H  H30  1  0.623900  0.652900  0.255900  1.0  0.1043
  H  H31  1  0.368500  0.795000  0.213600  1.0  0.114
  H  H32  1  0.381100  0.731600  0.125400  1.0  0.1061
  H  H33  1  0.149900  0.610200  0.847200  1.0  0.0984
  H  H34  1  0.096900  0.681200  0.763200  1.0  0.1197
  H  H35  1  0.196100  0.820200  0.828000  1.0  0.1134
  H  H36  1  0.253900  0.748100  0.909700  1.0  0.1163
  H  H37  1  0.185300  0.935400  0.570800  1.0  0.0833
  H  H38  1  0.061600  0.890600  0.651000  1.0  0.1122
  H  H39  1  0.327200  0.779400  0.715000  1.0  0.1024
  H  H40  1  0.445900  0.828600  0.638200  1.0  0.0896
  H  H41  1  0.319100  0.196200  0.603800  1.0  0.1099
  H  H42  1  0.360600  0.250400  0.680600  1.0  0.0986
  H  H43  1  0.684200  0.133100  0.627700  1.0  0.0999
  H  H44  1  0.639300  0.072000  0.560000  1.0  0.1011
  H  H45  1  0.395800  0.411300  0.829100  1.0  0.1063
  H  H46  1  0.532700  0.347100  0.744100  1.0  0.1035
  H  H47  1  0.377100  0.205000  0.786400  1.0  0.1135
  H  H48  1  0.238100  0.268400  0.874600  1.0  0.1065
  H  H49  1  0.649900  0.847200  0.610200  1.0  0.0993
  H  H50  1  0.596900  0.763200  0.681200  1.0  0.1198
  H  H51  1  0.696100  0.828000  0.820200  1.0  0.1126
  H  H52  1  0.753900  0.909700  0.748100  1.0  0.1172
  H  H53  1  0.685300  0.570800  0.935400  1.0  0.0831
  H  H54  1  0.561600  0.651000  0.890600  1.0  0.1127
  H  H55  1  0.827200  0.715000  0.779400  1.0  0.1022
  H  H56  1  0.945900  0.638200  0.828600  1.0  0.0898
  H  H57  1  0.819100  0.603800  0.196200  1.0  0.1107
  H  H58  1  0.860600  0.680600  0.250400  1.0  0.0967
  H  H59  1  0.184200  0.627700  0.133100  1.0  0.1013
  H  H60  1  0.139300  0.560000  0.072000  1.0  0.1011
  H  H61  1  0.895800  0.829100  0.411300  1.0  0.1048
  H  H62  1  0.032700  0.744100  0.347100  1.0  0.1042
  H  H63  1  0.877100  0.786400  0.205000  1.0  0.1127
  H  H64  1  0.738100  0.874600  0.268400  1.0  0.1062
  H  H65  1  0.107300  0.152800  0.389800  1.0  0.0982
  H  H66  1  0.041300  0.236800  0.318800  1.0  0.1209
  H  H67  1  0.344300  0.172000  0.179800  1.0  0.1127
  H  H68  1  0.411700  0.090300  0.251900  1.0  0.1165
  H  H69  1  0.191500  0.429200  0.064600  1.0  0.0828
  H  H70  1  0.103200  0.349000  0.109400  1.0  0.1118
  H  H71  1  0.321600  0.285000  0.220600  1.0  0.1037
  H  H72  1  0.412700  0.361800  0.171400  1.0  0.09
  H  H73  1  0.619100  0.396200  0.803800  1.0  0.1098
  H  H74  1  0.791600  0.319400  0.749600  1.0  0.0972
  H  H75  1  0.945000  0.372300  0.866900  1.0  0.0986
  H  H76  1  0.771300  0.440000  0.928000  1.0  0.1018
  H  H77  1  0.136200  0.170900  0.588700  1.0  0.1044
  H  H78  1  0.123900  0.255900  0.652900  1.0  0.1044
  H  H79  1  0.868500  0.213600  0.795000  1.0  0.113
  H  H80  1  0.881100  0.125400  0.731600  1.0  0.1063
  C  C81  1  0.807010  0.379370  0.069210  1.0  0.695
  C  C82  1  0.766470  0.329290  0.116170  1.0  -0.1283
  C  C83  1  0.656700  0.347490  0.157910  1.0  -0.0242
  C  C84  1  0.616200  0.305050  0.207750  1.0  -0.1981
  C  C85  1  0.686800  0.243800  0.213200  1.0  0.2001
  C  C86  1  0.797000  0.223230  0.168770  1.0  -0.1744
  C  C87  1  0.837400  0.265900  0.120100  1.0  -0.0542
  C  C88  1  0.874600  0.081330  0.453670  1.0  0.6744
  C  C89  1  0.813530  0.111730  0.404010  1.0  -0.1135
  C  C90  1  0.719600  0.095540  0.398860  1.0  -0.0396
  C  C91  1  0.665700  0.122640  0.351560  1.0  -0.1374
  C  C92  1  0.703300  0.170020  0.306980  1.0  0.1471
  C  C93  1  0.795800  0.187830  0.313370  1.0  -0.1442
  C  C94  1  0.849100  0.158970  0.359630  1.0  -0.0426
  C  C95  1  0.541400  0.186100  0.264100  1.0  -0.0476
  C  C96  1  0.065080  0.911880  0.467560  1.0  0.6902
  C  C97  1  0.176750  0.872060  0.424440  1.0  -0.1194
  C  C98  1  0.184230  0.818370  0.389770  1.0  -0.0571
  C  C99  1  0.288340  0.784960  0.344960  1.0  -0.135
  C  C100  1  0.385910  0.802890  0.337690  1.0  0.1574
  C  C101  1  0.378170  0.855230  0.375230  1.0  -0.1045
  C  C102  1  0.275300  0.890900  0.416700  1.0  -0.0533
  C  C103  1  0.516240  0.609950  0.085170  1.0  0.7086
  C  C104  1  0.511270  0.653730  0.137530  1.0  -0.1117
  C  C105  1  0.582190  0.631010  0.178410  1.0  -0.069
  C  C106  1  0.574460  0.669340  0.229140  1.0  -0.1887
  C  C107  1  0.496520  0.731180  0.242180  1.0  0.223
  C  C108  1  0.424410  0.753290  0.204290  1.0  -0.2115
  C  C109  1  0.431510  0.715190  0.151590  1.0  -0.0675
  C  C110  1  0.595700  0.769100  0.306300  1.0  -0.0693
  C  C111  1  0.255590  0.620630  0.930790  1.0  0.6955
  C  C112  1  0.211930  0.670710  0.883830  1.0  -0.1307
  C  C113  1  0.162100  0.652510  0.842090  1.0  -0.0242
  C  C114  1  0.129000  0.694950  0.792250  1.0  -0.1977
  C  C115  1  0.143800  0.756200  0.786800  1.0  0.1999
  C  C116  1  0.189000  0.776770  0.831230  1.0  -0.171
  C  C117  1  0.223400  0.734100  0.879900  1.0  -0.0527
  C  C118  1  0.409600  0.918670  0.546330  1.0  0.6742
  C  C119  1  0.329270  0.888270  0.595990  1.0  -0.109
  C  C120  1  0.214000  0.904460  0.601140  1.0  -0.0396
  C  C121  1  0.139900  0.877360  0.648440  1.0  -0.1372
  C  C122  1  0.180300  0.829980  0.693020  1.0  0.1473
  C  C123  1  0.297000  0.812170  0.686630  1.0  -0.1459
  C  C124  1  0.367700  0.841030  0.640370  1.0  -0.0436
  C  C125  1  0.991600  0.813900  0.735900  1.0  -0.0475
  C  C126  1  0.444520  0.088120  0.532440  1.0  0.6915
  C  C127  1  0.473250  0.127940  0.575560  1.0  -0.1204
  C  C128  1  0.392370  0.181630  0.610230  1.0  -0.0576
  C  C129  1  0.418260  0.215040  0.655040  1.0  -0.1354
  C  C130  1  0.526490  0.197110  0.662310  1.0  0.1578
  C  C131  1  0.608630  0.144770  0.624770  1.0  -0.1038
  C  C132  1  0.582900  0.109100  0.583300  1.0  -0.0526
  C  C133  1  0.211360  0.390050  0.914830  1.0  0.7082
  C  C134  1  0.302530  0.346270  0.862470  1.0  -0.1129
  C  C135  1  0.391610  0.368990  0.821590  1.0  -0.0699
  C  C136  1  0.472940  0.330660  0.770860  1.0  -0.1901
  C  C137  1  0.469880  0.268820  0.757820  1.0  0.2257
  C  C138  1  0.381990  0.246710  0.795710  1.0  -0.2144
  C  C139  1  0.298290  0.284810  0.848410  1.0  -0.0687
  C  C140  1  0.671100  0.230900  0.693700  1.0  -0.0673
  C  C141  1  0.755590  0.930790  0.620630  1.0  0.6948
  C  C142  1  0.711930  0.883830  0.670710  1.0  -0.1279
  C  C143  1  0.662100  0.842090  0.652510  1.0  -0.0269
  C  C144  1  0.629000  0.792250  0.694950  1.0  -0.1977
  C  C145  1  0.643800  0.786800  0.756200  1.0  0.1996
  C  C146  1  0.689000  0.831230  0.776770  1.0  -0.1696
  C  C147  1  0.723400  0.879900  0.734100  1.0  -0.0544
  C  C148  1  0.909600  0.546330  0.918670  1.0  0.6745
  C  C149  1  0.829270  0.595990  0.888270  1.0  -0.1107
  C  C150  1  0.714000  0.601140  0.904460  1.0  -0.0409
  C  C151  1  0.639900  0.648440  0.877360  1.0  -0.1381
  C  C152  1  0.680300  0.693020  0.829980  1.0  0.1484
  C  C153  1  0.797000  0.686630  0.812170  1.0  -0.1452
  C  C154  1  0.867700  0.640370  0.841030  1.0  -0.0411
  C  C155  1  0.491600  0.735900  0.813900  1.0  -0.0495
  C  C156  1  0.944520  0.532440  0.088120  1.0  0.69
  C  C157  1  0.973250  0.575560  0.127940  1.0  -0.1194
  C  C158  1  0.892370  0.610230  0.181630  1.0  -0.0559
  C  C159  1  0.918260  0.655040  0.215040  1.0  -0.1345
  C  C160  1  0.026490  0.662310  0.197110  1.0  0.1591
  C  C161  1  0.108630  0.624770  0.144770  1.0  -0.1037
  C  C162  1  0.082900  0.583300  0.109100  1.0  -0.0525
  C  C163  1  0.711360  0.914830  0.390050  1.0  0.7068
  C  C164  1  0.802530  0.862470  0.346270  1.0  -0.1118
  C  C165  1  0.891610  0.821590  0.368990  1.0  -0.0731
  C  C166  1  0.972940  0.770860  0.330660  1.0  -0.1888
  C  C167  1  0.969880  0.757820  0.268820  1.0  0.2258
  C  C168  1  0.881990  0.795710  0.246710  1.0  -0.2093
  C  C169  1  0.798290  0.848410  0.284810  1.0  -0.0687
  C  C170  1  0.171100  0.693700  0.230900  1.0  -0.0679
  C  C171  1  0.307010  0.069210  0.379370  1.0  0.6933
  C  C172  1  0.266470  0.116170  0.329290  1.0  -0.1279
  C  C173  1  0.156700  0.157910  0.347490  1.0  -0.0245
  C  C174  1  0.116200  0.207750  0.305050  1.0  -0.2008
  C  C175  1  0.186800  0.213200  0.243800  1.0  0.199
  C  C176  1  0.297000  0.168770  0.223230  1.0  -0.17
  C  C177  1  0.337400  0.120100  0.265900  1.0  -0.0529
  C  C178  1  0.374600  0.453670  0.081330  1.0  0.6745
  C  C179  1  0.313530  0.404010  0.111730  1.0  -0.1038
  C  C180  1  0.219600  0.398860  0.095540  1.0  -0.041
  C  C181  1  0.165700  0.351560  0.122640  1.0  -0.1354
  C  C182  1  0.203300  0.306980  0.170020  1.0  0.1474
  C  C183  1  0.295800  0.313370  0.187830  1.0  -0.144
  C  C184  1  0.349100  0.359630  0.158970  1.0  -0.0426
  C  C185  1  0.041400  0.264100  0.186100  1.0  -0.0481
  C  C186  1  0.565080  0.467560  0.911880  1.0  0.6918
  C  C187  1  0.676750  0.424440  0.872060  1.0  -0.1163
  C  C188  1  0.684230  0.389770  0.818370  1.0  -0.0564
  C  C189  1  0.788340  0.344960  0.784960  1.0  -0.135
  C  C190  1  0.885910  0.337690  0.802890  1.0  0.1584
  C  C191  1  0.878170  0.375230  0.855230  1.0  -0.1019
  C  C192  1  0.775300  0.416700  0.890900  1.0  -0.0528
  C  C193  1  0.016240  0.085170  0.609950  1.0  0.7065
  C  C194  1  0.011270  0.137530  0.653730  1.0  -0.11
  C  C195  1  0.082190  0.178410  0.631010  1.0  -0.0684
  C  C196  1  0.074460  0.229140  0.669340  1.0  -0.1897
  C  C197  1  0.996520  0.242180  0.731180  1.0  0.2243
  C  C198  1  0.924410  0.204290  0.753290  1.0  -0.2087
  C  C199  1  0.931510  0.151590  0.715190  1.0  -0.0674
  C  C200  1  0.095700  0.306300  0.769100  1.0  -0.0675
  N  N201  1  0.648400  0.197070  0.259730  1.0  -0.1854
  N  N202  1  0.491520  0.768680  0.294480  1.0  -0.1767
  N  N203  1  0.105200  0.802930  0.740270  1.0  -0.185
  N  N204  1  0.554680  0.231320  0.705520  1.0  -0.1761
  N  N205  1  0.605200  0.740270  0.802930  1.0  -0.1848
  N  N206  1  0.054680  0.705520  0.231320  1.0  -0.176
  N  N207  1  0.148400  0.259730  0.197070  1.0  -0.1824
  N  N208  1  0.991520  0.294480  0.768680  1.0  -0.1752
  O  O209  1  0.733890  0.431160  0.059260  1.0  -0.8333
  O  O210  1  0.912290  0.368980  0.042240  1.0  -0.7819
  O  O211  1  0.837700  0.037830  0.491770  1.0  -0.841
  O  O212  1  0.958370  0.098960  0.454700  1.0  -0.6138
  O  O213  1  0.063210  0.959850  0.498490  1.0  -0.8263
  O  O214  1  0.978760  0.893230  0.471250  1.0  -0.6214
  O  O215  1  0.601720  0.560230  0.069330  1.0  -0.8327
  O  O216  1  0.435640  0.624210  0.059710  1.0  -0.7062
  O  O217  1  0.224310  0.568840  0.940740  1.0  -0.8336
  O  O218  1  0.323510  0.631020  0.957760  1.0  -0.7803
  O  O219  1  0.367300  0.962170  0.508230  1.0  -0.8409
  O  O220  1  0.512030  0.901040  0.545300  1.0  -0.6135
  O  O221  1  0.521550  0.040150  0.501510  1.0  -0.827
  O  O222  1  0.343240  0.106770  0.528750  1.0  -0.6222
  O  O223  1  0.231280  0.439770  0.930670  1.0  -0.8324
  O  O224  1  0.119560  0.375790  0.940290  1.0  -0.7057
  O  O225  1  0.724310  0.940740  0.568840  1.0  -0.8348
  O  O226  1  0.823510  0.957760  0.631020  1.0  -0.7846
  O  O227  1  0.867300  0.508230  0.962170  1.0  -0.8417
  O  O228  1  0.012030  0.545300  0.901040  1.0  -0.6135
  O  O229  1  0.021550  0.501510  0.040150  1.0  -0.8279
  O  O230  1  0.843240  0.528750  0.106770  1.0  -0.6218
  O  O231  1  0.731280  0.930670  0.439770  1.0  -0.8334
  O  O232  1  0.619560  0.940290  0.375790  1.0  -0.7068
  O  O233  1  0.233890  0.059260  0.431160  1.0  -0.8337
  O  O234  1  0.412290  0.042240  0.368980  1.0  -0.7825
  O  O235  1  0.337700  0.491770  0.037830  1.0  -0.841
  O  O236  1  0.458370  0.454700  0.098960  1.0  -0.6145
  O  O237  1  0.563210  0.498490  0.959850  1.0  -0.8273
  O  O238  1  0.478760  0.471250  0.893230  1.0  -0.6223
  O  O239  1  0.101720  0.069330  0.560230  1.0  -0.8337
  O  O240  1  0.935640  0.059710  0.624210  1.0  -0.7068
