# generated using pymatgen
data_Cu10Mo12PH48C48N24(ClO17)2
_symmetry_space_group_name_H-M   'P 1'
_cell_length_a   11.65540000
_cell_length_b   13.40450000
_cell_length_c   20.67970000
_cell_angle_alpha   89.14100000
_cell_angle_beta   76.43900000
_cell_angle_gamma   67.33200000
_symmetry_Int_Tables_number   1
_chemical_formula_structural   Cu10Mo12PH48C48N24(ClO17)2
_chemical_formula_sum   'Cu10 Mo12 P1 H48 C48 N24 Cl2 O34'
_cell_volume   2887.94788714
_cell_formula_units_Z   1
loop_
 _symmetry_equiv_pos_site_id
 _symmetry_equiv_pos_as_xyz
  1  'x, y, z'
loop_
 _atom_site_type_symbol
 _atom_site_label
 _atom_site_symmetry_multiplicity
 _atom_site_fract_x
 _atom_site_fract_y
 _atom_site_fract_z
 _atom_site_occupancy
 _atom_site_charge
  Cu  Cu1  1  0.987220  0.189320  0.780990  1.0  0.4024
  Cu  Cu2  1  0.792810  0.354180  0.107930  1.0  0.3627
  Cu  Cu3  1  0.034000  0.691680  0.372580  1.0  0.387
  Cu  Cu4  1  0.628750  0.978690  0.654660  1.0  0.3481
  Cu  Cu5  1  0.185030  0.434890  0.264980  1.0  0.4066
  Cu  Cu6  1  0.012780  0.810680  0.219010  1.0  0.4021
  Cu  Cu7  1  0.207190  0.645820  0.892070  1.0  0.3629
  Cu  Cu8  1  0.966000  0.308320  0.627420  1.0  0.3916
  Cu  Cu9  1  0.371250  0.021310  0.345340  1.0  0.3472
  Cu  Cu10  1  0.814970  0.565110  0.735020  1.0  0.4065
  Mo  Mo11  1  0.545610  0.547790  0.327750  1.0  1.358
  Mo  Mo12  1  0.246970  0.697420  0.619910  1.0  1.3708
  Mo  Mo13  1  0.273210  0.731290  0.446590  1.0  1.3277
  Mo  Mo14  1  0.500940  0.764160  0.524920  1.0  1.404
  Mo  Mo15  1  0.294660  0.463870  0.408930  1.0  1.7888
  Mo  Mo16  1  0.769820  0.555290  0.415780  1.0  1.3946
  Mo  Mo17  1  0.454390  0.452210  0.672250  1.0  1.35
  Mo  Mo18  1  0.753030  0.302580  0.380090  1.0  1.3735
  Mo  Mo19  1  0.726790  0.268710  0.553410  1.0  1.3232
  Mo  Mo20  1  0.499060  0.235840  0.475080  1.0  1.4069
  Mo  Mo21  1  0.705340  0.536130  0.591070  1.0  1.7926
  Mo  Mo22  1  0.230180  0.444710  0.584220  1.0  1.395
  P  P23  1  0.500000  0.500000  0.500000  1.0  1.398
  H  H24  1  0.707900  0.244800  0.785300  1.0  0.0816
  H  H25  1  0.953600  0.151300  0.020400  1.0  0.0894
  H  H26  1  0.095000  0.258100  0.249600  1.0  0.082
  H  H27  1  0.959900  0.233400  0.194300  1.0  0.0705
  H  H28  1  0.946900  0.568300  0.228800  1.0  0.0769
  H  H29  1  0.012100  0.987500  0.708700  1.0  0.0742
  H  H30  1  0.531300  0.442100  0.083200  1.0  0.0854
  H  H31  1  0.887100  0.397400  0.867800  1.0  0.0673
  H  H32  1  0.816300  0.541700  0.172500  1.0  0.0841
  H  H33  1  0.589300  0.180400  0.738500  1.0  0.0799
  H  H34  1  0.815800  0.453500  0.978800  1.0  0.0819
  H  H35  1  0.894400  0.925800  0.659900  1.0  0.0821
  H  H36  1  0.658700  0.272100  0.223900  1.0  0.0694
  H  H37  1  0.015600  0.097700  0.909400  1.0  0.0735
  H  H38  1  0.454400  0.294500  0.277300  1.0  0.0697
  H  H39  1  0.407400  0.182300  0.649000  1.0  0.0679
  H  H40  1  0.189400  0.252900  0.690100  1.0  0.0778
  H  H41  1  0.210600  0.977600  0.760700  1.0  0.079
  H  H42  1  0.828600  0.746400  0.610500  1.0  0.0655
  H  H43  1  0.971900  0.652000  0.514300  1.0  0.0968
  H  H44  1  0.329600  0.469000  0.137400  1.0  0.0828
  H  H45  1  0.423500  0.905400  0.716800  1.0  0.0893
  H  H46  1  0.711800  0.004400  0.516400  1.0  0.0764
  H  H47  1  0.848900  0.910300  0.419300  1.0  0.0658
  H  H48  1  0.292100  0.755200  0.214700  1.0  0.0816
  H  H49  1  0.046400  0.848700  0.979600  1.0  0.0888
  H  H50  1  0.905000  0.741900  0.750400  1.0  0.0832
  H  H51  1  0.040100  0.766600  0.805700  1.0  0.0704
  H  H52  1  0.053100  0.431700  0.771200  1.0  0.0779
  H  H53  1  0.987900  0.012500  0.291300  1.0  0.0744
  H  H54  1  0.468700  0.557900  0.916800  1.0  0.0851
  H  H55  1  0.112900  0.602600  0.132200  1.0  0.0674
  H  H56  1  0.183700  0.458300  0.827500  1.0  0.0835
  H  H57  1  0.410700  0.819600  0.261500  1.0  0.0792
  H  H58  1  0.184200  0.546500  0.021200  1.0  0.0819
  H  H59  1  0.105600  0.074200  0.340100  1.0  0.0818
  H  H60  1  0.341300  0.727900  0.776100  1.0  0.0681
  H  H61  1  0.984400  0.902300  0.090600  1.0  0.0724
  H  H62  1  0.545600  0.705500  0.722700  1.0  0.0694
  H  H63  1  0.592600  0.817700  0.351000  1.0  0.0679
  H  H64  1  0.810600  0.747100  0.309900  1.0  0.0775
  H  H65  1  0.789400  0.022400  0.239300  1.0  0.0792
  H  H66  1  0.171400  0.253600  0.389500  1.0  0.0662
  H  H67  1  0.028100  0.348000  0.485700  1.0  0.0957
  H  H68  1  0.670400  0.531000  0.862600  1.0  0.0838
  H  H69  1  0.576500  0.094600  0.283200  1.0  0.0885
  H  H70  1  0.288200  0.995600  0.483600  1.0  0.0769
  H  H71  1  0.151100  0.089700  0.580700  1.0  0.0662
  C  C72  1  0.748600  0.178900  0.759400  1.0  0.104
  C  C73  1  0.935500  0.203600  0.990000  1.0  0.0902
  C  C74  1  0.039600  0.317500  0.233200  1.0  0.0956
  C  C75  1  0.959000  0.302600  0.199100  1.0  0.1174
  C  C76  1  0.953600  0.497900  0.220800  1.0  0.1326
  C  C77  1  0.925100  0.029800  0.714600  1.0  0.1466
  C  C78  1  0.517100  0.413300  0.124000  1.0  0.0972
  C  C79  1  0.897700  0.345600  0.898800  1.0  0.1437
  C  C80  1  0.875300  0.481900  0.186700  1.0  0.1145
  C  C81  1  0.676900  0.139700  0.731500  1.0  0.1232
  C  C82  1  0.856300  0.379600  0.965800  1.0  0.0883
  C  C83  1  0.854000  0.991500  0.686100  1.0  0.1193
  C  C84  1  0.591500  0.313800  0.205500  1.0  0.1112
  C  C85  1  0.973500  0.171400  0.922900  1.0  0.1218
  C  C86  1  0.467700  0.328100  0.238200  1.0  0.0985
  C  C87  1  0.368800  0.138400  0.671600  1.0  0.1358
  C  C88  1  0.236600  0.181500  0.696800  1.0  0.1152
  C  C89  1  0.249000  0.021100  0.737300  1.0  0.1393
  C  C90  1  0.831400  0.781700  0.571500  1.0  0.159
  C  C91  1  0.917900  0.724000  0.513300  1.0  0.0934
  C  C92  1  0.396300  0.428700  0.156400  1.0  0.1322
  C  C93  1  0.377700  0.977900  0.711600  1.0  0.1215
  C  C94  1  0.762800  0.931400  0.516800  1.0  0.1104
  C  C95  1  0.846500  0.874900  0.458300  1.0  0.1076
  C  C96  1  0.251400  0.821100  0.240600  1.0  0.1044
  C  C97  1  0.064500  0.796400  0.010000  1.0  0.0878
  C  C98  1  0.960400  0.682500  0.766800  1.0  0.096
  C  C99  1  0.041000  0.697400  0.800900  1.0  0.1182
  C  C100  1  0.046400  0.502100  0.779200  1.0  0.1331
  C  C101  1  0.074900  0.970200  0.285400  1.0  0.146
  C  C102  1  0.482900  0.586700  0.876000  1.0  0.096
  C  C103  1  0.102300  0.654400  0.101200  1.0  0.1451
  C  C104  1  0.124700  0.518100  0.813300  1.0  0.1159
  C  C105  1  0.323100  0.860300  0.268500  1.0  0.1248
  C  C106  1  0.143700  0.620400  0.034200  1.0  0.0883
  C  C107  1  0.146000  0.008500  0.313900  1.0  0.1192
  C  C108  1  0.408500  0.686200  0.794500  1.0  0.1099
  C  C109  1  0.026500  0.828600  0.077100  1.0  0.1183
  C  C110  1  0.532300  0.671900  0.761800  1.0  0.0996
  C  C111  1  0.631200  0.861600  0.328400  1.0  0.1361
  C  C112  1  0.763400  0.818500  0.303200  1.0  0.1161
  C  C113  1  0.751000  0.978900  0.262700  1.0  0.14
  C  C114  1  0.168600  0.218300  0.428500  1.0  0.1593
  C  C115  1  0.082100  0.276000  0.486700  1.0  0.0929
  C  C116  1  0.603700  0.571300  0.843600  1.0  0.1343
  C  C117  1  0.622300  0.022100  0.288400  1.0  0.1211
  C  C118  1  0.237200  0.068600  0.483200  1.0  0.1115
  C  C119  1  0.153500  0.125100  0.541700  1.0  0.1063
  N  N120  1  0.879900  0.382400  0.172700  1.0  -0.3136
  N  N121  1  0.617800  0.357300  0.149200  1.0  -0.3077
  N  N122  1  0.728300  0.045900  0.695000  1.0  -0.3325
  N  N123  1  0.040500  0.415900  0.243400  1.0  -0.3021
  N  N124  1  0.875000  0.125300  0.750400  1.0  -0.3168
  N  N125  1  0.872600  0.309200  0.013000  1.0  -0.3122
  N  N126  1  0.952400  0.240900  0.876800  1.0  -0.3026
  N  N127  1  0.175000  0.123200  0.730600  1.0  -0.3208
  N  N128  1  0.924300  0.770700  0.455900  1.0  -0.3025
  N  N129  1  0.442700  0.035900  0.678600  1.0  -0.3071
  N  N130  1  0.752600  0.884800  0.574200  1.0  -0.3263
  N  N131  1  0.367800  0.388000  0.215500  1.0  -0.3256
  N  N132  1  0.120100  0.617600  0.827300  1.0  -0.3128
  N  N133  1  0.382200  0.642700  0.850800  1.0  -0.3088
  N  N134  1  0.271700  0.954100  0.305000  1.0  -0.3328
  N  N135  1  0.959500  0.584100  0.756600  1.0  -0.3031
  N  N136  1  0.125000  0.874700  0.249600  1.0  -0.3184
  N  N137  1  0.127400  0.690800  0.987000  1.0  -0.3132
  N  N138  1  0.047600  0.759100  0.123200  1.0  -0.3018
  N  N139  1  0.825000  0.876800  0.269400  1.0  -0.3208
  N  N140  1  0.075700  0.229300  0.544100  1.0  -0.3029
  N  N141  1  0.557300  0.964100  0.321400  1.0  -0.307
  N  N142  1  0.247400  0.115200  0.425800  1.0  -0.326
  N  N143  1  0.632200  0.612000  0.784500  1.0  -0.3258
  Cl  Cl144  1  0.121000  0.638100  0.268540  1.0  -0.4861
  Cl  Cl145  1  0.879000  0.361900  0.731460  1.0  -0.4863
  O  O146  1  0.417700  0.483500  0.343000  1.0  -0.7934
  O  O147  1  0.386800  0.793000  0.471600  1.0  -0.705
  O  O148  1  0.411200  0.678000  0.367300  1.0  -0.6589
  O  O149  1  0.362700  0.762500  0.599300  1.0  -0.7234
  O  O150  1  0.597900  0.481800  0.432800  1.0  -0.6135
  O  O151  1  0.195500  0.447100  0.366400  1.0  -0.7445
  O  O152  1  0.200000  0.470100  0.500000  1.0  -0.7119
  O  O153  1  0.664800  0.397400  0.325500  1.0  -0.6921
  O  O154  1  0.604200  0.678000  0.585000  1.0  -0.7647
  O  O155  1  0.667800  0.588200  0.350300  1.0  -0.7046
  O  O156  1  0.172400  0.590000  0.609900  1.0  -0.707
  O  O157  1  0.218800  0.622800  0.427500  1.0  -0.7502
  O  O158  1  0.197900  0.741100  0.537300  1.0  -0.7126
  O  O159  1  0.645800  0.702200  0.456100  1.0  -0.7062
  O  O160  1  0.433600  0.545700  0.444900  1.0  -0.4891
  O  O161  1  0.413500  0.433500  0.493000  1.0  -0.7502
  O  O162  1  0.587900  0.381000  0.484000  1.0  -0.4578
  O  O163  1  0.582300  0.516500  0.657000  1.0  -0.7892
  O  O164  1  0.613200  0.207000  0.528400  1.0  -0.7029
  O  O165  1  0.588800  0.322000  0.632700  1.0  -0.657
  O  O166  1  0.637300  0.237500  0.400700  1.0  -0.7208
  O  O167  1  0.402100  0.518200  0.567200  1.0  -0.6155
  O  O168  1  0.804500  0.552900  0.633600  1.0  -0.745
  O  O169  1  0.800000  0.529900  0.500000  1.0  -0.7122
  O  O170  1  0.335200  0.602600  0.674500  1.0  -0.691
  O  O171  1  0.395800  0.322000  0.415000  1.0  -0.7616
  O  O172  1  0.332200  0.411800  0.649700  1.0  -0.7056
  O  O173  1  0.827600  0.410000  0.390100  1.0  -0.7077
  O  O174  1  0.781200  0.377200  0.572500  1.0  -0.7467
  O  O175  1  0.802100  0.258900  0.462700  1.0  -0.7085
  O  O176  1  0.354200  0.297800  0.543900  1.0  -0.7066
  O  O177  1  0.566400  0.454300  0.555100  1.0  -0.4943
  O  O178  1  0.586500  0.566500  0.507000  1.0  -0.7486
  O  O179  1  0.412100  0.619000  0.516000  1.0  -0.4608
