# generated using pymatgen
data_RbCr(CN)6
_symmetry_space_group_name_H-M   'P 1'
_cell_length_a   8.95900000
_cell_length_b   8.95900000
_cell_length_c   21.76400000
_cell_angle_alpha   90.00000000
_cell_angle_beta   90.00000000
_cell_angle_gamma   120.00000000
_symmetry_Int_Tables_number   1
_chemical_formula_structural   RbCr(CN)6
_chemical_formula_sum   'Rb3 Cr3 C18 N18'
_cell_volume   1512.82405717
_cell_formula_units_Z   3
loop_
 _symmetry_equiv_pos_site_id
 _symmetry_equiv_pos_as_xyz
  1  'x, y, z'
loop_
 _atom_site_type_symbol
 _atom_site_label
 _atom_site_symmetry_multiplicity
 _atom_site_fract_x
 _atom_site_fract_y
 _atom_site_fract_z
 _atom_site_occupancy
 _atom_site_charge
  Rb  Rb1  1  0.000000  0.000000  0.500000  1.0  1.0205
  Rb  Rb2  1  0.666667  0.333333  0.833330  1.0  1.0196
  Rb  Rb3  1  0.333333  0.666667  0.166670  1.0  1.0194
  Cr  Cr4  1  0.333333  0.666667  0.666667  1.0  0.2323
  Cr  Cr5  1  0.000000  0.000000  0.000000  1.0  0.2204
  Cr  Cr6  1  0.666667  0.333333  0.333333  1.0  0.2322
  C  C7  1  0.224700  0.775300  0.611500  1.0  0.2427
  C  C8  1  0.891370  0.108630  0.944830  1.0  0.2426
  C  C9  1  0.558030  0.441970  0.278170  1.0  0.2427
  C  C10  1  0.224700  0.449400  0.611500  1.0  0.2438
  C  C11  1  0.891370  0.782730  0.944830  1.0  0.2438
  C  C12  1  0.558030  0.116070  0.278170  1.0  0.2438
  C  C13  1  0.550600  0.775300  0.611500  1.0  0.2432
  C  C14  1  0.217270  0.108630  0.944830  1.0  0.2432
  C  C15  1  0.883930  0.441970  0.278170  1.0  0.2433
  C  C16  1  0.775300  0.224700  0.388500  1.0  0.2424
  C  C17  1  0.441970  0.558030  0.721830  1.0  0.2424
  C  C18  1  0.108630  0.891370  0.055170  1.0  0.2424
  C  C19  1  0.449400  0.224700  0.388500  1.0  0.2408
  C  C20  1  0.116070  0.558030  0.721830  1.0  0.2408
  C  C21  1  0.782730  0.891370  0.055170  1.0  0.2408
  C  C22  1  0.775300  0.550600  0.388500  1.0  0.241
  C  C23  1  0.441970  0.883930  0.721830  1.0  0.241
  C  C24  1  0.108630  0.217270  0.055170  1.0  0.241
  N  N25  1  0.163700  0.836300  0.580000  1.0  -0.4436
  N  N26  1  0.830370  0.169630  0.913330  1.0  -0.4403
  N  N27  1  0.497030  0.502970  0.246670  1.0  -0.4446
  N  N28  1  0.163700  0.327400  0.580000  1.0  -0.4529
  N  N29  1  0.830370  0.660730  0.913330  1.0  -0.4528
  N  N30  1  0.497030  0.994070  0.246670  1.0  -0.453
  N  N31  1  0.672600  0.836300  0.580000  1.0  -0.4531
  N  N32  1  0.339270  0.169630  0.913330  1.0  -0.4529
  N  N33  1  0.005930  0.502970  0.246670  1.0  -0.4532
  N  N34  1  0.836300  0.163700  0.420000  1.0  -0.4454
  N  N35  1  0.502970  0.497030  0.753330  1.0  -0.4462
  N  N36  1  0.169630  0.830370  0.086670  1.0  -0.4417
  N  N37  1  0.327400  0.163700  0.420000  1.0  -0.4511
  N  N38  1  0.994070  0.497030  0.753330  1.0  -0.4512
  N  N39  1  0.660730  0.830370  0.086670  1.0  -0.4513
  N  N40  1  0.836300  0.672600  0.420000  1.0  -0.4575
  N  N41  1  0.502970  0.005930  0.753330  1.0  -0.4576
  N  N42  1  0.169630  0.339270  0.086670  1.0  -0.4577
