# generated using pymatgen
data_NiH6C8S2(NO)4
_symmetry_space_group_name_H-M   'P 1'
_cell_length_a   16.89440000
_cell_length_b   16.89440000
_cell_length_c   7.54540000
_cell_angle_alpha   90.00000000
_cell_angle_beta   90.00000000
_cell_angle_gamma   90.00000000
_symmetry_Int_Tables_number   1
_chemical_formula_structural   NiH6C8S2(NO)4
_chemical_formula_sum   'Ni4 H24 C32 S8 N16 O16'
_cell_volume   2153.61373731
_cell_formula_units_Z   4
loop_
 _symmetry_equiv_pos_site_id
 _symmetry_equiv_pos_as_xyz
  1  'x, y, z'
loop_
 _atom_site_type_symbol
 _atom_site_label
 _atom_site_symmetry_multiplicity
 _atom_site_fract_x
 _atom_site_fract_y
 _atom_site_fract_z
 _atom_site_occupancy
 _atom_site_charge
  Ni  Ni1  1  0.500000  0.500000  0.000000  1.0  0.6196
  Ni  Ni2  1  0.000000  0.000000  0.500000  1.0  0.6196
  Ni  Ni3  1  0.000000  0.500000  0.750000  1.0  0.6196
  Ni  Ni4  1  0.500000  0.000000  0.250000  1.0  0.6196
  H  H5  1  0.398100  0.355000  0.041100  1.0  0.3401
  H  H6  1  0.898100  0.855000  0.541100  1.0  0.3401
  H  H7  1  0.601900  0.645000  0.041100  1.0  0.341
  H  H8  1  0.101900  0.145000  0.541100  1.0  0.341
  H  H9  1  0.355000  0.601900  0.958900  1.0  0.3391
  H  H10  1  0.855000  0.101900  0.458900  1.0  0.3391
  H  H11  1  0.645000  0.398100  0.958900  1.0  0.3393
  H  H12  1  0.145000  0.898100  0.458900  1.0  0.3393
  H  H13  1  0.101900  0.355000  0.708900  1.0  0.3397
  H  H14  1  0.601900  0.855000  0.208900  1.0  0.3397
  H  H15  1  0.898100  0.645000  0.708900  1.0  0.3409
  H  H16  1  0.398100  0.145000  0.208900  1.0  0.3409
  H  H17  1  0.145000  0.601900  0.791100  1.0  0.3386
  H  H18  1  0.645000  0.101900  0.291100  1.0  0.3386
  H  H19  1  0.855000  0.398100  0.791100  1.0  0.3402
  H  H20  1  0.355000  0.898100  0.291100  1.0  0.3402
  H  H21  1  0.602600  0.250000  0.125000  1.0  0.1295
  H  H22  1  0.397400  0.750000  0.125000  1.0  0.1294
  H  H23  1  0.897400  0.250000  0.625000  1.0  0.1294
  H  H24  1  0.250000  0.397400  0.875000  1.0  0.1272
  H  H25  1  0.750000  0.897400  0.375000  1.0  0.1272
  H  H26  1  0.750000  0.602600  0.875000  1.0  0.1277
  H  H27  1  0.250000  0.102600  0.375000  1.0  0.1277
  H  H28  1  0.102600  0.750000  0.625000  1.0  0.1295
  C  C29  1  0.506700  0.317400  0.072200  1.0  0.4705
  C  C30  1  0.006700  0.817400  0.572200  1.0  0.4705
  C  C31  1  0.493300  0.682600  0.072200  1.0  0.4709
  C  C32  1  0.993300  0.182600  0.572200  1.0  0.4709
  C  C33  1  0.317400  0.493300  0.927800  1.0  0.4699
  C  C34  1  0.817400  0.993300  0.427800  1.0  0.4699
  C  C35  1  0.682600  0.506700  0.927800  1.0  0.4704
  C  C36  1  0.182600  0.006700  0.427800  1.0  0.4704
  C  C37  1  0.993300  0.317400  0.677800  1.0  0.4692
  C  C38  1  0.493300  0.817400  0.177800  1.0  0.4692
  C  C39  1  0.006700  0.682600  0.677800  1.0  0.4694
  C  C40  1  0.506700  0.182600  0.177800  1.0  0.4694
  C  C41  1  0.182600  0.493300  0.822200  1.0  0.4694
  C  C42  1  0.682600  0.993300  0.322200  1.0  0.4694
  C  C43  1  0.817400  0.506700  0.822200  1.0  0.4685
  C  C44  1  0.317400  0.006700  0.322200  1.0  0.4685
  C  C45  1  0.380100  0.250000  0.125000  1.0  0.1665
  C  C46  1  0.547500  0.250000  0.125000  1.0  -0.0232
  C  C47  1  0.619900  0.750000  0.125000  1.0  0.1683
  C  C48  1  0.452500  0.750000  0.125000  1.0  -0.0271
  C  C49  1  0.119900  0.250000  0.625000  1.0  0.1683
  C  C50  1  0.952500  0.250000  0.625000  1.0  -0.0271
  C  C51  1  0.250000  0.619900  0.875000  1.0  0.1726
  C  C52  1  0.250000  0.452500  0.875000  1.0  -0.0229
  C  C53  1  0.750000  0.119900  0.375000  1.0  0.1726
  C  C54  1  0.750000  0.952500  0.375000  1.0  -0.0229
  C  C55  1  0.750000  0.380100  0.875000  1.0  0.1756
  C  C56  1  0.750000  0.547500  0.875000  1.0  -0.0245
  C  C57  1  0.250000  0.880100  0.375000  1.0  0.1756
  C  C58  1  0.250000  0.047500  0.375000  1.0  -0.0245
  C  C59  1  0.880100  0.750000  0.625000  1.0  0.1665
  C  C60  1  0.047500  0.750000  0.625000  1.0  -0.0232
  S  S61  1  0.282870  0.250000  0.125000  1.0  -0.2335
  S  S62  1  0.717130  0.750000  0.125000  1.0  -0.2345
  S  S63  1  0.217130  0.250000  0.625000  1.0  -0.2345
  S  S64  1  0.250000  0.717130  0.875000  1.0  -0.2357
  S  S65  1  0.750000  0.217130  0.375000  1.0  -0.2357
  S  S66  1  0.750000  0.282870  0.875000  1.0  -0.235
  S  S67  1  0.250000  0.782870  0.375000  1.0  -0.235
  S  S68  1  0.782870  0.750000  0.625000  1.0  -0.2335
  N  N69  1  0.423600  0.313500  0.074500  1.0  -0.3886
  N  N70  1  0.923600  0.813500  0.574500  1.0  -0.3886
  N  N71  1  0.576400  0.686500  0.074500  1.0  -0.3876
  N  N72  1  0.076400  0.186500  0.574500  1.0  -0.3876
  N  N73  1  0.313500  0.576400  0.925500  1.0  -0.389
  N  N74  1  0.813500  0.076400  0.425500  1.0  -0.389
  N  N75  1  0.686500  0.423600  0.925500  1.0  -0.3894
  N  N76  1  0.186500  0.923600  0.425500  1.0  -0.3894
  N  N77  1  0.076400  0.313500  0.675500  1.0  -0.3887
  N  N78  1  0.576400  0.813500  0.175500  1.0  -0.3887
  N  N79  1  0.923600  0.686500  0.675500  1.0  -0.3882
  N  N80  1  0.423600  0.186500  0.175500  1.0  -0.3882
  N  N81  1  0.186500  0.576400  0.824500  1.0  -0.3904
  N  N82  1  0.686500  0.076400  0.324500  1.0  -0.3904
  N  N83  1  0.813500  0.423600  0.824500  1.0  -0.3883
  N  N84  1  0.313500  0.923600  0.324500  1.0  -0.3883
  O  O85  1  0.536300  0.380800  0.016500  1.0  -0.5964
  O  O86  1  0.036300  0.880800  0.516500  1.0  -0.5964
  O  O87  1  0.463700  0.619200  0.016500  1.0  -0.5967
  O  O88  1  0.963700  0.119200  0.516500  1.0  -0.5967
  O  O89  1  0.380800  0.463700  0.983500  1.0  -0.5951
  O  O90  1  0.880800  0.963700  0.483500  1.0  -0.5951
  O  O91  1  0.619200  0.536300  0.983500  1.0  -0.5953
  O  O92  1  0.119200  0.036300  0.483500  1.0  -0.5953
  O  O93  1  0.963700  0.380800  0.733500  1.0  -0.5974
  O  O94  1  0.463700  0.880800  0.233500  1.0  -0.5974
  O  O95  1  0.036300  0.619200  0.733500  1.0  -0.5958
  O  O96  1  0.536300  0.119200  0.233500  1.0  -0.5958
  O  O97  1  0.119200  0.463700  0.766500  1.0  -0.5946
  O  O98  1  0.619200  0.963700  0.266500  1.0  -0.5946
  O  O99  1  0.880800  0.536300  0.766500  1.0  -0.5952
  O  O100  1  0.380800  0.036300  0.266500  1.0  -0.5952
