# generated using pymatgen
data_MgH6C8S2(NO)4
_symmetry_space_group_name_H-M   'P 1'
_cell_length_a   16.96430000
_cell_length_b   16.96430000
_cell_length_c   7.60670000
_cell_angle_alpha   90.00000000
_cell_angle_beta   90.00000000
_cell_angle_gamma   90.00000000
_symmetry_Int_Tables_number   1
_chemical_formula_structural   MgH6C8S2(NO)4
_chemical_formula_sum   'Mg4 H24 C32 S8 N16 O16'
_cell_volume   2189.11298220
_cell_formula_units_Z   4
loop_
 _symmetry_equiv_pos_site_id
 _symmetry_equiv_pos_as_xyz
  1  'x, y, z'
loop_
 _atom_site_type_symbol
 _atom_site_label
 _atom_site_symmetry_multiplicity
 _atom_site_fract_x
 _atom_site_fract_y
 _atom_site_fract_z
 _atom_site_occupancy
 _atom_site_charge
  Mg  Mg1  1  0.500000  0.500000  0.000000  1.0  1.555
  Mg  Mg2  1  0.000000  0.000000  0.500000  1.0  1.555
  Mg  Mg3  1  0.000000  0.500000  0.750000  1.0  1.555
  Mg  Mg4  1  0.500000  0.000000  0.250000  1.0  1.555
  H  H5  1  0.398000  0.355600  0.048600  1.0  0.2366
  H  H6  1  0.898000  0.855600  0.548600  1.0  0.2366
  H  H7  1  0.602000  0.644400  0.048600  1.0  0.2373
  H  H8  1  0.102000  0.144400  0.548600  1.0  0.2373
  H  H9  1  0.355600  0.602000  0.951400  1.0  0.2391
  H  H10  1  0.855600  0.102000  0.451400  1.0  0.2391
  H  H11  1  0.644400  0.398000  0.951400  1.0  0.2381
  H  H12  1  0.144400  0.898000  0.451400  1.0  0.2381
  H  H13  1  0.102000  0.355600  0.701400  1.0  0.2371
  H  H14  1  0.602000  0.855600  0.201400  1.0  0.2371
  H  H15  1  0.898000  0.644400  0.701400  1.0  0.2368
  H  H16  1  0.398000  0.144400  0.201400  1.0  0.2368
  H  H17  1  0.144400  0.602000  0.798600  1.0  0.2383
  H  H18  1  0.644400  0.102000  0.298600  1.0  0.2383
  H  H19  1  0.855600  0.398000  0.798600  1.0  0.2391
  H  H20  1  0.355600  0.898000  0.298600  1.0  0.2391
  H  H21  1  0.600600  0.250000  0.125000  1.0  0.0936
  H  H22  1  0.399400  0.750000  0.125000  1.0  0.0937
  H  H23  1  0.899400  0.250000  0.625000  1.0  0.0937
  H  H24  1  0.250000  0.399400  0.875000  1.0  0.0907
  H  H25  1  0.750000  0.899400  0.375000  1.0  0.0907
  H  H26  1  0.750000  0.600600  0.875000  1.0  0.0927
  H  H27  1  0.250000  0.100600  0.375000  1.0  0.0927
  H  H28  1  0.100600  0.750000  0.625000  1.0  0.0936
  C  C29  1  0.503800  0.316800  0.072000  1.0  0.4025
  C  C30  1  0.003800  0.816800  0.572000  1.0  0.4025
  C  C31  1  0.496200  0.683200  0.072000  1.0  0.402
  C  C32  1  0.996200  0.183200  0.572000  1.0  0.402
  C  C33  1  0.316800  0.496200  0.928000  1.0  0.4017
  C  C34  1  0.816800  0.996200  0.428000  1.0  0.4017
  C  C35  1  0.683200  0.503800  0.928000  1.0  0.4013
  C  C36  1  0.183200  0.003800  0.428000  1.0  0.4013
  C  C37  1  0.996200  0.316800  0.678000  1.0  0.4022
  C  C38  1  0.496200  0.816800  0.178000  1.0  0.4022
  C  C39  1  0.003800  0.683200  0.678000  1.0  0.4022
  C  C40  1  0.503800  0.183200  0.178000  1.0  0.4022
  C  C41  1  0.183200  0.496200  0.822000  1.0  0.4006
  C  C42  1  0.683200  0.996200  0.322000  1.0  0.4006
  C  C43  1  0.816800  0.503800  0.822000  1.0  0.4015
  C  C44  1  0.316800  0.003800  0.322000  1.0  0.4015
  C  C45  1  0.378400  0.250000  0.125000  1.0  0.1107
  C  C46  1  0.545800  0.250000  0.125000  1.0  -0.0701
  C  C47  1  0.621600  0.750000  0.125000  1.0  0.1121
  C  C48  1  0.454200  0.750000  0.125000  1.0  -0.0747
  C  C49  1  0.121600  0.250000  0.625000  1.0  0.1121
  C  C50  1  0.954200  0.250000  0.625000  1.0  -0.0747
  C  C51  1  0.250000  0.621600  0.875000  1.0  0.1159
  C  C52  1  0.250000  0.454200  0.875000  1.0  -0.0689
  C  C53  1  0.750000  0.121600  0.375000  1.0  0.1159
  C  C54  1  0.750000  0.954200  0.375000  1.0  -0.0689
  C  C55  1  0.750000  0.378400  0.875000  1.0  0.1173
  C  C56  1  0.750000  0.545800  0.875000  1.0  -0.0711
  C  C57  1  0.250000  0.878400  0.375000  1.0  0.1173
  C  C58  1  0.250000  0.045800  0.375000  1.0  -0.0711
  C  C59  1  0.878400  0.750000  0.625000  1.0  0.1107
  C  C60  1  0.045800  0.750000  0.625000  1.0  -0.0701
  S  S61  1  0.282430  0.250000  0.125000  1.0  -0.2642
  S  S62  1  0.717570  0.750000  0.125000  1.0  -0.2645
  S  S63  1  0.217570  0.250000  0.625000  1.0  -0.2645
  S  S64  1  0.250000  0.717570  0.875000  1.0  -0.265
  S  S65  1  0.750000  0.217570  0.375000  1.0  -0.265
  S  S66  1  0.750000  0.282430  0.875000  1.0  -0.265
  S  S67  1  0.250000  0.782430  0.375000  1.0  -0.265
  S  S68  1  0.782430  0.750000  0.625000  1.0  -0.2642
  N  N69  1  0.423000  0.313500  0.077700  1.0  -0.3349
  N  N70  1  0.923000  0.813500  0.577700  1.0  -0.3349
  N  N71  1  0.577000  0.686500  0.077700  1.0  -0.335
  N  N72  1  0.077000  0.186500  0.577700  1.0  -0.335
  N  N73  1  0.313500  0.577000  0.922300  1.0  -0.3371
  N  N74  1  0.813500  0.077000  0.422300  1.0  -0.3371
  N  N75  1  0.686500  0.423000  0.922300  1.0  -0.3365
  N  N76  1  0.186500  0.923000  0.422300  1.0  -0.3365
  N  N77  1  0.077000  0.313500  0.672300  1.0  -0.3356
  N  N78  1  0.577000  0.813500  0.172300  1.0  -0.3356
  N  N79  1  0.923000  0.686500  0.672300  1.0  -0.3353
  N  N80  1  0.423000  0.186500  0.172300  1.0  -0.3353
  N  N81  1  0.186500  0.577000  0.827700  1.0  -0.3363
  N  N82  1  0.686500  0.077000  0.327700  1.0  -0.3363
  N  N83  1  0.813500  0.423000  0.827700  1.0  -0.3368
  N  N84  1  0.313500  0.923000  0.327700  1.0  -0.3368
  O  O85  1  0.534800  0.380700  0.016900  1.0  -0.628
  O  O86  1  0.034800  0.880700  0.516900  1.0  -0.628
  O  O87  1  0.465200  0.619300  0.016900  1.0  -0.6274
  O  O88  1  0.965200  0.119300  0.516900  1.0  -0.6274
  O  O89  1  0.380700  0.465200  0.983100  1.0  -0.6284
  O  O90  1  0.880700  0.965200  0.483100  1.0  -0.6284
  O  O91  1  0.619300  0.534800  0.983100  1.0  -0.6272
  O  O92  1  0.119300  0.034800  0.483100  1.0  -0.6272
  O  O93  1  0.965200  0.380700  0.733100  1.0  -0.6277
  O  O94  1  0.465200  0.880700  0.233100  1.0  -0.6277
  O  O95  1  0.034800  0.619300  0.733100  1.0  -0.6275
  O  O96  1  0.534800  0.119300  0.233100  1.0  -0.6275
  O  O97  1  0.119300  0.465200  0.766900  1.0  -0.6277
  O  O98  1  0.619300  0.965200  0.266900  1.0  -0.6277
  O  O99  1  0.880700  0.534800  0.766900  1.0  -0.6282
  O  O100  1  0.380700  0.034800  0.266900  1.0  -0.6282
