# generated using pymatgen
data_MnPHCO5
_symmetry_space_group_name_H-M   'P 1'
_cell_length_a   6.06270000
_cell_length_b   10.71220000
_cell_length_c   10.38720000
_cell_angle_alpha   90.00000000
_cell_angle_beta   97.95600000
_cell_angle_gamma   90.00000000
_symmetry_Int_Tables_number   1
_chemical_formula_structural   MnPHCO5
_chemical_formula_sum   'Mn4 P4 H4 C4 O20'
_cell_volume   668.10198505
_cell_formula_units_Z   4
loop_
 _symmetry_equiv_pos_site_id
 _symmetry_equiv_pos_as_xyz
  1  'x, y, z'
loop_
 _atom_site_type_symbol
 _atom_site_label
 _atom_site_symmetry_multiplicity
 _atom_site_fract_x
 _atom_site_fract_y
 _atom_site_fract_z
 _atom_site_occupancy
 _atom_site_charge
  Mn  Mn1  1  0.886420  0.612950  0.408450  1.0  1.0991
  Mn  Mn2  1  0.113580  0.112950  0.091550  1.0  1.0997
  Mn  Mn3  1  0.113580  0.387050  0.591550  1.0  1.0997
  Mn  Mn4  1  0.886420  0.887050  0.908450  1.0  1.0985
  P  P5  1  0.034610  0.843560  0.228710  1.0  1.5781
  P  P6  1  0.965390  0.343560  0.271290  1.0  1.5658
  P  P7  1  0.965390  0.156440  0.771290  1.0  1.5604
  P  P8  1  0.034610  0.656440  0.728710  1.0  1.5816
  H  H9  1  0.178100  0.801100  0.230000  1.0  0.1486
  H  H10  1  0.821900  0.301100  0.270000  1.0  0.148
  H  H11  1  0.821900  0.198900  0.770000  1.0  0.1491
  H  H12  1  0.178100  0.698900  0.730000  1.0  0.1493
  C  C13  1  0.572000  0.050910  0.039260  1.0  0.6139
  C  C14  1  0.428000  0.550910  0.460740  1.0  0.6141
  C  C15  1  0.428000  0.949090  0.960740  1.0  0.614
  C  C16  1  0.572000  0.449090  0.539260  1.0  0.6142
  O  O17  1  0.932800  0.793500  0.344780  1.0  -0.7414
  O  O18  1  0.898500  0.810730  0.100900  1.0  -0.7682
  O  O19  1  0.087400  0.983040  0.247420  1.0  -0.7412
  O  O20  1  0.769200  0.058550  0.016460  1.0  -0.6354
  O  O21  1  0.517800  0.883350  0.884020  1.0  -0.5476
  O  O22  1  0.067200  0.293500  0.155220  1.0  -0.7408
  O  O23  1  0.101500  0.310730  0.399100  1.0  -0.769
  O  O24  1  0.912600  0.483040  0.252580  1.0  -0.7413
  O  O25  1  0.230800  0.558550  0.483540  1.0  -0.6331
  O  O26  1  0.482200  0.383350  0.615980  1.0  -0.5482
  O  O27  1  0.067200  0.206500  0.655220  1.0  -0.7414
  O  O28  1  0.101500  0.189270  0.899100  1.0  -0.7692
  O  O29  1  0.912600  0.016960  0.752580  1.0  -0.7415
  O  O30  1  0.230800  0.941450  0.983540  1.0  -0.6339
  O  O31  1  0.482200  0.116650  0.115980  1.0  -0.5491
  O  O32  1  0.932800  0.706500  0.844780  1.0  -0.7415
  O  O33  1  0.898500  0.689270  0.600900  1.0  -0.769
  O  O34  1  0.087400  0.516960  0.747420  1.0  -0.7422
  O  O35  1  0.769200  0.441450  0.516460  1.0  -0.6328
  O  O36  1  0.517800  0.616650  0.384020  1.0  -0.5474
