# generated using pymatgen
data_La3P4(CO3)8
_symmetry_space_group_name_H-M   'P 1'
_cell_length_a   11.11550000
_cell_length_b   13.46790000
_cell_length_c   16.01680000
_cell_angle_alpha   114.86200000
_cell_angle_beta   110.30400000
_cell_angle_gamma   90.00000000
_symmetry_Int_Tables_number   1
_chemical_formula_structural   La3P4(CO3)8
_chemical_formula_sum   'La6 P8 C16 O48'
_cell_volume   2010.14944432
_cell_formula_units_Z   2
loop_
 _symmetry_equiv_pos_site_id
 _symmetry_equiv_pos_as_xyz
  1  'x, y, z'
loop_
 _atom_site_type_symbol
 _atom_site_label
 _atom_site_symmetry_multiplicity
 _atom_site_fract_x
 _atom_site_fract_y
 _atom_site_fract_z
 _atom_site_occupancy
 _atom_site_charge
  La  La1  1  0.458690  0.070690  0.441380  1.0  2.1883
  La  La2  1  0.017310  0.929310  0.558620  1.0  2.1876
  La  La3  1  0.517310  0.629310  0.558620  1.0  2.1881
  La  La4  1  0.958690  0.370690  0.441380  1.0  2.1885
  La  La5  1  0.953600  0.000000  0.000000  1.0  1.8399
  La  La6  1  0.453600  0.000000  0.000000  1.0  1.8401
  P  P7  1  0.777400  0.002600  0.396800  1.0  1.4685
  P  P8  1  0.018500  0.883200  0.187200  1.0  1.3667
  P  P9  1  0.380600  0.997400  0.603200  1.0  1.4696
  P  P10  1  0.831300  0.116800  0.812800  1.0  1.3689
  P  P11  1  0.880600  0.605800  0.603200  1.0  1.477
  P  P12  1  0.331300  0.696000  0.812800  1.0  1.3716
  P  P13  1  0.277400  0.394200  0.396800  1.0  1.4703
  P  P14  1  0.518500  0.304000  0.187200  1.0  1.3671
  C  C15  1  0.900900  0.124500  0.456200  1.0  0.1859
  C  C16  1  0.038600  0.134900  0.464800  1.0  0.6876
  C  C17  1  0.124900  0.015100  0.273800  1.0  0.1798
  C  C18  1  0.197000  0.023300  0.212600  1.0  0.6294
  C  C19  1  0.444700  0.875500  0.543800  1.0  0.1885
  C  C20  1  0.573800  0.865100  0.535200  1.0  0.686
  C  C21  1  0.851100  0.984900  0.726200  1.0  0.1791
  C  C22  1  0.984400  0.976700  0.787400  1.0  0.6287
  C  C23  1  0.944700  0.668300  0.543800  1.0  0.1865
  C  C24  1  0.073800  0.670100  0.535200  1.0  0.688
  C  C25  1  0.351100  0.741300  0.726200  1.0  0.1779
  C  C26  1  0.484400  0.810700  0.787400  1.0  0.6275
  C  C27  1  0.400900  0.331700  0.456200  1.0  0.1871
  C  C28  1  0.538600  0.329900  0.464800  1.0  0.6871
  C  C29  1  0.624900  0.258700  0.273800  1.0  0.1766
  C  C30  1  0.697000  0.189300  0.212600  1.0  0.6277
  O  O31  1  0.652700  0.044400  0.408000  1.0  -0.8702
  O  O32  1  0.813200  0.924400  0.446600  1.0  -0.7886
  O  O33  1  0.767800  0.929800  0.289800  1.0  -0.517
  O  O34  1  0.835400  0.212100  0.454800  1.0  -0.654
  O  O35  1  0.098200  0.062100  0.485200  1.0  -0.5996
  O  O36  1  0.107300  0.204100  0.459200  1.0  -0.644
  O  O37  1  0.934200  0.868100  0.240400  1.0  -0.5487
  O  O38  1  0.112000  0.798600  0.165800  1.0  -0.4893
  O  O39  1  0.934300  0.892500  0.092600  1.0  -0.7182
  O  O40  1  0.212700  0.997300  0.352400  1.0  -0.6178
  O  O41  1  0.309400  0.080600  0.267400  1.0  -0.5991
  O  O42  1  0.182900  0.950800  0.126400  1.0  -0.5898
  O  O43  1  0.244700  0.955600  0.592000  1.0  -0.8723
  O  O44  1  0.366600  0.075600  0.553400  1.0  -0.7887
  O  O45  1  0.478000  0.070200  0.710200  1.0  -0.5183
  O  O46  1  0.380600  0.787900  0.545200  1.0  -0.6521
  O  O47  1  0.613000  0.937900  0.514800  1.0  -0.5998
  O  O48  1  0.648100  0.795900  0.540800  1.0  -0.6428
  O  O49  1  0.693800  0.131900  0.759600  1.0  -0.5472
  O  O50  1  0.946200  0.201400  0.834200  1.0  -0.4907
  O  O51  1  0.841700  0.107500  0.907400  1.0  -0.7011
  O  O52  1  0.860300  0.002700  0.647600  1.0  -0.6224
  O  O53  1  0.042000  0.919400  0.732600  1.0  -0.6002
  O  O54  1  0.056500  0.049200  0.873600  1.0  -0.5851
  O  O55  1  0.744700  0.636400  0.592000  1.0  -0.8724
  O  O56  1  0.866600  0.477800  0.553400  1.0  -0.7879
  O  O57  1  0.978000  0.640000  0.710200  1.0  -0.5152
  O  O58  1  0.880600  0.757300  0.545200  1.0  -0.6518
  O  O59  1  0.113000  0.576900  0.514800  1.0  -0.5985
  O  O60  1  0.148100  0.744900  0.540800  1.0  -0.6497
  O  O61  1  0.193800  0.627700  0.759600  1.0  -0.5404
  O  O62  1  0.446200  0.632800  0.834200  1.0  -0.4896
  O  O63  1  0.341700  0.799900  0.907400  1.0  -0.7239
  O  O64  1  0.360300  0.644900  0.647600  1.0  -0.6167
  O  O65  1  0.542000  0.813200  0.732600  1.0  -0.6024
  O  O66  1  0.556500  0.824400  0.873600  1.0  -0.5883
  O  O67  1  0.152700  0.363600  0.408000  1.0  -0.8711
  O  O68  1  0.313200  0.522200  0.446600  1.0  -0.7875
  O  O69  1  0.267800  0.360000  0.289800  1.0  -0.5142
  O  O70  1  0.335400  0.242700  0.454800  1.0  -0.6554
  O  O71  1  0.598200  0.423100  0.485200  1.0  -0.5956
  O  O72  1  0.607300  0.255100  0.459200  1.0  -0.6438
  O  O73  1  0.434200  0.372300  0.240400  1.0  -0.542
  O  O74  1  0.612000  0.367200  0.165800  1.0  -0.4903
  O  O75  1  0.434300  0.200100  0.092600  1.0  -0.7188
  O  O76  1  0.712700  0.355100  0.352400  1.0  -0.6193
  O  O77  1  0.809400  0.186800  0.267400  1.0  -0.5979
  O  O78  1  0.682900  0.175600  0.126400  1.0  -0.5863
