# generated using pymatgen
data_La3P4(CO3)8
_symmetry_space_group_name_H-M   'P 1'
_cell_length_a   11.26680000
_cell_length_b   13.36040000
_cell_length_c   26.28200000
_cell_angle_alpha   90.00000000
_cell_angle_beta   90.00000000
_cell_angle_gamma   90.00000000
_symmetry_Int_Tables_number   1
_chemical_formula_structural   La3P4(CO3)8
_chemical_formula_sum   'La12 P16 C32 O96'
_cell_volume   3956.20198795
_cell_formula_units_Z   4
loop_
 _symmetry_equiv_pos_site_id
 _symmetry_equiv_pos_as_xyz
  1  'x, y, z'
loop_
 _atom_site_type_symbol
 _atom_site_label
 _atom_site_symmetry_multiplicity
 _atom_site_fract_x
 _atom_site_fract_y
 _atom_site_fract_z
 _atom_site_occupancy
 _atom_site_charge
  La  La1  1  0.972210  0.658590  0.218520  1.0  2.1592
  La  La2  1  0.472210  0.841410  0.281480  1.0  2.1587
  La  La3  1  0.527790  0.658590  0.781480  1.0  2.1583
  La  La4  1  0.027790  0.841410  0.718520  1.0  2.1576
  La  La5  1  0.027790  0.341410  0.781480  1.0  2.1579
  La  La6  1  0.527790  0.158590  0.718520  1.0  2.1576
  La  La7  1  0.472210  0.341410  0.218520  1.0  2.1591
  La  La8  1  0.972210  0.158590  0.281480  1.0  2.1591
  La  La9  1  0.250000  0.488700  0.000000  1.0  2.1686
  La  La10  1  0.750000  0.011300  0.500000  1.0  2.1679
  La  La11  1  0.750000  0.511300  0.000000  1.0  2.1679
  La  La12  1  0.250000  0.988700  0.500000  1.0  2.1686
  P  P13  1  0.139900  0.816300  0.311080  1.0  1.4131
  P  P14  1  0.294600  0.707500  0.085990  1.0  1.3497
  P  P15  1  0.639900  0.683700  0.188920  1.0  1.4153
  P  P16  1  0.794600  0.792500  0.414010  1.0  1.3492
  P  P17  1  0.360100  0.816300  0.688920  1.0  1.4142
  P  P18  1  0.205400  0.707500  0.914010  1.0  1.3499
  P  P19  1  0.860100  0.683700  0.811080  1.0  1.4169
  P  P20  1  0.705400  0.792500  0.585990  1.0  1.3498
  P  P21  1  0.860100  0.183700  0.688920  1.0  1.4161
  P  P22  1  0.705400  0.292500  0.914010  1.0  1.3488
  P  P23  1  0.360100  0.316300  0.811080  1.0  1.4153
  P  P24  1  0.205400  0.207500  0.585990  1.0  1.352
  P  P25  1  0.639900  0.183700  0.311080  1.0  1.4158
  P  P26  1  0.794600  0.292500  0.085990  1.0  1.3483
  P  P27  1  0.139900  0.316300  0.188920  1.0  1.4125
  P  P28  1  0.294600  0.207500  0.414010  1.0  1.3509
  C  C29  1  0.061000  0.910600  0.274600  1.0  0.2213
  C  C30  1  0.927300  0.906200  0.276500  1.0  0.7313
  C  C31  1  0.202400  0.647900  0.133600  1.0  0.097
  C  C32  1  0.095300  0.600400  0.109100  1.0  0.7003
  C  C33  1  0.561000  0.589400  0.225400  1.0  0.2221
  C  C34  1  0.427300  0.593800  0.223500  1.0  0.728
  C  C35  1  0.702400  0.852100  0.366400  1.0  0.0973
  C  C36  1  0.595300  0.899600  0.390900  1.0  0.7016
  C  C37  1  0.439000  0.910600  0.725400  1.0  0.2211
  C  C38  1  0.572700  0.906200  0.723500  1.0  0.7301
  C  C39  1  0.297600  0.647900  0.866400  1.0  0.0981
  C  C40  1  0.404700  0.600400  0.890900  1.0  0.7012
  C  C41  1  0.939000  0.589400  0.774600  1.0  0.2208
  C  C42  1  0.072700  0.593800  0.776500  1.0  0.7324
  C  C43  1  0.797600  0.852100  0.633600  1.0  0.0974
  C  C44  1  0.904700  0.899600  0.609100  1.0  0.702
  C  C45  1  0.939000  0.089400  0.725400  1.0  0.2212
  C  C46  1  0.072700  0.093800  0.723500  1.0  0.7301
  C  C47  1  0.797600  0.352100  0.866400  1.0  0.0975
  C  C48  1  0.904700  0.399600  0.890900  1.0  0.7031
  C  C49  1  0.439000  0.410600  0.774600  1.0  0.2207
  C  C50  1  0.572700  0.406200  0.776500  1.0  0.7326
  C  C51  1  0.297600  0.147900  0.633600  1.0  0.0975
  C  C52  1  0.404700  0.100400  0.609100  1.0  0.7004
  C  C53  1  0.561000  0.089400  0.274600  1.0  0.2213
  C  C54  1  0.427300  0.093800  0.276500  1.0  0.7311
  C  C55  1  0.702400  0.352100  0.133600  1.0  0.0972
  C  C56  1  0.595300  0.399600  0.109100  1.0  0.7015
  C  C57  1  0.061000  0.410600  0.225400  1.0  0.2221
  C  C58  1  0.927300  0.406200  0.223500  1.0  0.728
  C  C59  1  0.202400  0.147900  0.366400  1.0  0.0976
  C  C60  1  0.095300  0.100400  0.390900  1.0  0.7001
  O  O61  1  0.130800  0.716000  0.282900  1.0  -0.7677
  O  O62  1  0.083000  0.811700  0.364300  1.0  -0.5185
  O  O63  1  0.269600  0.851300  0.315300  1.0  -0.8862
  O  O64  1  0.131000  0.996900  0.269700  1.0  -0.6522
  O  O65  1  0.879600  0.823800  0.269600  1.0  -0.5841
  O  O66  1  0.873500  0.982600  0.289700  1.0  -0.6347
  O  O67  1  0.348300  0.625200  0.052000  1.0  -0.7649
  O  O68  1  0.215700  0.778800  0.054800  1.0  -0.5678
  O  O69  1  0.393000  0.766200  0.114000  1.0  -0.4955
  O  O70  1  0.206100  0.698200  0.180300  1.0  -0.567
  O  O71  1  0.113800  0.545600  0.071900  1.0  -0.7213
  O  O72  1  0.999200  0.611100  0.131200  1.0  -0.5975
  O  O73  1  0.630800  0.784000  0.217100  1.0  -0.7685
  O  O74  1  0.583000  0.688300  0.135700  1.0  -0.5195
  O  O75  1  0.769600  0.648700  0.184700  1.0  -0.8869
  O  O76  1  0.631000  0.503100  0.230300  1.0  -0.6514
  O  O77  1  0.379600  0.676200  0.230400  1.0  -0.5834
  O  O78  1  0.373500  0.517400  0.210300  1.0  -0.6356
  O  O79  1  0.848300  0.874800  0.448000  1.0  -0.7631
  O  O80  1  0.715700  0.721200  0.445200  1.0  -0.5678
  O  O81  1  0.893000  0.733800  0.386000  1.0  -0.4957
  O  O82  1  0.706100  0.801800  0.319700  1.0  -0.567
  O  O83  1  0.613800  0.954400  0.428100  1.0  -0.7219
  O  O84  1  0.499200  0.888900  0.368800  1.0  -0.5977
  O  O85  1  0.369200  0.716000  0.717100  1.0  -0.7684
  O  O86  1  0.417000  0.811700  0.635700  1.0  -0.5181
  O  O87  1  0.230400  0.851300  0.684700  1.0  -0.8859
  O  O88  1  0.369000  0.996900  0.730300  1.0  -0.6509
  O  O89  1  0.620400  0.823800  0.730400  1.0  -0.5839
  O  O90  1  0.626500  0.982600  0.710300  1.0  -0.6337
  O  O91  1  0.151700  0.625200  0.948000  1.0  -0.7634
  O  O92  1  0.284300  0.778800  0.945200  1.0  -0.5672
  O  O93  1  0.107000  0.766200  0.886000  1.0  -0.4945
  O  O94  1  0.293900  0.698200  0.819700  1.0  -0.5671
  O  O95  1  0.386200  0.545600  0.928100  1.0  -0.7221
  O  O96  1  0.500800  0.611100  0.868800  1.0  -0.5985
  O  O97  1  0.869200  0.784000  0.782900  1.0  -0.769
  O  O98  1  0.917000  0.688300  0.864300  1.0  -0.5193
  O  O99  1  0.730400  0.648700  0.815300  1.0  -0.8858
  O  O100  1  0.869000  0.503100  0.769700  1.0  -0.6536
  O  O101  1  0.120400  0.676200  0.769600  1.0  -0.5835
  O  O102  1  0.126500  0.517400  0.789700  1.0  -0.6347
  O  O103  1  0.651700  0.874800  0.552000  1.0  -0.7624
  O  O104  1  0.784300  0.721200  0.554800  1.0  -0.5671
  O  O105  1  0.607000  0.733800  0.614000  1.0  -0.4953
  O  O106  1  0.793900  0.801800  0.680300  1.0  -0.5682
  O  O107  1  0.886200  0.954400  0.571900  1.0  -0.7219
  O  O108  1  0.000800  0.888900  0.631200  1.0  -0.5992
  O  O109  1  0.869200  0.284000  0.717100  1.0  -0.7691
  O  O110  1  0.917000  0.188300  0.635700  1.0  -0.5197
  O  O111  1  0.730400  0.148700  0.684700  1.0  -0.8862
  O  O112  1  0.869000  0.003100  0.730300  1.0  -0.652
  O  O113  1  0.120400  0.176200  0.730400  1.0  -0.5837
  O  O114  1  0.126500  0.017400  0.710300  1.0  -0.635
  O  O115  1  0.651700  0.374800  0.948000  1.0  -0.7619
  O  O116  1  0.784300  0.221200  0.945200  1.0  -0.568
  O  O117  1  0.607000  0.233800  0.886000  1.0  -0.4946
  O  O118  1  0.793900  0.301800  0.819700  1.0  -0.568
  O  O119  1  0.886200  0.454400  0.928100  1.0  -0.722
  O  O120  1  0.000800  0.388900  0.868800  1.0  -0.5991
  O  O121  1  0.369200  0.216000  0.782900  1.0  -0.7678
  O  O122  1  0.417000  0.311700  0.864300  1.0  -0.5189
  O  O123  1  0.230400  0.351300  0.815300  1.0  -0.8851
  O  O124  1  0.369000  0.496900  0.769700  1.0  -0.6556
  O  O125  1  0.620400  0.323800  0.769600  1.0  -0.5842
  O  O126  1  0.626500  0.482600  0.789700  1.0  -0.6319
  O  O127  1  0.151700  0.125200  0.552000  1.0  -0.7639
  O  O128  1  0.284300  0.278800  0.554800  1.0  -0.5672
  O  O129  1  0.107000  0.266200  0.614000  1.0  -0.495
  O  O130  1  0.293900  0.198200  0.680300  1.0  -0.5672
  O  O131  1  0.386200  0.045600  0.571900  1.0  -0.7219
  O  O132  1  0.500800  0.111100  0.631200  1.0  -0.5985
  O  O133  1  0.630800  0.284000  0.282900  1.0  -0.7684
  O  O134  1  0.583000  0.188300  0.364300  1.0  -0.5187
  O  O135  1  0.769600  0.148700  0.315300  1.0  -0.8866
  O  O136  1  0.631000  0.003100  0.269700  1.0  -0.6532
  O  O137  1  0.379600  0.176200  0.269600  1.0  -0.5831
  O  O138  1  0.373500  0.017400  0.289700  1.0  -0.6365
  O  O139  1  0.848300  0.374800  0.052000  1.0  -0.7636
  O  O140  1  0.715700  0.221200  0.054800  1.0  -0.5669
  O  O141  1  0.893000  0.233800  0.114000  1.0  -0.4965
  O  O142  1  0.706100  0.301800  0.180300  1.0  -0.5679
  O  O143  1  0.613800  0.454400  0.071900  1.0  -0.7216
  O  O144  1  0.499200  0.388900  0.131200  1.0  -0.5977
  O  O145  1  0.130800  0.216000  0.217100  1.0  -0.7684
  O  O146  1  0.083000  0.311700  0.135700  1.0  -0.518
  O  O147  1  0.269600  0.351300  0.184700  1.0  -0.887
  O  O148  1  0.131000  0.496900  0.230300  1.0  -0.6534
  O  O149  1  0.879600  0.323800  0.230400  1.0  -0.5834
  O  O150  1  0.873500  0.482600  0.210300  1.0  -0.633
  O  O151  1  0.348300  0.125200  0.448000  1.0  -0.7647
  O  O152  1  0.215700  0.278800  0.445200  1.0  -0.5675
  O  O153  1  0.393000  0.266200  0.386000  1.0  -0.4944
  O  O154  1  0.206100  0.198200  0.319700  1.0  -0.5663
  O  O155  1  0.113800  0.045600  0.428100  1.0  -0.7219
  O  O156  1  0.999200  0.111100  0.368800  1.0  -0.5976
