# generated using pymatgen
data_ZnH8C14(NO2)2
_symmetry_space_group_name_H-M   'P 1'
_cell_length_a   7.62300000
_cell_length_b   11.18900000
_cell_length_c   16.87300000
_cell_angle_alpha   90.00000000
_cell_angle_beta   90.00000000
_cell_angle_gamma   90.00000000
_symmetry_Int_Tables_number   1
_chemical_formula_structural   ZnH8C14(NO2)2
_chemical_formula_sum   'Zn4 H32 C56 N8 O16'
_cell_volume   1439.16139313
_cell_formula_units_Z   4
loop_
 _symmetry_equiv_pos_site_id
 _symmetry_equiv_pos_as_xyz
  1  'x, y, z'
loop_
 _atom_site_type_symbol
 _atom_site_label
 _atom_site_symmetry_multiplicity
 _atom_site_fract_x
 _atom_site_fract_y
 _atom_site_fract_z
 _atom_site_occupancy
 _atom_site_charge
  Zn  Zn1  1  0.101400  0.641800  0.038700  1.0  0.9084
  Zn  Zn2  1  0.398600  0.358200  0.538700  1.0  0.9086
  Zn  Zn3  1  0.898600  0.141800  0.461300  1.0  0.9097
  Zn  Zn4  1  0.601400  0.858200  0.961300  1.0  0.9097
  H  H5  1  0.503780  0.635010  0.314730  1.0  0.1241
  H  H6  1  0.454840  0.673100  0.167550  1.0  0.1294
  H  H7  1  0.220500  0.317780  0.140930  1.0  0.1347
  H  H8  1  0.281560  0.274560  0.287720  1.0  0.1118
  H  H9  1  0.744620  0.288330  0.255740  1.0  0.1091
  H  H10  1  0.744010  0.377120  0.122770  1.0  0.143
  H  H11  1  0.001680  0.702100  0.223440  1.0  0.1088
  H  H12  1  0.000070  0.607360  0.355100  1.0  0.1268
  H  H13  1  0.996220  0.364990  0.814730  1.0  0.1244
  H  H14  1  0.045160  0.326900  0.667550  1.0  0.1284
  H  H15  1  0.279500  0.682220  0.640930  1.0  0.128
  H  H16  1  0.217440  0.724800  0.788910  1.0  0.1119
  H  H17  1  0.755380  0.711670  0.755740  1.0  0.1085
  H  H18  1  0.755990  0.622880  0.622770  1.0  0.1451
  H  H19  1  0.498320  0.297900  0.723440  1.0  0.1094
  H  H20  1  0.499930  0.392640  0.855100  1.0  0.1274
  H  H21  1  0.496220  0.135010  0.185270  1.0  0.1242
  H  H22  1  0.545160  0.173100  0.332450  1.0  0.1311
  H  H23  1  0.779500  0.817780  0.359070  1.0  0.1292
  H  H24  1  0.717440  0.775200  0.211090  1.0  0.1113
  H  H25  1  0.255380  0.788330  0.244260  1.0  0.1099
  H  H26  1  0.255990  0.877120  0.377230  1.0  0.1457
  H  H27  1  0.998320  0.202100  0.276560  1.0  0.109
  H  H28  1  0.999930  0.107360  0.144900  1.0  0.127
  H  H29  1  0.003780  0.864990  0.685270  1.0  0.1237
  H  H30  1  0.954840  0.826900  0.832450  1.0  0.1299
  H  H31  1  0.720500  0.182220  0.859070  1.0  0.1289
  H  H32  1  0.782560  0.224800  0.711090  1.0  0.1119
  H  H33  1  0.244620  0.211670  0.744260  1.0  0.1089
  H  H34  1  0.244010  0.122880  0.877230  1.0  0.1462
  H  H35  1  0.501680  0.797900  0.776560  1.0  0.1091
  H  H36  1  0.500070  0.892640  0.644900  1.0  0.1259
  C  C37  1  0.417400  0.433800  0.395900  1.0  0.6134
  C  C38  1  0.390400  0.454500  0.307000  1.0  -0.0415
  C  C39  1  0.441100  0.564400  0.275100  1.0  -0.0824
  C  C40  1  0.413400  0.584600  0.195300  1.0  -0.1386
  C  C41  1  0.334600  0.495600  0.149800  1.0  0.1791
  C  C42  1  0.285400  0.387400  0.180600  1.0  -0.1547
  C  C43  1  0.316700  0.365100  0.261100  1.0  -0.0612
  C  C44  1  0.873600  0.384300  0.395300  1.0  0.6421
  C  C45  1  0.870600  0.441600  0.314000  1.0  -0.0403
  C  C46  1  0.801300  0.382000  0.248600  1.0  -0.0691
  C  C47  1  0.797600  0.430900  0.174800  1.0  -0.1267
  C  C48  1  0.865100  0.555400  0.164600  1.0  0.188
  C  C49  1  0.939200  0.610000  0.229600  1.0  -0.1497
  C  C50  1  0.941200  0.557800  0.302400  1.0  -0.0618
  C  C51  1  0.082600  0.566200  0.895900  1.0  0.6163
  C  C52  1  0.109600  0.545500  0.807000  1.0  -0.039
  C  C53  1  0.058900  0.435600  0.775100  1.0  -0.0821
  C  C54  1  0.086600  0.415400  0.695300  1.0  -0.1391
  C  C55  1  0.165400  0.504400  0.649800  1.0  0.179
  C  C56  1  0.214600  0.612600  0.680600  1.0  -0.1507
  C  C57  1  0.183300  0.634900  0.761100  1.0  -0.0674
  C  C58  1  0.626400  0.615700  0.895300  1.0  0.6417
  C  C59  1  0.629400  0.558400  0.814000  1.0  -0.0407
  C  C60  1  0.698700  0.618000  0.748600  1.0  -0.0702
  C  C61  1  0.702400  0.569100  0.674800  1.0  -0.1249
  C  C62  1  0.634900  0.444600  0.664600  1.0  0.1876
  C  C63  1  0.560800  0.390000  0.729600  1.0  -0.1494
  C  C64  1  0.558800  0.442200  0.802400  1.0  -0.062
  C  C65  1  0.582600  0.933800  0.104100  1.0  0.6135
  C  C66  1  0.609600  0.954500  0.193000  1.0  -0.0389
  C  C67  1  0.558900  0.064400  0.224900  1.0  -0.0827
  C  C68  1  0.586600  0.084600  0.304700  1.0  -0.1403
  C  C69  1  0.665400  0.995600  0.350200  1.0  0.1816
  C  C70  1  0.714600  0.887400  0.319400  1.0  -0.1496
  C  C71  1  0.683300  0.865100  0.238900  1.0  -0.0672
  C  C72  1  0.126400  0.884300  0.104700  1.0  0.6426
  C  C73  1  0.129400  0.941600  0.186000  1.0  -0.0389
  C  C74  1  0.198700  0.882000  0.251400  1.0  -0.0723
  C  C75  1  0.202400  0.930900  0.325200  1.0  -0.1227
  C  C76  1  0.134900  0.055400  0.335400  1.0  0.1872
  C  C77  1  0.060800  0.110000  0.270400  1.0  -0.1492
  C  C78  1  0.058800  0.057800  0.197600  1.0  -0.0662
  C  C79  1  0.917400  0.066200  0.604100  1.0  0.6138
  C  C80  1  0.890400  0.045500  0.693000  1.0  -0.0388
  C  C81  1  0.941100  0.935600  0.724900  1.0  -0.0829
  C  C82  1  0.913400  0.915400  0.804700  1.0  -0.14
  C  C83  1  0.834600  0.004400  0.850200  1.0  0.1829
  C  C84  1  0.785400  0.112600  0.819400  1.0  -0.1499
  C  C85  1  0.816700  0.134900  0.738900  1.0  -0.0674
  C  C86  1  0.373600  0.115700  0.604700  1.0  0.6429
  C  C87  1  0.370600  0.058400  0.686000  1.0  -0.0393
  C  C88  1  0.301300  0.118000  0.751400  1.0  -0.0717
  C  C89  1  0.297600  0.069100  0.825200  1.0  -0.1256
  C  C90  1  0.365100  0.944600  0.835400  1.0  0.1875
  C  C91  1  0.439200  0.890000  0.770400  1.0  -0.1507
  C  C92  1  0.441200  0.942200  0.697600  1.0  -0.0625
  N  N93  1  0.296500  0.520500  0.064200  1.0  -0.1726
  N  N94  1  0.858700  0.608900  0.086800  1.0  -0.2013
  N  N95  1  0.203500  0.479500  0.564200  1.0  -0.174
  N  N96  1  0.641300  0.391100  0.586800  1.0  -0.2012
  N  N97  1  0.703500  0.020500  0.435800  1.0  -0.1772
  N  N98  1  0.141300  0.108900  0.413200  1.0  -0.1988
  N  N99  1  0.796500  0.979500  0.935800  1.0  -0.1787
  N  N100  1  0.358700  0.891100  0.913200  1.0  -0.2001
  O  O101  1  0.481800  0.511700  0.438300  1.0  -0.5469
  O  O102  1  0.365200  0.331300  0.423800  1.0  -0.5699
  O  O103  1  0.822700  0.276400  0.397100  1.0  -0.5905
  O  O104  1  0.919900  0.444600  0.454000  1.0  -0.5094
  O  O105  1  0.018200  0.488300  0.938300  1.0  -0.5452
  O  O106  1  0.134800  0.668700  0.923800  1.0  -0.5685
  O  O107  1  0.677300  0.723600  0.897100  1.0  -0.5902
  O  O108  1  0.580100  0.555400  0.954000  1.0  -0.5107
  O  O109  1  0.518200  0.011700  0.061700  1.0  -0.5537
  O  O110  1  0.634800  0.831300  0.076200  1.0  -0.5704
  O  O111  1  0.177300  0.776400  0.102900  1.0  -0.5911
  O  O112  1  0.080100  0.944600  0.046000  1.0  -0.5067
  O  O113  1  0.981800  0.988300  0.561700  1.0  -0.5465
  O  O114  1  0.865200  0.168700  0.576200  1.0  -0.5687
  O  O115  1  0.322700  0.223600  0.602900  1.0  -0.5907
  O  O116  1  0.419900  0.055400  0.546000  1.0  -0.5069
