# generated using pymatgen
data_CuH8C16(NO2)2
_symmetry_space_group_name_H-M   'P 1'
_cell_length_a   32.97660000
_cell_length_b   32.97660000
_cell_length_c   32.97660000
_cell_angle_alpha   60.00000000
_cell_angle_beta   60.00000000
_cell_angle_gamma   60.00000000
_symmetry_Int_Tables_number   1
_chemical_formula_structural   CuH8C16(NO2)2
_chemical_formula_sum   'Cu12 H96 C192 N24 O48'
_cell_volume   25357.27795981
_cell_formula_units_Z   12
loop_
 _symmetry_equiv_pos_site_id
 _symmetry_equiv_pos_as_xyz
  1  'x, y, z'
loop_
 _atom_site_type_symbol
 _atom_site_label
 _atom_site_symmetry_multiplicity
 _atom_site_fract_x
 _atom_site_fract_y
 _atom_site_fract_z
 _atom_site_occupancy
 _atom_site_charge
  Cu  Cu1  1  0.959730  0.500000  0.040270  1.0  0.8472
  Cu  Cu2  1  0.500000  0.959730  0.500000  1.0  0.8469
  Cu  Cu3  1  0.040270  0.500000  0.959730  1.0  0.8465
  Cu  Cu4  1  0.500000  0.040270  0.500000  1.0  0.8473
  Cu  Cu5  1  0.959730  0.040270  0.500000  1.0  0.8478
  Cu  Cu6  1  0.500000  0.500000  0.040270  1.0  0.8455
  Cu  Cu7  1  0.040270  0.959730  0.500000  1.0  0.8458
  Cu  Cu8  1  0.500000  0.500000  0.959730  1.0  0.8449
  Cu  Cu9  1  0.959730  0.500000  0.500000  1.0  0.8469
  Cu  Cu10  1  0.500000  0.040270  0.959730  1.0  0.847
  Cu  Cu11  1  0.040270  0.500000  0.500000  1.0  0.8467
  Cu  Cu12  1  0.500000  0.959730  0.040270  1.0  0.8471
  H  H13  1  0.126700  0.523900  0.003900  1.0  0.1035
  H  H14  1  0.165700  0.527700  0.043900  1.0  0.0998
  H  H15  1  0.523900  0.126700  0.345500  1.0  0.1029
  H  H16  1  0.527700  0.165700  0.262700  1.0  0.0992
  H  H17  1  0.003900  0.345500  0.126700  1.0  0.1032
  H  H18  1  0.043900  0.262700  0.165700  1.0  0.0987
  H  H19  1  0.345500  0.003900  0.523900  1.0  0.103
  H  H20  1  0.262700  0.043900  0.527700  1.0  0.0985
  H  H21  1  0.126700  0.003900  0.345500  1.0  0.103
  H  H22  1  0.165700  0.043900  0.262700  1.0  0.0992
  H  H23  1  0.523900  0.345500  0.003900  1.0  0.1024
  H  H24  1  0.527700  0.262700  0.043900  1.0  0.0989
  H  H25  1  0.003900  0.126700  0.523900  1.0  0.1034
  H  H26  1  0.043900  0.165700  0.527700  1.0  0.0985
  H  H27  1  0.345500  0.523900  0.126700  1.0  0.1021
  H  H28  1  0.262700  0.527700  0.165700  1.0  0.0985
  H  H29  1  0.126700  0.345500  0.523900  1.0  0.1027
  H  H30  1  0.165700  0.262700  0.527700  1.0  0.0994
  H  H31  1  0.523900  0.003900  0.126700  1.0  0.1041
  H  H32  1  0.527700  0.043900  0.165700  1.0  0.0995
  H  H33  1  0.003900  0.523900  0.345500  1.0  0.1047
  H  H34  1  0.043900  0.527700  0.262700  1.0  0.0996
  H  H35  1  0.345500  0.126700  0.003900  1.0  0.1032
  H  H36  1  0.262700  0.165700  0.043900  1.0  0.0984
  H  H37  1  0.476100  0.873300  0.996100  1.0  0.1028
  H  H38  1  0.472300  0.834300  0.956100  1.0  0.099
  H  H39  1  0.873300  0.476100  0.654500  1.0  0.1028
  H  H40  1  0.834300  0.472300  0.737300  1.0  0.1006
  H  H41  1  0.654500  0.996100  0.873300  1.0  0.1032
  H  H42  1  0.737300  0.956100  0.834300  1.0  0.0987
  H  H43  1  0.996100  0.654500  0.476100  1.0  0.1037
  H  H44  1  0.956100  0.737300  0.472300  1.0  0.0991
  H  H45  1  0.996100  0.873300  0.654500  1.0  0.1036
  H  H46  1  0.956100  0.834300  0.737300  1.0  0.0988
  H  H47  1  0.654500  0.476100  0.996100  1.0  0.1027
  H  H48  1  0.737300  0.472300  0.956100  1.0  0.0991
  H  H49  1  0.873300  0.996100  0.476100  1.0  0.1031
  H  H50  1  0.834300  0.956100  0.472300  1.0  0.0995
  H  H51  1  0.476100  0.654500  0.873300  1.0  0.1028
  H  H52  1  0.472300  0.737300  0.834300  1.0  0.0995
  H  H53  1  0.654500  0.873300  0.476100  1.0  0.1029
  H  H54  1  0.737300  0.834300  0.472300  1.0  0.0982
  H  H55  1  0.996100  0.476100  0.873300  1.0  0.104
  H  H56  1  0.956100  0.472300  0.834300  1.0  0.1
  H  H57  1  0.476100  0.996100  0.654500  1.0  0.1044
  H  H58  1  0.472300  0.956100  0.737300  1.0  0.1
  H  H59  1  0.873300  0.654500  0.996100  1.0  0.1024
  H  H60  1  0.834300  0.737300  0.956100  1.0  0.0994
  H  H61  1  0.873300  0.476100  0.996100  1.0  0.1032
  H  H62  1  0.834300  0.472300  0.956100  1.0  0.1
  H  H63  1  0.476100  0.873300  0.654500  1.0  0.1025
  H  H64  1  0.472300  0.834300  0.737300  1.0  0.0994
  H  H65  1  0.996100  0.654500  0.873300  1.0  0.1042
  H  H66  1  0.956100  0.737300  0.834300  1.0  0.0991
  H  H67  1  0.654500  0.996100  0.476100  1.0  0.1031
  H  H68  1  0.737300  0.956100  0.472300  1.0  0.0989
  H  H69  1  0.873300  0.996100  0.654500  1.0  0.1034
  H  H70  1  0.834300  0.956100  0.737300  1.0  0.099
  H  H71  1  0.476100  0.654500  0.996100  1.0  0.1019
  H  H72  1  0.472300  0.737300  0.956100  1.0  0.099
  H  H73  1  0.996100  0.873300  0.476100  1.0  0.1032
  H  H74  1  0.956100  0.834300  0.472300  1.0  0.0995
  H  H75  1  0.654500  0.476100  0.873300  1.0  0.1034
  H  H76  1  0.737300  0.472300  0.834300  1.0  0.0994
  H  H77  1  0.873300  0.654500  0.476100  1.0  0.1027
  H  H78  1  0.834300  0.737300  0.472300  1.0  0.0993
  H  H79  1  0.476100  0.996100  0.873300  1.0  0.1045
  H  H80  1  0.472300  0.956100  0.834300  1.0  0.0995
  H  H81  1  0.996100  0.476100  0.654500  1.0  0.1039
  H  H82  1  0.956100  0.472300  0.737300  1.0  0.1002
  H  H83  1  0.654500  0.873300  0.996100  1.0  0.1029
  H  H84  1  0.737300  0.834300  0.956100  1.0  0.0984
  H  H85  1  0.523900  0.126700  0.003900  1.0  0.103
  H  H86  1  0.527700  0.165700  0.043900  1.0  0.0997
  H  H87  1  0.126700  0.523900  0.345500  1.0  0.1031
  H  H88  1  0.165700  0.527700  0.262700  1.0  0.0995
  H  H89  1  0.345500  0.003900  0.126700  1.0  0.1026
  H  H90  1  0.262700  0.043900  0.165700  1.0  0.0987
  H  H91  1  0.003900  0.345500  0.523900  1.0  0.1033
  H  H92  1  0.043900  0.262700  0.527700  1.0  0.0985
  H  H93  1  0.003900  0.126700  0.345500  1.0  0.103
  H  H94  1  0.043900  0.165700  0.262700  1.0  0.099
  H  H95  1  0.345500  0.523900  0.003900  1.0  0.1028
  H  H96  1  0.262700  0.527700  0.043900  1.0  0.0991
  H  H97  1  0.126700  0.003900  0.523900  1.0  0.1035
  H  H98  1  0.165700  0.043900  0.527700  1.0  0.0986
  H  H99  1  0.523900  0.345500  0.126700  1.0  0.1018
  H  H100  1  0.527700  0.262700  0.165700  1.0  0.0985
  H  H101  1  0.345500  0.126700  0.523900  1.0  0.1028
  H  H102  1  0.262700  0.165700  0.527700  1.0  0.0988
  H  H103  1  0.003900  0.523900  0.126700  1.0  0.1045
  H  H104  1  0.043900  0.527700  0.165700  1.0  0.1
  H  H105  1  0.523900  0.003900  0.345500  1.0  0.1036
  H  H106  1  0.527700  0.043900  0.262700  1.0  0.0987
  H  H107  1  0.126700  0.345500  0.003900  1.0  0.1034
  H  H108  1  0.165700  0.262700  0.043900  1.0  0.0993
  C  C109  1  0.110210  0.523630  0.036930  1.0  -0.0844
  C  C110  1  0.133150  0.526710  0.060570  1.0  -0.0772
  C  C111  1  0.523630  0.110210  0.329230  1.0  -0.0838
  C  C112  1  0.526710  0.133150  0.279570  1.0  -0.0782
  C  C113  1  0.036930  0.329230  0.110210  1.0  -0.0866
  C  C114  1  0.060570  0.279570  0.133150  1.0  -0.081
  C  C115  1  0.329230  0.036930  0.523630  1.0  -0.0849
  C  C116  1  0.279570  0.060570  0.526710  1.0  -0.0807
  C  C117  1  0.110210  0.036930  0.329230  1.0  -0.0841
  C  C118  1  0.133150  0.060570  0.279570  1.0  -0.0782
  C  C119  1  0.523630  0.329230  0.036930  1.0  -0.0864
  C  C120  1  0.526710  0.279570  0.060570  1.0  -0.0797
  C  C121  1  0.036930  0.110210  0.523630  1.0  -0.0853
  C  C122  1  0.060570  0.133150  0.526710  1.0  -0.0797
  C  C123  1  0.329230  0.523630  0.110210  1.0  -0.085
  C  C124  1  0.279570  0.526710  0.133150  1.0  -0.0813
  C  C125  1  0.110210  0.329230  0.523630  1.0  -0.0849
  C  C126  1  0.133150  0.279570  0.526710  1.0  -0.0787
  C  C127  1  0.523630  0.036930  0.110210  1.0  -0.0841
  C  C128  1  0.526710  0.060570  0.133150  1.0  -0.0819
  C  C129  1  0.036930  0.523630  0.329230  1.0  -0.0853
  C  C130  1  0.060570  0.526710  0.279570  1.0  -0.0797
  C  C131  1  0.329230  0.110210  0.036930  1.0  -0.0868
  C  C132  1  0.279570  0.133150  0.060570  1.0  -0.0821
  C  C133  1  0.476370  0.889790  0.963070  1.0  -0.0847
  C  C134  1  0.473290  0.866850  0.939430  1.0  -0.08
  C  C135  1  0.889790  0.476370  0.670770  1.0  -0.0845
  C  C136  1  0.866850  0.473290  0.720430  1.0  -0.078
  C  C137  1  0.670770  0.963070  0.889790  1.0  -0.0867
  C  C138  1  0.720430  0.939430  0.866850  1.0  -0.0798
  C  C139  1  0.963070  0.670770  0.476370  1.0  -0.086
  C  C140  1  0.939430  0.720430  0.473290  1.0  -0.0796
  C  C141  1  0.963070  0.889790  0.670770  1.0  -0.0845
  C  C142  1  0.939430  0.866850  0.720430  1.0  -0.079
  C  C143  1  0.670770  0.476370  0.963070  1.0  -0.0855
  C  C144  1  0.720430  0.473290  0.939430  1.0  -0.0803
  C  C145  1  0.889790  0.963070  0.476370  1.0  -0.0841
  C  C146  1  0.866850  0.939430  0.473290  1.0  -0.0791
  C  C147  1  0.476370  0.670770  0.889790  1.0  -0.0856
  C  C148  1  0.473290  0.720430  0.866850  1.0  -0.0795
  C  C149  1  0.670770  0.889790  0.476370  1.0  -0.0859
  C  C150  1  0.720430  0.866850  0.473290  1.0  -0.0797
  C  C151  1  0.963070  0.476370  0.889790  1.0  -0.0837
  C  C152  1  0.939430  0.473290  0.866850  1.0  -0.0789
  C  C153  1  0.476370  0.963070  0.670770  1.0  -0.0844
  C  C154  1  0.473290  0.939430  0.720430  1.0  -0.0809
  C  C155  1  0.889790  0.670770  0.963070  1.0  -0.0855
  C  C156  1  0.866850  0.720430  0.939430  1.0  -0.0797
  C  C157  1  0.889790  0.476370  0.963070  1.0  -0.084
  C  C158  1  0.866850  0.473290  0.939430  1.0  -0.0783
  C  C159  1  0.476370  0.889790  0.670770  1.0  -0.0844
  C  C160  1  0.473290  0.866850  0.720430  1.0  -0.0799
  C  C161  1  0.963070  0.670770  0.889790  1.0  -0.0857
  C  C162  1  0.939430  0.720430  0.866850  1.0  -0.079
  C  C163  1  0.670770  0.963070  0.476370  1.0  -0.0857
  C  C164  1  0.720430  0.939430  0.473290  1.0  -0.0805
  C  C165  1  0.889790  0.963070  0.670770  1.0  -0.0846
  C  C166  1  0.866850  0.939430  0.720430  1.0  -0.0792
  C  C167  1  0.476370  0.670770  0.963070  1.0  -0.0851
  C  C168  1  0.473290  0.720430  0.939430  1.0  -0.0801
  C  C169  1  0.963070  0.889790  0.476370  1.0  -0.0837
  C  C170  1  0.939430  0.866850  0.473290  1.0  -0.0785
  C  C171  1  0.670770  0.476370  0.889790  1.0  -0.0855
  C  C172  1  0.720430  0.473290  0.866850  1.0  -0.0797
  C  C173  1  0.889790  0.670770  0.476370  1.0  -0.0852
  C  C174  1  0.866850  0.720430  0.473290  1.0  -0.0797
  C  C175  1  0.476370  0.963070  0.889790  1.0  -0.0847
  C  C176  1  0.473290  0.939430  0.866850  1.0  -0.08
  C  C177  1  0.963070  0.476370  0.670770  1.0  -0.0832
  C  C178  1  0.939430  0.473290  0.720430  1.0  -0.0799
  C  C179  1  0.670770  0.889790  0.963070  1.0  -0.085
  C  C180  1  0.720430  0.866850  0.939430  1.0  -0.0801
  C  C181  1  0.523630  0.110210  0.036930  1.0  -0.0853
  C  C182  1  0.526710  0.133150  0.060570  1.0  -0.0792
  C  C183  1  0.110210  0.523630  0.329230  1.0  -0.083
  C  C184  1  0.133150  0.526710  0.279570  1.0  -0.0772
  C  C185  1  0.329230  0.036930  0.110210  1.0  -0.0858
  C  C186  1  0.279570  0.060570  0.133150  1.0  -0.0813
  C  C187  1  0.036930  0.329230  0.523630  1.0  -0.0855
  C  C188  1  0.060570  0.279570  0.526710  1.0  -0.0801
  C  C189  1  0.036930  0.110210  0.329230  1.0  -0.0846
  C  C190  1  0.060570  0.133150  0.279570  1.0  -0.0797
  C  C191  1  0.329230  0.523630  0.036930  1.0  -0.086
  C  C192  1  0.279570  0.526710  0.060570  1.0  -0.08
  C  C193  1  0.110210  0.036930  0.523630  1.0  -0.0836
  C  C194  1  0.133150  0.060570  0.526710  1.0  -0.0782
  C  C195  1  0.523630  0.329230  0.110210  1.0  -0.084
  C  C196  1  0.526710  0.279570  0.133150  1.0  -0.0808
  C  C197  1  0.329230  0.110210  0.523630  1.0  -0.0848
  C  C198  1  0.279570  0.133150  0.526710  1.0  -0.0811
  C  C199  1  0.036930  0.523630  0.110210  1.0  -0.0848
  C  C200  1  0.060570  0.526710  0.133150  1.0  -0.0806
  C  C201  1  0.523630  0.036930  0.329230  1.0  -0.0843
  C  C202  1  0.526710  0.060570  0.279570  1.0  -0.0809
  C  C203  1  0.110210  0.329230  0.036930  1.0  -0.0859
  C  C204  1  0.133150  0.279570  0.060570  1.0  -0.0791
  C  C205  1  0.038200  0.513140  0.038200  1.0  0.6734
  C  C206  1  0.062550  0.519970  0.062550  1.0  -0.0923
  C  C207  1  0.108340  0.528460  0.108340  1.0  0.1665
  C  C208  1  0.133620  0.531800  0.133620  1.0  0.4132
  C  C209  1  0.513140  0.038200  0.410460  1.0  0.6742
  C  C210  1  0.519970  0.062550  0.354930  1.0  -0.0919
  C  C211  1  0.528460  0.108340  0.254860  1.0  0.1667
  C  C212  1  0.531800  0.133620  0.200960  1.0  0.4133
  C  C213  1  0.038200  0.410460  0.038200  1.0  0.6731
  C  C214  1  0.062550  0.354930  0.062550  1.0  -0.0892
  C  C215  1  0.108340  0.254860  0.108340  1.0  0.1673
  C  C216  1  0.133620  0.200960  0.133620  1.0  0.4141
  C  C217  1  0.410460  0.038200  0.513140  1.0  0.673
  C  C218  1  0.354930  0.062550  0.519970  1.0  -0.0919
  C  C219  1  0.254860  0.108340  0.528460  1.0  0.1651
  C  C220  1  0.200960  0.133620  0.531800  1.0  0.4139
  C  C221  1  0.038200  0.038200  0.410460  1.0  0.6732
  C  C222  1  0.062550  0.062550  0.354930  1.0  -0.0922
  C  C223  1  0.108340  0.108340  0.254860  1.0  0.1651
  C  C224  1  0.133620  0.133620  0.200960  1.0  0.4134
  C  C225  1  0.513140  0.410460  0.038200  1.0  0.6735
  C  C226  1  0.519970  0.354930  0.062550  1.0  -0.089
  C  C227  1  0.528460  0.254860  0.108340  1.0  0.1674
  C  C228  1  0.531800  0.200960  0.133620  1.0  0.4148
  C  C229  1  0.038200  0.038200  0.513140  1.0  0.6729
  C  C230  1  0.062550  0.062550  0.519970  1.0  -0.093
  C  C231  1  0.108340  0.108340  0.528460  1.0  0.1651
  C  C232  1  0.133620  0.133620  0.531800  1.0  0.4133
  C  C233  1  0.410460  0.513140  0.038200  1.0  0.6721
  C  C234  1  0.354930  0.519970  0.062550  1.0  -0.0916
  C  C235  1  0.254860  0.528460  0.108340  1.0  0.1655
  C  C236  1  0.200960  0.531800  0.133620  1.0  0.4146
  C  C237  1  0.038200  0.410460  0.513140  1.0  0.6734
  C  C238  1  0.062550  0.354930  0.519970  1.0  -0.0894
  C  C239  1  0.108340  0.254860  0.528460  1.0  0.1672
  C  C240  1  0.133620  0.200960  0.531800  1.0  0.414
  C  C241  1  0.513140  0.038200  0.038200  1.0  0.6739
  C  C242  1  0.519970  0.062550  0.062550  1.0  -0.0924
  C  C243  1  0.528460  0.108340  0.108340  1.0  0.1664
  C  C244  1  0.531800  0.133620  0.133620  1.0  0.4139
  C  C245  1  0.038200  0.513140  0.410460  1.0  0.6735
  C  C246  1  0.062550  0.519970  0.354930  1.0  -0.0918
  C  C247  1  0.108340  0.528460  0.254860  1.0  0.1667
  C  C248  1  0.133620  0.531800  0.200960  1.0  0.4125
  C  C249  1  0.410460  0.038200  0.038200  1.0  0.6727
  C  C250  1  0.354930  0.062550  0.062550  1.0  -0.0918
  C  C251  1  0.254860  0.108340  0.108340  1.0  0.165
  C  C252  1  0.200960  0.133620  0.133620  1.0  0.4139
  C  C253  1  0.486860  0.961800  0.961800  1.0  0.6738
  C  C254  1  0.480030  0.937450  0.937450  1.0  -0.0919
  C  C255  1  0.471540  0.891660  0.891660  1.0  0.1662
  C  C256  1  0.468200  0.866380  0.866380  1.0  0.4131
  C  C257  1  0.961800  0.486860  0.589540  1.0  0.6736
  C  C258  1  0.937450  0.480030  0.645070  1.0  -0.092
  C  C259  1  0.891660  0.471540  0.745140  1.0  0.1662
  C  C260  1  0.866380  0.468200  0.799040  1.0  0.4137
  C  C261  1  0.589540  0.961800  0.961800  1.0  0.6726
  C  C262  1  0.645070  0.937450  0.937450  1.0  -0.0922
  C  C263  1  0.745140  0.891660  0.891660  1.0  0.1651
  C  C264  1  0.799040  0.866380  0.866380  1.0  0.4135
  C  C265  1  0.961800  0.589540  0.486860  1.0  0.6729
  C  C266  1  0.937450  0.645070  0.480030  1.0  -0.0891
  C  C267  1  0.891660  0.745140  0.471540  1.0  0.1678
  C  C268  1  0.866380  0.799040  0.468200  1.0  0.4146
  C  C269  1  0.961800  0.961800  0.589540  1.0  0.6723
  C  C270  1  0.937450  0.937450  0.645070  1.0  -0.0923
  C  C271  1  0.891660  0.891660  0.745140  1.0  0.1646
  C  C272  1  0.866380  0.866380  0.799040  1.0  0.4148
  C  C273  1  0.589540  0.486860  0.961800  1.0  0.6728
  C  C274  1  0.645070  0.480030  0.937450  1.0  -0.0924
  C  C275  1  0.745140  0.471540  0.891660  1.0  0.1659
  C  C276  1  0.799040  0.468200  0.866380  1.0  0.4129
  C  C277  1  0.961800  0.961800  0.486860  1.0  0.6726
  C  C278  1  0.937450  0.937450  0.480030  1.0  -0.0917
  C  C279  1  0.891660  0.891660  0.471540  1.0  0.1648
  C  C280  1  0.866380  0.866380  0.468200  1.0  0.4148
  C  C281  1  0.486860  0.589540  0.961800  1.0  0.6734
  C  C282  1  0.480030  0.645070  0.937450  1.0  -0.0895
  C  C283  1  0.471540  0.745140  0.891660  1.0  0.1677
  C  C284  1  0.468200  0.799040  0.866380  1.0  0.4137
  C  C285  1  0.589540  0.961800  0.486860  1.0  0.6723
  C  C286  1  0.645070  0.937450  0.480030  1.0  -0.0919
  C  C287  1  0.745140  0.891660  0.471540  1.0  0.1649
  C  C288  1  0.799040  0.866380  0.468200  1.0  0.4136
  C  C289  1  0.961800  0.486860  0.961800  1.0  0.6738
  C  C290  1  0.937450  0.480030  0.937450  1.0  -0.0917
  C  C291  1  0.891660  0.471540  0.891660  1.0  0.1663
  C  C292  1  0.866380  0.468200  0.866380  1.0  0.4132
  C  C293  1  0.486860  0.961800  0.589540  1.0  0.6736
  C  C294  1  0.480030  0.937450  0.645070  1.0  -0.0922
  C  C295  1  0.471540  0.891660  0.745140  1.0  0.166
  C  C296  1  0.468200  0.866380  0.799040  1.0  0.4137
  C  C297  1  0.961800  0.589540  0.961800  1.0  0.6731
  C  C298  1  0.937450  0.645070  0.937450  1.0  -0.0893
  C  C299  1  0.891660  0.745140  0.891660  1.0  0.168
  C  C300  1  0.866380  0.799040  0.866380  1.0  0.4148
  N  N301  1  0.180000  0.531440  0.108560  1.0  -0.4845
  N  N302  1  0.531440  0.180000  0.180000  1.0  -0.4853
  N  N303  1  0.108560  0.180000  0.180000  1.0  -0.484
  N  N304  1  0.180000  0.108560  0.531440  1.0  -0.485
  N  N305  1  0.180000  0.108560  0.180000  1.0  -0.4848
  N  N306  1  0.531440  0.180000  0.108560  1.0  -0.4847
  N  N307  1  0.108560  0.180000  0.531440  1.0  -0.4839
  N  N308  1  0.180000  0.531440  0.180000  1.0  -0.485
  N  N309  1  0.180000  0.180000  0.531440  1.0  -0.4851
  N  N310  1  0.531440  0.108560  0.180000  1.0  -0.4853
  N  N311  1  0.108560  0.531440  0.180000  1.0  -0.4838
  N  N312  1  0.180000  0.180000  0.108560  1.0  -0.4845
  N  N313  1  0.468560  0.820000  0.891440  1.0  -0.4861
  N  N314  1  0.820000  0.468560  0.820000  1.0  -0.485
  N  N315  1  0.820000  0.891440  0.820000  1.0  -0.4838
  N  N316  1  0.891440  0.820000  0.468560  1.0  -0.4846
  N  N317  1  0.891440  0.820000  0.820000  1.0  -0.4849
  N  N318  1  0.820000  0.468560  0.891440  1.0  -0.4856
  N  N319  1  0.820000  0.891440  0.468560  1.0  -0.4839
  N  N320  1  0.468560  0.820000  0.820000  1.0  -0.4863
  N  N321  1  0.820000  0.820000  0.468560  1.0  -0.4862
  N  N322  1  0.891440  0.468560  0.820000  1.0  -0.4849
  N  N323  1  0.468560  0.891440  0.820000  1.0  -0.4837
  N  N324  1  0.820000  0.820000  0.891440  1.0  -0.4861
  O  O325  1  0.995560  0.512940  0.063580  1.0  -0.5877
  O  O326  1  0.512940  0.995560  0.427920  1.0  -0.587
  O  O327  1  0.063580  0.427920  0.995560  1.0  -0.5881
  O  O328  1  0.427920  0.063580  0.512940  1.0  -0.5882
  O  O329  1  0.995560  0.063580  0.427920  1.0  -0.589
  O  O330  1  0.512940  0.427920  0.063580  1.0  -0.5855
  O  O331  1  0.063580  0.995560  0.512940  1.0  -0.5885
  O  O332  1  0.427920  0.512940  0.995560  1.0  -0.5881
  O  O333  1  0.995560  0.427920  0.512940  1.0  -0.588
  O  O334  1  0.512940  0.063580  0.995560  1.0  -0.588
  O  O335  1  0.063580  0.512940  0.427920  1.0  -0.5871
  O  O336  1  0.427920  0.995560  0.063580  1.0  -0.5882
  O  O337  1  0.487060  0.004440  0.936420  1.0  -0.5875
  O  O338  1  0.004440  0.487060  0.572080  1.0  -0.5886
  O  O339  1  0.572080  0.936420  0.004440  1.0  -0.5872
  O  O340  1  0.936420  0.572080  0.487060  1.0  -0.5875
  O  O341  1  0.936420  0.004440  0.572080  1.0  -0.5896
  O  O342  1  0.572080  0.487060  0.936420  1.0  -0.5881
  O  O343  1  0.004440  0.936420  0.487060  1.0  -0.5889
  O  O344  1  0.487060  0.572080  0.004440  1.0  -0.5856
  O  O345  1  0.572080  0.004440  0.487060  1.0  -0.588
  O  O346  1  0.936420  0.487060  0.004440  1.0  -0.587
  O  O347  1  0.487060  0.936420  0.572080  1.0  -0.5881
  O  O348  1  0.004440  0.572080  0.936420  1.0  -0.5881
  O  O349  1  0.004440  0.487060  0.936420  1.0  -0.5888
  O  O350  1  0.487060  0.004440  0.572080  1.0  -0.5869
  O  O351  1  0.936420  0.572080  0.004440  1.0  -0.5879
  O  O352  1  0.572080  0.936420  0.487060  1.0  -0.587
  O  O353  1  0.004440  0.936420  0.572080  1.0  -0.5891
  O  O354  1  0.487060  0.572080  0.936420  1.0  -0.5856
  O  O355  1  0.936420  0.004440  0.487060  1.0  -0.5893
  O  O356  1  0.572080  0.487060  0.004440  1.0  -0.5874
  O  O357  1  0.004440  0.572080  0.487060  1.0  -0.5877
  O  O358  1  0.487060  0.936420  0.004440  1.0  -0.5883
  O  O359  1  0.936420  0.487060  0.572080  1.0  -0.5875
  O  O360  1  0.572080  0.004440  0.936420  1.0  -0.5883
  O  O361  1  0.512940  0.995560  0.063580  1.0  -0.5867
  O  O362  1  0.995560  0.512940  0.427920  1.0  -0.5878
  O  O363  1  0.427920  0.063580  0.995560  1.0  -0.588
  O  O364  1  0.063580  0.427920  0.512940  1.0  -0.588
  O  O365  1  0.063580  0.995560  0.427920  1.0  -0.5886
  O  O366  1  0.427920  0.512940  0.063580  1.0  -0.5877
  O  O367  1  0.995560  0.063580  0.512940  1.0  -0.5893
  O  O368  1  0.512940  0.427920  0.995560  1.0  -0.5856
  O  O369  1  0.427920  0.995560  0.512940  1.0  -0.5889
  O  O370  1  0.063580  0.512940  0.995560  1.0  -0.5881
  O  O371  1  0.512940  0.063580  0.427920  1.0  -0.5871
  O  O372  1  0.995560  0.427920  0.063580  1.0  -0.5876
