# generated using pymatgen
data_Cu3H24C54(N7O6)2
_symmetry_space_group_name_H-M   'P 1'
_cell_length_a   37.47170000
_cell_length_b   37.47170000
_cell_length_c   37.47170000
_cell_angle_alpha   60.00000000
_cell_angle_beta   60.00000000
_cell_angle_gamma   60.00000000
_symmetry_Int_Tables_number   1
_chemical_formula_structural   Cu3H24C54(N7O6)2
_chemical_formula_sum   'Cu12 H96 C216 N56 O48'
_cell_volume   37204.47593797
_cell_formula_units_Z   4
loop_
 _symmetry_equiv_pos_site_id
 _symmetry_equiv_pos_as_xyz
  1  'x, y, z'
loop_
 _atom_site_type_symbol
 _atom_site_label
 _atom_site_symmetry_multiplicity
 _atom_site_fract_x
 _atom_site_fract_y
 _atom_site_fract_z
 _atom_site_occupancy
 _atom_site_charge
  Cu  Cu1  1  0.500000  0.035490  0.964510  1.0  0.8476
  Cu  Cu2  1  0.035490  0.500000  0.500000  1.0  0.8481
  Cu  Cu3  1  0.964510  0.500000  0.500000  1.0  0.8486
  Cu  Cu4  1  0.500000  0.964510  0.035490  1.0  0.848
  Cu  Cu5  1  0.500000  0.964510  0.500000  1.0  0.847
  Cu  Cu6  1  0.035490  0.500000  0.964510  1.0  0.8473
  Cu  Cu7  1  0.964510  0.500000  0.035490  1.0  0.8489
  Cu  Cu8  1  0.500000  0.035490  0.500000  1.0  0.8479
  Cu  Cu9  1  0.500000  0.500000  0.035490  1.0  0.8476
  Cu  Cu10  1  0.035490  0.964510  0.500000  1.0  0.8465
  Cu  Cu11  1  0.964510  0.035490  0.500000  1.0  0.8496
  Cu  Cu12  1  0.500000  0.500000  0.964510  1.0  0.8472
  H  H13  1  0.477500  0.995100  0.890700  1.0  0.0991
  H  H14  1  0.472300  0.962900  0.855500  1.0  0.1179
  H  H15  1  0.995100  0.477500  0.636700  1.0  0.098
  H  H16  1  0.962900  0.472300  0.709300  1.0  0.1182
  H  H17  1  0.890700  0.636700  0.477500  1.0  0.0983
  H  H18  1  0.855500  0.709300  0.472300  1.0  0.1181
  H  H19  1  0.636700  0.890700  0.995100  1.0  0.098
  H  H20  1  0.709300  0.855500  0.962900  1.0  0.1176
  H  H21  1  0.477500  0.890700  0.636700  1.0  0.0984
  H  H22  1  0.472300  0.855500  0.709300  1.0  0.1182
  H  H23  1  0.995100  0.636700  0.890700  1.0  0.0991
  H  H24  1  0.962900  0.709300  0.855500  1.0  0.1184
  H  H25  1  0.890700  0.477500  0.995100  1.0  0.099
  H  H26  1  0.855500  0.472300  0.962900  1.0  0.1187
  H  H27  1  0.636700  0.995100  0.477500  1.0  0.0983
  H  H28  1  0.709300  0.962900  0.472300  1.0  0.118
  H  H29  1  0.477500  0.636700  0.995100  1.0  0.0981
  H  H30  1  0.472300  0.709300  0.962900  1.0  0.1172
  H  H31  1  0.995100  0.890700  0.477500  1.0  0.0981
  H  H32  1  0.962900  0.855500  0.472300  1.0  0.1186
  H  H33  1  0.890700  0.995100  0.636700  1.0  0.0983
  H  H34  1  0.855500  0.962900  0.709300  1.0  0.1183
  H  H35  1  0.636700  0.477500  0.890700  1.0  0.0994
  H  H36  1  0.709300  0.472300  0.855500  1.0  0.1176
  H  H37  1  0.004900  0.522500  0.109300  1.0  0.0986
  H  H38  1  0.037100  0.527700  0.144500  1.0  0.1185
  H  H39  1  0.522500  0.004900  0.363300  1.0  0.0993
  H  H40  1  0.527700  0.037100  0.290700  1.0  0.1176
  H  H41  1  0.363300  0.109300  0.522500  1.0  0.0983
  H  H42  1  0.290700  0.144500  0.527700  1.0  0.1175
  H  H43  1  0.109300  0.363300  0.004900  1.0  0.0991
  H  H44  1  0.144500  0.290700  0.037100  1.0  0.1181
  H  H45  1  0.109300  0.522500  0.363300  1.0  0.0992
  H  H46  1  0.144500  0.527700  0.290700  1.0  0.1176
  H  H47  1  0.363300  0.004900  0.109300  1.0  0.0981
  H  H48  1  0.290700  0.037100  0.144500  1.0  0.1179
  H  H49  1  0.522500  0.109300  0.004900  1.0  0.0988
  H  H50  1  0.527700  0.144500  0.037100  1.0  0.1182
  H  H51  1  0.004900  0.363300  0.522500  1.0  0.0993
  H  H52  1  0.037100  0.290700  0.527700  1.0  0.1176
  H  H53  1  0.363300  0.522500  0.004900  1.0  0.099
  H  H54  1  0.290700  0.527700  0.037100  1.0  0.1179
  H  H55  1  0.109300  0.004900  0.522500  1.0  0.0985
  H  H56  1  0.144500  0.037100  0.527700  1.0  0.1178
  H  H57  1  0.004900  0.109300  0.363300  1.0  0.0986
  H  H58  1  0.037100  0.144500  0.290700  1.0  0.1181
  H  H59  1  0.522500  0.363300  0.109300  1.0  0.098
  H  H60  1  0.527700  0.290700  0.144500  1.0  0.117
  H  H61  1  0.522500  0.004900  0.109300  1.0  0.099
  H  H62  1  0.527700  0.037100  0.144500  1.0  0.1179
  H  H63  1  0.004900  0.522500  0.363300  1.0  0.0985
  H  H64  1  0.037100  0.527700  0.290700  1.0  0.1184
  H  H65  1  0.109300  0.363300  0.522500  1.0  0.0987
  H  H66  1  0.144500  0.290700  0.527700  1.0  0.118
  H  H67  1  0.363300  0.109300  0.004900  1.0  0.0985
  H  H68  1  0.290700  0.144500  0.037100  1.0  0.1173
  H  H69  1  0.522500  0.109300  0.363300  1.0  0.0985
  H  H70  1  0.527700  0.144500  0.290700  1.0  0.118
  H  H71  1  0.004900  0.363300  0.109300  1.0  0.0992
  H  H72  1  0.037100  0.290700  0.144500  1.0  0.1178
  H  H73  1  0.109300  0.522500  0.004900  1.0  0.0997
  H  H74  1  0.144500  0.527700  0.037100  1.0  0.1177
  H  H75  1  0.363300  0.004900  0.522500  1.0  0.0985
  H  H76  1  0.290700  0.037100  0.527700  1.0  0.1176
  H  H77  1  0.522500  0.363300  0.004900  1.0  0.0985
  H  H78  1  0.527700  0.290700  0.037100  1.0  0.1172
  H  H79  1  0.004900  0.109300  0.522500  1.0  0.0989
  H  H80  1  0.037100  0.144500  0.527700  1.0  0.1178
  H  H81  1  0.109300  0.004900  0.363300  1.0  0.0982
  H  H82  1  0.144500  0.037100  0.290700  1.0  0.1182
  H  H83  1  0.363300  0.522500  0.109300  1.0  0.0985
  H  H84  1  0.290700  0.527700  0.144500  1.0  0.1178
  H  H85  1  0.995100  0.477500  0.890700  1.0  0.0983
  H  H86  1  0.962900  0.472300  0.855500  1.0  0.1183
  H  H87  1  0.477500  0.995100  0.636700  1.0  0.0988
  H  H88  1  0.472300  0.962900  0.709300  1.0  0.1182
  H  H89  1  0.636700  0.890700  0.477500  1.0  0.098
  H  H90  1  0.709300  0.855500  0.472300  1.0  0.1176
  H  H91  1  0.890700  0.636700  0.995100  1.0  0.0982
  H  H92  1  0.855500  0.709300  0.962900  1.0  0.118
  H  H93  1  0.890700  0.477500  0.636700  1.0  0.0988
  H  H94  1  0.855500  0.472300  0.709300  1.0  0.1185
  H  H95  1  0.636700  0.995100  0.890700  1.0  0.0985
  H  H96  1  0.709300  0.962900  0.855500  1.0  0.1178
  H  H97  1  0.477500  0.890700  0.995100  1.0  0.0985
  H  H98  1  0.472300  0.855500  0.962900  1.0  0.1185
  H  H99  1  0.995100  0.636700  0.477500  1.0  0.0989
  H  H100  1  0.962900  0.709300  0.472300  1.0  0.1182
  H  H101  1  0.636700  0.477500  0.995100  1.0  0.0987
  H  H102  1  0.709300  0.472300  0.962900  1.0  0.1175
  H  H103  1  0.890700  0.995100  0.477500  1.0  0.0982
  H  H104  1  0.855500  0.962900  0.472300  1.0  0.1187
  H  H105  1  0.995100  0.890700  0.636700  1.0  0.0983
  H  H106  1  0.962900  0.855500  0.709300  1.0  0.1181
  H  H107  1  0.477500  0.636700  0.890700  1.0  0.0987
  H  H108  1  0.472300  0.709300  0.855500  1.0  0.1171
  C  C109  1  0.476900  0.966700  0.905000  1.0  -0.016
  C  C110  1  0.473270  0.947790  0.883790  1.0  -0.1194
  C  C111  1  0.966700  0.476900  0.651400  1.0  -0.0132
  C  C112  1  0.947790  0.473270  0.695150  1.0  -0.118
  C  C113  1  0.905000  0.651400  0.476900  1.0  -0.0159
  C  C114  1  0.883790  0.695150  0.473270  1.0  -0.1205
  C  C115  1  0.651400  0.905000  0.966700  1.0  -0.0187
  C  C116  1  0.695150  0.883790  0.947790  1.0  -0.1191
  C  C117  1  0.476900  0.905000  0.651400  1.0  -0.0175
  C  C118  1  0.473270  0.883790  0.695150  1.0  -0.1193
  C  C119  1  0.966700  0.651400  0.905000  1.0  -0.0139
  C  C120  1  0.947790  0.695150  0.883790  1.0  -0.1189
  C  C121  1  0.905000  0.476900  0.966700  1.0  -0.0158
  C  C122  1  0.883790  0.473270  0.947790  1.0  -0.1191
  C  C123  1  0.651400  0.966700  0.476900  1.0  -0.0174
  C  C124  1  0.695150  0.947790  0.473270  1.0  -0.1183
  C  C125  1  0.476900  0.651400  0.966700  1.0  -0.0165
  C  C126  1  0.473270  0.695150  0.947790  1.0  -0.1179
  C  C127  1  0.966700  0.905000  0.476900  1.0  -0.0154
  C  C128  1  0.947790  0.883790  0.473270  1.0  -0.1188
  C  C129  1  0.905000  0.966700  0.651400  1.0  -0.0167
  C  C130  1  0.883790  0.947790  0.695150  1.0  -0.1204
  C  C131  1  0.651400  0.476900  0.905000  1.0  -0.0162
  C  C132  1  0.695150  0.473270  0.883790  1.0  -0.1174
  C  C133  1  0.033300  0.523100  0.095000  1.0  -0.0143
  C  C134  1  0.052210  0.526730  0.116210  1.0  -0.1187
  C  C135  1  0.523100  0.033300  0.348600  1.0  -0.0162
  C  C136  1  0.526730  0.052210  0.304850  1.0  -0.1192
  C  C137  1  0.348600  0.095000  0.523100  1.0  -0.0175
  C  C138  1  0.304850  0.116210  0.526730  1.0  -0.1188
  C  C139  1  0.095000  0.348600  0.033300  1.0  -0.0143
  C  C140  1  0.116210  0.304850  0.052210  1.0  -0.1191
  C  C141  1  0.095000  0.523100  0.348600  1.0  -0.0139
  C  C142  1  0.116210  0.526730  0.304850  1.0  -0.1172
  C  C143  1  0.348600  0.033300  0.095000  1.0  -0.0174
  C  C144  1  0.304850  0.052210  0.116210  1.0  -0.1188
  C  C145  1  0.523100  0.095000  0.033300  1.0  -0.0171
  C  C146  1  0.526730  0.116210  0.052210  1.0  -0.1189
  C  C147  1  0.033300  0.348600  0.523100  1.0  -0.015
  C  C148  1  0.052210  0.304850  0.526730  1.0  -0.1201
  C  C149  1  0.348600  0.523100  0.033300  1.0  -0.0154
  C  C150  1  0.304850  0.526730  0.052210  1.0  -0.1171
  C  C151  1  0.095000  0.033300  0.523100  1.0  -0.0148
  C  C152  1  0.116210  0.052210  0.526730  1.0  -0.1187
  C  C153  1  0.033300  0.095000  0.348600  1.0  -0.0171
  C  C154  1  0.052210  0.116210  0.304850  1.0  -0.1191
  C  C155  1  0.523100  0.348600  0.095000  1.0  -0.0162
  C  C156  1  0.526730  0.304850  0.116210  1.0  -0.1174
  C  C157  1  0.523100  0.033300  0.095000  1.0  -0.016
  C  C158  1  0.526730  0.052210  0.116210  1.0  -0.1197
  C  C159  1  0.033300  0.523100  0.348600  1.0  -0.0139
  C  C160  1  0.052210  0.526730  0.304850  1.0  -0.1188
  C  C161  1  0.095000  0.348600  0.523100  1.0  -0.0145
  C  C162  1  0.116210  0.304850  0.526730  1.0  -0.1178
  C  C163  1  0.348600  0.095000  0.033300  1.0  -0.0174
  C  C164  1  0.304850  0.116210  0.052210  1.0  -0.1205
  C  C165  1  0.523100  0.095000  0.348600  1.0  -0.0166
  C  C166  1  0.526730  0.116210  0.304850  1.0  -0.1179
  C  C167  1  0.033300  0.348600  0.095000  1.0  -0.015
  C  C168  1  0.052210  0.304850  0.116210  1.0  -0.119
  C  C169  1  0.095000  0.523100  0.033300  1.0  -0.0142
  C  C170  1  0.116210  0.526730  0.052210  1.0  -0.1176
  C  C171  1  0.348600  0.033300  0.523100  1.0  -0.0166
  C  C172  1  0.304850  0.052210  0.526730  1.0  -0.1196
  C  C173  1  0.523100  0.348600  0.033300  1.0  -0.0163
  C  C174  1  0.526730  0.304850  0.052210  1.0  -0.1168
  C  C175  1  0.033300  0.095000  0.523100  1.0  -0.0175
  C  C176  1  0.052210  0.116210  0.526730  1.0  -0.1187
  C  C177  1  0.095000  0.033300  0.348600  1.0  -0.0152
  C  C178  1  0.116210  0.052210  0.304850  1.0  -0.119
  C  C179  1  0.348600  0.523100  0.095000  1.0  -0.0151
  C  C180  1  0.304850  0.526730  0.116210  1.0  -0.1182
  C  C181  1  0.966700  0.476900  0.905000  1.0  -0.0128
  C  C182  1  0.947790  0.473270  0.883790  1.0  -0.118
  C  C183  1  0.476900  0.966700  0.651400  1.0  -0.0162
  C  C184  1  0.473270  0.947790  0.695150  1.0  -0.1188
  C  C185  1  0.651400  0.905000  0.476900  1.0  -0.0185
  C  C186  1  0.695150  0.883790  0.473270  1.0  -0.1197
  C  C187  1  0.905000  0.651400  0.966700  1.0  -0.016
  C  C188  1  0.883790  0.695150  0.947790  1.0  -0.1191
  C  C189  1  0.905000  0.476900  0.651400  1.0  -0.0156
  C  C190  1  0.883790  0.473270  0.695150  1.0  -0.1197
  C  C191  1  0.651400  0.966700  0.905000  1.0  -0.0177
  C  C192  1  0.695150  0.947790  0.883790  1.0  -0.1193
  C  C193  1  0.476900  0.905000  0.966700  1.0  -0.0176
  C  C194  1  0.473270  0.883790  0.947790  1.0  -0.1188
  C  C195  1  0.966700  0.651400  0.476900  1.0  -0.0138
  C  C196  1  0.947790  0.695150  0.473270  1.0  -0.1178
  C  C197  1  0.651400  0.476900  0.966700  1.0  -0.0167
  C  C198  1  0.695150  0.473270  0.947790  1.0  -0.1175
  C  C199  1  0.905000  0.966700  0.476900  1.0  -0.0158
  C  C200  1  0.883790  0.947790  0.473270  1.0  -0.1202
  C  C201  1  0.966700  0.905000  0.651400  1.0  -0.016
  C  C202  1  0.947790  0.883790  0.695150  1.0  -0.1187
  C  C203  1  0.476900  0.651400  0.905000  1.0  -0.0159
  C  C204  1  0.473270  0.695150  0.883790  1.0  -0.1181
  C  C205  1  0.487080  0.966640  0.966640  1.0  0.6976
  C  C206  1  0.479510  0.945490  0.945490  1.0  -0.1037
  C  C207  1  0.471000  0.905740  0.905740  1.0  0.1719
  C  C208  1  0.467080  0.884980  0.884980  1.0  0.3889
  C  C209  1  0.966640  0.487080  0.579640  1.0  0.6974
  C  C210  1  0.945490  0.479510  0.629510  1.0  -0.1041
  C  C211  1  0.905740  0.471000  0.717520  1.0  0.1723
  C  C212  1  0.884980  0.467080  0.762960  1.0  0.3898
  C  C213  1  0.966640  0.579640  0.487080  1.0  0.6971
  C  C214  1  0.945490  0.629510  0.479510  1.0  -0.1054
  C  C215  1  0.905740  0.717520  0.471000  1.0  0.1733
  C  C216  1  0.884980  0.762960  0.467080  1.0  0.3899
  C  C217  1  0.579640  0.966640  0.966640  1.0  0.6969
  C  C218  1  0.629510  0.945490  0.945490  1.0  -0.1081
  C  C219  1  0.717520  0.905740  0.905740  1.0  0.1728
  C  C220  1  0.762960  0.884980  0.884980  1.0  0.3884
  C  C221  1  0.487080  0.966640  0.579640  1.0  0.6976
  C  C222  1  0.479510  0.945490  0.629510  1.0  -0.1039
  C  C223  1  0.471000  0.905740  0.717520  1.0  0.1723
  C  C224  1  0.467080  0.884980  0.762960  1.0  0.3892
  C  C225  1  0.966640  0.579640  0.966640  1.0  0.6973
  C  C226  1  0.945490  0.629510  0.945490  1.0  -0.1058
  C  C227  1  0.905740  0.717520  0.905740  1.0  0.1734
  C  C228  1  0.884980  0.762960  0.884980  1.0  0.3898
  C  C229  1  0.966640  0.487080  0.966640  1.0  0.6974
  C  C230  1  0.945490  0.479510  0.945490  1.0  -0.1036
  C  C231  1  0.905740  0.471000  0.905740  1.0  0.1719
  C  C232  1  0.884980  0.467080  0.884980  1.0  0.3894
  C  C233  1  0.579640  0.966640  0.487080  1.0  0.6967
  C  C234  1  0.629510  0.945490  0.479510  1.0  -0.108
  C  C235  1  0.717520  0.905740  0.471000  1.0  0.1726
  C  C236  1  0.762960  0.884980  0.467080  1.0  0.3886
  C  C237  1  0.487080  0.579640  0.966640  1.0  0.6975
  C  C238  1  0.479510  0.629510  0.945490  1.0  -0.1061
  C  C239  1  0.471000  0.717520  0.905740  1.0  0.1738
  C  C240  1  0.467080  0.762960  0.884980  1.0  0.3887
  C  C241  1  0.966640  0.966640  0.487080  1.0  0.6966
  C  C242  1  0.945490  0.945490  0.479510  1.0  -0.1061
  C  C243  1  0.905740  0.905740  0.471000  1.0  0.1725
  C  C244  1  0.884980  0.884980  0.467080  1.0  0.3902
  C  C245  1  0.966640  0.966640  0.579640  1.0  0.6967
  C  C246  1  0.945490  0.945490  0.629510  1.0  -0.1065
  C  C247  1  0.905740  0.905740  0.717520  1.0  0.1727
  C  C248  1  0.884980  0.884980  0.762960  1.0  0.3898
  C  C249  1  0.579640  0.487080  0.966640  1.0  0.6971
  C  C250  1  0.629510  0.479510  0.945490  1.0  -0.1086
  C  C251  1  0.717520  0.471000  0.905740  1.0  0.1734
  C  C252  1  0.762960  0.467080  0.884980  1.0  0.3882
  C  C253  1  0.033360  0.512920  0.033360  1.0  0.697
  C  C254  1  0.054510  0.520490  0.054510  1.0  -0.1039
  C  C255  1  0.094260  0.529000  0.094260  1.0  0.1727
  C  C256  1  0.115020  0.532920  0.115020  1.0  0.389
  C  C257  1  0.512920  0.033360  0.420360  1.0  0.6977
  C  C258  1  0.520490  0.054510  0.370490  1.0  -0.1032
  C  C259  1  0.529000  0.094260  0.282480  1.0  0.1725
  C  C260  1  0.532920  0.115020  0.237040  1.0  0.3892
  C  C261  1  0.420360  0.033360  0.512920  1.0  0.6968
  C  C262  1  0.370490  0.054510  0.520490  1.0  -0.1044
  C  C263  1  0.282480  0.094260  0.529000  1.0  0.172
  C  C264  1  0.237040  0.115020  0.532920  1.0  0.3894
  C  C265  1  0.033360  0.420360  0.033360  1.0  0.6969
  C  C266  1  0.054510  0.370490  0.054510  1.0  -0.1058
  C  C267  1  0.094260  0.282480  0.094260  1.0  0.1743
  C  C268  1  0.115020  0.237040  0.115020  1.0  0.3892
  C  C269  1  0.033360  0.512920  0.420360  1.0  0.6971
  C  C270  1  0.054510  0.520490  0.370490  1.0  -0.1034
  C  C271  1  0.094260  0.529000  0.282480  1.0  0.1723
  C  C272  1  0.115020  0.532920  0.237040  1.0  0.3886
  C  C273  1  0.420360  0.033360  0.033360  1.0  0.6966
  C  C274  1  0.370490  0.054510  0.054510  1.0  -0.1041
  C  C275  1  0.282480  0.094260  0.094260  1.0  0.1719
  C  C276  1  0.237040  0.115020  0.115020  1.0  0.3895
  C  C277  1  0.512920  0.033360  0.033360  1.0  0.6978
  C  C278  1  0.520490  0.054510  0.054510  1.0  -0.1038
  C  C279  1  0.529000  0.094260  0.094260  1.0  0.1728
  C  C280  1  0.532920  0.115020  0.115020  1.0  0.3897
  C  C281  1  0.033360  0.420360  0.512920  1.0  0.6971
  C  C282  1  0.054510  0.370490  0.520490  1.0  -0.1063
  C  C283  1  0.094260  0.282480  0.529000  1.0  0.1744
  C  C284  1  0.115020  0.237040  0.532920  1.0  0.389
  C  C285  1  0.420360  0.512920  0.033360  1.0  0.6973
  C  C286  1  0.370490  0.520490  0.054510  1.0  -0.1094
  C  C287  1  0.282480  0.529000  0.094260  1.0  0.1725
  C  C288  1  0.237040  0.532920  0.115020  1.0  0.3896
  C  C289  1  0.033360  0.033360  0.512920  1.0  0.6966
  C  C290  1  0.054510  0.054510  0.520490  1.0  -0.1058
  C  C291  1  0.094260  0.094260  0.529000  1.0  0.1736
  C  C292  1  0.115020  0.115020  0.532920  1.0  0.3891
  C  C293  1  0.033360  0.033360  0.420360  1.0  0.6966
  C  C294  1  0.054510  0.054510  0.370490  1.0  -0.1054
  C  C295  1  0.094260  0.094260  0.282480  1.0  0.1734
  C  C296  1  0.115020  0.115020  0.237040  1.0  0.3893
  C  C297  1  0.512920  0.420360  0.033360  1.0  0.6976
  C  C298  1  0.520490  0.370490  0.054510  1.0  -0.1061
  C  C299  1  0.529000  0.282480  0.094260  1.0  0.1742
  C  C300  1  0.532920  0.237040  0.115020  1.0  0.3899
  C  C301  1  0.466310  0.823070  0.887550  1.0  0.3055
  C  C302  1  0.823070  0.466310  0.823070  1.0  0.3136
  C  C303  1  0.887550  0.823070  0.466310  1.0  0.3054
  C  C304  1  0.823070  0.887550  0.823070  1.0  0.3038
  C  C305  1  0.466310  0.887550  0.823070  1.0  0.3054
  C  C306  1  0.823070  0.823070  0.887550  1.0  0.3063
  C  C307  1  0.887550  0.466310  0.823070  1.0  0.306
  C  C308  1  0.823070  0.823070  0.466310  1.0  0.3147
  C  C309  1  0.466310  0.823070  0.823070  1.0  0.3133
  C  C310  1  0.823070  0.887550  0.466310  1.0  0.3054
  C  C311  1  0.887550  0.823070  0.823070  1.0  0.3041
  C  C312  1  0.823070  0.466310  0.887550  1.0  0.3058
  C  C313  1  0.176930  0.533690  0.112450  1.0  0.3081
  C  C314  1  0.533690  0.176930  0.176930  1.0  0.3131
  C  C315  1  0.176930  0.112450  0.533690  1.0  0.3058
  C  C316  1  0.112450  0.176930  0.176930  1.0  0.3034
  C  C317  1  0.112450  0.533690  0.176930  1.0  0.3065
  C  C318  1  0.176930  0.176930  0.112450  1.0  0.305
  C  C319  1  0.533690  0.112450  0.176930  1.0  0.3056
  C  C320  1  0.176930  0.176930  0.533690  1.0  0.3135
  C  C321  1  0.176930  0.533690  0.176930  1.0  0.3136
  C  C322  1  0.112450  0.176930  0.533690  1.0  0.3057
  C  C323  1  0.176930  0.112450  0.176930  1.0  0.3035
  C  C324  1  0.533690  0.176930  0.112450  1.0  0.3072
  N  N325  1  0.467410  0.843370  0.907430  1.0  -0.4442
  N  N326  1  0.843370  0.467410  0.781790  1.0  -0.4453
  N  N327  1  0.907430  0.781790  0.467410  1.0  -0.4391
  N  N328  1  0.781790  0.907430  0.843370  1.0  -0.4423
  N  N329  1  0.467410  0.907430  0.781790  1.0  -0.4398
  N  N330  1  0.843370  0.781790  0.907430  1.0  -0.438
  N  N331  1  0.907430  0.467410  0.843370  1.0  -0.4387
  N  N332  1  0.781790  0.843370  0.467410  1.0  -0.4433
  N  N333  1  0.467410  0.781790  0.843370  1.0  -0.4465
  N  N334  1  0.843370  0.907430  0.467410  1.0  -0.441
  N  N335  1  0.907430  0.843370  0.781790  1.0  -0.4395
  N  N336  1  0.781790  0.467410  0.907430  1.0  -0.4413
  N  N337  1  0.156630  0.532590  0.092570  1.0  -0.445
  N  N338  1  0.532590  0.156630  0.218210  1.0  -0.4435
  N  N339  1  0.218210  0.092570  0.532590  1.0  -0.4449
  N  N340  1  0.092570  0.218210  0.156630  1.0  -0.4377
  N  N341  1  0.092570  0.532590  0.218210  1.0  -0.4371
  N  N342  1  0.218210  0.156630  0.092570  1.0  -0.4432
  N  N343  1  0.532590  0.092570  0.156630  1.0  -0.4436
  N  N344  1  0.156630  0.218210  0.532590  1.0  -0.4403
  N  N345  1  0.218210  0.532590  0.156630  1.0  -0.4399
  N  N346  1  0.092570  0.156630  0.532590  1.0  -0.4385
  N  N347  1  0.156630  0.092570  0.218210  1.0  -0.4421
  N  N348  1  0.532590  0.218210  0.092570  1.0  -0.4461
  N  N349  1  0.532590  0.156630  0.092570  1.0  -0.4499
  N  N350  1  0.156630  0.532590  0.218210  1.0  -0.441
  N  N351  1  0.092570  0.218210  0.532590  1.0  -0.4383
  N  N352  1  0.218210  0.092570  0.156630  1.0  -0.4443
  N  N353  1  0.532590  0.092570  0.218210  1.0  -0.4434
  N  N354  1  0.156630  0.218210  0.092570  1.0  -0.4421
  N  N355  1  0.092570  0.532590  0.156630  1.0  -0.4371
  N  N356  1  0.218210  0.156630  0.532590  1.0  -0.4414
  N  N357  1  0.532590  0.218210  0.156630  1.0  -0.442
  N  N358  1  0.156630  0.092570  0.532590  1.0  -0.4415
  N  N359  1  0.092570  0.156630  0.218210  1.0  -0.4391
  N  N360  1  0.218210  0.532590  0.092570  1.0  -0.4437
  N  N361  1  0.843370  0.467410  0.907430  1.0  -0.44
  N  N362  1  0.467410  0.843370  0.781790  1.0  -0.4479
  N  N363  1  0.781790  0.907430  0.467410  1.0  -0.4421
  N  N364  1  0.907430  0.781790  0.843370  1.0  -0.4401
  N  N365  1  0.907430  0.467410  0.781790  1.0  -0.4387
  N  N366  1  0.781790  0.843370  0.907430  1.0  -0.4408
  N  N367  1  0.467410  0.907430  0.843370  1.0  -0.4394
  N  N368  1  0.843370  0.781790  0.467410  1.0  -0.4407
  N  N369  1  0.781790  0.467410  0.843370  1.0  -0.4453
  N  N370  1  0.907430  0.843370  0.467410  1.0  -0.44
  N  N371  1  0.843370  0.907430  0.781790  1.0  -0.4404
  N  N372  1  0.467410  0.781790  0.907430  1.0  -0.4409
  N  N373  1  0.465660  0.844780  0.844780  1.0  -0.1532
  N  N374  1  0.844780  0.465660  0.844780  1.0  -0.1532
  N  N375  1  0.844780  0.844780  0.465660  1.0  -0.1531
  N  N376  1  0.844780  0.844780  0.844780  1.0  -0.1587
  N  N377  1  0.155220  0.534340  0.155220  1.0  -0.1529
  N  N378  1  0.534340  0.155220  0.155220  1.0  -0.1532
  N  N379  1  0.155220  0.155220  0.534340  1.0  -0.1529
  N  N380  1  0.155220  0.155220  0.155220  1.0  -0.1583
  O  O381  1  0.488830  0.003590  0.944380  1.0  -0.5565
  O  O382  1  0.003590  0.488830  0.563200  1.0  -0.5579
  O  O383  1  0.944380  0.563200  0.488830  1.0  -0.5568
  O  O384  1  0.563200  0.944380  0.003590  1.0  -0.5572
  O  O385  1  0.488830  0.944380  0.563200  1.0  -0.5575
  O  O386  1  0.003590  0.563200  0.944380  1.0  -0.5573
  O  O387  1  0.944380  0.488830  0.003590  1.0  -0.5562
  O  O388  1  0.563200  0.003590  0.488830  1.0  -0.5566
  O  O389  1  0.488830  0.563200  0.003590  1.0  -0.5559
  O  O390  1  0.003590  0.944380  0.488830  1.0  -0.5581
  O  O391  1  0.944380  0.003590  0.563200  1.0  -0.5583
  O  O392  1  0.563200  0.488830  0.944380  1.0  -0.5574
  O  O393  1  0.996410  0.511170  0.055620  1.0  -0.5566
  O  O394  1  0.511170  0.996410  0.436800  1.0  -0.5567
  O  O395  1  0.436800  0.055620  0.511170  1.0  -0.557
  O  O396  1  0.055620  0.436800  0.996410  1.0  -0.5573
  O  O397  1  0.055620  0.511170  0.436800  1.0  -0.5566
  O  O398  1  0.436800  0.996410  0.055620  1.0  -0.5573
  O  O399  1  0.511170  0.055620  0.996410  1.0  -0.5568
  O  O400  1  0.996410  0.436800  0.511170  1.0  -0.5572
  O  O401  1  0.436800  0.511170  0.996410  1.0  -0.5577
  O  O402  1  0.055620  0.996410  0.511170  1.0  -0.5589
  O  O403  1  0.996410  0.055620  0.436800  1.0  -0.5575
  O  O404  1  0.511170  0.436800  0.055620  1.0  -0.5552
  O  O405  1  0.511170  0.996410  0.055620  1.0  -0.5569
  O  O406  1  0.996410  0.511170  0.436800  1.0  -0.5564
  O  O407  1  0.055620  0.436800  0.511170  1.0  -0.5572
  O  O408  1  0.436800  0.055620  0.996410  1.0  -0.5569
  O  O409  1  0.511170  0.055620  0.436800  1.0  -0.5565
  O  O410  1  0.996410  0.436800  0.055620  1.0  -0.557
  O  O411  1  0.055620  0.511170  0.996410  1.0  -0.5567
  O  O412  1  0.436800  0.996410  0.511170  1.0  -0.5577
  O  O413  1  0.511170  0.436800  0.996410  1.0  -0.5556
  O  O414  1  0.996410  0.055620  0.511170  1.0  -0.5577
  O  O415  1  0.055620  0.996410  0.436800  1.0  -0.5589
  O  O416  1  0.436800  0.511170  0.055620  1.0  -0.5575
  O  O417  1  0.003590  0.488830  0.944380  1.0  -0.5572
  O  O418  1  0.488830  0.003590  0.563200  1.0  -0.5567
  O  O419  1  0.563200  0.944380  0.488830  1.0  -0.5574
  O  O420  1  0.944380  0.563200  0.003590  1.0  -0.5568
  O  O421  1  0.944380  0.488830  0.563200  1.0  -0.5566
  O  O422  1  0.563200  0.003590  0.944380  1.0  -0.5564
  O  O423  1  0.488830  0.944380  0.003590  1.0  -0.5571
  O  O424  1  0.003590  0.563200  0.488830  1.0  -0.5574
  O  O425  1  0.563200  0.488830  0.003590  1.0  -0.5569
  O  O426  1  0.944380  0.003590  0.488830  1.0  -0.5581
  O  O427  1  0.003590  0.944380  0.563200  1.0  -0.5583
  O  O428  1  0.488830  0.563200  0.944380  1.0  -0.5561
