# generated using pymatgen
data_Gd3P4H8(CO3)8
_symmetry_space_group_name_H-M   'P 1'
_cell_length_a   11.07570000
_cell_length_b   13.04330000
_cell_length_c   25.70140000
_cell_angle_alpha   90.00000000
_cell_angle_beta   90.00000000
_cell_angle_gamma   90.00000000
_symmetry_Int_Tables_number   1
_chemical_formula_structural   Gd3P4H8(CO3)8
_chemical_formula_sum   'Gd12 P16 H32 C32 O96'
_cell_volume   3712.91876887
_cell_formula_units_Z   4
loop_
 _symmetry_equiv_pos_site_id
 _symmetry_equiv_pos_as_xyz
  1  'x, y, z'
loop_
 _atom_site_type_symbol
 _atom_site_label
 _atom_site_symmetry_multiplicity
 _atom_site_fract_x
 _atom_site_fract_y
 _atom_site_fract_z
 _atom_site_occupancy
 _atom_site_charge
  Gd  Gd1  1  0.979420  0.657030  0.218780  1.0  2.2182
  Gd  Gd2  1  0.479420  0.842970  0.281220  1.0  2.2179
  Gd  Gd3  1  0.520580  0.657030  0.781220  1.0  2.218
  Gd  Gd4  1  0.020580  0.842970  0.718780  1.0  2.218
  Gd  Gd5  1  0.020580  0.342970  0.781220  1.0  2.218
  Gd  Gd6  1  0.520580  0.157030  0.718780  1.0  2.2181
  Gd  Gd7  1  0.479420  0.342970  0.218780  1.0  2.218
  Gd  Gd8  1  0.979420  0.157030  0.281220  1.0  2.218
  Gd  Gd9  1  0.250000  0.492130  0.000000  1.0  2.183
  Gd  Gd10  1  0.750000  0.007870  0.500000  1.0  2.1839
  Gd  Gd11  1  0.750000  0.507870  0.000000  1.0  2.1839
  Gd  Gd12  1  0.250000  0.992130  0.500000  1.0  2.183
  P  P13  1  0.152750  0.811440  0.303960  1.0  1.4936
  P  P14  1  0.310990  0.701740  0.081650  1.0  1.3332
  P  P15  1  0.652750  0.688560  0.196040  1.0  1.4939
  P  P16  1  0.810990  0.798260  0.418350  1.0  1.3325
  P  P17  1  0.347250  0.811440  0.696040  1.0  1.4936
  P  P18  1  0.189010  0.701740  0.918350  1.0  1.3319
  P  P19  1  0.847250  0.688560  0.803960  1.0  1.4951
  P  P20  1  0.689010  0.798260  0.581650  1.0  1.3323
  P  P21  1  0.847250  0.188560  0.696040  1.0  1.4941
  P  P22  1  0.689010  0.298260  0.918350  1.0  1.3322
  P  P23  1  0.347250  0.311440  0.803960  1.0  1.4941
  P  P24  1  0.189010  0.201740  0.581650  1.0  1.3326
  P  P25  1  0.652750  0.188560  0.303960  1.0  1.4954
  P  P26  1  0.810990  0.298260  0.081650  1.0  1.3323
  P  P27  1  0.152750  0.311440  0.196040  1.0  1.4928
  P  P28  1  0.310990  0.201740  0.418350  1.0  1.333
  H  H29  1  0.100600  0.890600  0.224600  1.0  0.153
  H  H30  1  0.195200  0.008400  0.274900  1.0  0.4287
  H  H31  1  0.262600  0.573700  0.141500  1.0  0.1589
  H  H32  1  0.248000  0.685900  0.192300  1.0  0.4182
  H  H33  1  0.600600  0.609400  0.275400  1.0  0.1522
  H  H34  1  0.695200  0.491600  0.225100  1.0  0.4286
  H  H35  1  0.762600  0.926300  0.358500  1.0  0.1606
  H  H36  1  0.748000  0.814100  0.307700  1.0  0.4178
  H  H37  1  0.399400  0.890600  0.775400  1.0  0.1521
  H  H38  1  0.304800  0.008400  0.725100  1.0  0.4268
  H  H39  1  0.237400  0.573700  0.858500  1.0  0.1593
  H  H40  1  0.252000  0.685900  0.807700  1.0  0.4204
  H  H41  1  0.899400  0.609400  0.724600  1.0  0.1533
  H  H42  1  0.804800  0.491600  0.774900  1.0  0.4278
  H  H43  1  0.737400  0.926300  0.641500  1.0  0.1607
  H  H44  1  0.752000  0.814100  0.692300  1.0  0.4188
  H  H45  1  0.899400  0.109400  0.775400  1.0  0.1522
  H  H46  1  0.804800  0.991600  0.725100  1.0  0.4261
  H  H47  1  0.737400  0.426300  0.858500  1.0  0.1609
  H  H48  1  0.752000  0.314100  0.807700  1.0  0.4192
  H  H49  1  0.399400  0.390600  0.724600  1.0  0.1529
  H  H50  1  0.304800  0.508400  0.774900  1.0  0.4268
  H  H51  1  0.237400  0.073700  0.641500  1.0  0.159
  H  H52  1  0.252000  0.185900  0.692300  1.0  0.42
  H  H53  1  0.600600  0.109400  0.224600  1.0  0.1534
  H  H54  1  0.695200  0.991600  0.274900  1.0  0.4283
  H  H55  1  0.762600  0.426300  0.141500  1.0  0.1601
  H  H56  1  0.748000  0.314100  0.192300  1.0  0.4182
  H  H57  1  0.100600  0.390600  0.275400  1.0  0.152
  H  H58  1  0.195200  0.508400  0.225100  1.0  0.4276
  H  H59  1  0.262600  0.073700  0.358500  1.0  0.1594
  H  H60  1  0.248000  0.185900  0.307700  1.0  0.418
  C  C61  1  0.081800  0.907300  0.261700  1.0  -0.3701
  C  C62  1  0.945100  0.901700  0.269890  1.0  0.7719
  C  C63  1  0.215800  0.634800  0.129450  1.0  -0.3503
  C  C64  1  0.098900  0.594100  0.104800  1.0  0.8264
  C  C65  1  0.581800  0.592700  0.238300  1.0  -0.3778
  C  C66  1  0.445100  0.598300  0.230110  1.0  0.7741
  C  C67  1  0.715800  0.865200  0.370550  1.0  -0.3481
  C  C68  1  0.598900  0.905900  0.395200  1.0  0.8272
  C  C69  1  0.418200  0.907300  0.738300  1.0  -0.3784
  C  C70  1  0.554900  0.901700  0.730110  1.0  0.7737
  C  C71  1  0.284200  0.634800  0.870550  1.0  -0.3448
  C  C72  1  0.401100  0.594100  0.895200  1.0  0.8224
  C  C73  1  0.918200  0.592700  0.761700  1.0  -0.3718
  C  C74  1  0.054900  0.598300  0.769890  1.0  0.7712
  C  C75  1  0.784200  0.865200  0.629450  1.0  -0.3495
  C  C76  1  0.901100  0.905900  0.604800  1.0  0.8232
  C  C77  1  0.918200  0.092700  0.738300  1.0  -0.3787
  C  C78  1  0.054900  0.098300  0.730110  1.0  0.7737
  C  C79  1  0.784200  0.365200  0.870550  1.0  -0.3455
  C  C80  1  0.901100  0.405900  0.895200  1.0  0.8242
  C  C81  1  0.418200  0.407300  0.761700  1.0  -0.3715
  C  C82  1  0.554900  0.401700  0.769890  1.0  0.7712
  C  C83  1  0.284200  0.134800  0.629450  1.0  -0.3494
  C  C84  1  0.401100  0.094100  0.604800  1.0  0.8214
  C  C85  1  0.581800  0.092700  0.261700  1.0  -0.3703
  C  C86  1  0.445100  0.098300  0.269890  1.0  0.7719
  C  C87  1  0.715800  0.365200  0.129450  1.0  -0.3515
  C  C88  1  0.598900  0.405900  0.104800  1.0  0.8278
  C  C89  1  0.081800  0.407300  0.238300  1.0  -0.3775
  C  C90  1  0.945100  0.401700  0.230110  1.0  0.7741
  C  C91  1  0.215800  0.134800  0.370550  1.0  -0.3466
  C  C92  1  0.098900  0.094100  0.395200  1.0  0.8251
  O  O93  1  0.121500  0.708900  0.280850  1.0  -0.8973
  O  O94  1  0.098700  0.827600  0.359460  1.0  -0.5631
  O  O95  1  0.283300  0.837800  0.307220  1.0  -0.8957
  O  O96  1  0.122100  0.008600  0.272740  1.0  -0.5574
  O  O97  1  0.897300  0.814700  0.264480  1.0  -0.7006
  O  O98  1  0.889300  0.982700  0.281090  1.0  -0.6547
  O  O99  1  0.358100  0.617800  0.046210  1.0  -0.8435
  O  O100  1  0.234400  0.779500  0.050480  1.0  -0.4968
  O  O101  1  0.408000  0.757800  0.112410  1.0  -0.5379
  O  O102  1  0.185500  0.692700  0.175120  1.0  -0.586
  O  O103  1  0.104400  0.557700  0.060390  1.0  -0.7407
  O  O104  1  0.003500  0.601100  0.131560  1.0  -0.6932
  O  O105  1  0.621500  0.791100  0.219150  1.0  -0.8969
  O  O106  1  0.598700  0.672400  0.140540  1.0  -0.5654
  O  O107  1  0.783300  0.662200  0.192780  1.0  -0.8968
  O  O108  1  0.622100  0.491400  0.227260  1.0  -0.559
  O  O109  1  0.397300  0.685300  0.235520  1.0  -0.7016
  O  O110  1  0.389300  0.517300  0.218910  1.0  -0.6545
  O  O111  1  0.858100  0.882200  0.453790  1.0  -0.8435
  O  O112  1  0.734400  0.720500  0.449520  1.0  -0.4929
  O  O113  1  0.908000  0.742200  0.387590  1.0  -0.5409
  O  O114  1  0.685500  0.807300  0.324880  1.0  -0.5868
  O  O115  1  0.604400  0.942300  0.439610  1.0  -0.7421
  O  O116  1  0.503500  0.898900  0.368440  1.0  -0.6925
  O  O117  1  0.378500  0.708900  0.719150  1.0  -0.896
  O  O118  1  0.401300  0.827600  0.640540  1.0  -0.5636
  O  O119  1  0.216700  0.837800  0.692780  1.0  -0.8962
  O  O120  1  0.377900  0.008600  0.727260  1.0  -0.5596
  O  O121  1  0.602700  0.814700  0.735520  1.0  -0.7019
  O  O122  1  0.610700  0.982700  0.718910  1.0  -0.6561
  O  O123  1  0.141900  0.617800  0.953790  1.0  -0.8437
  O  O124  1  0.265600  0.779500  0.949520  1.0  -0.495
  O  O125  1  0.092000  0.757800  0.887590  1.0  -0.5379
  O  O126  1  0.314500  0.692700  0.824880  1.0  -0.5864
  O  O127  1  0.395600  0.557700  0.939610  1.0  -0.7407
  O  O128  1  0.496500  0.601100  0.868440  1.0  -0.6939
  O  O129  1  0.878500  0.791100  0.780850  1.0  -0.8965
  O  O130  1  0.901300  0.672400  0.859460  1.0  -0.5619
  O  O131  1  0.716700  0.662200  0.807220  1.0  -0.8966
  O  O132  1  0.877900  0.491400  0.772740  1.0  -0.5599
  O  O133  1  0.102700  0.685300  0.764480  1.0  -0.7022
  O  O134  1  0.110700  0.517300  0.781090  1.0  -0.6553
  O  O135  1  0.641900  0.882200  0.546210  1.0  -0.8437
  O  O136  1  0.765600  0.720500  0.550480  1.0  -0.4913
  O  O137  1  0.592000  0.742200  0.612410  1.0  -0.5374
  O  O138  1  0.814500  0.807300  0.675120  1.0  -0.587
  O  O139  1  0.895600  0.942300  0.560390  1.0  -0.7423
  O  O140  1  0.996500  0.898900  0.631560  1.0  -0.6951
  O  O141  1  0.878500  0.291100  0.719150  1.0  -0.8966
  O  O142  1  0.901300  0.172400  0.640540  1.0  -0.5649
  O  O143  1  0.716700  0.162200  0.692780  1.0  -0.8973
  O  O144  1  0.877900  0.991400  0.727260  1.0  -0.5598
  O  O145  1  0.102700  0.185300  0.735520  1.0  -0.7024
  O  O146  1  0.110700  0.017300  0.718910  1.0  -0.6554
  O  O147  1  0.641900  0.382200  0.953790  1.0  -0.8432
  O  O148  1  0.765600  0.220500  0.949520  1.0  -0.4922
  O  O149  1  0.592000  0.242200  0.887590  1.0  -0.5393
  O  O150  1  0.814500  0.307300  0.824880  1.0  -0.5863
  O  O151  1  0.895600  0.442300  0.939610  1.0  -0.7416
  O  O152  1  0.996500  0.398900  0.868440  1.0  -0.6936
  O  O153  1  0.378500  0.208900  0.780850  1.0  -0.8967
  O  O154  1  0.401300  0.327600  0.859460  1.0  -0.5628
  O  O155  1  0.216700  0.337800  0.807220  1.0  -0.8957
  O  O156  1  0.377900  0.508600  0.772740  1.0  -0.5597
  O  O157  1  0.602700  0.314700  0.764480  1.0  -0.7012
  O  O158  1  0.610700  0.482700  0.781090  1.0  -0.6557
  O  O159  1  0.141900  0.117800  0.546210  1.0  -0.8437
  O  O160  1  0.265600  0.279500  0.550480  1.0  -0.4961
  O  O161  1  0.092000  0.257800  0.612410  1.0  -0.537
  O  O162  1  0.314500  0.192700  0.675120  1.0  -0.5866
  O  O163  1  0.395600  0.057700  0.560390  1.0  -0.7414
  O  O164  1  0.496500  0.101100  0.631560  1.0  -0.6954
  O  O165  1  0.621500  0.291100  0.280850  1.0  -0.8967
  O  O166  1  0.598700  0.172400  0.359460  1.0  -0.562
  O  O167  1  0.783300  0.162200  0.307220  1.0  -0.8966
  O  O168  1  0.622100  0.991400  0.272740  1.0  -0.5579
  O  O169  1  0.397300  0.185300  0.264480  1.0  -0.7014
  O  O170  1  0.389300  0.017300  0.281090  1.0  -0.6546
  O  O171  1  0.858100  0.382200  0.046210  1.0  -0.8434
  O  O172  1  0.734400  0.220500  0.050480  1.0  -0.4921
  O  O173  1  0.908000  0.242200  0.112410  1.0  -0.5389
  O  O174  1  0.685500  0.307300  0.175120  1.0  -0.587
  O  O175  1  0.604400  0.442300  0.060390  1.0  -0.7418
  O  O176  1  0.503500  0.398900  0.131560  1.0  -0.6927
  O  O177  1  0.121500  0.208900  0.219150  1.0  -0.8965
  O  O178  1  0.098700  0.327600  0.140540  1.0  -0.5642
  O  O179  1  0.283300  0.337800  0.192780  1.0  -0.8958
  O  O180  1  0.122100  0.508600  0.227260  1.0  -0.5586
  O  O181  1  0.897300  0.314700  0.235520  1.0  -0.7013
  O  O182  1  0.889300  0.482700  0.218910  1.0  -0.655
  O  O183  1  0.358100  0.117800  0.453790  1.0  -0.8441
  O  O184  1  0.234400  0.279500  0.449520  1.0  -0.4959
  O  O185  1  0.408000  0.257800  0.387590  1.0  -0.5382
  O  O186  1  0.185500  0.192700  0.324880  1.0  -0.5863
  O  O187  1  0.104400  0.057700  0.439610  1.0  -0.7409
  O  O188  1  0.003500  0.101100  0.368440  1.0  -0.6931
