# generated using pymatgen
data_Al4(PO4)5
_symmetry_space_group_name_H-M   'P 1'
_cell_length_a   24.72930000
_cell_length_b   8.94420000
_cell_length_c   9.98060000
_cell_angle_alpha   90.00000000
_cell_angle_beta   90.00000000
_cell_angle_gamma   90.00000000
_symmetry_Int_Tables_number   1
_chemical_formula_structural   Al4(PO4)5
_chemical_formula_sum   'Al16 P20 O80'
_cell_volume   2207.54708478
_cell_formula_units_Z   4
loop_
 _symmetry_equiv_pos_site_id
 _symmetry_equiv_pos_as_xyz
  1  'x, y, z'
loop_
 _atom_site_type_symbol
 _atom_site_label
 _atom_site_symmetry_multiplicity
 _atom_site_fract_x
 _atom_site_fract_y
 _atom_site_fract_z
 _atom_site_occupancy
 _atom_site_charge
  Al  Al1  1  0.385300  0.872810  0.782950  1.0  1.9613
  Al  Al2  1  0.230540  0.169230  0.481980  1.0  1.8914
  Al  Al3  1  0.114700  0.627190  0.282950  1.0  1.9609
  Al  Al4  1  0.269460  0.330770  0.981980  1.0  1.892
  Al  Al5  1  0.614700  0.872810  0.717050  1.0  1.961
  Al  Al6  1  0.769460  0.169230  0.018020  1.0  1.8941
  Al  Al7  1  0.885300  0.627190  0.217050  1.0  1.9617
  Al  Al8  1  0.730540  0.330770  0.518020  1.0  1.8929
  Al  Al9  1  0.614700  0.127190  0.217050  1.0  1.9611
  Al  Al10  1  0.769460  0.830770  0.518020  1.0  1.8935
  Al  Al11  1  0.885300  0.372810  0.717050  1.0  1.9615
  Al  Al12  1  0.730540  0.669230  0.018020  1.0  1.8934
  Al  Al13  1  0.385300  0.127190  0.282950  1.0  1.9614
  Al  Al14  1  0.230540  0.830770  0.981980  1.0  1.8914
  Al  Al15  1  0.114700  0.372810  0.782950  1.0  1.9609
  Al  Al16  1  0.269460  0.669230  0.481980  1.0  1.8925
  P  P17  1  0.338840  0.955040  0.511240  1.0  1.9258
  P  P18  1  0.302740  0.612770  0.794400  1.0  1.8658
  P  P19  1  0.161160  0.544960  0.011240  1.0  1.9248
  P  P20  1  0.197260  0.887230  0.294400  1.0  1.8648
  P  P21  1  0.661160  0.955040  0.988760  1.0  1.9245
  P  P22  1  0.697260  0.612770  0.705600  1.0  1.865
  P  P23  1  0.838840  0.544960  0.488760  1.0  1.9257
  P  P24  1  0.802740  0.887230  0.205600  1.0  1.8659
  P  P25  1  0.661160  0.044960  0.488760  1.0  1.9246
  P  P26  1  0.697260  0.387230  0.205600  1.0  1.865
  P  P27  1  0.838840  0.455040  0.988760  1.0  1.9257
  P  P28  1  0.802740  0.112770  0.705600  1.0  1.8661
  P  P29  1  0.338840  0.044960  0.011240  1.0  1.9259
  P  P30  1  0.302740  0.387230  0.294400  1.0  1.8656
  P  P31  1  0.161160  0.455040  0.511240  1.0  1.9247
  P  P32  1  0.197260  0.112770  0.794400  1.0  1.8648
  P  P33  1  0.500000  0.735500  0.750000  1.0  1.822
  P  P34  1  0.000000  0.764500  0.250000  1.0  1.8216
  P  P35  1  0.500000  0.264500  0.250000  1.0  1.8216
  P  P36  1  0.000000  0.235500  0.750000  1.0  1.822
  O  O37  1  0.505500  0.638000  0.629400  1.0  -0.5566
  O  O38  1  0.451270  0.840200  0.739100  1.0  -0.9908
  O  O39  1  0.354460  0.980600  0.659400  1.0  -0.9176
  O  O40  1  0.289180  0.043100  0.477100  1.0  -0.901
  O  O41  1  0.386860  0.016900  0.427900  1.0  -0.8584
  O  O42  1  0.331980  0.789000  0.485300  1.0  -0.7997
  O  O43  1  0.356860  0.695700  0.811700  1.0  -0.9706
  O  O44  1  0.307240  0.471800  0.876800  1.0  -0.8871
  O  O45  1  0.295490  0.576100  0.646100  1.0  -0.8114
  O  O46  1  0.256490  0.717100  0.837200  1.0  -0.8606
  O  O47  1  0.994500  0.862000  0.129400  1.0  -0.5564
  O  O48  1  0.048730  0.659800  0.239100  1.0  -0.9891
  O  O49  1  0.145540  0.519400  0.159400  1.0  -0.9177
  O  O50  1  0.210820  0.456900  0.977100  1.0  -0.9024
  O  O51  1  0.113140  0.483100  0.927900  1.0  -0.8557
  O  O52  1  0.168020  0.711000  0.985300  1.0  -0.7984
  O  O53  1  0.143140  0.804300  0.311700  1.0  -0.9719
  O  O54  1  0.192760  0.028200  0.376800  1.0  -0.8886
  O  O55  1  0.204510  0.923900  0.146100  1.0  -0.8131
  O  O56  1  0.243510  0.782900  0.337200  1.0  -0.8607
  O  O57  1  0.494500  0.638000  0.870600  1.0  -0.5599
  O  O58  1  0.548730  0.840200  0.760900  1.0  -0.9902
  O  O59  1  0.645540  0.980600  0.840600  1.0  -0.9187
  O  O60  1  0.710820  0.043100  0.022900  1.0  -0.9013
  O  O61  1  0.613140  0.016900  0.072100  1.0  -0.8559
  O  O62  1  0.668020  0.789000  0.014700  1.0  -0.7987
  O  O63  1  0.643140  0.695700  0.688300  1.0  -0.9723
  O  O64  1  0.692760  0.471800  0.623200  1.0  -0.8883
  O  O65  1  0.704510  0.576100  0.853900  1.0  -0.8122
  O  O66  1  0.743510  0.717100  0.662800  1.0  -0.8605
  O  O67  1  0.005500  0.862000  0.370600  1.0  -0.56
  O  O68  1  0.951270  0.659800  0.260900  1.0  -0.9907
  O  O69  1  0.854460  0.519400  0.340600  1.0  -0.9171
  O  O70  1  0.789180  0.456900  0.522900  1.0  -0.9007
  O  O71  1  0.886860  0.483100  0.572100  1.0  -0.8586
  O  O72  1  0.831980  0.711000  0.514700  1.0  -0.798
  O  O73  1  0.856860  0.804300  0.188300  1.0  -0.97
  O  O74  1  0.807240  0.028200  0.123200  1.0  -0.8861
  O  O75  1  0.795490  0.923900  0.353900  1.0  -0.8135
  O  O76  1  0.756490  0.782900  0.162800  1.0  -0.8606
  O  O77  1  0.494500  0.362000  0.370600  1.0  -0.5603
  O  O78  1  0.548730  0.159800  0.260900  1.0  -0.9892
  O  O79  1  0.645540  0.019400  0.340600  1.0  -0.9179
  O  O80  1  0.710820  0.956900  0.522900  1.0  -0.9026
  O  O81  1  0.613140  0.983100  0.572100  1.0  -0.856
  O  O82  1  0.668020  0.211000  0.514700  1.0  -0.7977
  O  O83  1  0.643140  0.304300  0.188300  1.0  -0.9722
  O  O84  1  0.692760  0.528200  0.123200  1.0  -0.8881
  O  O85  1  0.704510  0.423900  0.353900  1.0  -0.8128
  O  O86  1  0.743510  0.282900  0.162800  1.0  -0.8606
  O  O87  1  0.005500  0.138000  0.870600  1.0  -0.5605
  O  O88  1  0.951270  0.340200  0.760900  1.0  -0.9907
  O  O89  1  0.854460  0.480600  0.840600  1.0  -0.9176
  O  O90  1  0.789180  0.543100  0.022900  1.0  -0.9012
  O  O91  1  0.886860  0.516900  0.072100  1.0  -0.8588
  O  O92  1  0.831980  0.289000  0.014700  1.0  -0.7989
  O  O93  1  0.856860  0.195700  0.688300  1.0  -0.9703
  O  O94  1  0.807240  0.971800  0.623200  1.0  -0.8866
  O  O95  1  0.795490  0.076100  0.853900  1.0  -0.8121
  O  O96  1  0.756490  0.217100  0.662800  1.0  -0.8608
  O  O97  1  0.505500  0.362000  0.129400  1.0  -0.5572
  O  O98  1  0.451270  0.159800  0.239100  1.0  -0.9894
  O  O99  1  0.354460  0.019400  0.159400  1.0  -0.9169
  O  O100  1  0.289180  0.956900  0.977100  1.0  -0.9018
  O  O101  1  0.386860  0.983100  0.927900  1.0  -0.8583
  O  O102  1  0.331980  0.211000  0.985300  1.0  -0.7981
  O  O103  1  0.356860  0.304300  0.311700  1.0  -0.9702
  O  O104  1  0.307240  0.528200  0.376800  1.0  -0.887
  O  O105  1  0.295490  0.423900  0.146100  1.0  -0.8123
  O  O106  1  0.256490  0.282900  0.337200  1.0  -0.8605
  O  O107  1  0.994500  0.138000  0.629400  1.0  -0.5569
  O  O108  1  0.048730  0.340200  0.739100  1.0  -0.989
  O  O109  1  0.145540  0.480600  0.659400  1.0  -0.919
  O  O110  1  0.210820  0.543100  0.477100  1.0  -0.9025
  O  O111  1  0.113140  0.516900  0.427900  1.0  -0.8555
  O  O112  1  0.168020  0.289000  0.485300  1.0  -0.8
  O  O113  1  0.143140  0.195700  0.811700  1.0  -0.9717
  O  O114  1  0.192760  0.971800  0.876800  1.0  -0.889
  O  O115  1  0.204510  0.076100  0.646100  1.0  -0.8117
  O  O116  1  0.243510  0.217100  0.837200  1.0  -0.8604
