# generated using pymatgen
data_BaCuH4(CO)10
_symmetry_space_group_name_H-M   'P 1'
_cell_length_a   12.56400000
_cell_length_b   16.58100000
_cell_length_c   16.58100000
_cell_angle_alpha   66.15230000
_cell_angle_beta   75.36990000
_cell_angle_gamma   104.63000000
_symmetry_Int_Tables_number   1
_chemical_formula_structural   BaCuH4(CO)10
_chemical_formula_sum   'Ba6 Cu6 H24 C60 O60'
_cell_volume   2800.59997759
_cell_formula_units_Z   6
loop_
 _symmetry_equiv_pos_site_id
 _symmetry_equiv_pos_as_xyz
  1  'x, y, z'
loop_
 _atom_site_type_symbol
 _atom_site_label
 _atom_site_symmetry_multiplicity
 _atom_site_fract_x
 _atom_site_fract_y
 _atom_site_fract_z
 _atom_site_occupancy
 _atom_site_charge
  Ba  Ba1  1  0.704930  0.409860  0.295070  1.0  1.6465
  Ba  Ba2  1  0.000000  0.295070  0.295070  1.0  1.6469
  Ba  Ba3  1  0.295070  0.295070  0.409860  1.0  1.6467
  Ba  Ba4  1  0.295070  0.590140  0.704930  1.0  1.6464
  Ba  Ba5  1  0.000000  0.704930  0.704930  1.0  1.6468
  Ba  Ba6  1  0.704930  0.704930  0.590140  1.0  1.6469
  Cu  Cu7  1  0.892570  0.627470  0.372530  1.0  0.888
  Cu  Cu8  1  0.265100  0.372530  0.000000  1.0  0.886
  Cu  Cu9  1  0.265100  0.000000  0.627470  1.0  0.8868
  Cu  Cu10  1  0.734900  0.000000  0.372530  1.0  0.8859
  Cu  Cu11  1  0.734900  0.627470  0.000000  1.0  0.8847
  Cu  Cu12  1  0.107430  0.372530  0.627470  1.0  0.8869
  H  H13  1  0.533000  0.456900  0.190900  1.0  0.4375
  H  H14  1  0.499900  0.368400  0.210700  1.0  0.4437
  H  H15  1  0.723900  0.190900  0.352200  1.0  0.4401
  H  H16  1  0.710600  0.210700  0.420900  1.0  0.4457
  H  H17  1  0.076100  0.352200  0.456900  1.0  0.4387
  H  H18  1  0.131500  0.420900  0.368400  1.0  0.4449
  H  H19  1  0.276100  0.352200  0.190900  1.0  0.4385
  H  H20  1  0.289400  0.420900  0.210700  1.0  0.4451
  H  H21  1  0.923900  0.456900  0.352200  1.0  0.4385
  H  H22  1  0.868500  0.368400  0.420900  1.0  0.4447
  H  H23  1  0.467000  0.190900  0.456900  1.0  0.441
  H  H24  1  0.500100  0.210700  0.368400  1.0  0.4448
  H  H25  1  0.467000  0.543100  0.809100  1.0  0.4393
  H  H26  1  0.500100  0.631600  0.789300  1.0  0.4445
  H  H27  1  0.276100  0.809100  0.647800  1.0  0.4395
  H  H28  1  0.289400  0.789300  0.579100  1.0  0.4448
  H  H29  1  0.923900  0.647800  0.543100  1.0  0.4382
  H  H30  1  0.868500  0.579100  0.631600  1.0  0.4449
  H  H31  1  0.723900  0.647800  0.809100  1.0  0.4376
  H  H32  1  0.710600  0.579100  0.789300  1.0  0.4441
  H  H33  1  0.076100  0.543100  0.647800  1.0  0.4384
  H  H34  1  0.131500  0.631600  0.579100  1.0  0.4451
  H  H35  1  0.533000  0.809100  0.543100  1.0  0.4392
  H  H36  1  0.499900  0.789300  0.631600  1.0  0.4455
  C  C37  1  0.118550  0.702500  0.387450  1.0  0.7008
  C  C38  1  0.693180  0.595790  0.315450  1.0  0.7273
  C  C39  1  0.506000  0.387450  0.910050  1.0  0.7021
  C  C40  1  0.008630  0.315450  0.088760  1.0  0.7327
  C  C41  1  0.416050  0.910050  0.702500  1.0  0.6991
  C  C42  1  0.097390  0.088760  0.595790  1.0  0.7305
  C  C43  1  0.494000  0.910050  0.387450  1.0  0.7016
  C  C44  1  0.991370  0.088760  0.315450  1.0  0.7282
  C  C45  1  0.583950  0.702500  0.910050  1.0  0.7
  C  C46  1  0.902610  0.595790  0.088760  1.0  0.7277
  C  C47  1  0.881450  0.387450  0.702500  1.0  0.7002
  C  C48  1  0.306820  0.315450  0.595790  1.0  0.7315
  C  C49  1  0.881450  0.297500  0.612550  1.0  0.7003
  C  C50  1  0.306820  0.404210  0.684550  1.0  0.7273
  C  C51  1  0.494000  0.612550  0.089950  1.0  0.7031
  C  C52  1  0.991370  0.684550  0.911240  1.0  0.7319
  C  C53  1  0.583950  0.089950  0.297500  1.0  0.6987
  C  C54  1  0.902610  0.911240  0.404210  1.0  0.7287
  C  C55  1  0.506000  0.089950  0.612550  1.0  0.7013
  C  C56  1  0.008630  0.911240  0.684550  1.0  0.7276
  C  C57  1  0.416050  0.297500  0.089950  1.0  0.7003
  C  C58  1  0.097390  0.404210  0.911240  1.0  0.7286
  C  C59  1  0.118550  0.612550  0.297500  1.0  0.7002
  C  C60  1  0.693180  0.684550  0.404210  1.0  0.7322
  C  C61  1  0.315020  0.730680  0.269320  1.0  0.0268
  C  C62  1  0.181960  0.708990  0.291010  1.0  -0.2637
  C  C63  1  0.169700  0.790200  0.209800  1.0  -0.0018
  C  C64  1  0.687420  0.688830  0.311170  1.0  -0.2385
  C  C65  1  0.573740  0.698910  0.301090  1.0  -0.0033
  C  C66  1  0.797140  0.775710  0.224290  1.0  -0.0261
  C  C67  1  0.584340  0.269320  0.000000  1.0  0.0251
  C  C68  1  0.472970  0.291010  0.000000  1.0  -0.2636
  C  C69  1  0.379500  0.209800  0.000000  1.0  0.001
  C  C70  1  0.998590  0.311170  0.000000  1.0  -0.2394
  C  C71  1  0.874830  0.301090  0.000000  1.0  -0.0024
  C  C72  1  0.021430  0.224290  0.000000  1.0  -0.0274
  C  C73  1  0.584340  0.000000  0.730680  1.0  0.023
  C  C74  1  0.472970  0.000000  0.708990  1.0  -0.2642
  C  C75  1  0.379500  0.000000  0.790200  1.0  0.0103
  C  C76  1  0.998590  0.000000  0.688830  1.0  -0.2382
  C  C77  1  0.874830  0.000000  0.698910  1.0  -0.0029
  C  C78  1  0.021430  0.000000  0.775710  1.0  -0.029
  C  C79  1  0.415660  0.000000  0.269320  1.0  0.022
  C  C80  1  0.527030  0.000000  0.291010  1.0  -0.2646
  C  C81  1  0.620500  0.000000  0.209800  1.0  0.0086
  C  C82  1  0.001410  0.000000  0.311170  1.0  -0.2387
  C  C83  1  0.125170  0.000000  0.301090  1.0  -0.005
  C  C84  1  0.978570  0.000000  0.224290  1.0  -0.0285
  C  C85  1  0.415660  0.730680  0.000000  1.0  0.0279
  C  C86  1  0.527030  0.708990  0.000000  1.0  -0.2641
  C  C87  1  0.620500  0.790200  0.000000  1.0  0.0027
  C  C88  1  0.001410  0.688830  0.000000  1.0  -0.2391
  C  C89  1  0.125170  0.698910  0.000000  1.0  -0.0048
  C  C90  1  0.978570  0.775710  0.000000  1.0  -0.0263
  C  C91  1  0.684980  0.269320  0.730680  1.0  0.0267
  C  C92  1  0.818040  0.291010  0.708990  1.0  -0.2639
  C  C93  1  0.830300  0.209800  0.790200  1.0  -0.0003
  C  C94  1  0.312580  0.311170  0.688830  1.0  -0.2392
  C  C95  1  0.426260  0.301090  0.698910  1.0  -0.0057
  C  C96  1  0.202860  0.224290  0.775710  1.0  -0.0251
  O  O97  1  0.005450  0.684540  0.414910  1.0  -0.6081
  O  O98  1  0.788270  0.581480  0.316410  1.0  -0.673
  O  O99  1  0.176490  0.717040  0.433550  1.0  -0.513
  O  O100  1  0.510770  0.400320  0.236350  1.0  -0.927
  O  O101  1  0.607320  0.537240  0.317020  1.0  -0.6025
  O  O102  1  0.420360  0.414910  0.900550  1.0  -0.6081
  O  O103  1  0.104680  0.316410  0.102110  1.0  -0.6736
  O  O104  1  0.610040  0.433550  0.849410  1.0  -0.5125
  O  O105  1  0.747120  0.236350  0.363330  1.0  -0.9289
  O  O106  1  0.924340  0.317020  0.145740  1.0  -0.6105
  O  O107  1  0.320910  0.900550  0.684540  1.0  -0.617
  O  O108  1  0.206790  0.102110  0.581480  1.0  -0.6758
  O  O109  1  0.459450  0.849410  0.717040  1.0  -0.5096
  O  O110  1  0.110450  0.363330  0.400320  1.0  -0.9299
  O  O111  1  0.070080  0.145740  0.537240  1.0  -0.6033
  O  O112  1  0.579640  0.900550  0.414910  1.0  -0.6095
  O  O113  1  0.895320  0.102110  0.316410  1.0  -0.6729
  O  O114  1  0.389960  0.849410  0.433550  1.0  -0.5127
  O  O115  1  0.252880  0.363330  0.236350  1.0  -0.9293
  O  O116  1  0.075660  0.145740  0.317020  1.0  -0.6018
  O  O117  1  0.679090  0.684540  0.900550  1.0  -0.6146
  O  O118  1  0.793210  0.581480  0.102110  1.0  -0.6754
  O  O119  1  0.540550  0.717040  0.849410  1.0  -0.5094
  O  O120  1  0.889550  0.400320  0.363330  1.0  -0.9272
  O  O121  1  0.929920  0.537240  0.145740  1.0  -0.5965
  O  O122  1  0.994550  0.414910  0.684540  1.0  -0.6078
  O  O123  1  0.211730  0.316410  0.581480  1.0  -0.6753
  O  O124  1  0.823510  0.433550  0.717040  1.0  -0.5079
  O  O125  1  0.489230  0.236350  0.400320  1.0  -0.9289
  O  O126  1  0.392680  0.317020  0.537240  1.0  -0.6016
  O  O127  1  0.994550  0.315460  0.585090  1.0  -0.6076
  O  O128  1  0.211730  0.418520  0.683590  1.0  -0.6731
  O  O129  1  0.823510  0.282960  0.566450  1.0  -0.5146
  O  O130  1  0.489230  0.599680  0.763650  1.0  -0.9272
  O  O131  1  0.392680  0.462760  0.682980  1.0  -0.6036
  O  O132  1  0.579640  0.585090  0.099450  1.0  -0.6069
  O  O133  1  0.895320  0.683590  0.897890  1.0  -0.6729
  O  O134  1  0.389960  0.566450  0.150590  1.0  -0.5134
  O  O135  1  0.252880  0.763650  0.636670  1.0  -0.9293
  O  O136  1  0.075660  0.682980  0.854260  1.0  -0.6107
  O  O137  1  0.679090  0.099450  0.315460  1.0  -0.6164
  O  O138  1  0.793210  0.897890  0.418520  1.0  -0.6756
  O  O139  1  0.540550  0.150590  0.282960  1.0  -0.5082
  O  O140  1  0.889550  0.636670  0.599680  1.0  -0.9303
  O  O141  1  0.929920  0.854260  0.462760  1.0  -0.6031
  O  O142  1  0.420360  0.099450  0.585090  1.0  -0.6109
  O  O143  1  0.104680  0.897890  0.683590  1.0  -0.6732
  O  O144  1  0.610040  0.150590  0.566450  1.0  -0.5125
  O  O145  1  0.747120  0.636670  0.763650  1.0  -0.9303
  O  O146  1  0.924340  0.854260  0.682980  1.0  -0.6032
  O  O147  1  0.320910  0.315460  0.099450  1.0  -0.6146
  O  O148  1  0.206790  0.418520  0.897890  1.0  -0.676
  O  O149  1  0.459450  0.282960  0.150590  1.0  -0.509
  O  O150  1  0.110450  0.599680  0.636670  1.0  -0.927
  O  O151  1  0.070080  0.462760  0.854260  1.0  -0.5966
  O  O152  1  0.005450  0.585090  0.315460  1.0  -0.6084
  O  O153  1  0.788270  0.683590  0.418520  1.0  -0.676
  O  O154  1  0.176490  0.566450  0.282960  1.0  -0.508
  O  O155  1  0.510770  0.763650  0.599680  1.0  -0.9294
  O  O156  1  0.607320  0.682980  0.462760  1.0  -0.6011
