# generated using pymatgen
data_CdH30C30(N6F)2
_symmetry_space_group_name_H-M   'P 1'
_cell_length_a   10.92620000
_cell_length_b   10.92620000
_cell_length_c   10.92620000
_cell_angle_alpha   66.54680000
_cell_angle_beta   66.54680000
_cell_angle_gamma   66.54680000
_symmetry_Int_Tables_number   1
_chemical_formula_structural   CdH30C30(N6F)2
_chemical_formula_sum   'Cd1 H30 C30 N12 F2'
_cell_volume   1052.34261602
_cell_formula_units_Z   1
loop_
 _symmetry_equiv_pos_site_id
 _symmetry_equiv_pos_as_xyz
  1  'x, y, z'
loop_
 _atom_site_type_symbol
 _atom_site_label
 _atom_site_symmetry_multiplicity
 _atom_site_fract_x
 _atom_site_fract_y
 _atom_site_fract_z
 _atom_site_occupancy
 _atom_site_charge
  Cd  Cd1  1  0.000000  0.000000  0.000000  1.0  0.7339
  H  H2  1  0.828500  0.299600  0.430300  1.0  0.0951
  H  H3  1  0.430300  0.828500  0.299600  1.0  0.0926
  H  H4  1  0.299600  0.430300  0.828500  1.0  0.0953
  H  H5  1  0.700400  0.171500  0.569700  1.0  0.0957
  H  H6  1  0.171500  0.569700  0.700400  1.0  0.097
  H  H7  1  0.569700  0.700400  0.171500  1.0  0.0961
  H  H8  1  0.171500  0.700400  0.569700  1.0  0.0974
  H  H9  1  0.569700  0.171500  0.700400  1.0  0.0938
  H  H10  1  0.700400  0.569700  0.171500  1.0  0.0961
  H  H11  1  0.299600  0.828500  0.430300  1.0  0.0941
  H  H12  1  0.828500  0.430300  0.299600  1.0  0.0951
  H  H13  1  0.430300  0.299600  0.828500  1.0  0.0967
  H  H14  1  0.667600  0.155900  0.155900  1.0  0.1029
  H  H15  1  0.574900  0.305750  0.305750  1.0  0.1335
  H  H16  1  0.155900  0.667600  0.155900  1.0  0.1046
  H  H17  1  0.305750  0.574900  0.305750  1.0  0.1343
  H  H18  1  0.155900  0.155900  0.667600  1.0  0.1037
  H  H19  1  0.305750  0.305750  0.574900  1.0  0.1341
  H  H20  1  0.844100  0.332400  0.844100  1.0  0.1045
  H  H21  1  0.694250  0.425100  0.694250  1.0  0.1333
  H  H22  1  0.332400  0.844100  0.844100  1.0  0.103
  H  H23  1  0.425100  0.694250  0.694250  1.0  0.132
  H  H24  1  0.844100  0.844100  0.332400  1.0  0.1038
  H  H25  1  0.694250  0.694250  0.425100  1.0  0.133
  H  H26  1  0.800350  0.800350  0.017700  1.0  0.1013
  H  H27  1  0.017700  0.800350  0.800350  1.0  0.1021
  H  H28  1  0.800350  0.017700  0.800350  1.0  0.1027
  H  H29  1  0.199650  0.199650  0.982300  1.0  0.1014
  H  H30  1  0.199650  0.982300  0.199650  1.0  0.1016
  H  H31  1  0.982300  0.199650  0.199650  1.0  0.1027
  C  C32  1  0.892000  0.207050  0.207050  1.0  0.1458
  C  C33  1  0.720500  0.183450  0.183450  1.0  0.0302
  C  C34  1  0.668500  0.266000  0.266000  1.0  -0.1953
  C  C35  1  0.779300  0.361350  0.361350  1.0  -0.0564
  C  C36  1  0.633820  0.433370  0.433370  1.0  -0.0168
  C  C37  1  0.207050  0.892000  0.207050  1.0  0.1463
  C  C38  1  0.183450  0.720500  0.183450  1.0  0.0295
  C  C39  1  0.266000  0.668500  0.266000  1.0  -0.1937
  C  C40  1  0.361350  0.779300  0.361350  1.0  -0.0605
  C  C41  1  0.433370  0.633820  0.433370  1.0  -0.0173
  C  C42  1  0.207050  0.207050  0.892000  1.0  0.1466
  C  C43  1  0.183450  0.183450  0.720500  1.0  0.03
  C  C44  1  0.266000  0.266000  0.668500  1.0  -0.1886
  C  C45  1  0.361350  0.361350  0.779300  1.0  -0.0632
  C  C46  1  0.433370  0.433370  0.633820  1.0  -0.0158
  C  C47  1  0.792950  0.108000  0.792950  1.0  0.1464
  C  C48  1  0.816550  0.279500  0.816550  1.0  0.0301
  C  C49  1  0.734000  0.331500  0.734000  1.0  -0.1911
  C  C50  1  0.638650  0.220700  0.638650  1.0  -0.0595
  C  C51  1  0.566630  0.366180  0.566630  1.0  -0.0169
  C  C52  1  0.108000  0.792950  0.792950  1.0  0.1462
  C  C53  1  0.279500  0.816550  0.816550  1.0  0.031
  C  C54  1  0.331500  0.734000  0.734000  1.0  -0.1936
  C  C55  1  0.220700  0.638650  0.638650  1.0  -0.0568
  C  C56  1  0.366180  0.566630  0.566630  1.0  -0.0158
  C  C57  1  0.792950  0.792950  0.108000  1.0  0.1476
  C  C58  1  0.816550  0.816550  0.279500  1.0  0.0298
  C  C59  1  0.734000  0.734000  0.331500  1.0  -0.1873
  C  C60  1  0.638650  0.638650  0.220700  1.0  -0.0584
  C  C61  1  0.566630  0.566630  0.366180  1.0  -0.0166
  N  N62  1  0.854520  0.854520  0.138470  1.0  -0.3763
  N  N63  1  0.138470  0.854520  0.854520  1.0  -0.3769
  N  N64  1  0.854520  0.138470  0.854520  1.0  -0.376
  N  N65  1  0.145480  0.145480  0.861530  1.0  -0.3776
  N  N66  1  0.145480  0.861530  0.145480  1.0  -0.3752
  N  N67  1  0.861530  0.145480  0.145480  1.0  -0.3784
  N  N68  1  0.779140  0.280640  0.280640  1.0  0.0577
  N  N69  1  0.280640  0.779140  0.280640  1.0  0.057
  N  N70  1  0.280640  0.280640  0.779140  1.0  0.056
  N  N71  1  0.719360  0.220860  0.719360  1.0  0.0574
  N  N72  1  0.220860  0.719360  0.719360  1.0  0.0573
  N  N73  1  0.719360  0.719360  0.220860  1.0  0.0571
  F  F74  1  0.195030  0.195030  0.195030  1.0  -0.7069
  F  F75  1  0.804970  0.804970  0.804970  1.0  -0.7443
