# generated using pymatgen
data_CdH8C15(NO2)2
_symmetry_space_group_name_H-M   'P 1'
_cell_length_a   14.76600000
_cell_length_b   17.64090000
_cell_length_c   17.64090000
_cell_angle_alpha   79.91230000
_cell_angle_beta   65.25910000
_cell_angle_gamma   65.25900000
_symmetry_Int_Tables_number   1
_chemical_formula_structural   CdH8C15(NO2)2
_chemical_formula_sum   'Cd8 H64 C120 N16 O32'
_cell_volume   3790.32300105
_cell_formula_units_Z   8
loop_
 _symmetry_equiv_pos_site_id
 _symmetry_equiv_pos_as_xyz
  1  'x, y, z'
loop_
 _atom_site_type_symbol
 _atom_site_label
 _atom_site_symmetry_multiplicity
 _atom_site_fract_x
 _atom_site_fract_y
 _atom_site_fract_z
 _atom_site_occupancy
 _atom_site_charge
  Cd  Cd1  1  0.537730  0.582800  0.426780  1.0  1.0575
  Cd  Cd2  1  0.047310  0.917200  0.073220  1.0  1.056
  Cd  Cd3  1  0.964510  0.573220  0.082800  1.0  1.0575
  Cd  Cd4  1  0.120530  0.926780  0.417200  1.0  1.0584
  Cd  Cd5  1  0.462270  0.417200  0.573220  1.0  1.0569
  Cd  Cd6  1  0.952690  0.082800  0.926780  1.0  1.0577
  Cd  Cd7  1  0.035490  0.426780  0.917200  1.0  1.0574
  Cd  Cd8  1  0.879470  0.073220  0.582800  1.0  1.0584
  H  H9  1  0.673800  0.430800  0.168600  1.0  0.3783
  H  H10  1  0.748000  0.748400  0.219400  1.0  0.0865
  H  H11  1  0.759800  0.851300  0.279900  1.0  0.1255
  H  H12  1  0.778100  0.587900  0.411500  1.0  0.1232
  H  H13  1  0.780800  0.869300  0.525900  1.0  0.1063
  H  H14  1  0.824200  0.733100  0.575900  1.0  0.1023
  H  H15  1  0.788600  0.634200  0.530200  1.0  0.1255
  H  H16  1  0.772400  0.895600  0.391400  1.0  0.1154
  H  H17  1  0.773200  0.069200  0.331400  1.0  0.3786
  H  H18  1  0.215800  0.751600  0.280600  1.0  0.0849
  H  H19  1  0.391000  0.648700  0.220100  1.0  0.1255
  H  H20  1  0.277500  0.912100  0.088500  1.0  0.1223
  H  H21  1  0.676000  0.630700  0.974100  1.0  0.1063
  H  H22  1  0.633200  0.766900  0.924100  1.0  0.1017
  H  H23  1  0.453000  0.865800  0.969800  1.0  0.1256
  H  H24  1  0.559400  0.604400  0.108600  1.0  0.1167
  H  H25  1  0.842400  0.831400  0.930800  1.0  0.3792
  H  H26  1  0.967400  0.780600  0.248400  1.0  0.086
  H  H27  1  0.039700  0.720100  0.351300  1.0  0.1258
  H  H28  1  0.189600  0.588500  0.087900  1.0  0.1231
  H  H29  1  0.306700  0.474100  0.369300  1.0  0.1074
  H  H30  1  0.400100  0.424100  0.233100  1.0  0.1037
  H  H31  1  0.318800  0.469800  0.134200  1.0  0.1256
  H  H32  1  0.163800  0.608600  0.395600  1.0  0.1156
  H  H33  1  0.104600  0.668600  0.569200  1.0  0.3778
  H  H34  1  0.496400  0.719400  0.251600  1.0  0.086
  H  H35  1  0.611100  0.779900  0.148700  1.0  0.1257
  H  H36  1  0.366000  0.911500  0.412100  1.0  0.1237
  H  H37  1  0.650100  0.025900  0.130700  1.0  0.1066
  H  H38  1  0.557300  0.075900  0.266900  1.0  0.103
  H  H39  1  0.422800  0.030200  0.365800  1.0  0.1248
  H  H40  1  0.668000  0.891400  0.104400  1.0  0.1172
  H  H41  1  0.326200  0.569200  0.831400  1.0  0.3784
  H  H42  1  0.252000  0.251600  0.780600  1.0  0.0861
  H  H43  1  0.240200  0.148700  0.720100  1.0  0.1257
  H  H44  1  0.221900  0.412100  0.588500  1.0  0.1232
  H  H45  1  0.219200  0.130700  0.474100  1.0  0.1062
  H  H46  1  0.175800  0.266900  0.424100  1.0  0.1022
  H  H47  1  0.211400  0.365800  0.469800  1.0  0.1261
  H  H48  1  0.227600  0.104400  0.608600  1.0  0.1149
  H  H49  1  0.226800  0.930800  0.668600  1.0  0.3789
  H  H50  1  0.784200  0.248400  0.719400  1.0  0.0841
  H  H51  1  0.609000  0.351300  0.779900  1.0  0.1253
  H  H52  1  0.722500  0.087900  0.911500  1.0  0.1219
  H  H53  1  0.324000  0.369300  0.025900  1.0  0.1062
  H  H54  1  0.366800  0.233100  0.075900  1.0  0.1019
  H  H55  1  0.547000  0.134200  0.030200  1.0  0.1249
  H  H56  1  0.440600  0.395600  0.891400  1.0  0.1163
  H  H57  1  0.157600  0.168600  0.069200  1.0  0.379
  H  H58  1  0.032600  0.219400  0.751600  1.0  0.086
  H  H59  1  0.960300  0.279900  0.648700  1.0  0.1266
  H  H60  1  0.810400  0.411500  0.912100  1.0  0.1238
  H  H61  1  0.693300  0.525900  0.630700  1.0  0.1072
  H  H62  1  0.599900  0.575900  0.766900  1.0  0.1037
  H  H63  1  0.681200  0.530200  0.865800  1.0  0.1249
  H  H64  1  0.836200  0.391400  0.604400  1.0  0.1161
  H  H65  1  0.895400  0.331400  0.430800  1.0  0.3782
  H  H66  1  0.503600  0.280600  0.748400  1.0  0.0858
  H  H67  1  0.388900  0.220100  0.851300  1.0  0.1256
  H  H68  1  0.634000  0.088500  0.587900  1.0  0.1232
  H  H69  1  0.349900  0.974100  0.869300  1.0  0.1069
  H  H70  1  0.442700  0.924100  0.733100  1.0  0.1028
  H  H71  1  0.577200  0.969800  0.634200  1.0  0.1255
  H  H72  1  0.332000  0.108600  0.895600  1.0  0.1164
  C  C73  1  0.751800  0.599100  0.266900  1.0  0.434
  C  C74  1  0.684400  0.518700  0.247300  1.0  -0.0272
  C  C75  1  0.610300  0.476600  0.268600  1.0  0.6173
  C  C76  1  0.771300  0.521700  0.174300  1.0  0.0181
  C  C77  1  0.820900  0.477700  0.094500  1.0  0.6437
  C  C78  1  0.763400  0.658400  0.307800  1.0  -0.0929
  C  C79  1  0.756200  0.737400  0.270200  1.0  -0.0811
  C  C80  1  0.780700  0.701300  0.422500  1.0  0.0537
  C  C81  1  0.766600  0.781600  0.386200  1.0  0.0481
  C  C82  1  0.760700  0.800700  0.306500  1.0  -0.1217
  C  C83  1  0.774700  0.639200  0.385600  1.0  -0.1388
  C  C84  1  0.785200  0.827700  0.497100  1.0  -0.0869
  C  C85  1  0.803000  0.746100  0.530900  1.0  -0.0865
  C  C86  1  0.790400  0.683100  0.500900  1.0  -0.1398
  C  C87  1  0.774400  0.845300  0.419100  1.0  -0.1406
  C  C88  1  0.117800  0.900900  0.233100  1.0  0.4322
  C  C89  1  0.950400  0.981300  0.252700  1.0  -0.0274
  C  C90  1  0.855500  0.023400  0.231400  1.0  0.6223
  C  C91  1  0.967300  0.978300  0.325700  1.0  0.0167
  C  C92  1  0.893100  0.022300  0.405500  1.0  0.6489
  C  C93  1  0.229600  0.841600  0.192200  1.0  -0.0913
  C  C94  1  0.263800  0.762600  0.229800  1.0  -0.0818
  C  C95  1  0.404500  0.798700  0.077500  1.0  0.0531
  C  C96  1  0.434400  0.718400  0.113800  1.0  0.0476
  C  C97  1  0.367900  0.699300  0.193500  1.0  -0.1189
  C  C98  1  0.299500  0.860800  0.114400  1.0  -0.1363
  C  C99  1  0.610000  0.672300  0.002900  1.0  -0.0864
  C  C100  1  0.580000  0.753900  0.969100  1.0  -0.089
  C  C101  1  0.474400  0.816900  0.999100  1.0  -0.1399
  C  C102  1  0.538800  0.654700  0.080900  1.0  -0.1396
  C  C103  1  0.018700  0.733100  0.099100  1.0  0.433
  C  C104  1  0.931700  0.752700  0.018700  1.0  -0.0282
  C  C105  1  0.878900  0.731400  0.976600  1.0  0.6189
  C  C106  1  0.945600  0.825700  0.021700  1.0  0.0187
  C  C107  1  0.915400  0.905500  0.977700  1.0  0.6459
  C  C108  1  0.071200  0.692200  0.158400  1.0  -0.0923
  C  C109  1  0.026400  0.729800  0.237400  1.0  -0.0821
  C  C110  1  0.203200  0.577500  0.201300  1.0  0.0536
  C  C111  1  0.152800  0.613800  0.281600  1.0  0.0465
  C  C112  1  0.067200  0.693500  0.300700  1.0  -0.1239
  C  C113  1  0.160300  0.614400  0.139200  1.0  -0.1349
  C  C114  1  0.282300  0.502900  0.327700  1.0  -0.0865
  C  C115  1  0.333900  0.469100  0.246100  1.0  -0.0883
  C  C116  1  0.291300  0.499100  0.183100  1.0  -0.1404
  C  C117  1  0.193500  0.580900  0.345300  1.0  -0.1411
  C  C118  1  0.350900  0.766900  0.400900  1.0  0.4325
  C  C119  1  0.203100  0.747300  0.481300  1.0  -0.0284
  C  C120  1  0.086900  0.768600  0.523400  1.0  0.6161
  C  C121  1  0.293000  0.674300  0.478300  1.0  0.0178
  C  C122  1  0.298600  0.594500  0.522300  1.0  0.645
  C  C123  1  0.421800  0.807800  0.341600  1.0  -0.0928
  C  C124  1  0.493600  0.770200  0.262600  1.0  -0.0825
  C  C125  1  0.482000  0.922500  0.298700  1.0  0.0527
  C  C126  1  0.548200  0.886200  0.218400  1.0  0.0478
  C  C127  1  0.561400  0.806500  0.199300  1.0  -0.1239
  C  C128  1  0.413900  0.885600  0.360800  1.0  -0.1361
  C  C129  1  0.612900  0.997100  0.172300  1.0  -0.0866
  C  C130  1  0.549100  0.030900  0.253900  1.0  -0.0867
  C  C131  1  0.473500  0.000900  0.316900  1.0  -0.1404
  C  C132  1  0.619700  0.919100  0.154700  1.0  -0.1364
  C  C133  1  0.248200  0.400900  0.733100  1.0  0.4316
  C  C134  1  0.315600  0.481300  0.752700  1.0  -0.0267
  C  C135  1  0.389700  0.523400  0.731400  1.0  0.6179
  C  C136  1  0.228700  0.478300  0.825700  1.0  0.0182
  C  C137  1  0.179100  0.522300  0.905500  1.0  0.6442
  C  C138  1  0.236600  0.341600  0.692200  1.0  -0.091
  C  C139  1  0.243800  0.262600  0.729800  1.0  -0.0809
  C  C140  1  0.219300  0.298700  0.577500  1.0  0.0545
  C  C141  1  0.233400  0.218400  0.613800  1.0  0.0481
  C  C142  1  0.239300  0.199300  0.693500  1.0  -0.1219
  C  C143  1  0.225300  0.360800  0.614400  1.0  -0.1372
  C  C144  1  0.214800  0.172300  0.502900  1.0  -0.0857
  C  C145  1  0.197000  0.253900  0.469100  1.0  -0.0869
  C  C146  1  0.209600  0.316900  0.499100  1.0  -0.1415
  C  C147  1  0.225600  0.154700  0.580900  1.0  -0.1398
  C  C148  1  0.882200  0.099100  0.766900  1.0  0.433
  C  C149  1  0.049600  0.018700  0.747300  1.0  -0.0272
  C  C150  1  0.144500  0.976600  0.768600  1.0  0.6212
  C  C151  1  0.032700  0.021700  0.674300  1.0  0.019
  C  C152  1  0.106900  0.977700  0.594500  1.0  0.6487
  C  C153  1  0.770400  0.158400  0.807800  1.0  -0.0924
  C  C154  1  0.736200  0.237400  0.770200  1.0  -0.0815
  C  C155  1  0.595500  0.201300  0.922500  1.0  0.0535
  C  C156  1  0.565600  0.281600  0.886200  1.0  0.0468
  C  C157  1  0.632100  0.300700  0.806500  1.0  -0.1199
  C  C158  1  0.700500  0.139200  0.885600  1.0  -0.1373
  C  C159  1  0.390000  0.327700  0.997100  1.0  -0.0862
  C  C160  1  0.420000  0.246100  0.030900  1.0  -0.0896
  C  C161  1  0.525600  0.183100  0.000900  1.0  -0.137
  C  C162  1  0.461200  0.345300  0.919100  1.0  -0.1409
  C  C163  1  0.981300  0.266900  0.900900  1.0  0.4332
  C  C164  1  0.068300  0.247300  0.981300  1.0  -0.0291
  C  C165  1  0.121100  0.268600  0.023400  1.0  0.6197
  C  C166  1  0.054400  0.174300  0.978300  1.0  0.02
  C  C167  1  0.084600  0.094500  0.022300  1.0  0.643
  C  C168  1  0.928800  0.307800  0.841600  1.0  -0.0936
  C  C169  1  0.973600  0.270200  0.762600  1.0  -0.0823
  C  C170  1  0.796800  0.422500  0.798700  1.0  0.0542
  C  C171  1  0.847200  0.386200  0.718400  1.0  0.0482
  C  C172  1  0.932800  0.306500  0.699300  1.0  -0.1268
  C  C173  1  0.839700  0.385600  0.860800  1.0  -0.1358
  C  C174  1  0.717700  0.497100  0.672300  1.0  -0.0876
  C  C175  1  0.666100  0.530900  0.753900  1.0  -0.0873
  C  C176  1  0.708700  0.500900  0.816900  1.0  -0.14
  C  C177  1  0.806500  0.419100  0.654700  1.0  -0.1397
  C  C178  1  0.649100  0.233100  0.599100  1.0  0.4327
  C  C179  1  0.796900  0.252700  0.518700  1.0  -0.0275
  C  C180  1  0.913100  0.231400  0.476600  1.0  0.6174
  C  C181  1  0.707000  0.325700  0.521700  1.0  0.0185
  C  C182  1  0.701400  0.405500  0.477700  1.0  0.6442
  C  C183  1  0.578200  0.192200  0.658400  1.0  -0.0923
  C  C184  1  0.506400  0.229800  0.737400  1.0  -0.0836
  C  C185  1  0.518000  0.077500  0.701300  1.0  0.0534
  C  C186  1  0.451800  0.113800  0.781600  1.0  0.0473
  C  C187  1  0.438600  0.193500  0.800700  1.0  -0.1217
  C  C188  1  0.586100  0.114400  0.639200  1.0  -0.1365
  C  C189  1  0.387100  0.002900  0.827700  1.0  -0.0861
  C  C190  1  0.450900  0.969100  0.746100  1.0  -0.0862
  C  C191  1  0.526500  0.999100  0.683100  1.0  -0.1419
  C  C192  1  0.380300  0.080900  0.845300  1.0  -0.138
  N  N193  1  0.671400  0.569500  0.305900  1.0  -0.4652
  N  N194  1  0.811600  0.572400  0.188400  1.0  -0.4535
  N  N195  1  0.046800  0.930500  0.194100  1.0  -0.4672
  N  N196  1  0.072400  0.927600  0.311600  1.0  -0.4507
  N  N197  1  0.977300  0.694100  0.069500  1.0  -0.466
  N  N198  1  0.000000  0.811600  0.072400  1.0  -0.4517
  N  N199  1  0.240900  0.805900  0.430500  1.0  -0.4657
  N  N200  1  0.384000  0.688400  0.427600  1.0  -0.4498
  N  N201  1  0.328600  0.430500  0.694100  1.0  -0.4674
  N  N202  1  0.188400  0.427600  0.811600  1.0  -0.4515
  N  N203  1  0.953200  0.069500  0.805900  1.0  -0.4679
  N  N204  1  0.927600  0.072400  0.688400  1.0  -0.4468
  N  N205  1  0.022700  0.305900  0.930500  1.0  -0.4671
  N  N206  1  0.000000  0.188400  0.927600  1.0  -0.4496
  N  N207  1  0.759100  0.194100  0.569500  1.0  -0.4658
  N  N208  1  0.616000  0.311600  0.572400  1.0  -0.4482
  O  O209  1  0.537000  0.484900  0.338300  1.0  -0.5352
  O  O210  1  0.623800  0.428800  0.212000  1.0  -0.4857
  O  O211  1  0.902700  0.487800  0.041200  1.0  -0.6123
  O  O212  1  0.781300  0.431000  0.083600  1.0  -0.5743
  O  O213  1  0.860200  0.015100  0.161700  1.0  -0.5297
  O  O214  1  0.764600  0.071200  0.288000  1.0  -0.4883
  O  O215  1  0.931700  0.012200  0.458800  1.0  -0.6093
  O  O216  1  0.795900  0.069000  0.416400  1.0  -0.5739
  O  O217  1  0.875300  0.661700  0.984900  1.0  -0.5368
  O  O218  1  0.835800  0.788000  0.928800  1.0  -0.4849
  O  O219  1  0.943900  0.958800  0.987800  1.0  -0.6135
  O  O220  1  0.864900  0.916400  0.931000  1.0  -0.5749
  O  O221  1  0.021900  0.838300  0.515100  1.0  -0.5365
  O  O222  1  0.052600  0.712000  0.571200  1.0  -0.4864
  O  O223  1  0.390500  0.541200  0.512200  1.0  -0.611
  O  O224  1  0.212300  0.583600  0.569000  1.0  -0.5737
  O  O225  1  0.463000  0.515100  0.661700  1.0  -0.5348
  O  O226  1  0.376200  0.571200  0.788000  1.0  -0.4868
  O  O227  1  0.097300  0.512200  0.958800  1.0  -0.6121
  O  O228  1  0.218700  0.569000  0.916400  1.0  -0.5746
  O  O229  1  0.139800  0.984900  0.838300  1.0  -0.5282
  O  O230  1  0.235400  0.928800  0.712000  1.0  -0.4869
  O  O231  1  0.068300  0.987800  0.541200  1.0  -0.6116
  O  O232  1  0.204100  0.931000  0.583600  1.0  -0.5734
  O  O233  1  0.124700  0.338300  0.015100  1.0  -0.5359
  O  O234  1  0.164200  0.212000  0.071200  1.0  -0.4858
  O  O235  1  0.056100  0.041200  0.012200  1.0  -0.6126
  O  O236  1  0.135100  0.083600  0.069000  1.0  -0.5736
  O  O237  1  0.978100  0.161700  0.484900  1.0  -0.5364
  O  O238  1  0.947400  0.288000  0.428800  1.0  -0.4851
  O  O239  1  0.609500  0.458800  0.487800  1.0  -0.6123
  O  O240  1  0.787700  0.416400  0.431000  1.0  -0.5747
