# generated using pymatgen
data_VH8C14O5
_symmetry_space_group_name_H-M   'P 1'
_cell_length_a   6.95700000
_cell_length_b   15.25880000
_cell_length_c   15.25880000
_cell_angle_alpha   84.75870000
_cell_angle_beta   76.82260000
_cell_angle_gamma   76.82260000
_symmetry_Int_Tables_number   1
_chemical_formula_structural   VH8C14O5
_chemical_formula_sum   'V2 H16 C28 O10'
_cell_volume   1534.30015032
_cell_formula_units_Z   2
loop_
 _symmetry_equiv_pos_site_id
 _symmetry_equiv_pos_as_xyz
  1  'x, y, z'
loop_
 _atom_site_type_symbol
 _atom_site_label
 _atom_site_symmetry_multiplicity
 _atom_site_fract_x
 _atom_site_fract_y
 _atom_site_fract_z
 _atom_site_occupancy
 _atom_site_charge
  V  V1  1  0.500000  0.000000  0.000000  1.0  1.9556
  V  V2  1  0.000000  0.000000  0.000000  1.0  1.9556
  H  H3  1  0.704430  0.732960  0.007090  1.0  0.098
  H  H4  1  0.798620  0.557390  0.003030  1.0  0.1012
  H  H5  1  0.795570  0.992910  0.267040  1.0  0.0978
  H  H6  1  0.701380  0.996970  0.442610  1.0  0.1004
  H  H7  1  0.944480  0.267040  0.992910  1.0  0.0996
  H  H8  1  0.859040  0.442610  0.996970  1.0  0.103
  H  H9  1  0.555520  0.007090  0.732960  1.0  0.0983
  H  H10  1  0.640960  0.003030  0.557390  1.0  0.1004
  H  H11  1  0.295570  0.267040  0.992910  1.0  0.0982
  H  H12  1  0.201380  0.442610  0.996970  1.0  0.1019
  H  H13  1  0.204430  0.007090  0.732960  1.0  0.0978
  H  H14  1  0.298620  0.003030  0.557390  1.0  0.1011
  H  H15  1  0.055520  0.732960  0.007090  1.0  0.099
  H  H16  1  0.140960  0.557390  0.003030  1.0  0.1014
  H  H17  1  0.444480  0.992910  0.267040  1.0  0.0995
  H  H18  1  0.359040  0.996970  0.442610  1.0  0.1036
  C  C19  1  0.584600  0.694000  0.004000  1.0  0.0084
  C  C20  1  0.637000  0.595000  0.003000  1.0  -0.0452
  C  C21  1  0.915400  0.996000  0.306000  1.0  0.0074
  C  C22  1  0.863000  0.997000  0.405000  1.0  -0.0475
  C  C23  1  0.782600  0.306000  0.996000  1.0  0.0119
  C  C24  1  0.735000  0.405000  0.997000  1.0  -0.0423
  C  C25  1  0.717400  0.004000  0.694000  1.0  0.0116
  C  C26  1  0.765000  0.003000  0.595000  1.0  -0.0441
  C  C27  1  0.415400  0.306000  0.996000  1.0  0.0068
  C  C28  1  0.363000  0.405000  0.997000  1.0  -0.0467
  C  C29  1  0.084600  0.004000  0.694000  1.0  0.0075
  C  C30  1  0.137000  0.003000  0.595000  1.0  -0.0455
  C  C31  1  0.217400  0.694000  0.004000  1.0  0.0091
  C  C32  1  0.265000  0.595000  0.003000  1.0  -0.0445
  C  C33  1  0.282600  0.996000  0.306000  1.0  0.0111
  C  C34  1  0.235000  0.997000  0.405000  1.0  -0.0435
  C  C35  1  0.332000  0.844000  0.992000  1.0  0.5759
  C  C36  1  0.379000  0.741000  0.001000  1.0  -0.1865
  C  C37  1  0.474000  0.550000  0.002000  1.0  -0.1062
  C  C38  1  0.168000  0.008000  0.156000  1.0  0.576
  C  C39  1  0.121000  0.999000  0.259000  1.0  -0.1864
  C  C40  1  0.026000  0.998000  0.450000  1.0  -0.1056
  C  C41  1  0.668000  0.156000  0.008000  1.0  0.5751
  C  C42  1  0.621000  0.259000  0.999000  1.0  -0.1866
  C  C43  1  0.526000  0.450000  0.998000  1.0  -0.1059
  C  C44  1  0.832000  0.992000  0.844000  1.0  0.5757
  C  C45  1  0.879000  0.001000  0.741000  1.0  -0.1864
  C  C46  1  0.974000  0.002000  0.550000  1.0  -0.1059
  O  O47  1  0.487500  0.884500  0.986500  1.0  -0.6016
  O  O48  1  0.012500  0.013500  0.115500  1.0  -0.6026
  O  O49  1  0.858500  0.115500  0.013500  1.0  -0.6006
  O  O50  1  0.641500  0.986500  0.884500  1.0  -0.5996
  O  O51  1  0.512500  0.115500  0.013500  1.0  -0.6022
  O  O52  1  0.987500  0.986500  0.884500  1.0  -0.6013
  O  O53  1  0.141500  0.884500  0.986500  1.0  -0.6021
  O  O54  1  0.358500  0.013500  0.115500  1.0  -0.5978
  O  O55  1  0.750000  0.962000  0.038000  1.0  -0.7759
  O  O56  1  0.250000  0.038000  0.962000  1.0  -0.7763
