# generated using pymatgen
data_Cu6H38C80NO24
_symmetry_space_group_name_H-M   'P 1'
_cell_length_a   18.50000000
_cell_length_b   24.70690000
_cell_length_c   24.70690000
_cell_angle_alpha   67.63160000
_cell_angle_beta   68.01340000
_cell_angle_gamma   68.01340000
_symmetry_Int_Tables_number   1
_chemical_formula_structural   Cu6H38C80NO24
_chemical_formula_sum   'Cu12 H76 C160 N2 O48'
_cell_volume   9322.84553257
_cell_formula_units_Z   2
loop_
 _symmetry_equiv_pos_site_id
 _symmetry_equiv_pos_as_xyz
  1  'x, y, z'
loop_
 _atom_site_type_symbol
 _atom_site_label
 _atom_site_symmetry_multiplicity
 _atom_site_fract_x
 _atom_site_fract_y
 _atom_site_fract_z
 _atom_site_occupancy
 _atom_site_charge
  Cu  Cu1  1  0.145480  0.520730  0.944390  1.0  0.9134
  Cu  Cu2  1  0.028730  0.500390  0.047670  1.0  0.8311
  Cu  Cu3  1  0.610600  0.479270  0.055610  1.0  0.9117
  Cu  Cu4  1  0.576790  0.499610  0.952330  1.0  0.8322
  Cu  Cu5  1  0.610600  0.055610  0.479270  1.0  0.9142
  Cu  Cu6  1  0.576790  0.952330  0.499610  1.0  0.8342
  Cu  Cu7  1  0.145480  0.944390  0.520730  1.0  0.9146
  Cu  Cu8  1  0.028730  0.047670  0.500390  1.0  0.836
  Cu  Cu9  1  0.279290  0.829430  0.829430  1.0  0.9063
  Cu  Cu10  1  0.209290  0.901750  0.901750  1.0  0.8712
  Cu  Cu11  1  0.938150  0.170570  0.170570  1.0  0.9047
  Cu  Cu12  1  0.012790  0.098250  0.098250  1.0  0.8704
  H  H13  1  0.432100  0.689500  0.937900  1.0  0.1011
  H  H14  1  0.538400  0.665900  0.062900  1.0  0.1132
  H  H15  1  0.372800  0.819700  0.015300  1.0  0.0917
  H  H16  1  0.342600  0.820000  0.110000  1.0  0.1113
  H  H17  1  0.568000  0.748400  0.181600  1.0  0.1338
  H  H18  1  0.564400  0.720100  0.105900  1.0  0.1261
  H  H19  1  0.002700  0.835200  0.003800  1.0  0.1065
  H  H20  1  0.927400  0.683800  0.054600  1.0  0.1171
  H  H21  1  0.142100  0.697500  0.927300  1.0  0.1329
  H  H22  1  0.787700  0.773700  0.053700  1.0  0.1067
  H  H23  1  0.669200  0.822300  0.111900  1.0  0.1288
  H  H24  1  0.926500  0.837100  0.098500  1.0  0.1333
  H  H25  1  0.006600  0.548900  0.824700  1.0  0.1278
  H  H26  1  0.792800  0.535700  0.825100  1.0  0.1345
  H  H27  1  0.844800  0.501300  0.981700  1.0  0.1018
  H  H28  1  0.933000  0.648800  0.739000  1.0  0.1124
  H  H29  1  0.914500  0.536300  0.627500  1.0  0.1385
  H  H30  1  0.916300  0.497300  0.726500  1.0  0.131
  H  H31  1  0.059500  0.310500  0.062100  1.0  0.1009
  H  H32  1  0.267200  0.334100  0.937100  1.0  0.1133
  H  H33  1  0.207800  0.180300  0.984700  1.0  0.092
  H  H34  1  0.272600  0.180000  0.890000  1.0  0.1164
  H  H35  1  0.498000  0.251600  0.818400  1.0  0.1339
  H  H36  1  0.390400  0.279900  0.894100  1.0  0.1268
  H  H37  1  0.841700  0.164800  0.996200  1.0  0.1062
  H  H38  1  0.665800  0.316200  0.945400  1.0  0.1168
  H  H39  1  0.766900  0.302500  0.072700  1.0  0.134
  H  H40  1  0.615100  0.226300  0.946300  1.0  0.1077
  H  H41  1  0.603400  0.177700  0.888100  1.0  0.1277
  H  H42  1  0.862100  0.162900  0.901500  1.0  0.1339
  H  H43  1  0.380200  0.451100  0.175300  1.0  0.1283
  H  H44  1  0.153600  0.464300  0.174900  1.0  0.1323
  H  H45  1  0.327800  0.498700  0.018300  1.0  0.102
  H  H46  1  0.320800  0.351200  0.261000  1.0  0.1127
  H  H47  1  0.078300  0.463700  0.372500  1.0  0.1358
  H  H48  1  0.140100  0.502700  0.273500  1.0  0.1306
  H  H49  1  0.059500  0.062100  0.310500  1.0  0.1009
  H  H50  1  0.267200  0.937100  0.334100  1.0  0.1141
  H  H51  1  0.207800  0.984700  0.180300  1.0  0.0927
  H  H52  1  0.272600  0.890000  0.180000  1.0  0.1158
  H  H53  1  0.498000  0.818400  0.251600  1.0  0.1335
  H  H54  1  0.390400  0.894100  0.279900  1.0  0.1267
  H  H55  1  0.841700  0.996200  0.164800  1.0  0.1062
  H  H56  1  0.665800  0.945400  0.316200  1.0  0.1178
  H  H57  1  0.766900  0.072700  0.302500  1.0  0.1349
  H  H58  1  0.615100  0.946300  0.226300  1.0  0.1067
  H  H59  1  0.603400  0.888100  0.177700  1.0  0.1281
  H  H60  1  0.862100  0.901500  0.162900  1.0  0.1361
  H  H61  1  0.380200  0.175300  0.451100  1.0  0.1286
  H  H62  1  0.153600  0.174900  0.464300  1.0  0.1325
  H  H63  1  0.327800  0.018300  0.498700  1.0  0.1039
  H  H64  1  0.320800  0.261000  0.351200  1.0  0.1135
  H  H65  1  0.078300  0.372500  0.463700  1.0  0.1349
  H  H66  1  0.140100  0.273500  0.502700  1.0  0.1328
  H  H67  1  0.432100  0.937900  0.689500  1.0  0.1012
  H  H68  1  0.538400  0.062900  0.665900  1.0  0.1138
  H  H69  1  0.372800  0.015300  0.819700  1.0  0.0933
  H  H70  1  0.342600  0.110000  0.820000  1.0  0.113
  H  H71  1  0.568000  0.181600  0.748400  1.0  0.1349
  H  H72  1  0.564400  0.105900  0.720100  1.0  0.1265
  H  H73  1  0.002700  0.003800  0.835200  1.0  0.1068
  H  H74  1  0.927400  0.054600  0.683800  1.0  0.1168
  H  H75  1  0.142100  0.927300  0.697500  1.0  0.1329
  H  H76  1  0.787700  0.053700  0.773700  1.0  0.107
  H  H77  1  0.669200  0.111900  0.822300  1.0  0.1276
  H  H78  1  0.926500  0.098500  0.837100  1.0  0.1336
  H  H79  1  0.006600  0.824700  0.548900  1.0  0.1275
  H  H80  1  0.792800  0.825100  0.535700  1.0  0.1332
  H  H81  1  0.844800  0.981700  0.501300  1.0  0.103
  H  H82  1  0.933000  0.739000  0.648800  1.0  0.1119
  H  H83  1  0.914500  0.627500  0.536300  1.0  0.1374
  H  H84  1  0.916300  0.726500  0.497300  1.0  0.1306
  H  H85  1  0.252200  0.965600  0.965600  1.0  0.1216
  H  H86  1  0.030000  0.969400  0.969400  1.0  0.0966
  H  H87  1  0.183400  0.034400  0.034400  1.0  0.1207
  H  H88  1  0.968800  0.030600  0.030600  1.0  0.0982
  C  C89  1  0.337850  0.798580  0.931020  1.0  0.7191
  C  C90  1  0.393070  0.760420  0.970300  1.0  -0.1291
  C  C91  1  0.437420  0.703260  0.966840  1.0  -0.0195
  C  C92  1  0.489710  0.663260  0.001920  1.0  -0.0973
  C  C93  1  0.498560  0.688730  0.041150  1.0  -0.0769
  C  C94  1  0.451060  0.745920  0.049160  1.0  0.0505
  C  C95  1  0.402580  0.779700  0.012340  1.0  -0.086
  C  C96  1  0.535310  0.600930  0.000850  1.0  0.5967
  C  C97  1  0.451570  0.763300  0.098560  1.0  0.0062
  C  C98  1  0.389300  0.805460  0.124340  1.0  -0.0482
  C  C99  1  0.521060  0.765020  0.167260  1.0  -0.124
  C  C100  1  0.516400  0.747300  0.122900  1.0  -0.0835
  C  C101  1  0.143990  0.803470  0.925770  1.0  0.7107
  C  C102  1  0.081130  0.769370  0.962050  1.0  -0.1138
  C  C103  1  0.009530  0.796320  0.000700  1.0  -0.0743
  C  C104  1  0.949490  0.767360  0.033860  1.0  0.008
  C  C105  1  0.965110  0.706920  0.029660  1.0  -0.0043
  C  C106  1  0.035180  0.682560  0.989280  1.0  -0.0991
  C  C107  1  0.094350  0.714100  0.954800  1.0  0.0012
  C  C108  1  0.046850  0.619030  0.989470  1.0  0.7095
  C  C109  1  0.868170  0.800100  0.068560  1.0  -0.0619
  C  C110  1  0.790880  0.797350  0.074890  1.0  -0.1029
  C  C111  1  0.720060  0.825880  0.109000  1.0  -0.1638
  C  C112  1  0.875460  0.834720  0.100560  1.0  -0.1528
  C  C113  1  0.995570  0.519810  0.940410  1.0  0.6671
  C  C114  1  0.935990  0.523850  0.911370  1.0  -0.1179
  C  C115  1  0.955790  0.540480  0.847140  1.0  -0.0909
  C  C116  1  0.902920  0.545420  0.813940  1.0  0.0528
  C  C117  1  0.828690  0.533610  0.845410  1.0  -0.0937
  C  C118  1  0.809100  0.518390  0.908810  1.0  -0.0969
  C  C119  1  0.861520  0.513270  0.938490  1.0  -0.0152
  C  C120  1  0.726350  0.506960  0.939740  1.0  0.5389
  C  C121  1  0.923160  0.568930  0.745850  1.0  -0.0013
  C  C122  1  0.929750  0.625900  0.717100  1.0  -0.0518
  C  C123  1  0.919550  0.559940  0.647960  1.0  -0.1386
  C  C124  1  0.919340  0.538150  0.707370  1.0  -0.0845
  C  C125  1  0.067450  0.201420  0.068980  1.0  0.7176
  C  C126  1  0.123790  0.239580  0.029700  1.0  -0.1275
  C  C127  1  0.107520  0.296740  0.033160  1.0  -0.0171
  C  C128  1  0.154890  0.336740  0.998080  1.0  -0.0969
  C  C129  1  0.228440  0.311270  0.958850  1.0  -0.0781
  C  C130  1  0.246140  0.254080  0.950840  1.0  0.0515
  C  C131  1  0.194620  0.220300  0.987660  1.0  -0.0848
  C  C132  1  0.137090  0.399070  0.999150  1.0  0.5978
  C  C133  1  0.313430  0.236700  0.901440  1.0  0.007
  C  C134  1  0.319100  0.194540  0.875660  1.0  -0.0481
  C  C135  1  0.453340  0.234980  0.832740  1.0  -0.1238
  C  C136  1  0.386600  0.252700  0.877100  1.0  -0.0842
  C  C137  1  0.873230  0.196530  0.074230  1.0  0.7109
  C  C138  1  0.812550  0.230630  0.037950  1.0  -0.1128
  C  C139  1  0.806550  0.203680  0.999300  1.0  -0.0732
  C  C140  1  0.750710  0.232640  0.966140  1.0  0.009
  C  C141  1  0.701690  0.293080  0.970340  1.0  -0.0058
  C  C142  1  0.707020  0.317440  0.010720  1.0  -0.1006
  C  C143  1  0.763250  0.285900  0.045200  1.0  -0.0004
  C  C144  1  0.655350  0.380970  0.010530  1.0  0.7098
  C  C145  1  0.736830  0.199900  0.931440  1.0  -0.0633
  C  C146  1  0.663120  0.202650  0.925110  1.0  -0.102
  C  C147  1  0.654940  0.174120  0.891000  1.0  -0.1651
  C  C148  1  0.810740  0.165280  0.899440  1.0  -0.1513
  C  C149  1  0.455790  0.480190  0.059590  1.0  0.6655
  C  C150  1  0.371210  0.476150  0.088630  1.0  -0.1167
  C  C151  1  0.343410  0.459520  0.152860  1.0  -0.0903
  C  C152  1  0.262280  0.454580  0.186060  1.0  0.0532
  C  C153  1  0.207710  0.466390  0.154590  1.0  -0.0942
  C  C154  1  0.236300  0.481610  0.091190  1.0  -0.0978
  C  C155  1  0.313280  0.486730  0.061510  1.0  -0.0157
  C  C156  1  0.173050  0.493040  0.060260  1.0  0.5395
  C  C157  1  0.237940  0.431070  0.254150  1.0  -0.0013
  C  C158  1  0.272750  0.374100  0.282900  1.0  -0.0491
  C  C159  1  0.127450  0.440060  0.352040  1.0  -0.1373
  C  C160  1  0.164860  0.461850  0.292630  1.0  -0.0856
  C  C161  1  0.067450  0.068980  0.201420  1.0  0.7189
  C  C162  1  0.123790  0.029700  0.239580  1.0  -0.1279
  C  C163  1  0.107520  0.033160  0.296740  1.0  -0.018
  C  C164  1  0.154890  0.998080  0.336740  1.0  -0.0977
  C  C165  1  0.228440  0.958850  0.311270  1.0  -0.0779
  C  C166  1  0.246140  0.950840  0.254080  1.0  0.0515
  C  C167  1  0.194620  0.987660  0.220300  1.0  -0.0856
  C  C168  1  0.137090  0.999150  0.399070  1.0  0.598
  C  C169  1  0.313430  0.901440  0.236700  1.0  0.0067
  C  C170  1  0.319100  0.875660  0.194540  1.0  -0.049
  C  C171  1  0.453340  0.832740  0.234980  1.0  -0.1243
  C  C172  1  0.386600  0.877100  0.252700  1.0  -0.0861
  C  C173  1  0.873230  0.074230  0.196530  1.0  0.7088
  C  C174  1  0.812550  0.037950  0.230630  1.0  -0.1125
  C  C175  1  0.806550  0.999300  0.203680  1.0  -0.0737
  C  C176  1  0.750710  0.966140  0.232640  1.0  0.0087
  C  C177  1  0.701690  0.970340  0.293080  1.0  -0.0043
  C  C178  1  0.707020  0.010720  0.317440  1.0  -0.1006
  C  C179  1  0.763250  0.045200  0.285900  1.0  0.0032
  C  C180  1  0.655350  0.010530  0.380970  1.0  0.7105
  C  C181  1  0.736830  0.931440  0.199900  1.0  -0.0634
  C  C182  1  0.663120  0.925110  0.202650  1.0  -0.1014
  C  C183  1  0.654940  0.891000  0.174120  1.0  -0.1565
  C  C184  1  0.810740  0.899440  0.165280  1.0  -0.1519
  C  C185  1  0.455790  0.059590  0.480190  1.0  0.6664
  C  C186  1  0.371210  0.088630  0.476150  1.0  -0.118
  C  C187  1  0.343410  0.152860  0.459520  1.0  -0.0928
  C  C188  1  0.262280  0.186060  0.454580  1.0  0.0529
  C  C189  1  0.207710  0.154590  0.466390  1.0  -0.0947
  C  C190  1  0.236300  0.091190  0.481610  1.0  -0.0972
  C  C191  1  0.313280  0.061510  0.486730  1.0  -0.0149
  C  C192  1  0.173050  0.060260  0.493040  1.0  0.5393
  C  C193  1  0.237940  0.254150  0.431070  1.0  -0.0
  C  C194  1  0.272750  0.282900  0.374100  1.0  -0.0464
  C  C195  1  0.127450  0.352040  0.440060  1.0  -0.1374
  C  C196  1  0.164860  0.292630  0.461850  1.0  -0.0853
  C  C197  1  0.337850  0.931020  0.798580  1.0  0.7189
  C  C198  1  0.393070  0.970300  0.760420  1.0  -0.1276
  C  C199  1  0.437420  0.966840  0.703260  1.0  -0.0175
  C  C200  1  0.489710  0.001920  0.663260  1.0  -0.0968
  C  C201  1  0.498560  0.041150  0.688730  1.0  -0.0778
  C  C202  1  0.451060  0.049160  0.745920  1.0  0.051
  C  C203  1  0.402580  0.012340  0.779700  1.0  -0.0842
  C  C204  1  0.535310  0.000850  0.600930  1.0  0.5974
  C  C205  1  0.451570  0.098560  0.763300  1.0  0.0065
  C  C206  1  0.389300  0.124340  0.805460  1.0  -0.0485
  C  C207  1  0.521060  0.167260  0.765020  1.0  -0.1231
  C  C208  1  0.516400  0.122900  0.747300  1.0  -0.0826
  C  C209  1  0.143990  0.925770  0.803470  1.0  0.711
  C  C210  1  0.081130  0.962050  0.769370  1.0  -0.1141
  C  C211  1  0.009530  0.000700  0.796320  1.0  -0.0732
  C  C212  1  0.949490  0.033860  0.767360  1.0  0.0091
  C  C213  1  0.965110  0.029660  0.706920  1.0  -0.0051
  C  C214  1  0.035180  0.989280  0.682560  1.0  -0.1006
  C  C215  1  0.094350  0.954800  0.714100  1.0  0.0012
  C  C216  1  0.046850  0.989470  0.619030  1.0  0.7106
  C  C217  1  0.868170  0.068560  0.800100  1.0  -0.0618
  C  C218  1  0.790880  0.074890  0.797350  1.0  -0.1037
  C  C219  1  0.720060  0.109000  0.825880  1.0  -0.1554
  C  C220  1  0.875460  0.100560  0.834720  1.0  -0.1521
  C  C221  1  0.995570  0.940410  0.519810  1.0  0.6667
  C  C222  1  0.935990  0.911370  0.523850  1.0  -0.1175
  C  C223  1  0.955790  0.847140  0.540480  1.0  -0.0924
  C  C224  1  0.902920  0.813940  0.545420  1.0  0.0527
  C  C225  1  0.828690  0.845410  0.533610  1.0  -0.0956
  C  C226  1  0.809100  0.908810  0.518390  1.0  -0.0974
  C  C227  1  0.861520  0.938490  0.513270  1.0  -0.0169
  C  C228  1  0.726350  0.939740  0.506960  1.0  0.54
  C  C229  1  0.923160  0.745850  0.568930  1.0  -0.0024
  C  C230  1  0.929750  0.717100  0.625900  1.0  -0.0483
  C  C231  1  0.919550  0.647960  0.559940  1.0  -0.1335
  C  C232  1  0.919340  0.707370  0.538150  1.0  -0.0859
  C  C233  1  0.932110  0.653290  0.653290  1.0  0.0151
  C  C234  1  0.927450  0.618550  0.618550  1.0  -0.0107
  C  C235  1  0.194800  0.979100  0.979100  1.0  0.1401
  C  C236  1  0.062450  0.981950  0.981950  1.0  0.1133
  C  C237  1  0.238690  0.346710  0.346710  1.0  0.0161
  C  C238  1  0.164550  0.381450  0.381450  1.0  -0.0149
  C  C239  1  0.153000  0.020900  0.020900  1.0  0.1424
  C  C240  1  0.026350  0.018050  0.018050  1.0  0.1131
  C  C241  1  0.383400  0.831020  0.168980  1.0  0.017
  C  C242  1  0.453900  0.808800  0.191200  1.0  0.0243
  C  C243  1  0.726600  0.860600  0.139400  1.0  0.041
  C  C244  1  0.802700  0.864800  0.135200  1.0  0.0452
  C  C245  1  0.383400  0.168980  0.831020  1.0  0.0166
  C  C246  1  0.453900  0.191200  0.808800  1.0  0.0235
  C  C247  1  0.726600  0.139400  0.860600  1.0  0.0413
  C  C248  1  0.802700  0.135200  0.864800  1.0  0.0449
  N  N249  1  0.146260  0.961710  0.961710  1.0  -0.3349
  N  N250  1  0.069680  0.038290  0.038290  1.0  -0.3338
  O  O251  1  0.562610  0.565350  0.045830  1.0  -0.5639
  O  O252  1  0.532110  0.584300  0.955400  1.0  -0.562
  O  O253  1  0.287390  0.846300  0.946860  1.0  -0.5894
  O  O254  1  0.346990  0.785740  0.885160  1.0  -0.5555
  O  O255  1  0.138220  0.845650  0.945330  1.0  -0.5627
  O  O256  1  0.198480  0.784460  0.884980  1.0  -0.5631
  O  O257  1  0.005950  0.587310  0.030050  1.0  -0.5638
  O  O258  1  0.101320  0.606240  0.945920  1.0  -0.5654
  O  O259  1  0.065410  0.528520  0.909100  1.0  -0.5649
  O  O260  1  0.962470  0.513910  0.996410  1.0  -0.5868
  O  O261  1  0.671630  0.512050  0.919710  1.0  -0.5686
  O  O262  1  0.715090  0.492040  0.000060  1.0  -0.616
  O  O263  1  0.173790  0.434650  0.954170  1.0  -0.5645
  O  O264  1  0.071810  0.415700  0.044600  1.0  -0.5632
  O  O265  1  0.080550  0.153700  0.053140  1.0  -0.5883
  O  O266  1  0.017890  0.214260  0.114840  1.0  -0.5554
  O  O267  1  0.929200  0.154350  0.054670  1.0  -0.5623
  O  O268  1  0.867920  0.215540  0.115020  1.0  -0.5623
  O  O269  1  0.623310  0.412690  0.969950  1.0  -0.5655
  O  O270  1  0.653480  0.393760  0.054080  1.0  -0.5656
  O  O271  1  0.503030  0.471480  0.090900  1.0  -0.5645
  O  O272  1  0.472790  0.486090  0.003590  1.0  -0.587
  O  O273  1  0.103390  0.487950  0.080290  1.0  -0.5675
  O  O274  1  0.207190  0.507960  0.999940  1.0  -0.6155
  O  O275  1  0.173790  0.954170  0.434650  1.0  -0.5642
  O  O276  1  0.071810  0.044600  0.415700  1.0  -0.5656
  O  O277  1  0.080550  0.053140  0.153700  1.0  -0.588
  O  O278  1  0.017890  0.114840  0.214260  1.0  -0.5547
  O  O279  1  0.929200  0.054670  0.154350  1.0  -0.5614
  O  O280  1  0.867920  0.115020  0.215540  1.0  -0.562
  O  O281  1  0.623310  0.969950  0.412690  1.0  -0.5638
  O  O282  1  0.653480  0.054080  0.393760  1.0  -0.5672
  O  O283  1  0.503030  0.090900  0.471480  1.0  -0.5653
  O  O284  1  0.472790  0.003590  0.486090  1.0  -0.5887
  O  O285  1  0.103390  0.080290  0.487950  1.0  -0.5653
  O  O286  1  0.207190  0.999940  0.507960  1.0  -0.614
  O  O287  1  0.562610  0.045830  0.565350  1.0  -0.563
  O  O288  1  0.532110  0.955400  0.584300  1.0  -0.568
  O  O289  1  0.287390  0.946860  0.846300  1.0  -0.5905
  O  O290  1  0.346990  0.885160  0.785740  1.0  -0.5557
  O  O291  1  0.138220  0.945330  0.845650  1.0  -0.5613
  O  O292  1  0.198480  0.884980  0.784460  1.0  -0.5628
  O  O293  1  0.005950  0.030050  0.587310  1.0  -0.5658
  O  O294  1  0.101320  0.945920  0.606240  1.0  -0.568
  O  O295  1  0.065410  0.909100  0.528520  1.0  -0.566
  O  O296  1  0.962470  0.996410  0.513910  1.0  -0.5887
  O  O297  1  0.671630  0.919710  0.512050  1.0  -0.5673
  O  O298  1  0.715090  0.000060  0.492040  1.0  -0.6158
