# generated using pymatgen
data_CuH6C13O4
_symmetry_space_group_name_H-M   'P 1'
_cell_length_a   18.41300000
_cell_length_b   24.67000000
_cell_length_c   24.67000000
_cell_angle_alpha   67.87800000
_cell_angle_beta   68.08770000
_cell_angle_gamma   68.08770000
_symmetry_Int_Tables_number   1
_chemical_formula_structural   CuH6C13O4
_chemical_formula_sum   'Cu12 H72 C156 O48'
_cell_volume   9271.77512271
_cell_formula_units_Z   12
loop_
 _symmetry_equiv_pos_site_id
 _symmetry_equiv_pos_as_xyz
  1  'x, y, z'
loop_
 _atom_site_type_symbol
 _atom_site_label
 _atom_site_symmetry_multiplicity
 _atom_site_fract_x
 _atom_site_fract_y
 _atom_site_fract_z
 _atom_site_occupancy
 _atom_site_charge
  Cu  Cu1  1  0.896310  0.497210  0.956170  1.0  0.9177
  Cu  Cu2  1  0.778390  0.477780  0.059330  1.0  0.937
  Cu  Cu3  1  0.349690  0.502790  0.043830  1.0  0.9156
  Cu  Cu4  1  0.315490  0.522220  0.940670  1.0  0.9385
  Cu  Cu5  1  0.349690  0.043830  0.502790  1.0  0.9192
  Cu  Cu6  1  0.315500  0.940670  0.522210  1.0  0.9341
  Cu  Cu7  1  0.896310  0.956170  0.497210  1.0  0.9169
  Cu  Cu8  1  0.778380  0.059330  0.477790  1.0  0.9395
  Cu  Cu9  1  0.908180  0.899260  0.899260  1.0  0.9169
  Cu  Cu10  1  0.981660  0.826710  0.826710  1.0  0.8974
  Cu  Cu11  1  0.706700  0.100740  0.100740  1.0  0.9185
  Cu  Cu12  1  0.635080  0.173290  0.173290  1.0  0.8967
  H  H13  1  0.084100  0.839600  0.994600  1.0  0.1109
  H  H14  1  0.270200  0.696100  0.041700  1.0  0.1126
  H  H15  1  0.163700  0.698400  0.924600  1.0  0.1068
  H  H16  1  0.066100  0.842600  0.090600  1.0  0.1086
  H  H17  1  0.319100  0.824300  0.105300  1.0  0.1053
  H  H18  1  0.308900  0.778400  0.044200  1.0  0.1061
  H  H19  1  0.713400  0.818900  0.017100  1.0  0.1005
  H  H20  1  0.660000  0.659600  0.075000  1.0  0.0992
  H  H21  1  0.857100  0.686700  0.935100  1.0  0.1116
  H  H22  1  0.528100  0.718900  0.105500  1.0  0.1077
  H  H23  1  0.415400  0.755900  0.176100  1.0  0.1171
  H  H24  1  0.651600  0.816700  0.114900  1.0  0.1002
  H  H25  1  0.777200  0.525700  0.825700  1.0  0.1132
  H  H26  1  0.551000  0.552300  0.816300  1.0  0.1164
  H  H27  1  0.595100  0.499000  0.980200  1.0  0.109
  H  H28  1  0.615300  0.647300  0.737300  1.0  0.0922
  H  H29  1  0.841200  0.534800  0.627000  1.0  0.1052
  H  H30  1  0.790900  0.492700  0.725500  1.0  0.1141
  H  H31  1  0.918300  0.160400  0.005400  1.0  0.1112
  H  H32  1  0.008000  0.303900  0.958300  1.0  0.1131
  H  H33  1  0.786700  0.301600  0.075400  1.0  0.1059
  H  H34  1  0.999300  0.157400  0.909400  1.0  0.1091
  H  H35  1  0.248700  0.175700  0.894700  1.0  0.1061
  H  H36  1  0.131500  0.221600  0.955800  1.0  0.1057
  H  H37  1  0.549400  0.181100  0.982900  1.0  0.1027
  H  H38  1  0.394600  0.340400  0.925000  1.0  0.1011
  H  H39  1  0.478900  0.313300  0.064900  1.0  0.1124
  H  H40  1  0.352500  0.281100  0.894500  1.0  0.1078
  H  H41  1  0.347400  0.244100  0.823900  1.0  0.1172
  H  H42  1  0.583200  0.183300  0.885100  1.0  0.0994
  H  H43  1  0.128600  0.474300  0.174300  1.0  0.1139
  H  H44  1  0.919600  0.447700  0.183700  1.0  0.1165
  H  H45  1  0.074300  0.501000  0.019800  1.0  0.1089
  H  H46  1  0.999900  0.352700  0.262700  1.0  0.0921
  H  H47  1  0.003000  0.465200  0.373000  1.0  0.1065
  H  H48  1  0.009100  0.507300  0.274500  1.0  0.1172
  H  H49  1  0.918300  0.005400  0.160400  1.0  0.1107
  H  H50  1  0.008000  0.958300  0.303900  1.0  0.1124
  H  H51  1  0.786700  0.075400  0.301600  1.0  0.1068
  H  H52  1  0.999300  0.909400  0.157400  1.0  0.1091
  H  H53  1  0.248700  0.894700  0.175700  1.0  0.1056
  H  H54  1  0.131500  0.955800  0.221600  1.0  0.1061
  H  H55  1  0.549400  0.982900  0.181100  1.0  0.1036
  H  H56  1  0.394600  0.925000  0.340400  1.0  0.1003
  H  H57  1  0.478900  0.064900  0.313300  1.0  0.1126
  H  H58  1  0.352500  0.894500  0.281100  1.0  0.1081
  H  H59  1  0.347400  0.823900  0.244100  1.0  0.1185
  H  H60  1  0.583200  0.885100  0.183300  1.0  0.0994
  H  H61  1  0.128600  0.174300  0.474300  1.0  0.1134
  H  H62  1  0.919600  0.183700  0.447700  1.0  0.116
  H  H63  1  0.074300  0.019800  0.501000  1.0  0.1105
  H  H64  1  0.999900  0.262700  0.352700  1.0  0.0918
  H  H65  1  0.003000  0.373000  0.465200  1.0  0.105
  H  H66  1  0.009100  0.274500  0.507300  1.0  0.1159
  H  H67  1  0.084100  0.994600  0.839600  1.0  0.1119
  H  H68  1  0.270200  0.041700  0.696100  1.0  0.1127
  H  H69  1  0.163700  0.924600  0.698400  1.0  0.1071
  H  H70  1  0.066100  0.090600  0.842600  1.0  0.1088
  H  H71  1  0.319100  0.105300  0.824300  1.0  0.1052
  H  H72  1  0.308900  0.044200  0.778400  1.0  0.106
  H  H73  1  0.713400  0.017100  0.818900  1.0  0.1007
  H  H74  1  0.660000  0.075000  0.659600  1.0  0.1003
  H  H75  1  0.857100  0.935100  0.686700  1.0  0.1121
  H  H76  1  0.528100  0.105500  0.718900  1.0  0.1077
  H  H77  1  0.415400  0.176100  0.755900  1.0  0.1174
  H  H78  1  0.651600  0.114900  0.816700  1.0  0.1003
  H  H79  1  0.777200  0.825700  0.525700  1.0  0.1123
  H  H80  1  0.551000  0.816300  0.552300  1.0  0.1168
  H  H81  1  0.595100  0.980200  0.499000  1.0  0.1096
  H  H82  1  0.615300  0.737300  0.647300  1.0  0.0925
  H  H83  1  0.841200  0.627000  0.534800  1.0  0.1051
  H  H84  1  0.790900  0.725500  0.492700  1.0  0.1155
  C  C85  1  0.047980  0.802380  0.924160  1.0  0.71
  C  C86  1  0.112290  0.771950  0.956610  1.0  -0.1807
  C  C87  1  0.120030  0.800910  0.991570  1.0  -0.1002
  C  C88  1  0.179080  0.774390  0.021990  1.0  0.0212
  C  C89  1  0.231170  0.715750  0.018930  1.0  -0.0932
  C  C90  1  0.225070  0.687570  0.983250  1.0  -0.1283
  C  C91  1  0.166330  0.716950  0.951090  1.0  -0.0092
  C  C92  1  0.273760  0.623450  0.984310  1.0  0.7013
  C  C93  1  0.187160  0.804800  0.062080  1.0  0.0403
  C  C94  1  0.117420  0.839680  0.093740  1.0  -0.1097
  C  C95  1  0.267190  0.830120  0.101200  1.0  -0.0669
  C  C96  1  0.260740  0.801450  0.066350  1.0  -0.1206
  C  C97  1  0.850710  0.798360  0.928860  1.0  0.6818
  C  C98  1  0.793630  0.758710  0.969650  1.0  -0.1461
  C  C99  1  0.725350  0.779000  0.014080  1.0  -0.0977
  C  C100  1  0.674270  0.742690  0.053990  1.0  0.0094
  C  C101  1  0.693980  0.685310  0.048210  1.0  -0.0713
  C  C102  1  0.760880  0.663550  0.005250  1.0  -0.1617
  C  C103  1  0.811050  0.701050  0.965270  1.0  0.0345
  C  C104  1  0.786080  0.598130  0.003730  1.0  0.6877
  C  C105  1  0.601580  0.765560  0.101900  1.0  0.0229
  C  C106  1  0.529800  0.747510  0.121790  1.0  -0.1312
  C  C107  1  0.462470  0.769610  0.163590  1.0  -0.1695
  C  C108  1  0.602750  0.805500  0.126480  1.0  -0.0506
  C  C109  1  0.750210  0.500920  0.944200  1.0  0.6844
  C  C110  1  0.693980  0.512770  0.907250  1.0  -0.1353
  C  C111  1  0.721460  0.527000  0.844920  1.0  -0.093
  C  C112  1  0.668960  0.543200  0.809420  1.0  0.0283
  C  C113  1  0.587610  0.541770  0.839750  1.0  -0.0575
  C  C114  1  0.558560  0.525330  0.903730  1.0  -0.1032
  C  C115  1  0.612720  0.510630  0.937030  1.0  0.0019
  C  C116  1  0.475350  0.522260  0.935360  1.0  0.6846
  C  C117  1  0.695520  0.566970  0.743110  1.0  0.0788
  C  C118  1  0.661950  0.624080  0.714360  1.0  -0.0718
  C  C119  1  0.794560  0.558600  0.649480  1.0  -0.0438
  C  C120  1  0.765280  0.533500  0.707340  1.0  -0.1672
  C  C121  1  0.774520  0.197620  0.075840  1.0  0.709
  C  C122  1  0.840850  0.228050  0.043390  1.0  -0.1814
  C  C123  1  0.912510  0.199090  0.008430  1.0  -0.0975
  C  C124  1  0.975460  0.225610  0.978010  1.0  0.0202
  C  C125  1  0.965850  0.284250  0.981070  1.0  -0.0924
  C  C126  1  0.895890  0.312430  0.016750  1.0  -0.1277
  C  C127  1  0.834370  0.283050  0.048910  1.0  -0.0078
  C  C128  1  0.881520  0.376550  0.015690  1.0  0.7016
  C  C129  1  0.054040  0.195200  0.937920  1.0  0.0405
  C  C130  1  0.050840  0.160320  0.906260  1.0  -0.1102
  C  C131  1  0.198510  0.169880  0.898800  1.0  -0.067
  C  C132  1  0.128540  0.198550  0.933650  1.0  -0.1214
  C  C133  1  0.577930  0.201640  0.071140  1.0  0.6841
  C  C134  1  0.521990  0.241290  0.030350  1.0  -0.1476
  C  C135  1  0.518430  0.221000  0.985920  1.0  -0.097
  C  C136  1  0.470950  0.257310  0.946010  1.0  0.0098
  C  C137  1  0.427500  0.314690  0.951790  1.0  -0.0724
  C  C138  1  0.429680  0.336450  0.994750  1.0  -0.1634
  C  C139  1  0.477370  0.298950  0.034730  1.0  0.0334
  C  C140  1  0.387940  0.401870  0.996270  1.0  0.6865
  C  C141  1  0.469040  0.234440  0.898100  1.0  0.0228
  C  C142  1  0.399100  0.252490  0.878210  1.0  -0.1296
  C  C143  1  0.395670  0.230390  0.836410  1.0  -0.1666
  C  C144  1  0.534730  0.194500  0.873520  1.0  -0.0506
  C  C145  1  0.195330  0.499080  0.055800  1.0  0.684
  C  C146  1  0.114000  0.487230  0.092750  1.0  -0.1345
  C  C147  1  0.093380  0.473000  0.155080  1.0  -0.0931
  C  C148  1  0.021580  0.456800  0.190580  1.0  0.0274
  C  C149  1  0.969130  0.458230  0.160250  1.0  -0.059
  C  C150  1  0.987620  0.474670  0.096270  1.0  -0.1034
  C  C151  1  0.060380  0.489370  0.062970  1.0  0.0008
  C  C152  1  0.932970  0.477740  0.064640  1.0  0.6866
  C  C153  1  0.005600  0.433030  0.256890  1.0  0.0779
  C  C154  1  0.000390  0.375920  0.285640  1.0  -0.0725
  C  C155  1  0.002640  0.441400  0.350520  1.0  -0.0436
  C  C156  1  0.006120  0.466500  0.292660  1.0  -0.1637
  C  C157  1  0.774520  0.075840  0.197620  1.0  0.7083
  C  C158  1  0.840850  0.043390  0.228050  1.0  -0.1803
  C  C159  1  0.912510  0.008430  0.199090  1.0  -0.0977
  C  C160  1  0.975460  0.978010  0.225610  1.0  0.021
  C  C161  1  0.965850  0.981070  0.284250  1.0  -0.0918
  C  C162  1  0.895890  0.016750  0.312430  1.0  -0.1278
  C  C163  1  0.834370  0.048910  0.283050  1.0  -0.0083
  C  C164  1  0.881520  0.015690  0.376550  1.0  0.7018
  C  C165  1  0.054040  0.937920  0.195200  1.0  0.0407
  C  C166  1  0.050840  0.906260  0.160320  1.0  -0.1101
  C  C167  1  0.198510  0.898800  0.169880  1.0  -0.0691
  C  C168  1  0.128540  0.933650  0.198550  1.0  -0.1208
  C  C169  1  0.577930  0.071140  0.201640  1.0  0.6815
  C  C170  1  0.521990  0.030350  0.241290  1.0  -0.1457
  C  C171  1  0.518430  0.985920  0.221000  1.0  -0.0983
  C  C172  1  0.470950  0.946010  0.257310  1.0  0.0101
  C  C173  1  0.427500  0.951790  0.314690  1.0  -0.0708
  C  C174  1  0.429680  0.994750  0.336450  1.0  -0.1634
  C  C175  1  0.477370  0.034730  0.298950  1.0  0.0346
  C  C176  1  0.387940  0.996270  0.401870  1.0  0.6865
  C  C177  1  0.469040  0.898100  0.234440  1.0  0.0229
  C  C178  1  0.399100  0.878210  0.252490  1.0  -0.1291
  C  C179  1  0.395670  0.836410  0.230390  1.0  -0.1667
  C  C180  1  0.534730  0.873520  0.194500  1.0  -0.0497
  C  C181  1  0.195330  0.055800  0.499080  1.0  0.6847
  C  C182  1  0.114000  0.092750  0.487230  1.0  -0.1345
  C  C183  1  0.093380  0.155080  0.473000  1.0  -0.0952
  C  C184  1  0.021580  0.190580  0.456800  1.0  0.0273
  C  C185  1  0.969130  0.160250  0.458230  1.0  -0.0587
  C  C186  1  0.987620  0.096270  0.474670  1.0  -0.1036
  C  C187  1  0.060380  0.062970  0.489370  1.0  0.0022
  C  C188  1  0.932970  0.064640  0.477740  1.0  0.6863
  C  C189  1  0.005600  0.256890  0.433030  1.0  0.078
  C  C190  1  0.000390  0.285640  0.375920  1.0  -0.0704
  C  C191  1  0.002640  0.350520  0.441400  1.0  -0.0439
  C  C192  1  0.006120  0.292660  0.466500  1.0  -0.1655
  C  C193  1  0.047980  0.924160  0.802380  1.0  0.7087
  C  C194  1  0.112290  0.956610  0.771950  1.0  -0.1796
  C  C195  1  0.120030  0.991570  0.800910  1.0  -0.1002
  C  C196  1  0.179080  0.021990  0.774390  1.0  0.0208
  C  C197  1  0.231170  0.018930  0.715750  1.0  -0.0914
  C  C198  1  0.225070  0.983250  0.687570  1.0  -0.1288
  C  C199  1  0.166330  0.951090  0.716950  1.0  -0.0084
  C  C200  1  0.273760  0.984310  0.623450  1.0  0.7013
  C  C201  1  0.187160  0.062080  0.804800  1.0  0.0406
  C  C202  1  0.117420  0.093740  0.839680  1.0  -0.1103
  C  C203  1  0.267190  0.101200  0.830120  1.0  -0.0666
  C  C204  1  0.260740  0.066350  0.801450  1.0  -0.1199
  C  C205  1  0.850710  0.928860  0.798360  1.0  0.6839
  C  C206  1  0.793630  0.969650  0.758710  1.0  -0.1464
  C  C207  1  0.725350  0.014080  0.779000  1.0  -0.0997
  C  C208  1  0.674270  0.053990  0.742690  1.0  0.0254
  C  C209  1  0.693980  0.048210  0.685310  1.0  -0.0718
  C  C210  1  0.760880  0.005250  0.663550  1.0  -0.1601
  C  C211  1  0.811050  0.965270  0.701050  1.0  0.0344
  C  C212  1  0.786080  0.003730  0.598130  1.0  0.6884
  C  C213  1  0.601580  0.101900  0.765560  1.0  0.022
  C  C214  1  0.529800  0.121790  0.747510  1.0  -0.1332
  C  C215  1  0.462470  0.163590  0.769610  1.0  -0.1675
  C  C216  1  0.602750  0.126480  0.805500  1.0  -0.0509
  C  C217  1  0.750210  0.944200  0.500920  1.0  0.6847
  C  C218  1  0.693980  0.907250  0.512770  1.0  -0.1353
  C  C219  1  0.721460  0.844920  0.527000  1.0  -0.0947
  C  C220  1  0.668960  0.809420  0.543200  1.0  0.0278
  C  C221  1  0.587610  0.839750  0.541770  1.0  -0.0588
  C  C222  1  0.558560  0.903730  0.525330  1.0  -0.1032
  C  C223  1  0.612720  0.937030  0.510630  1.0  0.0017
  C  C224  1  0.475350  0.935360  0.522260  1.0  0.6852
  C  C225  1  0.695520  0.743110  0.566970  1.0  0.0786
  C  C226  1  0.661950  0.714360  0.624080  1.0  -0.0727
  C  C227  1  0.794560  0.649480  0.558600  1.0  -0.044
  C  C228  1  0.765280  0.707340  0.533500  1.0  -0.1619
  C  C229  1  0.692010  0.651790  0.651790  1.0  0.0563
  C  C230  1  0.760520  0.618780  0.618780  1.0  0.0503
  C  C231  1  0.995590  0.348210  0.348210  1.0  0.0543
  C  C232  1  0.998080  0.381220  0.381220  1.0  0.0527
  C  C233  1  0.119800  0.870400  0.129600  1.0  0.0365
  C  C234  1  0.197700  0.868560  0.131440  1.0  0.0232
  C  C235  1  0.462500  0.812030  0.187970  1.0  0.0402
  C  C236  1  0.534900  0.831410  0.168590  1.0  0.0323
  C  C237  1  0.119800  0.129600  0.870400  1.0  0.0367
  C  C238  1  0.197700  0.131440  0.868560  1.0  0.024
  C  C239  1  0.462500  0.187970  0.812030  1.0  0.0418
  C  C240  1  0.534900  0.168590  0.831410  1.0  0.0323
  O  O241  1  0.304950  0.591860  0.026500  1.0  -0.5636
  O  O242  1  0.276670  0.606670  0.940830  1.0  -0.5928
  O  O243  1  0.991440  0.842970  0.942530  1.0  -0.5779
  O  O244  1  0.055080  0.782820  0.881340  1.0  -0.5691
  O  O245  1  0.839040  0.845390  0.944290  1.0  -0.5697
  O  O246  1  0.902790  0.782770  0.883250  1.0  -0.5661
  O  O247  1  0.744900  0.565190  0.046330  1.0  -0.5704
  O  O248  1  0.845640  0.582040  0.962000  1.0  -0.5826
  O  O249  1  0.819230  0.506570  0.915030  1.0  -0.5762
  O  O250  1  0.721240  0.489120  0.001480  1.0  -0.5877
  O  O251  1  0.429520  0.528700  0.904400  1.0  -0.5715
  O  O252  1  0.455140  0.513690  0.992350  1.0  -0.5788
  O  O253  1  0.923310  0.408140  0.973500  1.0  -0.5633
  O  O254  1  0.824170  0.393330  0.059170  1.0  -0.5927
  O  O255  1  0.776940  0.157030  0.057470  1.0  -0.5772
  O  O256  1  0.719240  0.217180  0.118660  1.0  -0.57
  O  O257  1  0.628720  0.154610  0.055710  1.0  -0.572
  O  O258  1  0.568810  0.217230  0.116750  1.0  -0.5674
  O  O259  1  0.356420  0.434810  0.953670  1.0  -0.571
  O  O260  1  0.389680  0.417960  0.038000  1.0  -0.5807
  O  O261  1  0.240830  0.493430  0.084970  1.0  -0.5755
  O  O262  1  0.211840  0.510880  0.998520  1.0  -0.5897
  O  O263  1  0.862620  0.471300  0.095600  1.0  -0.5723
  O  O264  1  0.961180  0.486310  0.007650  1.0  -0.5785
  O  O265  1  0.923310  0.973500  0.408140  1.0  -0.5647
  O  O266  1  0.824170  0.059170  0.393330  1.0  -0.5919
  O  O267  1  0.776940  0.057470  0.157030  1.0  -0.5753
  O  O268  1  0.719240  0.118660  0.217180  1.0  -0.5709
  O  O269  1  0.628720  0.055710  0.154610  1.0  -0.5725
  O  O270  1  0.568810  0.116750  0.217230  1.0  -0.5662
  O  O271  1  0.356420  0.953670  0.434810  1.0  -0.5713
  O  O272  1  0.389680  0.038000  0.417960  1.0  -0.5823
  O  O273  1  0.240830  0.084970  0.493430  1.0  -0.576
  O  O274  1  0.211840  0.998520  0.510880  1.0  -0.5897
  O  O275  1  0.862620  0.095600  0.471300  1.0  -0.5728
  O  O276  1  0.961180  0.007650  0.486310  1.0  -0.579
  O  O277  1  0.304950  0.026500  0.591860  1.0  -0.5641
  O  O278  1  0.276670  0.940830  0.606670  1.0  -0.592
  O  O279  1  0.991440  0.942530  0.842970  1.0  -0.5788
  O  O280  1  0.055080  0.881340  0.782820  1.0  -0.5697
  O  O281  1  0.839040  0.944290  0.845390  1.0  -0.5708
  O  O282  1  0.902790  0.883250  0.782770  1.0  -0.5659
  O  O283  1  0.744900  0.046330  0.565190  1.0  -0.5704
  O  O284  1  0.845640  0.962000  0.582040  1.0  -0.5834
  O  O285  1  0.819230  0.915030  0.506570  1.0  -0.5766
  O  O286  1  0.721240  0.001480  0.489120  1.0  -0.5896
  O  O287  1  0.429520  0.904400  0.528700  1.0  -0.5738
  O  O288  1  0.455140  0.992350  0.513690  1.0  -0.5785
