# generated using pymatgen
data_DyH3(C3O2)3
_symmetry_space_group_name_H-M   'P 1'
_cell_length_a   10.90970000
_cell_length_b   10.90970000
_cell_length_c   19.51000000
_cell_angle_alpha   75.46870000
_cell_angle_beta   75.46870000
_cell_angle_gamma   64.10820000
_symmetry_Int_Tables_number   1
_chemical_formula_structural   DyH3(C3O2)3
_chemical_formula_sum   'Dy4 H12 C36 O24'
_cell_volume   1995.37792578
_cell_formula_units_Z   4
loop_
 _symmetry_equiv_pos_site_id
 _symmetry_equiv_pos_as_xyz
  1  'x, y, z'
loop_
 _atom_site_type_symbol
 _atom_site_label
 _atom_site_symmetry_multiplicity
 _atom_site_fract_x
 _atom_site_fract_y
 _atom_site_fract_z
 _atom_site_occupancy
 _atom_site_charge
  Dy  Dy1  1  0.753820  0.096460  0.083050  1.0  2.1827
  Dy  Dy2  1  0.903540  0.246180  0.416950  1.0  2.1832
  Dy  Dy3  1  0.246180  0.903540  0.916950  1.0  2.1823
  Dy  Dy4  1  0.096460  0.753820  0.583050  1.0  2.1829
  H  H5  1  0.331200  0.099800  0.031700  1.0  0.1082
  H  H6  1  0.297700  0.188100  0.223800  1.0  0.1071
  H  H7  1  0.980800  0.157200  0.172300  1.0  0.1066
  H  H8  1  0.900200  0.668800  0.468300  1.0  0.108
  H  H9  1  0.811900  0.702300  0.276200  1.0  0.1077
  H  H10  1  0.842800  0.019200  0.327700  1.0  0.1079
  H  H11  1  0.668800  0.900200  0.968300  1.0  0.1069
  H  H12  1  0.702300  0.811900  0.776200  1.0  0.1072
  H  H13  1  0.019200  0.842800  0.827700  1.0  0.1083
  H  H14  1  0.099800  0.331200  0.531700  1.0  0.1066
  H  H15  1  0.188100  0.297700  0.723800  1.0  0.1073
  H  H16  1  0.157200  0.980800  0.672300  1.0  0.1078
  C  C17  1  0.086200  0.093200  0.043800  1.0  0.7974
  C  C18  1  0.149600  0.121800  0.095100  1.0  -0.196
  C  C19  1  0.280800  0.118200  0.076700  1.0  0.0227
  C  C20  1  0.337600  0.141600  0.124800  1.0  -0.1633
  C  C21  1  0.259900  0.171100  0.191300  1.0  0.0261
  C  C22  1  0.128800  0.175400  0.209700  1.0  -0.167
  C  C23  1  0.070800  0.152200  0.160900  1.0  0.0211
  C  C24  1  0.484400  0.130400  0.106200  1.0  0.7034
  C  C25  1  0.046000  0.202000  0.282900  1.0  0.6877
  C  C26  1  0.906800  0.913800  0.456200  1.0  0.7989
  C  C27  1  0.878200  0.850400  0.404900  1.0  -0.2011
  C  C28  1  0.881800  0.719200  0.423300  1.0  0.0242
  C  C29  1  0.858400  0.662400  0.375200  1.0  -0.1646
  C  C30  1  0.828900  0.740100  0.308700  1.0  0.0256
  C  C31  1  0.824600  0.871200  0.290300  1.0  -0.1661
  C  C32  1  0.847800  0.929200  0.339100  1.0  0.0208
  C  C33  1  0.869600  0.515600  0.393800  1.0  0.7066
  C  C34  1  0.798000  0.954000  0.217100  1.0  0.69
  C  C35  1  0.913800  0.906800  0.956200  1.0  0.8
  C  C36  1  0.850400  0.878200  0.904900  1.0  -0.2001
  C  C37  1  0.719200  0.881800  0.923300  1.0  0.024
  C  C38  1  0.662400  0.858400  0.875200  1.0  -0.1643
  C  C39  1  0.740100  0.828900  0.808700  1.0  0.026
  C  C40  1  0.871200  0.824600  0.790300  1.0  -0.1663
  C  C41  1  0.929200  0.847800  0.839100  1.0  0.0202
  C  C42  1  0.515600  0.869600  0.893800  1.0  0.706
  C  C43  1  0.954000  0.798000  0.717100  1.0  0.6879
  C  C44  1  0.093200  0.086200  0.543800  1.0  0.7974
  C  C45  1  0.121800  0.149600  0.595100  1.0  -0.1978
  C  C46  1  0.118200  0.280800  0.576700  1.0  0.0228
  C  C47  1  0.141600  0.337600  0.624800  1.0  -0.1622
  C  C48  1  0.171100  0.259900  0.691300  1.0  0.0258
  C  C49  1  0.175400  0.128800  0.709700  1.0  -0.1664
  C  C50  1  0.152200  0.070800  0.660900  1.0  0.021
  C  C51  1  0.130400  0.484400  0.606200  1.0  0.7049
  C  C52  1  0.202000  0.046000  0.782900  1.0  0.6891
  O  O53  1  0.150900  0.081500  0.981600  1.0  -0.7168
  O  O54  1  0.554100  0.099700  0.050900  1.0  -0.6824
  O  O55  1  0.528500  0.159100  0.151000  1.0  -0.7139
  O  O56  1  0.105000  0.205000  0.329100  1.0  -0.6419
  O  O57  1  0.925200  0.216800  0.295200  1.0  -0.6398
  O  O58  1  0.972700  0.081900  0.065400  1.0  -0.8347
  O  O59  1  0.918500  0.849100  0.518400  1.0  -0.7176
  O  O60  1  0.900300  0.445900  0.449100  1.0  -0.687
  O  O61  1  0.840900  0.471500  0.349000  1.0  -0.7284
  O  O62  1  0.795000  0.895000  0.170900  1.0  -0.6399
  O  O63  1  0.783200  0.074800  0.204800  1.0  -0.6401
  O  O64  1  0.918100  0.027300  0.434600  1.0  -0.8408
  O  O65  1  0.849100  0.918500  0.018400  1.0  -0.7149
  O  O66  1  0.445900  0.900300  0.949100  1.0  -0.6835
  O  O67  1  0.471500  0.840900  0.849000  1.0  -0.727
  O  O68  1  0.895000  0.795000  0.670900  1.0  -0.6359
  O  O69  1  0.074800  0.783200  0.704800  1.0  -0.6373
  O  O70  1  0.027300  0.918100  0.934600  1.0  -0.8368
  O  O71  1  0.081500  0.150900  0.481600  1.0  -0.7172
  O  O72  1  0.099700  0.554100  0.550900  1.0  -0.6843
  O  O73  1  0.159100  0.528500  0.651000  1.0  -0.7218
  O  O74  1  0.205000  0.105000  0.829100  1.0  -0.6387
  O  O75  1  0.216800  0.925200  0.795200  1.0  -0.6353
  O  O76  1  0.081900  0.972700  0.565400  1.0  -0.8392
