# generated using pymatgen
data_ErH3(C3O2)3
_symmetry_space_group_name_H-M   'P 1'
_cell_length_a   10.88940000
_cell_length_b   10.88940000
_cell_length_c   19.68030000
_cell_angle_alpha   75.71560000
_cell_angle_beta   75.71560000
_cell_angle_gamma   64.67260000
_symmetry_Int_Tables_number   1
_chemical_formula_structural   ErH3(C3O2)3
_chemical_formula_sum   'Er4 H12 C36 O24'
_cell_volume   2017.41136714
_cell_formula_units_Z   4
loop_
 _symmetry_equiv_pos_site_id
 _symmetry_equiv_pos_as_xyz
  1  'x, y, z'
loop_
 _atom_site_type_symbol
 _atom_site_label
 _atom_site_symmetry_multiplicity
 _atom_site_fract_x
 _atom_site_fract_y
 _atom_site_fract_z
 _atom_site_occupancy
 _atom_site_charge
  Er  Er1  1  0.594590  0.255070  0.083300  1.0  1.5022
  Er  Er2  1  0.744930  0.405410  0.416700  1.0  1.5013
  Er  Er3  1  0.405410  0.744930  0.916700  1.0  1.5005
  Er  Er4  1  0.255070  0.594590  0.583300  1.0  1.5018
  H  H5  1  0.201500  0.311900  0.275500  1.0  0.1243
  H  H6  1  0.169400  0.400800  0.466800  1.0  0.1244
  H  H7  1  0.519400  0.344000  0.327500  1.0  0.1146
  H  H8  1  0.688100  0.798500  0.224500  1.0  0.1245
  H  H9  1  0.599200  0.830600  0.033200  1.0  0.1235
  H  H10  1  0.656000  0.480600  0.172500  1.0  0.1144
  H  H11  1  0.798500  0.688100  0.724500  1.0  0.1243
  H  H12  1  0.830600  0.599200  0.533200  1.0  0.1238
  H  H13  1  0.480600  0.656000  0.672500  1.0  0.1148
  H  H14  1  0.311900  0.201500  0.775500  1.0  0.1248
  H  H15  1  0.400800  0.169400  0.966800  1.0  0.1236
  H  H16  1  0.344000  0.519400  0.827500  1.0  0.1145
  C  C17  1  0.453400  0.298200  0.217300  1.0  0.6531
  C  C18  1  0.017000  0.368200  0.391500  1.0  0.6746
  C  C19  1  0.415500  0.406700  0.456400  1.0  0.7668
  C  C20  1  0.373600  0.321200  0.289700  1.0  -0.1565
  C  C21  1  0.240500  0.327100  0.308000  1.0  0.0501
  C  C22  1  0.164100  0.355300  0.374000  1.0  -0.1431
  C  C23  1  0.220700  0.380700  0.422600  1.0  0.0511
  C  C24  1  0.353900  0.376100  0.404900  1.0  -0.1617
  C  C25  1  0.430200  0.346800  0.339200  1.0  0.0491
  C  C26  1  0.701800  0.546600  0.282700  1.0  0.6535
  C  C27  1  0.631800  0.983000  0.108500  1.0  0.6727
  C  C28  1  0.593300  0.584500  0.043600  1.0  0.7648
  C  C29  1  0.678800  0.626400  0.210300  1.0  -0.1561
  C  C30  1  0.672900  0.759500  0.192000  1.0  0.05
  C  C31  1  0.644700  0.835900  0.126000  1.0  -0.1434
  C  C32  1  0.619300  0.779300  0.077400  1.0  0.0521
  C  C33  1  0.623900  0.646100  0.095100  1.0  -0.1614
  C  C34  1  0.653200  0.569800  0.160800  1.0  0.0504
  C  C35  1  0.546600  0.701800  0.782700  1.0  0.6536
  C  C36  1  0.983000  0.631800  0.608500  1.0  0.6739
  C  C37  1  0.584500  0.593300  0.543600  1.0  0.7651
  C  C38  1  0.626400  0.678800  0.710300  1.0  -0.1567
  C  C39  1  0.759500  0.672900  0.692000  1.0  0.0504
  C  C40  1  0.835900  0.644700  0.626000  1.0  -0.1426
  C  C41  1  0.779300  0.619300  0.577400  1.0  0.0521
  C  C42  1  0.646100  0.623900  0.595100  1.0  -0.1596
  C  C43  1  0.569800  0.653200  0.660800  1.0  0.0492
  C  C44  1  0.298200  0.453400  0.717300  1.0  0.6534
  C  C45  1  0.368200  0.017000  0.891500  1.0  0.6736
  C  C46  1  0.406700  0.415500  0.956400  1.0  0.7647
  C  C47  1  0.321200  0.373600  0.789700  1.0  -0.1555
  C  C48  1  0.327100  0.240500  0.808000  1.0  0.0495
  C  C49  1  0.355300  0.164100  0.874000  1.0  -0.1433
  C  C50  1  0.380700  0.220700  0.922600  1.0  0.0521
  C  C51  1  0.376100  0.353900  0.904900  1.0  -0.1625
  C  C52  1  0.346800  0.430200  0.839200  1.0  0.0502
  O  O53  1  0.395000  0.293400  0.170300  1.0  -0.5459
  O  O54  1  0.577000  0.283400  0.203600  1.0  -0.5342
  O  O55  1  0.971500  0.332700  0.350300  1.0  -0.6309
  O  O56  1  0.941900  0.410500  0.445900  1.0  -0.5855
  O  O57  1  0.350600  0.417800  0.518400  1.0  -0.613
  O  O58  1  0.528500  0.419900  0.434100  1.0  -0.7374
  O  O59  1  0.706600  0.605000  0.329700  1.0  -0.5447
  O  O60  1  0.716600  0.423000  0.296400  1.0  -0.5331
  O  O61  1  0.667300  0.028500  0.149700  1.0  -0.6249
  O  O62  1  0.589500  0.058100  0.054100  1.0  -0.587
  O  O63  1  0.582200  0.649400  0.981600  1.0  -0.6146
  O  O64  1  0.580100  0.471500  0.065900  1.0  -0.739
  O  O65  1  0.605000  0.706600  0.829700  1.0  -0.5476
  O  O66  1  0.423000  0.716600  0.796400  1.0  -0.5327
  O  O67  1  0.028500  0.667300  0.649700  1.0  -0.6171
  O  O68  1  0.058100  0.589500  0.554100  1.0  -0.5828
  O  O69  1  0.649400  0.582200  0.481600  1.0  -0.6137
  O  O70  1  0.471500  0.580100  0.565900  1.0  -0.7398
  O  O71  1  0.293400  0.395000  0.670300  1.0  -0.5471
  O  O72  1  0.283400  0.577000  0.703600  1.0  -0.5395
  O  O73  1  0.332700  0.971500  0.850300  1.0  -0.63
  O  O74  1  0.410500  0.941900  0.945900  1.0  -0.5888
  O  O75  1  0.417800  0.350600  0.018400  1.0  -0.6155
  O  O76  1  0.419900  0.528500  0.934100  1.0  -0.7461
