# generated using pymatgen
data_TbH3(C3O2)3
_symmetry_space_group_name_H-M   'P 1'
_cell_length_a   10.95480000
_cell_length_b   10.95480000
_cell_length_c   19.74100000
_cell_angle_alpha   75.48480000
_cell_angle_beta   75.48480000
_cell_angle_gamma   64.12160000
_symmetry_Int_Tables_number   1
_chemical_formula_structural   TbH3(C3O2)3
_chemical_formula_sum   'Tb4 H12 C36 O24'
_cell_volume   2036.15938246
_cell_formula_units_Z   4
loop_
 _symmetry_equiv_pos_site_id
 _symmetry_equiv_pos_as_xyz
  1  'x, y, z'
loop_
 _atom_site_type_symbol
 _atom_site_label
 _atom_site_symmetry_multiplicity
 _atom_site_fract_x
 _atom_site_fract_y
 _atom_site_fract_z
 _atom_site_occupancy
 _atom_site_charge
  Tb  Tb1  1  0.902400  0.246860  0.417080  1.0  2.1229
  Tb  Tb2  1  0.753140  0.097600  0.082920  1.0  2.122
  Tb  Tb3  1  0.097600  0.753140  0.582920  1.0  2.1223
  Tb  Tb4  1  0.246860  0.902400  0.917080  1.0  2.1219
  H  H5  1  0.295500  0.188700  0.223300  1.0  0.1003
  H  H6  1  0.330700  0.097500  0.032300  1.0  0.1013
  H  H7  1  0.981700  0.156500  0.172200  1.0  0.0926
  H  H8  1  0.811300  0.704500  0.276700  1.0  0.1009
  H  H9  1  0.902500  0.669300  0.467700  1.0  0.1014
  H  H10  1  0.843500  0.018300  0.327800  1.0  0.0936
  H  H11  1  0.704500  0.811300  0.776700  1.0  0.1005
  H  H12  1  0.669300  0.902500  0.967700  1.0  0.1014
  H  H13  1  0.018300  0.843500  0.827800  1.0  0.094
  H  H14  1  0.188700  0.295500  0.723300  1.0  0.1005
  H  H15  1  0.097500  0.330700  0.532300  1.0  0.1002
  H  H16  1  0.156500  0.981700  0.672200  1.0  0.0938
  C  C17  1  0.044800  0.201600  0.282200  1.0  0.6915
  C  C18  1  0.126400  0.177800  0.209800  1.0  -0.1845
  C  C19  1  0.257300  0.172500  0.191100  1.0  0.0129
  C  C20  1  0.335000  0.143600  0.125200  1.0  -0.1802
  C  C21  1  0.279400  0.118000  0.076300  1.0  0.0301
  C  C22  1  0.146600  0.123800  0.094800  1.0  -0.1749
  C  C23  1  0.070700  0.153100  0.160500  1.0  0.0184
  C  C24  1  0.480100  0.133900  0.107500  1.0  0.6518
  C  C25  1  0.084900  0.093900  0.043700  1.0  0.7684
  C  C26  1  0.798400  0.955200  0.217800  1.0  0.6926
  C  C27  1  0.822200  0.873600  0.290200  1.0  -0.1828
  C  C28  1  0.827500  0.742700  0.308900  1.0  0.0122
  C  C29  1  0.856400  0.665000  0.374800  1.0  -0.181
  C  C30  1  0.882000  0.720600  0.423700  1.0  0.0298
  C  C31  1  0.876200  0.853400  0.405200  1.0  -0.1766
  C  C32  1  0.846900  0.929300  0.339500  1.0  0.0176
  C  C33  1  0.866100  0.519900  0.392500  1.0  0.6529
  C  C34  1  0.906100  0.915100  0.456300  1.0  0.7688
  C  C35  1  0.955200  0.798400  0.717800  1.0  0.6903
  C  C36  1  0.873600  0.822200  0.790200  1.0  -0.1839
  C  C37  1  0.742700  0.827500  0.808900  1.0  0.0131
  C  C38  1  0.665000  0.856400  0.874800  1.0  -0.1803
  C  C39  1  0.720600  0.882000  0.923700  1.0  0.0294
  C  C40  1  0.853400  0.876200  0.905200  1.0  -0.1759
  C  C41  1  0.929300  0.846900  0.839500  1.0  0.0181
  C  C42  1  0.519900  0.866100  0.892500  1.0  0.6535
  C  C43  1  0.915100  0.906100  0.956300  1.0  0.77
  C  C44  1  0.201600  0.044800  0.782200  1.0  0.6915
  C  C45  1  0.177800  0.126400  0.709800  1.0  -0.184
  C  C46  1  0.172500  0.257300  0.691100  1.0  0.0128
  C  C47  1  0.143600  0.335000  0.625200  1.0  -0.1811
  C  C48  1  0.118000  0.279400  0.576300  1.0  0.0304
  C  C49  1  0.123800  0.146600  0.594800  1.0  -0.1763
  C  C50  1  0.153100  0.070700  0.660500  1.0  0.0179
  C  C51  1  0.133900  0.480100  0.607500  1.0  0.6518
  C  C52  1  0.093900  0.084900  0.543700  1.0  0.7685
  O  O53  1  0.105800  0.200600  0.329200  1.0  -0.6301
  O  O54  1  0.922400  0.218600  0.295600  1.0  -0.6277
  O  O55  1  0.525200  0.161400  0.151800  1.0  -0.6769
  O  O56  1  0.551300  0.102500  0.051100  1.0  -0.6044
  O  O57  1  0.150300  0.081500  0.982000  1.0  -0.7079
  O  O58  1  0.973000  0.083000  0.065700  1.0  -0.7917
  O  O59  1  0.799400  0.894200  0.170800  1.0  -0.6316
  O  O60  1  0.781400  0.077600  0.204400  1.0  -0.6292
  O  O61  1  0.838600  0.474800  0.348200  1.0  -0.6908
  O  O62  1  0.897500  0.448700  0.448900  1.0  -0.6088
  O  O63  1  0.918500  0.849700  0.518000  1.0  -0.7088
  O  O64  1  0.917000  0.027000  0.434300  1.0  -0.7965
  O  O65  1  0.894200  0.799400  0.670800  1.0  -0.6311
  O  O66  1  0.077600  0.781400  0.704400  1.0  -0.6268
  O  O67  1  0.474800  0.838600  0.848200  1.0  -0.6899
  O  O68  1  0.448700  0.897500  0.948900  1.0  -0.6047
  O  O69  1  0.849700  0.918500  0.018000  1.0  -0.7064
  O  O70  1  0.027000  0.917000  0.934300  1.0  -0.7925
  O  O71  1  0.200600  0.105800  0.829200  1.0  -0.628
  O  O72  1  0.218600  0.922400  0.795600  1.0  -0.6282
  O  O73  1  0.161400  0.525200  0.651800  1.0  -0.6823
  O  O74  1  0.102500  0.551300  0.551100  1.0  -0.6058
  O  O75  1  0.081500  0.150300  0.482000  1.0  -0.7082
  O  O76  1  0.083000  0.973000  0.565700  1.0  -0.7944
