# generated using pymatgen
data_TmH3(C3O2)3
_symmetry_space_group_name_H-M   'P 1'
_cell_length_a   10.86620000
_cell_length_b   10.86620000
_cell_length_c   19.63200000
_cell_angle_alpha   75.61050000
_cell_angle_beta   75.61050000
_cell_angle_gamma   64.47650000
_symmetry_Int_Tables_number   1
_chemical_formula_structural   TmH3(C3O2)3
_chemical_formula_sum   'Tm4 H12 C36 O24'
_cell_volume   1999.49219733
_cell_formula_units_Z   4
loop_
 _symmetry_equiv_pos_site_id
 _symmetry_equiv_pos_as_xyz
  1  'x, y, z'
loop_
 _atom_site_type_symbol
 _atom_site_label
 _atom_site_symmetry_multiplicity
 _atom_site_fract_x
 _atom_site_fract_y
 _atom_site_fract_z
 _atom_site_occupancy
 _atom_site_charge
  Tm  Tm1  1  0.754360  0.095800  0.083070  1.0  2.0549
  Tm  Tm2  1  0.904200  0.245640  0.416930  1.0  2.0533
  Tm  Tm3  1  0.245640  0.904200  0.916930  1.0  2.0558
  Tm  Tm4  1  0.095800  0.754360  0.583070  1.0  2.0532
  H  H5  1  0.332400  0.098400  0.032000  1.0  0.114
  H  H6  1  0.981400  0.154800  0.172500  1.0  0.0983
  H  H7  1  0.298300  0.192300  0.223100  1.0  0.1106
  H  H8  1  0.901600  0.667600  0.468000  1.0  0.1136
  H  H9  1  0.845200  0.018600  0.327500  1.0  0.0988
  H  H10  1  0.807700  0.701700  0.276900  1.0  0.1107
  H  H11  1  0.667600  0.901600  0.968000  1.0  0.1126
  H  H12  1  0.018600  0.845200  0.827500  1.0  0.0985
  H  H13  1  0.701700  0.807700  0.776900  1.0  0.1106
  H  H14  1  0.098400  0.332400  0.532000  1.0  0.1121
  H  H15  1  0.154800  0.981400  0.672500  1.0  0.0985
  H  H16  1  0.192300  0.298300  0.723100  1.0  0.1107
  C  C17  1  0.484600  0.131800  0.107900  1.0  0.6807
  C  C18  1  0.336600  0.143000  0.125400  1.0  -0.1607
  C  C19  1  0.281300  0.117700  0.076500  1.0  0.0389
  C  C20  1  0.147600  0.121800  0.095200  1.0  -0.1682
  C  C21  1  0.071000  0.151800  0.160800  1.0  0.023
  C  C22  1  0.128200  0.178000  0.210400  1.0  -0.1709
  C  C23  1  0.259800  0.174000  0.191300  1.0  0.0271
  C  C24  1  0.044800  0.204400  0.283000  1.0  0.6682
  C  C25  1  0.084900  0.091300  0.043800  1.0  0.766
  C  C26  1  0.868200  0.515400  0.392100  1.0  0.682
  C  C27  1  0.857000  0.663400  0.374600  1.0  -0.1614
  C  C28  1  0.882300  0.718700  0.423500  1.0  0.0396
  C  C29  1  0.878200  0.852400  0.404800  1.0  -0.1703
  C  C30  1  0.848200  0.929000  0.339200  1.0  0.0237
  C  C31  1  0.822000  0.871800  0.289600  1.0  -0.1695
  C  C32  1  0.826000  0.740200  0.308700  1.0  0.0272
  C  C33  1  0.795600  0.955200  0.217000  1.0  0.6695
  C  C34  1  0.908700  0.915100  0.456200  1.0  0.7665
  C  C35  1  0.515400  0.868200  0.892100  1.0  0.6821
  C  C36  1  0.663400  0.857000  0.874600  1.0  -0.1613
  C  C37  1  0.718700  0.882300  0.923500  1.0  0.0391
  C  C38  1  0.852400  0.878200  0.904800  1.0  -0.1705
  C  C39  1  0.929000  0.848200  0.839200  1.0  0.024
  C  C40  1  0.871800  0.822000  0.789600  1.0  -0.1706
  C  C41  1  0.740200  0.826000  0.808700  1.0  0.0275
  C  C42  1  0.955200  0.795600  0.717000  1.0  0.6679
  C  C43  1  0.915100  0.908700  0.956200  1.0  0.7671
  C  C44  1  0.131800  0.484600  0.607900  1.0  0.6801
  C  C45  1  0.143000  0.336600  0.625400  1.0  -0.1613
  C  C46  1  0.117700  0.281300  0.576500  1.0  0.039
  C  C47  1  0.121800  0.147600  0.595200  1.0  -0.1686
  C  C48  1  0.151800  0.071000  0.660800  1.0  0.0228
  C  C49  1  0.178000  0.128200  0.710400  1.0  -0.171
  C  C50  1  0.174000  0.259800  0.691300  1.0  0.0267
  C  C51  1  0.204400  0.044800  0.783000  1.0  0.67
  C  C52  1  0.091300  0.084900  0.543800  1.0  0.7657
  O  O53  1  0.557300  0.090900  0.052800  1.0  -0.669
  O  O54  1  0.529400  0.168800  0.148800  1.0  -0.6746
  O  O55  1  0.103800  0.208200  0.330200  1.0  -0.6395
  O  O56  1  0.923200  0.216400  0.296600  1.0  -0.6171
  O  O57  1  0.972500  0.079700  0.066300  1.0  -0.763
  O  O58  1  0.149700  0.081300  0.981000  1.0  -0.7074
  O  O59  1  0.909100  0.442700  0.447200  1.0  -0.6726
  O  O60  1  0.831200  0.470600  0.351200  1.0  -0.6875
  O  O61  1  0.791800  0.896200  0.169800  1.0  -0.6397
  O  O62  1  0.783600  0.076800  0.203400  1.0  -0.6185
  O  O63  1  0.920300  0.027500  0.433700  1.0  -0.7662
  O  O64  1  0.918700  0.850300  0.519000  1.0  -0.7087
  O  O65  1  0.442700  0.909100  0.947200  1.0  -0.668
  O  O66  1  0.470600  0.831200  0.851200  1.0  -0.6879
  O  O67  1  0.896200  0.791800  0.669800  1.0  -0.6365
  O  O68  1  0.076800  0.783600  0.703400  1.0  -0.6183
  O  O69  1  0.027500  0.920300  0.933700  1.0  -0.7621
  O  O70  1  0.850300  0.918700  0.019000  1.0  -0.7069
  O  O71  1  0.090900  0.557300  0.552800  1.0  -0.6717
  O  O72  1  0.168800  0.529400  0.648800  1.0  -0.6822
  O  O73  1  0.208200  0.103800  0.830200  1.0  -0.6377
  O  O74  1  0.216400  0.923200  0.796600  1.0  -0.6182
  O  O75  1  0.079700  0.972500  0.566300  1.0  -0.7653
  O  O76  1  0.081300  0.149700  0.481000  1.0  -0.7073
