# generated using pymatgen
data_HoH3(C3O2)3
_symmetry_space_group_name_H-M   'P 1'
_cell_length_a   10.90510000
_cell_length_b   10.90510000
_cell_length_c   19.69800000
_cell_angle_alpha   75.63850000
_cell_angle_beta   75.63850000
_cell_angle_gamma   64.55430000
_symmetry_Int_Tables_number   1
_chemical_formula_structural   HoH3(C3O2)3
_chemical_formula_sum   'Ho4 H12 C36 O24'
_cell_volume   2022.19418446
_cell_formula_units_Z   4
loop_
 _symmetry_equiv_pos_site_id
 _symmetry_equiv_pos_as_xyz
  1  'x, y, z'
loop_
 _atom_site_type_symbol
 _atom_site_label
 _atom_site_symmetry_multiplicity
 _atom_site_fract_x
 _atom_site_fract_y
 _atom_site_fract_z
 _atom_site_occupancy
 _atom_site_charge
  Ho  Ho1  1  0.254610  0.595470  0.083160  1.0  2.1183
  Ho  Ho2  1  0.404530  0.745390  0.416840  1.0  2.1162
  Ho  Ho3  1  0.745390  0.404530  0.916840  1.0  2.1192
  Ho  Ho4  1  0.595470  0.254610  0.583160  1.0  2.1183
  H  H5  1  0.480800  0.657400  0.173100  1.0  0.0981
  H  H6  1  0.796300  0.691100  0.223800  1.0  0.1074
  H  H7  1  0.831600  0.599600  0.032900  1.0  0.1036
  H  H8  1  0.342600  0.519200  0.326900  1.0  0.0974
  H  H9  1  0.308900  0.203700  0.276200  1.0  0.1077
  H  H10  1  0.400400  0.168400  0.467100  1.0  0.1033
  H  H11  1  0.519200  0.342600  0.826900  1.0  0.0981
  H  H12  1  0.203700  0.308900  0.776200  1.0  0.1073
  H  H13  1  0.168400  0.400400  0.967100  1.0  0.1034
  H  H14  1  0.657400  0.480800  0.673100  1.0  0.0972
  H  H15  1  0.691100  0.796300  0.723800  1.0  0.1074
  H  H16  1  0.599600  0.831600  0.532900  1.0  0.1031
  C  C17  1  0.982500  0.633900  0.108300  1.0  0.664
  C  C18  1  0.545600  0.703000  0.282500  1.0  0.6744
  C  C19  1  0.586000  0.594000  0.043800  1.0  0.7818
  C  C20  1  0.645000  0.622400  0.094500  1.0  -0.2203
  C  C21  1  0.570400  0.653400  0.161000  1.0  0.0345
  C  C22  1  0.627100  0.678300  0.210100  1.0  -0.1807
  C  C23  1  0.758100  0.674100  0.191700  1.0  0.0378
  C  C24  1  0.835100  0.644900  0.125600  1.0  -0.1654
  C  C25  1  0.779900  0.619100  0.077000  1.0  0.0371
  C  C26  1  0.366100  0.017500  0.391700  1.0  0.6655
  C  C27  1  0.297000  0.454400  0.217500  1.0  0.6744
  C  C28  1  0.406000  0.414000  0.456200  1.0  0.7843
  C  C29  1  0.377600  0.355000  0.405500  1.0  -0.2232
  C  C30  1  0.346600  0.429600  0.339000  1.0  0.0339
  C  C31  1  0.321700  0.372900  0.289900  1.0  -0.1794
  C  C32  1  0.325900  0.241900  0.308300  1.0  0.0371
  C  C33  1  0.355100  0.164900  0.374400  1.0  -0.1656
  C  C34  1  0.380900  0.220100  0.423000  1.0  0.037
  C  C35  1  0.017500  0.366100  0.891700  1.0  0.6673
  C  C36  1  0.454400  0.297000  0.717500  1.0  0.6732
  C  C37  1  0.414000  0.406000  0.956200  1.0  0.786
  C  C38  1  0.355000  0.377600  0.905500  1.0  -0.2217
  C  C39  1  0.429600  0.346600  0.839000  1.0  0.0339
  C  C40  1  0.372900  0.321700  0.789900  1.0  -0.1798
  C  C41  1  0.241900  0.325900  0.808300  1.0  0.0374
  C  C42  1  0.164900  0.355100  0.874400  1.0  -0.1657
  C  C43  1  0.220100  0.380900  0.923000  1.0  0.0368
  C  C44  1  0.633900  0.982500  0.608300  1.0  0.6623
  C  C45  1  0.703000  0.545600  0.782500  1.0  0.6741
  C  C46  1  0.594000  0.586000  0.543800  1.0  0.7836
  C  C47  1  0.622400  0.645000  0.594500  1.0  -0.2221
  C  C48  1  0.653400  0.570400  0.661000  1.0  0.0347
  C  C49  1  0.678300  0.627100  0.710100  1.0  -0.1809
  C  C50  1  0.674100  0.758100  0.691700  1.0  0.0373
  C  C51  1  0.644900  0.835100  0.625600  1.0  -0.1658
  C  C52  1  0.619100  0.779900  0.577000  1.0  0.0366
  O  O53  1  0.056100  0.594300  0.052600  1.0  -0.6603
  O  O54  1  0.026800  0.665600  0.150800  1.0  -0.6487
  O  O55  1  0.604400  0.706200  0.329200  1.0  -0.6413
  O  O56  1  0.422800  0.717800  0.296500  1.0  -0.6366
  O  O57  1  0.473100  0.580300  0.066300  1.0  -0.7994
  O  O58  1  0.649400  0.582800  0.981800  1.0  -0.692
  O  O59  1  0.405700  0.943900  0.447400  1.0  -0.6676
  O  O60  1  0.334400  0.973200  0.349200  1.0  -0.6603
  O  O61  1  0.293800  0.395600  0.170800  1.0  -0.6433
  O  O62  1  0.282200  0.577200  0.203500  1.0  -0.6386
  O  O63  1  0.419700  0.526900  0.433700  1.0  -0.8046
  O  O64  1  0.417200  0.350600  0.518200  1.0  -0.6918
  O  O65  1  0.943900  0.405700  0.947400  1.0  -0.6633
  O  O66  1  0.973200  0.334400  0.849200  1.0  -0.6584
  O  O67  1  0.395600  0.293800  0.670800  1.0  -0.6409
  O  O68  1  0.577200  0.282200  0.703500  1.0  -0.6356
  O  O69  1  0.526900  0.419700  0.933700  1.0  -0.8008
  O  O70  1  0.350600  0.417200  0.018200  1.0  -0.6887
  O  O71  1  0.594300  0.056100  0.552600  1.0  -0.66
  O  O72  1  0.665600  0.026800  0.650800  1.0  -0.655
  O  O73  1  0.706200  0.604400  0.829200  1.0  -0.6396
  O  O74  1  0.717800  0.422800  0.796500  1.0  -0.6367
  O  O75  1  0.580300  0.473100  0.566300  1.0  -0.8038
  O  O76  1  0.582800  0.649400  0.481800  1.0  -0.6932
