# generated using pymatgen
data_YbH3(C3O2)3
_symmetry_space_group_name_H-M   'P 1'
_cell_length_a   10.83080000
_cell_length_b   10.83080000
_cell_length_c   19.55700000
_cell_angle_alpha   75.69250000
_cell_angle_beta   75.69250000
_cell_angle_gamma   64.70670000
_symmetry_Int_Tables_number   1
_chemical_formula_structural   YbH3(C3O2)3
_chemical_formula_sum   'Yb4 H12 C36 O24'
_cell_volume   1983.48337825
_cell_formula_units_Z   4
loop_
 _symmetry_equiv_pos_site_id
 _symmetry_equiv_pos_as_xyz
  1  'x, y, z'
loop_
 _atom_site_type_symbol
 _atom_site_label
 _atom_site_symmetry_multiplicity
 _atom_site_fract_x
 _atom_site_fract_y
 _atom_site_fract_z
 _atom_site_occupancy
 _atom_site_charge
  Yb  Yb1  1  0.595750  0.254610  0.082930  1.0  1.4969
  Yb  Yb2  1  0.745390  0.404250  0.417070  1.0  1.4966
  Yb  Yb3  1  0.404250  0.745390  0.917070  1.0  1.4982
  Yb  Yb4  1  0.254610  0.595750  0.582930  1.0  1.4964
  H  H5  1  0.514000  0.344000  0.327000  1.0  0.1253
  H  H6  1  0.223000  0.313000  0.284000  1.0  0.0494
  H  H7  1  0.174000  0.400000  0.471000  1.0  0.1229
  H  H8  1  0.656000  0.486000  0.173000  1.0  0.1222
  H  H9  1  0.687000  0.777000  0.216000  1.0  0.0501
  H  H10  1  0.600000  0.826000  0.029000  1.0  0.1222
  H  H11  1  0.486000  0.656000  0.673000  1.0  0.1264
  H  H12  1  0.777000  0.687000  0.716000  1.0  0.0492
  H  H13  1  0.826000  0.600000  0.529000  1.0  0.1232
  H  H14  1  0.344000  0.514000  0.827000  1.0  0.1226
  H  H15  1  0.313000  0.223000  0.784000  1.0  0.0497
  H  H16  1  0.400000  0.174000  0.971000  1.0  0.123
  C  C17  1  0.454000  0.295000  0.217200  1.0  0.659
  C  C18  1  0.374300  0.320700  0.289200  1.0  -0.1498
  C  C19  1  0.430200  0.347200  0.338300  1.0  0.0272
  C  C20  1  0.353200  0.377400  0.405600  1.0  -0.1897
  C  C21  1  0.220600  0.382200  0.422700  1.0  0.0067
  C  C22  1  0.163600  0.355200  0.374800  1.0  -0.1687
  C  C23  1  0.241100  0.325900  0.308100  1.0  0.1585
  C  C24  1  0.017000  0.366200  0.392700  1.0  0.6387
  C  C25  1  0.415300  0.408300  0.456700  1.0  0.7741
  C  C26  1  0.705000  0.546000  0.282800  1.0  0.6585
  C  C27  1  0.679300  0.625700  0.210800  1.0  -0.1509
  C  C28  1  0.652800  0.569800  0.161700  1.0  0.0262
  C  C29  1  0.622600  0.646800  0.094400  1.0  -0.1894
  C  C30  1  0.617800  0.779400  0.077300  1.0  0.0044
  C  C31  1  0.644800  0.836400  0.125200  1.0  -0.1702
  C  C32  1  0.674100  0.758900  0.191900  1.0  0.1596
  C  C33  1  0.633800  0.983000  0.107300  1.0  0.6371
  C  C34  1  0.591700  0.584700  0.043300  1.0  0.7707
  C  C35  1  0.546000  0.705000  0.782800  1.0  0.6587
  C  C36  1  0.625700  0.679300  0.710800  1.0  -0.151
  C  C37  1  0.569800  0.652800  0.661700  1.0  0.0244
  C  C38  1  0.646800  0.622600  0.594400  1.0  -0.1877
  C  C39  1  0.779400  0.617800  0.577300  1.0  0.0042
  C  C40  1  0.836400  0.644800  0.625200  1.0  -0.1691
  C  C41  1  0.758900  0.674100  0.691900  1.0  0.1603
  C  C42  1  0.983000  0.633800  0.607300  1.0  0.6371
  C  C43  1  0.584700  0.591700  0.543300  1.0  0.7708
  C  C44  1  0.295000  0.454000  0.717200  1.0  0.6588
  C  C45  1  0.320700  0.374300  0.789200  1.0  -0.1496
  C  C46  1  0.347200  0.430200  0.838300  1.0  0.0256
  C  C47  1  0.377400  0.353200  0.905600  1.0  -0.1906
  C  C48  1  0.382200  0.220600  0.922700  1.0  0.0082
  C  C49  1  0.355200  0.163600  0.874800  1.0  -0.1689
  C  C50  1  0.325900  0.241100  0.808100  1.0  0.158
  C  C51  1  0.366200  0.017000  0.892700  1.0  0.6383
  C  C52  1  0.408300  0.415300  0.956700  1.0  0.7717
  O  O53  1  0.578900  0.281100  0.202900  1.0  -0.5233
  O  O54  1  0.396500  0.289500  0.170200  1.0  -0.5659
  O  O55  1  0.971100  0.327900  0.351200  1.0  -0.6103
  O  O56  1  0.939800  0.411200  0.446600  1.0  -0.5423
  O  O57  1  0.528600  0.421400  0.433200  1.0  -0.6941
  O  O58  1  0.349900  0.419700  0.518200  1.0  -0.6061
  O  O59  1  0.718900  0.421100  0.297100  1.0  -0.5191
  O  O60  1  0.710500  0.603500  0.329800  1.0  -0.5663
  O  O61  1  0.672100  0.028900  0.148800  1.0  -0.6049
  O  O62  1  0.588800  0.060200  0.053400  1.0  -0.5435
  O  O63  1  0.578600  0.471400  0.066800  1.0  -0.6981
  O  O64  1  0.580300  0.650100  0.981800  1.0  -0.6089
  O  O65  1  0.421100  0.718900  0.797100  1.0  -0.521
  O  O66  1  0.603500  0.710500  0.829800  1.0  -0.572
  O  O67  1  0.028900  0.672100  0.648800  1.0  -0.6041
  O  O68  1  0.060200  0.588800  0.553400  1.0  -0.5409
  O  O69  1  0.471400  0.578600  0.566800  1.0  -0.6938
  O  O70  1  0.650100  0.580300  0.481800  1.0  -0.6075
  O  O71  1  0.281100  0.578900  0.702900  1.0  -0.5204
  O  O72  1  0.289500  0.396500  0.670200  1.0  -0.5694
  O  O73  1  0.327900  0.971100  0.851200  1.0  -0.6089
  O  O74  1  0.411200  0.939800  0.946600  1.0  -0.5463
  O  O75  1  0.421400  0.528600  0.933200  1.0  -0.6994
  O  O76  1  0.419700  0.349900  0.018200  1.0  -0.6091
