# generated using pymatgen
data_CuH25C20N10(ClO4)2
_symmetry_space_group_name_H-M   'P 1'
_cell_length_a   12.28000000
_cell_length_b   12.55300000
_cell_length_c   19.49000000
_cell_angle_alpha   90.00000000
_cell_angle_beta   92.17000000
_cell_angle_gamma   90.00000000
_symmetry_Int_Tables_number   1
_chemical_formula_structural   CuH25C20N10(ClO4)2
_chemical_formula_sum   'Cu4 H100 C80 N40 Cl8 O32'
_cell_volume   3002.24535409
_cell_formula_units_Z   4
loop_
 _symmetry_equiv_pos_site_id
 _symmetry_equiv_pos_as_xyz
  1  'x, y, z'
loop_
 _atom_site_type_symbol
 _atom_site_label
 _atom_site_symmetry_multiplicity
 _atom_site_fract_x
 _atom_site_fract_y
 _atom_site_fract_z
 _atom_site_occupancy
 _atom_site_charge
  Cu  Cu1  1  0.235200  0.888260  0.754870  1.0  0.7315
  Cu  Cu2  1  0.264800  0.388260  0.245130  1.0  0.7319
  Cu  Cu3  1  0.764800  0.111740  0.245130  1.0  0.7311
  Cu  Cu4  1  0.735200  0.611740  0.754870  1.0  0.731
  H  H5  1  0.448700  0.848000  0.833200  1.0  0.0844
  H  H6  1  0.571000  0.823900  0.920000  1.0  0.0906
  H  H7  1  0.354700  0.037100  0.871700  1.0  0.1063
  H  H8  1  0.475500  0.077600  0.959400  1.0  0.1582
  H  H9  1  0.593200  0.027000  0.965200  1.0  0.0944
  H  H10  1  0.039300  0.049300  0.754000  1.0  0.0968
  H  H11  1  0.900100  0.073700  0.862600  1.0  0.1023
  H  H12  1  0.152400  0.875600  0.908600  1.0  0.147
  H  H13  1  0.011300  0.898900  0.993500  1.0  0.1136
  H  H14  1  0.947200  0.980200  0.965600  1.0  0.1155
  H  H15  1  0.010600  0.781300  0.698700  1.0  0.1066
  H  H16  1  0.896200  0.867800  0.599400  1.0  0.0986
  H  H17  1  0.174800  0.029600  0.619700  1.0  0.0918
  H  H18  1  0.020600  0.103500  0.528200  1.0  0.0798
  H  H19  1  0.915500  0.046300  0.532700  1.0  0.0716
  H  H20  1  0.680000  0.156200  0.400800  1.0  0.0967
  H  H21  1  0.504400  0.053600  0.446300  1.0  0.1011
  H  H22  1  0.549800  0.954100  0.253800  1.0  0.0956
  H  H23  1  0.400600  0.883700  0.315400  1.0  0.1434
  H  H24  1  0.419500  0.875700  0.401100  1.0  0.0793
  H  H25  1  0.301400  0.015000  0.388000  1.0  0.1923
  H  H26  1  0.232400  0.925500  0.348600  1.0  0.0963
  H  H27  1  0.278500  0.946900  0.210400  1.0  0.0244
  H  H28  1  0.243200  0.646900  0.847800  1.0  0.086
  H  H29  1  0.203900  0.695700  0.645600  1.0  0.0812
  H  H30  1  0.051300  0.348000  0.166800  1.0  0.081
  H  H31  1  0.929000  0.323900  0.080000  1.0  0.0903
  H  H32  1  0.145300  0.537100  0.128300  1.0  0.1056
  H  H33  1  0.024500  0.577600  0.040600  1.0  0.1593
  H  H34  1  0.906800  0.527000  0.034800  1.0  0.0964
  H  H35  1  0.460700  0.549300  0.246000  1.0  0.0961
  H  H36  1  0.599900  0.573700  0.137400  1.0  0.102
  H  H37  1  0.347600  0.375600  0.091400  1.0  0.1463
  H  H38  1  0.488700  0.398900  0.006500  1.0  0.1119
  H  H39  1  0.552800  0.480200  0.034400  1.0  0.1095
  H  H40  1  0.489400  0.281300  0.301300  1.0  0.1058
  H  H41  1  0.603800  0.367800  0.400600  1.0  0.0983
  H  H42  1  0.325200  0.529600  0.380300  1.0  0.0909
  H  H43  1  0.479400  0.603500  0.471800  1.0  0.0808
  H  H44  1  0.584500  0.546300  0.467300  1.0  0.077
  H  H45  1  0.820000  0.656200  0.599200  1.0  0.0963
  H  H46  1  0.995600  0.553600  0.553700  1.0  0.0998
  H  H47  1  0.950200  0.454100  0.746200  1.0  0.0976
  H  H48  1  0.099400  0.383700  0.684600  1.0  0.1415
  H  H49  1  0.080500  0.375700  0.598900  1.0  0.0794
  H  H50  1  0.198600  0.515000  0.612000  1.0  0.1929
  H  H51  1  0.267600  0.425500  0.651400  1.0  0.0973
  H  H52  1  0.221500  0.446900  0.789600  1.0  0.0255
  H  H53  1  0.256800  0.146900  0.152200  1.0  0.0866
  H  H54  1  0.296100  0.195700  0.354400  1.0  0.081
  H  H55  1  0.551300  0.152000  0.166800  1.0  0.081
  H  H56  1  0.429000  0.176100  0.080000  1.0  0.0906
  H  H57  1  0.645300  0.962900  0.128300  1.0  0.1061
  H  H58  1  0.524500  0.922400  0.040600  1.0  0.1578
  H  H59  1  0.406800  0.973000  0.034800  1.0  0.0968
  H  H60  1  0.960700  0.950700  0.246000  1.0  0.0959
  H  H61  1  0.099900  0.926300  0.137400  1.0  0.1023
  H  H62  1  0.847600  0.124400  0.091400  1.0  0.1459
  H  H63  1  0.988700  0.101100  0.006500  1.0  0.1167
  H  H64  1  0.052800  0.019800  0.034400  1.0  0.1099
  H  H65  1  0.989400  0.218700  0.301300  1.0  0.1055
  H  H66  1  0.103800  0.132200  0.400600  1.0  0.098
  H  H67  1  0.825200  0.970400  0.380300  1.0  0.0906
  H  H68  1  0.979400  0.896500  0.471800  1.0  0.0807
  H  H69  1  0.084500  0.953700  0.467300  1.0  0.0774
  H  H70  1  0.320000  0.843800  0.599200  1.0  0.0964
  H  H71  1  0.495600  0.946400  0.553700  1.0  0.1
  H  H72  1  0.450200  0.045900  0.746200  1.0  0.0973
  H  H73  1  0.599400  0.116300  0.684600  1.0  0.1418
  H  H74  1  0.580500  0.124300  0.598900  1.0  0.0797
  H  H75  1  0.698600  0.985000  0.612000  1.0  0.1921
  H  H76  1  0.767600  0.074500  0.651400  1.0  0.0972
  H  H77  1  0.721500  0.053100  0.789600  1.0  0.0226
  H  H78  1  0.756800  0.353100  0.152200  1.0  0.087
  H  H79  1  0.796100  0.304300  0.354400  1.0  0.0815
  H  H80  1  0.948700  0.652000  0.833200  1.0  0.0833
  H  H81  1  0.071000  0.676100  0.920000  1.0  0.0903
  H  H82  1  0.854700  0.462900  0.871700  1.0  0.1061
  H  H83  1  0.975500  0.422400  0.959400  1.0  0.157
  H  H84  1  0.093200  0.473000  0.965200  1.0  0.0948
  H  H85  1  0.539300  0.450700  0.754000  1.0  0.0964
  H  H86  1  0.400100  0.426300  0.862600  1.0  0.1021
  H  H87  1  0.652400  0.624400  0.908600  1.0  0.1462
  H  H88  1  0.511300  0.601100  0.993500  1.0  0.1165
  H  H89  1  0.447200  0.519800  0.965600  1.0  0.1155
  H  H90  1  0.510600  0.718700  0.698700  1.0  0.1062
  H  H91  1  0.396200  0.632200  0.599400  1.0  0.0987
  H  H92  1  0.674800  0.470400  0.619700  1.0  0.0915
  H  H93  1  0.520600  0.396500  0.528200  1.0  0.0794
  H  H94  1  0.415500  0.453700  0.532700  1.0  0.0723
  H  H95  1  0.180000  0.343800  0.400800  1.0  0.0971
  H  H96  1  0.004400  0.446400  0.446300  1.0  0.1013
  H  H97  1  0.049800  0.545900  0.253800  1.0  0.096
  H  H98  1  0.900600  0.616300  0.315400  1.0  0.1428
  H  H99  1  0.919500  0.624300  0.401100  1.0  0.079
  H  H100  1  0.801400  0.485000  0.388000  1.0  0.1914
  H  H101  1  0.732400  0.574500  0.348600  1.0  0.0967
  H  H102  1  0.778500  0.553100  0.210400  1.0  0.0225
  H  H103  1  0.743200  0.853100  0.847800  1.0  0.0859
  H  H104  1  0.703900  0.804300  0.645600  1.0  0.0809
  C  C105  1  0.425700  0.810400  0.844600  1.0  0.0035
  C  C106  1  0.494000  0.847100  0.896600  1.0  0.0089
  C  C107  1  0.366100  0.965600  0.876500  1.0  0.1127
  C  C108  1  0.515500  0.017700  0.965400  1.0  -0.0886
  C  C109  1  0.035800  0.013200  0.803100  1.0  -0.0274
  C  C110  1  0.974900  0.028700  0.858200  1.0  0.0017
  C  C111  1  0.105300  0.914500  0.882900  1.0  0.1618
  C  C112  1  0.980500  0.951900  0.979500  1.0  0.0965
  C  C113  1  0.028900  0.842100  0.670500  1.0  -0.0359
  C  C114  1  0.968300  0.880500  0.617400  1.0  -0.1325
  C  C115  1  0.118100  0.973000  0.628800  1.0  0.1044
  C  C116  1  0.990400  0.030300  0.533100  1.0  -0.103
  C  C117  1  0.628600  0.106200  0.376500  1.0  -0.0126
  C  C118  1  0.540500  0.057000  0.401000  1.0  -0.0842
  C  C119  1  0.565000  0.003400  0.296700  1.0  0.0714
  C  C120  1  0.408600  0.918400  0.353100  1.0  -0.0841
  C  C121  1  0.299700  0.976300  0.355000  1.0  -0.09
  C  C122  1  0.275000  0.036900  0.230400  1.0  0.4265
  C  C123  1  0.233700  0.633800  0.798600  1.0  0.0528
  C  C124  1  0.213200  0.660900  0.690100  1.0  0.1318
  C  C125  1  0.074300  0.310400  0.155400  1.0  0.0012
  C  C126  1  0.006000  0.347100  0.103400  1.0  0.0072
  C  C127  1  0.133900  0.465600  0.123500  1.0  0.1125
  C  C128  1  0.984500  0.517700  0.034600  1.0  -0.0882
  C  C129  1  0.464200  0.513200  0.196900  1.0  -0.0254
  C  C130  1  0.525100  0.528700  0.141800  1.0  0.0041
  C  C131  1  0.394700  0.414500  0.117100  1.0  0.1603
  C  C132  1  0.519500  0.451900  0.020500  1.0  0.0953
  C  C133  1  0.471100  0.342100  0.329500  1.0  -0.0361
  C  C134  1  0.531700  0.380500  0.382600  1.0  -0.1322
  C  C135  1  0.381900  0.473000  0.371200  1.0  0.1061
  C  C136  1  0.509600  0.530300  0.466900  1.0  -0.1018
  C  C137  1  0.871400  0.606200  0.623500  1.0  -0.0135
  C  C138  1  0.959500  0.557000  0.599000  1.0  -0.0833
  C  C139  1  0.935000  0.503400  0.703300  1.0  0.0711
  C  C140  1  0.091400  0.418400  0.646900  1.0  -0.0826
  C  C141  1  0.200300  0.476300  0.645000  1.0  -0.0932
  C  C142  1  0.225000  0.536900  0.769600  1.0  0.4278
  C  C143  1  0.266300  0.133800  0.201400  1.0  0.0514
  C  C144  1  0.286800  0.160900  0.309900  1.0  0.1312
  C  C145  1  0.574300  0.189600  0.155400  1.0  0.0017
  C  C146  1  0.506000  0.152900  0.103400  1.0  0.0114
  C  C147  1  0.633900  0.034400  0.123500  1.0  0.113
  C  C148  1  0.484500  0.982300  0.034600  1.0  -0.0876
  C  C149  1  0.964200  0.986800  0.196900  1.0  -0.0268
  C  C150  1  0.025100  0.971300  0.141800  1.0  0.0032
  C  C151  1  0.894700  0.085500  0.117100  1.0  0.1608
  C  C152  1  0.019500  0.048100  0.020500  1.0  0.0936
  C  C153  1  0.971100  0.157900  0.329500  1.0  -0.0356
  C  C154  1  0.031700  0.119500  0.382600  1.0  -0.1321
  C  C155  1  0.881900  0.027000  0.371200  1.0  0.1053
  C  C156  1  0.009600  0.969700  0.466900  1.0  -0.1036
  C  C157  1  0.371400  0.893800  0.623500  1.0  -0.0137
  C  C158  1  0.459500  0.943000  0.599000  1.0  -0.0833
  C  C159  1  0.435000  0.996600  0.703300  1.0  0.0721
  C  C160  1  0.591400  0.081600  0.646900  1.0  -0.0817
  C  C161  1  0.700300  0.023700  0.645000  1.0  -0.0933
  C  C162  1  0.725000  0.963100  0.769600  1.0  0.4269
  C  C163  1  0.766300  0.366200  0.201400  1.0  0.051
  C  C164  1  0.786800  0.339100  0.309900  1.0  0.1315
  C  C165  1  0.925700  0.689600  0.844600  1.0  0.0044
  C  C166  1  0.994000  0.652900  0.896600  1.0  0.0116
  C  C167  1  0.866100  0.534400  0.876500  1.0  0.112
  C  C168  1  0.015500  0.482300  0.965400  1.0  -0.0887
  C  C169  1  0.535800  0.486800  0.803100  1.0  -0.0297
  C  C170  1  0.474900  0.471300  0.858200  1.0  0.0017
  C  C171  1  0.605300  0.585500  0.882900  1.0  0.1628
  C  C172  1  0.480500  0.548100  0.979500  1.0  0.0944
  C  C173  1  0.528900  0.657900  0.670500  1.0  -0.0352
  C  C174  1  0.468300  0.619500  0.617400  1.0  -0.1332
  C  C175  1  0.618100  0.527000  0.628800  1.0  0.1049
  C  C176  1  0.490400  0.469700  0.533100  1.0  -0.1035
  C  C177  1  0.128600  0.393800  0.376500  1.0  -0.0128
  C  C178  1  0.040500  0.443000  0.401000  1.0  -0.0841
  C  C179  1  0.065000  0.496600  0.296700  1.0  0.0726
  C  C180  1  0.908600  0.581600  0.353100  1.0  -0.0831
  C  C181  1  0.799700  0.523700  0.355000  1.0  -0.0914
  C  C182  1  0.775000  0.463100  0.230400  1.0  0.4269
  C  C183  1  0.733700  0.866200  0.798600  1.0  0.0525
  C  C184  1  0.713200  0.839100  0.690100  1.0  0.1316
  N  N185  1  0.346000  0.888000  0.832700  1.0  -0.2026
  N  N186  1  0.457700  0.945400  0.914400  1.0  0.0102
  N  N187  1  0.119400  0.942300  0.818100  1.0  -0.4432
  N  N188  1  0.019200  0.963700  0.908400  1.0  -0.0773
  N  N189  1  0.124100  0.900400  0.677300  1.0  -0.3703
  N  N190  1  0.024300  0.966100  0.591800  1.0  0.0181
  N  N191  1  0.643600  0.072300  0.310100  1.0  -0.4086
  N  N192  1  0.501100  0.991200  0.349900  1.0  0.044
  N  N193  1  0.287200  0.055600  0.300200  1.0  0.045
  N  N194  1  0.227200  0.712800  0.748900  1.0  -0.4552
  N  N195  1  0.154000  0.388000  0.167300  1.0  -0.1995
  N  N196  1  0.042300  0.445400  0.085600  1.0  0.0092
  N  N197  1  0.380600  0.442300  0.181900  1.0  -0.4432
  N  N198  1  0.480800  0.463700  0.091600  1.0  -0.0752
  N  N199  1  0.375900  0.400400  0.322700  1.0  -0.3721
  N  N200  1  0.475700  0.466100  0.408200  1.0  0.0194
  N  N201  1  0.856400  0.572300  0.689900  1.0  -0.4087
  N  N202  1  0.998900  0.491200  0.650100  1.0  0.0415
  N  N203  1  0.212800  0.555600  0.699800  1.0  0.0446
  N  N204  1  0.272800  0.212800  0.251100  1.0  -0.4545
  N  N205  1  0.654000  0.112000  0.167300  1.0  -0.199
  N  N206  1  0.542300  0.054600  0.085600  1.0  0.0091
  N  N207  1  0.880600  0.057700  0.181900  1.0  -0.4423
  N  N208  1  0.980800  0.036300  0.091600  1.0  -0.0755
  N  N209  1  0.875900  0.099600  0.322700  1.0  -0.3721
  N  N210  1  0.975700  0.033900  0.408200  1.0  0.0184
  N  N211  1  0.356400  0.927700  0.689900  1.0  -0.4086
  N  N212  1  0.498900  0.008800  0.650100  1.0  0.0415
  N  N213  1  0.712800  0.944400  0.699800  1.0  0.0444
  N  N214  1  0.772800  0.287200  0.251100  1.0  -0.4548
  N  N215  1  0.846000  0.612000  0.832700  1.0  -0.2022
  N  N216  1  0.957700  0.554600  0.914400  1.0  0.0099
  N  N217  1  0.619400  0.557700  0.818100  1.0  -0.4419
  N  N218  1  0.519200  0.536300  0.908400  1.0  -0.0767
  N  N219  1  0.624100  0.599600  0.677300  1.0  -0.3703
  N  N220  1  0.524300  0.533900  0.591800  1.0  0.0176
  N  N221  1  0.143600  0.427700  0.310100  1.0  -0.4089
  N  N222  1  0.001100  0.508800  0.349900  1.0  0.0442
  N  N223  1  0.787200  0.444400  0.300200  1.0  0.0457
  N  N224  1  0.727200  0.787200  0.748900  1.0  -0.4552
  Cl  Cl225  1  0.745700  0.746800  0.045300  1.0  1.6237
  Cl  Cl226  1  0.701800  0.790500  0.466470  1.0  1.3848
  Cl  Cl227  1  0.754300  0.246800  0.954700  1.0  1.624
  Cl  Cl228  1  0.798200  0.290500  0.533530  1.0  1.3854
  Cl  Cl229  1  0.254300  0.253200  0.954700  1.0  1.6239
  Cl  Cl230  1  0.298200  0.209500  0.533530  1.0  1.3801
  Cl  Cl231  1  0.245700  0.753200  0.045300  1.0  1.6234
  Cl  Cl232  1  0.201800  0.709500  0.466470  1.0  1.3796
  O  O233  1  0.742200  0.637200  0.044300  1.0  -0.6123
  O  O234  1  0.736600  0.790000  0.980400  1.0  -0.6067
  O  O235  1  0.651900  0.771400  0.077800  1.0  -0.6415
  O  O236  1  0.838100  0.785300  0.077000  1.0  -0.6118
  O  O237  1  0.593700  0.794200  0.457100  1.0  -0.6553
  O  O238  1  0.738000  0.801700  0.402000  1.0  -0.6479
  O  O239  1  0.742600  0.876300  0.501600  1.0  -0.6084
  O  O240  1  0.732500  0.695100  0.489300  1.0  -0.579
  O  O241  1  0.757800  0.137200  0.955700  1.0  -0.6129
  O  O242  1  0.763400  0.290000  0.019600  1.0  -0.6063
  O  O243  1  0.848100  0.271400  0.922200  1.0  -0.6433
  O  O244  1  0.661900  0.285300  0.923000  1.0  -0.6111
  O  O245  1  0.906300  0.294200  0.542900  1.0  -0.6545
  O  O246  1  0.762000  0.301700  0.598000  1.0  -0.6492
  O  O247  1  0.757400  0.376300  0.498400  1.0  -0.607
  O  O248  1  0.767500  0.195100  0.510700  1.0  -0.5798
  O  O249  1  0.257800  0.362800  0.955700  1.0  -0.6118
  O  O250  1  0.263400  0.210000  0.019600  1.0  -0.6067
  O  O251  1  0.348100  0.228600  0.922200  1.0  -0.6436
  O  O252  1  0.161900  0.214700  0.923000  1.0  -0.6111
  O  O253  1  0.406300  0.205800  0.542900  1.0  -0.6545
  O  O254  1  0.262000  0.198300  0.598000  1.0  -0.6492
  O  O255  1  0.257400  0.123700  0.498400  1.0  -0.6073
  O  O256  1  0.267500  0.304900  0.510700  1.0  -0.5797
  O  O257  1  0.242200  0.862800  0.044300  1.0  -0.6102
  O  O258  1  0.236600  0.710000  0.980400  1.0  -0.6064
  O  O259  1  0.151900  0.728600  0.077800  1.0  -0.6415
  O  O260  1  0.338100  0.714700  0.077000  1.0  -0.6112
  O  O261  1  0.093700  0.705800  0.457100  1.0  -0.6554
  O  O262  1  0.238000  0.698300  0.402000  1.0  -0.6482
  O  O263  1  0.242600  0.623700  0.501600  1.0  -0.6084
  O  O264  1  0.232500  0.804900  0.489300  1.0  -0.5786
