# generated using pymatgen
data_CuH16(C7N)4
_symmetry_space_group_name_H-M   'P 1'
_cell_length_a   19.50500000
_cell_length_b   19.50500000
_cell_length_c   19.50500000
_cell_angle_alpha   90.00000000
_cell_angle_beta   90.00000000
_cell_angle_gamma   90.00000000
_symmetry_Int_Tables_number   1
_chemical_formula_structural   CuH16(C7N)4
_chemical_formula_sum   'Cu12 H192 C336 N48'
_cell_volume   7420.58021262
_cell_formula_units_Z   12
loop_
 _symmetry_equiv_pos_site_id
 _symmetry_equiv_pos_as_xyz
  1  'x, y, z'
loop_
 _atom_site_type_symbol
 _atom_site_label
 _atom_site_symmetry_multiplicity
 _atom_site_fract_x
 _atom_site_fract_y
 _atom_site_fract_z
 _atom_site_occupancy
 _atom_site_charge
  Cu  Cu1  1  0.500000  0.250000  0.125000  1.0  0.4746
  Cu  Cu2  1  0.000000  0.750000  0.625000  1.0  0.4746
  Cu  Cu3  1  0.500000  0.750000  0.375000  1.0  0.4746
  Cu  Cu4  1  0.000000  0.250000  0.875000  1.0  0.4746
  Cu  Cu5  1  0.125000  0.500000  0.250000  1.0  0.4746
  Cu  Cu6  1  0.625000  0.000000  0.750000  1.0  0.4746
  Cu  Cu7  1  0.375000  0.500000  0.750000  1.0  0.4746
  Cu  Cu8  1  0.875000  0.000000  0.250000  1.0  0.4746
  Cu  Cu9  1  0.250000  0.125000  0.500000  1.0  0.4746
  Cu  Cu10  1  0.750000  0.625000  0.000000  1.0  0.4746
  Cu  Cu11  1  0.750000  0.375000  0.500000  1.0  0.4746
  Cu  Cu12  1  0.250000  0.875000  0.000000  1.0  0.4746
  H  H13  1  0.530900  0.388600  0.088600  1.0  0.0824
  H  H14  1  0.532500  0.305600  0.271900  1.0  0.0815
  H  H15  1  0.542300  0.516600  0.072400  1.0  0.1016
  H  H16  1  0.539000  0.375500  0.378500  1.0  0.1105
  H  H17  1  0.030900  0.888600  0.588600  1.0  0.0824
  H  H18  1  0.032500  0.805600  0.771900  1.0  0.0815
  H  H19  1  0.042300  0.016600  0.572400  1.0  0.1016
  H  H20  1  0.039000  0.875500  0.878500  1.0  0.1105
  H  H21  1  0.969100  0.611400  0.588600  1.0  0.0829
  H  H22  1  0.967500  0.694400  0.771900  1.0  0.0809
  H  H23  1  0.957700  0.483400  0.572400  1.0  0.1018
  H  H24  1  0.961000  0.624500  0.878500  1.0  0.1104
  H  H25  1  0.469100  0.111400  0.088600  1.0  0.0829
  H  H26  1  0.467500  0.194400  0.271900  1.0  0.0809
  H  H27  1  0.457700  0.983400  0.072400  1.0  0.1018
  H  H28  1  0.461000  0.124500  0.378500  1.0  0.1104
  H  H29  1  0.469100  0.888600  0.411400  1.0  0.0819
  H  H30  1  0.467500  0.805600  0.228100  1.0  0.0812
  H  H31  1  0.457700  0.016600  0.427600  1.0  0.1011
  H  H32  1  0.461000  0.875500  0.121500  1.0  0.1107
  H  H33  1  0.969100  0.388600  0.911400  1.0  0.0819
  H  H34  1  0.967500  0.305600  0.728100  1.0  0.0812
  H  H35  1  0.957700  0.516600  0.927600  1.0  0.1011
  H  H36  1  0.961000  0.375500  0.621500  1.0  0.1107
  H  H37  1  0.030900  0.111400  0.911400  1.0  0.0818
  H  H38  1  0.032500  0.194400  0.728100  1.0  0.081
  H  H39  1  0.042300  0.983400  0.927600  1.0  0.1008
  H  H40  1  0.039000  0.124500  0.621500  1.0  0.1108
  H  H41  1  0.530900  0.611400  0.411400  1.0  0.0818
  H  H42  1  0.532500  0.694400  0.228100  1.0  0.081
  H  H43  1  0.542300  0.483400  0.427600  1.0  0.1008
  H  H44  1  0.539000  0.624500  0.121500  1.0  0.1108
  H  H45  1  0.638600  0.780900  0.338600  1.0  0.0829
  H  H46  1  0.555600  0.782500  0.521900  1.0  0.0801
  H  H47  1  0.766600  0.792300  0.322400  1.0  0.1019
  H  H48  1  0.625500  0.789000  0.628500  1.0  0.1104
  H  H49  1  0.138600  0.280900  0.838600  1.0  0.0829
  H  H50  1  0.055600  0.282500  0.021900  1.0  0.0801
  H  H51  1  0.266600  0.292300  0.822400  1.0  0.1019
  H  H52  1  0.125500  0.289000  0.128500  1.0  0.1104
  H  H53  1  0.861400  0.219100  0.838600  1.0  0.0829
  H  H54  1  0.944400  0.217500  0.021900  1.0  0.0799
  H  H55  1  0.733400  0.207700  0.822400  1.0  0.1015
  H  H56  1  0.874500  0.211000  0.128500  1.0  0.1106
  H  H57  1  0.361400  0.719100  0.338600  1.0  0.0829
  H  H58  1  0.444400  0.717500  0.521900  1.0  0.0799
  H  H59  1  0.233400  0.707700  0.322400  1.0  0.1015
  H  H60  1  0.374500  0.711000  0.628500  1.0  0.1106
  H  H61  1  0.138600  0.719100  0.661400  1.0  0.0821
  H  H62  1  0.055600  0.717500  0.478100  1.0  0.0802
  H  H63  1  0.266600  0.707700  0.677600  1.0  0.1011
  H  H64  1  0.125500  0.711000  0.371500  1.0  0.1112
  H  H65  1  0.638600  0.219100  0.161400  1.0  0.0821
  H  H66  1  0.555600  0.217500  0.978100  1.0  0.0802
  H  H67  1  0.766600  0.207700  0.177600  1.0  0.1011
  H  H68  1  0.625500  0.211000  0.871500  1.0  0.1112
  H  H69  1  0.361400  0.280900  0.161400  1.0  0.0821
  H  H70  1  0.444400  0.282500  0.978100  1.0  0.0796
  H  H71  1  0.233400  0.292300  0.177600  1.0  0.1008
  H  H72  1  0.374500  0.289000  0.871500  1.0  0.1111
  H  H73  1  0.861400  0.780900  0.661400  1.0  0.0821
  H  H74  1  0.944400  0.782500  0.478100  1.0  0.0796
  H  H75  1  0.733400  0.792300  0.677600  1.0  0.1008
  H  H76  1  0.874500  0.789000  0.371500  1.0  0.1111
  H  H77  1  0.088600  0.530900  0.388600  1.0  0.0848
  H  H78  1  0.271900  0.532500  0.305600  1.0  0.0815
  H  H79  1  0.072400  0.542300  0.516600  1.0  0.1022
  H  H80  1  0.378500  0.539000  0.375500  1.0  0.1115
  H  H81  1  0.588600  0.030900  0.888600  1.0  0.0848
  H  H82  1  0.771900  0.032500  0.805600  1.0  0.0815
  H  H83  1  0.572400  0.042300  0.016600  1.0  0.1022
  H  H84  1  0.878500  0.039000  0.875500  1.0  0.1115
  H  H85  1  0.588600  0.969100  0.611400  1.0  0.0846
  H  H86  1  0.771900  0.967500  0.694400  1.0  0.082
  H  H87  1  0.572400  0.957700  0.483400  1.0  0.1023
  H  H88  1  0.878500  0.961000  0.624500  1.0  0.1116
  H  H89  1  0.088600  0.469100  0.111400  1.0  0.0846
  H  H90  1  0.271900  0.467500  0.194400  1.0  0.082
  H  H91  1  0.072400  0.457700  0.983400  1.0  0.1023
  H  H92  1  0.378500  0.461000  0.124500  1.0  0.1116
  H  H93  1  0.411400  0.469100  0.888600  1.0  0.0843
  H  H94  1  0.228100  0.467500  0.805600  1.0  0.0816
  H  H95  1  0.427600  0.457700  0.016600  1.0  0.1018
  H  H96  1  0.121500  0.461000  0.875500  1.0  0.1118
  H  H97  1  0.911400  0.969100  0.388600  1.0  0.0843
  H  H98  1  0.728100  0.967500  0.305600  1.0  0.0816
  H  H99  1  0.927600  0.957700  0.516600  1.0  0.1018
  H  H100  1  0.621500  0.961000  0.375500  1.0  0.1118
  H  H101  1  0.911400  0.030900  0.111400  1.0  0.084
  H  H102  1  0.728100  0.032500  0.194400  1.0  0.0823
  H  H103  1  0.927600  0.042300  0.983400  1.0  0.1017
  H  H104  1  0.621500  0.039000  0.124500  1.0  0.1113
  H  H105  1  0.411400  0.530900  0.611400  1.0  0.084
  H  H106  1  0.228100  0.532500  0.694400  1.0  0.0823
  H  H107  1  0.427600  0.542300  0.483400  1.0  0.1017
  H  H108  1  0.121500  0.539000  0.624500  1.0  0.1113
  H  H109  1  0.338600  0.638600  0.780900  1.0  0.0843
  H  H110  1  0.521900  0.555600  0.782500  1.0  0.0814
  H  H111  1  0.322400  0.766600  0.792300  1.0  0.1022
  H  H112  1  0.628500  0.625500  0.789000  1.0  0.1107
  H  H113  1  0.838600  0.138600  0.280900  1.0  0.0843
  H  H114  1  0.021900  0.055600  0.282500  1.0  0.0814
  H  H115  1  0.822400  0.266600  0.292300  1.0  0.1022
  H  H116  1  0.128500  0.125500  0.289000  1.0  0.1107
  H  H117  1  0.838600  0.861400  0.219100  1.0  0.0847
  H  H118  1  0.021900  0.944400  0.217500  1.0  0.0805
  H  H119  1  0.822400  0.733400  0.207700  1.0  0.1024
  H  H120  1  0.128500  0.874500  0.211000  1.0  0.1109
  H  H121  1  0.338600  0.361400  0.719100  1.0  0.0847
  H  H122  1  0.521900  0.444400  0.717500  1.0  0.0805
  H  H123  1  0.322400  0.233400  0.707700  1.0  0.1024
  H  H124  1  0.628500  0.374500  0.711000  1.0  0.1109
  H  H125  1  0.661400  0.138600  0.719100  1.0  0.0842
  H  H126  1  0.478100  0.055600  0.717500  1.0  0.0809
  H  H127  1  0.677600  0.266600  0.707700  1.0  0.1018
  H  H128  1  0.371500  0.125500  0.711000  1.0  0.1112
  H  H129  1  0.161400  0.638600  0.219100  1.0  0.0842
  H  H130  1  0.978100  0.555600  0.217500  1.0  0.0809
  H  H131  1  0.177600  0.766600  0.207700  1.0  0.1018
  H  H132  1  0.871500  0.625500  0.211000  1.0  0.1112
  H  H133  1  0.161400  0.361400  0.280900  1.0  0.0836
  H  H134  1  0.978100  0.444400  0.282500  1.0  0.0812
  H  H135  1  0.177600  0.233400  0.292300  1.0  0.1019
  H  H136  1  0.871500  0.374500  0.289000  1.0  0.1112
  H  H137  1  0.661400  0.861400  0.780900  1.0  0.0836
  H  H138  1  0.478100  0.944400  0.782500  1.0  0.0812
  H  H139  1  0.677600  0.733400  0.792300  1.0  0.1019
  H  H140  1  0.371500  0.874500  0.789000  1.0  0.1112
  H  H141  1  0.388600  0.088600  0.530900  1.0  0.0846
  H  H142  1  0.305600  0.271900  0.532500  1.0  0.0808
  H  H143  1  0.516600  0.072400  0.542300  1.0  0.1015
  H  H144  1  0.375500  0.378500  0.539000  1.0  0.112
  H  H145  1  0.888600  0.588600  0.030900  1.0  0.0846
  H  H146  1  0.805600  0.771900  0.032500  1.0  0.0808
  H  H147  1  0.016600  0.572400  0.042300  1.0  0.1015
  H  H148  1  0.875500  0.878500  0.039000  1.0  0.112
  H  H149  1  0.611400  0.588600  0.969100  1.0  0.0851
  H  H150  1  0.694400  0.771900  0.967500  1.0  0.0801
  H  H151  1  0.483400  0.572400  0.957700  1.0  0.101
  H  H152  1  0.624500  0.878500  0.961000  1.0  0.1121
  H  H153  1  0.111400  0.088600  0.469100  1.0  0.0851
  H  H154  1  0.194400  0.271900  0.467500  1.0  0.0801
  H  H155  1  0.983400  0.072400  0.457700  1.0  0.101
  H  H156  1  0.124500  0.378500  0.461000  1.0  0.1121
  H  H157  1  0.888600  0.411400  0.469100  1.0  0.0839
  H  H158  1  0.805600  0.228100  0.467500  1.0  0.0808
  H  H159  1  0.016600  0.427600  0.457700  1.0  0.1005
  H  H160  1  0.875500  0.121500  0.461000  1.0  0.1116
  H  H161  1  0.388600  0.911400  0.969100  1.0  0.0839
  H  H162  1  0.305600  0.728100  0.967500  1.0  0.0808
  H  H163  1  0.516600  0.927600  0.957700  1.0  0.1005
  H  H164  1  0.375500  0.621500  0.961000  1.0  0.1116
  H  H165  1  0.111400  0.911400  0.030900  1.0  0.0836
  H  H166  1  0.194400  0.728100  0.032500  1.0  0.0806
  H  H167  1  0.983400  0.927600  0.042300  1.0  0.1
  H  H168  1  0.124500  0.621500  0.039000  1.0  0.1115
  H  H169  1  0.611400  0.411400  0.530900  1.0  0.0836
  H  H170  1  0.694400  0.228100  0.532500  1.0  0.0806
  H  H171  1  0.483400  0.427600  0.542300  1.0  0.1
  H  H172  1  0.624500  0.121500  0.539000  1.0  0.1115
  H  H173  1  0.780900  0.338600  0.638600  1.0  0.0845
  H  H174  1  0.782500  0.521900  0.555600  1.0  0.0821
  H  H175  1  0.792300  0.322400  0.766600  1.0  0.1011
  H  H176  1  0.789000  0.628500  0.625500  1.0  0.1121
  H  H177  1  0.280900  0.838600  0.138600  1.0  0.0845
  H  H178  1  0.282500  0.021900  0.055600  1.0  0.0821
  H  H179  1  0.292300  0.822400  0.266600  1.0  0.1011
  H  H180  1  0.289000  0.128500  0.125500  1.0  0.1121
  H  H181  1  0.219100  0.838600  0.861400  1.0  0.0848
  H  H182  1  0.217500  0.021900  0.944400  1.0  0.0825
  H  H183  1  0.207700  0.822400  0.733400  1.0  0.1014
  H  H184  1  0.211000  0.128500  0.874500  1.0  0.1121
  H  H185  1  0.719100  0.338600  0.361400  1.0  0.0848
  H  H186  1  0.717500  0.521900  0.444400  1.0  0.0825
  H  H187  1  0.707700  0.322400  0.233400  1.0  0.1014
  H  H188  1  0.711000  0.628500  0.374500  1.0  0.1121
  H  H189  1  0.719100  0.661400  0.138600  1.0  0.0837
  H  H190  1  0.717500  0.478100  0.055600  1.0  0.0821
  H  H191  1  0.707700  0.677600  0.266600  1.0  0.1002
  H  H192  1  0.711000  0.371500  0.125500  1.0  0.1121
  H  H193  1  0.219100  0.161400  0.638600  1.0  0.0837
  H  H194  1  0.217500  0.978100  0.555600  1.0  0.0821
  H  H195  1  0.207700  0.177600  0.766600  1.0  0.1002
  H  H196  1  0.211000  0.871500  0.625500  1.0  0.1121
  H  H197  1  0.280900  0.161400  0.361400  1.0  0.0833
  H  H198  1  0.282500  0.978100  0.444400  1.0  0.0831
  H  H199  1  0.292300  0.177600  0.233400  1.0  0.1001
  H  H200  1  0.289000  0.871500  0.374500  1.0  0.1119
  H  H201  1  0.780900  0.661400  0.861400  1.0  0.0833
  H  H202  1  0.782500  0.478100  0.944400  1.0  0.0831
  H  H203  1  0.792300  0.677600  0.733400  1.0  0.1001
  H  H204  1  0.789000  0.371500  0.874500  1.0  0.1119
  C  C205  1  0.531900  0.394100  0.137000  1.0  0.1794
  C  C206  1  0.536400  0.459900  0.162100  1.0  -0.0514
  C  C207  1  0.537100  0.466800  0.234100  1.0  -0.003
  C  C208  1  0.536100  0.408100  0.275900  1.0  -0.0972
  C  C209  1  0.532500  0.345500  0.244000  1.0  0.1286
  C  C210  1  0.539400  0.520800  0.120800  1.0  -0.1546
  C  C211  1  0.538300  0.415100  0.350200  1.0  -0.1586
  C  C212  1  0.031900  0.894100  0.637000  1.0  0.1794
  C  C213  1  0.036400  0.959900  0.662100  1.0  -0.0514
  C  C214  1  0.037100  0.966800  0.734100  1.0  -0.003
  C  C215  1  0.036100  0.908100  0.775900  1.0  -0.0972
  C  C216  1  0.032500  0.845500  0.744000  1.0  0.1286
  C  C217  1  0.039400  0.020800  0.620800  1.0  -0.1546
  C  C218  1  0.038300  0.915100  0.850200  1.0  -0.1586
  C  C219  1  0.968100  0.605900  0.637000  1.0  0.1793
  C  C220  1  0.963600  0.540100  0.662100  1.0  -0.0503
  C  C221  1  0.962900  0.533200  0.734100  1.0  -0.0025
  C  C222  1  0.963900  0.591900  0.775900  1.0  -0.0969
  C  C223  1  0.967500  0.654500  0.744000  1.0  0.1266
  C  C224  1  0.960600  0.479200  0.620800  1.0  -0.1539
  C  C225  1  0.961700  0.584900  0.850200  1.0  -0.16
  C  C226  1  0.468100  0.105900  0.137000  1.0  0.1793
  C  C227  1  0.463600  0.040100  0.162100  1.0  -0.0503
  C  C228  1  0.462900  0.033200  0.234100  1.0  -0.0025
  C  C229  1  0.463900  0.091900  0.275900  1.0  -0.0969
  C  C230  1  0.467500  0.154500  0.244000  1.0  0.1266
  C  C231  1  0.460600  0.979200  0.120800  1.0  -0.1539
  C  C232  1  0.461700  0.084900  0.350200  1.0  -0.16
  C  C233  1  0.468100  0.894100  0.363000  1.0  0.1789
  C  C234  1  0.463600  0.959900  0.337900  1.0  -0.0507
  C  C235  1  0.462900  0.966800  0.265900  1.0  -0.0025
  C  C236  1  0.463900  0.908100  0.224100  1.0  -0.0966
  C  C237  1  0.467500  0.845500  0.256000  1.0  0.1287
  C  C238  1  0.460600  0.020800  0.379200  1.0  -0.1537
  C  C239  1  0.461700  0.915100  0.149800  1.0  -0.1553
  C  C240  1  0.968100  0.394100  0.863000  1.0  0.1789
  C  C241  1  0.963600  0.459900  0.837900  1.0  -0.0507
  C  C242  1  0.962900  0.466800  0.765900  1.0  -0.0025
  C  C243  1  0.963900  0.408100  0.724100  1.0  -0.0966
  C  C244  1  0.967500  0.345500  0.756000  1.0  0.1287
  C  C245  1  0.960600  0.520800  0.879200  1.0  -0.1537
  C  C246  1  0.961700  0.415100  0.649800  1.0  -0.1553
  C  C247  1  0.031900  0.105900  0.863000  1.0  0.178
  C  C248  1  0.036400  0.040100  0.837900  1.0  -0.0513
  C  C249  1  0.037100  0.033200  0.765900  1.0  -0.0028
  C  C250  1  0.036100  0.091900  0.724100  1.0  -0.0981
  C  C251  1  0.032500  0.154500  0.756000  1.0  0.1276
  C  C252  1  0.039400  0.979200  0.879200  1.0  -0.1538
  C  C253  1  0.038300  0.084900  0.649800  1.0  -0.1522
  C  C254  1  0.531900  0.605900  0.363000  1.0  0.178
  C  C255  1  0.536400  0.540100  0.337900  1.0  -0.0513
  C  C256  1  0.537100  0.533200  0.265900  1.0  -0.0028
  C  C257  1  0.536100  0.591900  0.224100  1.0  -0.0981
  C  C258  1  0.532500  0.654500  0.256000  1.0  0.1276
  C  C259  1  0.539400  0.479200  0.379200  1.0  -0.1538
  C  C260  1  0.538300  0.584900  0.149800  1.0  -0.1522
  C  C261  1  0.644100  0.781900  0.387000  1.0  0.1783
  C  C262  1  0.709900  0.786400  0.412100  1.0  -0.0501
  C  C263  1  0.716800  0.787100  0.484100  1.0  -0.0034
  C  C264  1  0.658100  0.786100  0.525900  1.0  -0.0973
  C  C265  1  0.595500  0.782500  0.494000  1.0  0.1287
  C  C266  1  0.770800  0.789400  0.370800  1.0  -0.1535
  C  C267  1  0.665100  0.788300  0.600200  1.0  -0.1595
  C  C268  1  0.144100  0.281900  0.887000  1.0  0.1783
  C  C269  1  0.209900  0.286400  0.912100  1.0  -0.0501
  C  C270  1  0.216800  0.287100  0.984100  1.0  -0.0034
  C  C271  1  0.158100  0.286100  0.025900  1.0  -0.0973
  C  C272  1  0.095500  0.282500  0.994000  1.0  0.1287
  C  C273  1  0.270800  0.289400  0.870800  1.0  -0.1535
  C  C274  1  0.165100  0.288300  0.100200  1.0  -0.1595
  C  C275  1  0.855900  0.218100  0.887000  1.0  0.1784
  C  C276  1  0.790100  0.213600  0.912100  1.0  -0.05
  C  C277  1  0.783200  0.212900  0.984100  1.0  -0.0009
  C  C278  1  0.841900  0.213900  0.025900  1.0  -0.0961
  C  C279  1  0.904500  0.217500  0.994000  1.0  0.1295
  C  C280  1  0.729200  0.210600  0.870800  1.0  -0.1543
  C  C281  1  0.834900  0.211700  0.100200  1.0  -0.1609
  C  C282  1  0.355900  0.718100  0.387000  1.0  0.1784
  C  C283  1  0.290100  0.713600  0.412100  1.0  -0.05
  C  C284  1  0.283200  0.712900  0.484100  1.0  -0.0009
  C  C285  1  0.341900  0.713900  0.525900  1.0  -0.0961
  C  C286  1  0.404500  0.717500  0.494000  1.0  0.1295
  C  C287  1  0.229200  0.710600  0.370800  1.0  -0.1543
  C  C288  1  0.334900  0.711700  0.600200  1.0  -0.1609
  C  C289  1  0.144100  0.718100  0.613000  1.0  0.1767
  C  C290  1  0.209900  0.713600  0.587900  1.0  -0.0497
  C  C291  1  0.216800  0.712900  0.515900  1.0  -0.0011
  C  C292  1  0.158100  0.713900  0.474100  1.0  -0.0971
  C  C293  1  0.095500  0.717500  0.506000  1.0  0.1293
  C  C294  1  0.270800  0.710600  0.629200  1.0  -0.1529
  C  C295  1  0.165100  0.711700  0.399800  1.0  -0.1535
  C  C296  1  0.644100  0.218100  0.113000  1.0  0.1767
  C  C297  1  0.709900  0.213600  0.087900  1.0  -0.0497
  C  C298  1  0.716800  0.212900  0.015900  1.0  -0.0011
  C  C299  1  0.658100  0.213900  0.974100  1.0  -0.0971
  C  C300  1  0.595500  0.217500  0.006000  1.0  0.1293
  C  C301  1  0.770800  0.210600  0.129200  1.0  -0.1529
  C  C302  1  0.665100  0.211700  0.899800  1.0  -0.1535
  C  C303  1  0.355900  0.281900  0.113000  1.0  0.1777
  C  C304  1  0.290100  0.286400  0.087900  1.0  -0.0505
  C  C305  1  0.283200  0.287100  0.015900  1.0  -0.0032
  C  C306  1  0.341900  0.286100  0.974100  1.0  -0.097
  C  C307  1  0.404500  0.282500  0.006000  1.0  0.129
  C  C308  1  0.229200  0.289400  0.129200  1.0  -0.1536
  C  C309  1  0.334900  0.288300  0.899800  1.0  -0.1565
  C  C310  1  0.855900  0.781900  0.613000  1.0  0.1777
  C  C311  1  0.790100  0.786400  0.587900  1.0  -0.0505
  C  C312  1  0.783200  0.787100  0.515900  1.0  -0.0032
  C  C313  1  0.841900  0.786100  0.474100  1.0  -0.097
  C  C314  1  0.904500  0.782500  0.506000  1.0  0.129
  C  C315  1  0.729200  0.789400  0.629200  1.0  -0.1536
  C  C316  1  0.834900  0.788300  0.399800  1.0  -0.1565
  C  C317  1  0.137000  0.531900  0.394100  1.0  0.178
  C  C318  1  0.162100  0.536400  0.459900  1.0  -0.0514
  C  C319  1  0.234100  0.537100  0.466800  1.0  -0.0025
  C  C320  1  0.275900  0.536100  0.408100  1.0  -0.0975
  C  C321  1  0.244000  0.532500  0.345500  1.0  0.1292
  C  C322  1  0.120800  0.539400  0.520800  1.0  -0.159
  C  C323  1  0.350200  0.538300  0.415100  1.0  -0.1589
  C  C324  1  0.637000  0.031900  0.894100  1.0  0.178
  C  C325  1  0.662100  0.036400  0.959900  1.0  -0.0514
  C  C326  1  0.734100  0.037100  0.966800  1.0  -0.0025
  C  C327  1  0.775900  0.036100  0.908100  1.0  -0.0975
  C  C328  1  0.744000  0.032500  0.845500  1.0  0.1292
  C  C329  1  0.620800  0.039400  0.020800  1.0  -0.159
  C  C330  1  0.850200  0.038300  0.915100  1.0  -0.1589
  C  C331  1  0.637000  0.968100  0.605900  1.0  0.1786
  C  C332  1  0.662100  0.963600  0.540100  1.0  -0.0514
  C  C333  1  0.734100  0.962900  0.533200  1.0  -0.0003
  C  C334  1  0.775900  0.963900  0.591900  1.0  -0.0969
  C  C335  1  0.744000  0.967500  0.654500  1.0  0.1287
  C  C336  1  0.620800  0.960600  0.479200  1.0  -0.1588
  C  C337  1  0.850200  0.961700  0.584900  1.0  -0.1574
  C  C338  1  0.137000  0.468100  0.105900  1.0  0.1786
  C  C339  1  0.162100  0.463600  0.040100  1.0  -0.0514
  C  C340  1  0.234100  0.462900  0.033200  1.0  -0.0003
  C  C341  1  0.275900  0.463900  0.091900  1.0  -0.0969
  C  C342  1  0.244000  0.467500  0.154500  1.0  0.1287
  C  C343  1  0.120800  0.460600  0.979200  1.0  -0.1588
  C  C344  1  0.350200  0.461700  0.084900  1.0  -0.1574
  C  C345  1  0.363000  0.468100  0.894100  1.0  0.1769
  C  C346  1  0.337900  0.463600  0.959900  1.0  -0.0507
  C  C347  1  0.265900  0.462900  0.966800  1.0  -0.0007
  C  C348  1  0.224100  0.463900  0.908100  1.0  -0.0969
  C  C349  1  0.256000  0.467500  0.845500  1.0  0.1308
  C  C350  1  0.379200  0.460600  0.020800  1.0  -0.159
  C  C351  1  0.149800  0.461700  0.915100  1.0  -0.1528
  C  C352  1  0.863000  0.968100  0.394100  1.0  0.1769
  C  C353  1  0.837900  0.963600  0.459900  1.0  -0.0507
  C  C354  1  0.765900  0.962900  0.466800  1.0  -0.0007
  C  C355  1  0.724100  0.963900  0.408100  1.0  -0.0969
  C  C356  1  0.756000  0.967500  0.345500  1.0  0.1308
  C  C357  1  0.879200  0.960600  0.520800  1.0  -0.159
  C  C358  1  0.649800  0.961700  0.415100  1.0  -0.1528
  C  C359  1  0.863000  0.031900  0.105900  1.0  0.1771
  C  C360  1  0.837900  0.036400  0.040100  1.0  -0.0514
  C  C361  1  0.765900  0.037100  0.033200  1.0  -0.0027
  C  C362  1  0.724100  0.036100  0.091900  1.0  -0.0971
  C  C363  1  0.756000  0.032500  0.154500  1.0  0.1286
  C  C364  1  0.879200  0.039400  0.979200  1.0  -0.1587
  C  C365  1  0.649800  0.038300  0.084900  1.0  -0.1535
  C  C366  1  0.363000  0.531900  0.605900  1.0  0.1771
  C  C367  1  0.337900  0.536400  0.540100  1.0  -0.0514
  C  C368  1  0.265900  0.537100  0.533200  1.0  -0.0027
  C  C369  1  0.224100  0.536100  0.591900  1.0  -0.0971
  C  C370  1  0.256000  0.532500  0.654500  1.0  0.1286
  C  C371  1  0.379200  0.539400  0.479200  1.0  -0.1587
  C  C372  1  0.149800  0.538300  0.584900  1.0  -0.1535
  C  C373  1  0.387000  0.644100  0.781900  1.0  0.1792
  C  C374  1  0.412100  0.709900  0.786400  1.0  -0.0512
  C  C375  1  0.484100  0.716800  0.787100  1.0  -0.0043
  C  C376  1  0.525900  0.658100  0.786100  1.0  -0.0996
  C  C377  1  0.494000  0.595500  0.782500  1.0  0.1281
  C  C378  1  0.370800  0.770800  0.789400  1.0  -0.1584
  C  C379  1  0.600200  0.665100  0.788300  1.0  -0.1595
  C  C380  1  0.887000  0.144100  0.281900  1.0  0.1792
  C  C381  1  0.912100  0.209900  0.286400  1.0  -0.0512
  C  C382  1  0.984100  0.216800  0.287100  1.0  -0.0043
  C  C383  1  0.025900  0.158100  0.286100  1.0  -0.0996
  C  C384  1  0.994000  0.095500  0.282500  1.0  0.1281
  C  C385  1  0.870800  0.270800  0.289400  1.0  -0.1584
  C  C386  1  0.100200  0.165100  0.288300  1.0  -0.1595
  C  C387  1  0.887000  0.855900  0.218100  1.0  0.1789
  C  C388  1  0.912100  0.790100  0.213600  1.0  -0.0498
  C  C389  1  0.984100  0.783200  0.212900  1.0  -0.0035
  C  C390  1  0.025900  0.841900  0.213900  1.0  -0.0988
  C  C391  1  0.994000  0.904500  0.217500  1.0  0.1268
  C  C392  1  0.870800  0.729200  0.210600  1.0  -0.1581
  C  C393  1  0.100200  0.834900  0.211700  1.0  -0.1576
  C  C394  1  0.387000  0.355900  0.718100  1.0  0.1789
  C  C395  1  0.412100  0.290100  0.713600  1.0  -0.0498
  C  C396  1  0.484100  0.283200  0.712900  1.0  -0.0035
  C  C397  1  0.525900  0.341900  0.713900  1.0  -0.0988
  C  C398  1  0.494000  0.404500  0.717500  1.0  0.1268
  C  C399  1  0.370800  0.229200  0.710600  1.0  -0.1581
  C  C400  1  0.600200  0.334900  0.711700  1.0  -0.1576
  C  C401  1  0.613000  0.144100  0.718100  1.0  0.1775
  C  C402  1  0.587900  0.209900  0.713600  1.0  -0.0501
  C  C403  1  0.515900  0.216800  0.712900  1.0  -0.0042
  C  C404  1  0.474100  0.158100  0.713900  1.0  -0.0984
  C  C405  1  0.506000  0.095500  0.717500  1.0  0.1282
  C  C406  1  0.629200  0.270800  0.710600  1.0  -0.1574
  C  C407  1  0.399800  0.165100  0.711700  1.0  -0.1544
  C  C408  1  0.113000  0.644100  0.218100  1.0  0.1775
  C  C409  1  0.087900  0.709900  0.213600  1.0  -0.0501
  C  C410  1  0.015900  0.716800  0.212900  1.0  -0.0042
  C  C411  1  0.974100  0.658100  0.213900  1.0  -0.0984
  C  C412  1  0.006000  0.595500  0.217500  1.0  0.1282
  C  C413  1  0.129200  0.770800  0.210600  1.0  -0.1574
  C  C414  1  0.899800  0.665100  0.211700  1.0  -0.1544
  C  C415  1  0.113000  0.355900  0.281900  1.0  0.1779
  C  C416  1  0.087900  0.290100  0.286400  1.0  -0.0507
  C  C417  1  0.015900  0.283200  0.287100  1.0  -0.0047
  C  C418  1  0.974100  0.341900  0.286100  1.0  -0.1006
  C  C419  1  0.006000  0.404500  0.282500  1.0  0.1272
  C  C420  1  0.129200  0.229200  0.289400  1.0  -0.1581
  C  C421  1  0.899800  0.334900  0.288300  1.0  -0.1536
  C  C422  1  0.613000  0.855900  0.781900  1.0  0.1779
  C  C423  1  0.587900  0.790100  0.786400  1.0  -0.0507
  C  C424  1  0.515900  0.783200  0.787100  1.0  -0.0047
  C  C425  1  0.474100  0.841900  0.786100  1.0  -0.1006
  C  C426  1  0.506000  0.904500  0.782500  1.0  0.1272
  C  C427  1  0.629200  0.729200  0.789400  1.0  -0.1581
  C  C428  1  0.399800  0.834900  0.788300  1.0  -0.1536
  C  C429  1  0.394100  0.137000  0.531900  1.0  0.1773
  C  C430  1  0.459900  0.162100  0.536400  1.0  -0.0498
  C  C431  1  0.466800  0.234100  0.537100  1.0  -0.0049
  C  C432  1  0.408100  0.275900  0.536100  1.0  -0.099
  C  C433  1  0.345500  0.244000  0.532500  1.0  0.1288
  C  C434  1  0.520800  0.120800  0.539400  1.0  -0.1586
  C  C435  1  0.415100  0.350200  0.538300  1.0  -0.1583
  C  C436  1  0.894100  0.637000  0.031900  1.0  0.1773
  C  C437  1  0.959900  0.662100  0.036400  1.0  -0.0498
  C  C438  1  0.966800  0.734100  0.037100  1.0  -0.0049
  C  C439  1  0.908100  0.775900  0.036100  1.0  -0.099
  C  C440  1  0.845500  0.744000  0.032500  1.0  0.1288
  C  C441  1  0.020800  0.620800  0.039400  1.0  -0.1586
  C  C442  1  0.915100  0.850200  0.038300  1.0  -0.1583
  C  C443  1  0.605900  0.637000  0.968100  1.0  0.1774
  C  C444  1  0.540100  0.662100  0.963600  1.0  -0.0493
  C  C445  1  0.533200  0.734100  0.962900  1.0  -0.0042
  C  C446  1  0.591900  0.775900  0.963900  1.0  -0.0977
  C  C447  1  0.654500  0.744000  0.967500  1.0  0.1286
  C  C448  1  0.479200  0.620800  0.960600  1.0  -0.158
  C  C449  1  0.584900  0.850200  0.961700  1.0  -0.159
  C  C450  1  0.105900  0.137000  0.468100  1.0  0.1774
  C  C451  1  0.040100  0.162100  0.463600  1.0  -0.0493
  C  C452  1  0.033200  0.234100  0.462900  1.0  -0.0042
  C  C453  1  0.091900  0.275900  0.463900  1.0  -0.0977
  C  C454  1  0.154500  0.244000  0.467500  1.0  0.1286
  C  C455  1  0.979200  0.120800  0.460600  1.0  -0.158
  C  C456  1  0.084900  0.350200  0.461700  1.0  -0.159
  C  C457  1  0.894100  0.363000  0.468100  1.0  0.1752
  C  C458  1  0.959900  0.337900  0.463600  1.0  -0.0485
  C  C459  1  0.966800  0.265900  0.462900  1.0  -0.0045
  C  C460  1  0.908100  0.224100  0.463900  1.0  -0.0981
  C  C461  1  0.845500  0.256000  0.467500  1.0  0.128
  C  C462  1  0.020800  0.379200  0.460600  1.0  -0.1579
  C  C463  1  0.915100  0.149800  0.461700  1.0  -0.1526
  C  C464  1  0.394100  0.863000  0.968100  1.0  0.1752
  C  C465  1  0.459900  0.837900  0.963600  1.0  -0.0485
  C  C466  1  0.466800  0.765900  0.962900  1.0  -0.0045
  C  C467  1  0.408100  0.724100  0.963900  1.0  -0.0981
  C  C468  1  0.345500  0.756000  0.967500  1.0  0.128
  C  C469  1  0.520800  0.879200  0.960600  1.0  -0.1579
  C  C470  1  0.415100  0.649800  0.961700  1.0  -0.1526
  C  C471  1  0.105900  0.863000  0.031900  1.0  0.1757
  C  C472  1  0.040100  0.837900  0.036400  1.0  -0.0496
  C  C473  1  0.033200  0.765900  0.037100  1.0  -0.0055
  C  C474  1  0.091900  0.724100  0.036100  1.0  -0.0998
  C  C475  1  0.154500  0.756000  0.032500  1.0  0.1289
  C  C476  1  0.979200  0.879200  0.039400  1.0  -0.1592
  C  C477  1  0.084900  0.649800  0.038300  1.0  -0.1541
  C  C478  1  0.605900  0.363000  0.531900  1.0  0.1757
  C  C479  1  0.540100  0.337900  0.536400  1.0  -0.0496
  C  C480  1  0.533200  0.265900  0.537100  1.0  -0.0055
  C  C481  1  0.591900  0.224100  0.536100  1.0  -0.0998
  C  C482  1  0.654500  0.256000  0.532500  1.0  0.1289
  C  C483  1  0.479200  0.379200  0.539400  1.0  -0.1592
  C  C484  1  0.584900  0.149800  0.538300  1.0  -0.1541
  C  C485  1  0.781900  0.387000  0.644100  1.0  0.1773
  C  C486  1  0.786400  0.412100  0.709900  1.0  -0.0512
  C  C487  1  0.787100  0.484100  0.716800  1.0  -0.003
  C  C488  1  0.786100  0.525900  0.658100  1.0  -0.0974
  C  C489  1  0.782500  0.494000  0.595500  1.0  0.1304
  C  C490  1  0.789400  0.370800  0.770800  1.0  -0.1592
  C  C491  1  0.788300  0.600200  0.665100  1.0  -0.1558
  C  C492  1  0.281900  0.887000  0.144100  1.0  0.1773
  C  C493  1  0.286400  0.912100  0.209900  1.0  -0.0512
  C  C494  1  0.287100  0.984100  0.216800  1.0  -0.003
  C  C495  1  0.286100  0.025900  0.158100  1.0  -0.0974
  C  C496  1  0.282500  0.994000  0.095500  1.0  0.1304
  C  C497  1  0.289400  0.870800  0.270800  1.0  -0.1592
  C  C498  1  0.288300  0.100200  0.165100  1.0  -0.1558
  C  C499  1  0.218100  0.887000  0.855900  1.0  0.1779
  C  C500  1  0.213600  0.912100  0.790100  1.0  -0.0509
  C  C501  1  0.212900  0.984100  0.783200  1.0  -0.0026
  C  C502  1  0.213900  0.025900  0.841900  1.0  -0.0968
  C  C503  1  0.217500  0.994000  0.904500  1.0  0.1283
  C  C504  1  0.210600  0.870800  0.729200  1.0  -0.1593
  C  C505  1  0.211700  0.100200  0.834900  1.0  -0.1568
  C  C506  1  0.718100  0.387000  0.355900  1.0  0.1779
  C  C507  1  0.713600  0.412100  0.290100  1.0  -0.0509
  C  C508  1  0.712900  0.484100  0.283200  1.0  -0.0026
  C  C509  1  0.713900  0.525900  0.341900  1.0  -0.0968
  C  C510  1  0.717500  0.494000  0.404500  1.0  0.1283
  C  C511  1  0.710600  0.370800  0.229200  1.0  -0.1593
  C  C512  1  0.711700  0.600200  0.334900  1.0  -0.1568
  C  C513  1  0.718100  0.613000  0.144100  1.0  0.1759
  C  C514  1  0.713600  0.587900  0.209900  1.0  -0.0502
  C  C515  1  0.712900  0.515900  0.216800  1.0  -0.0028
  C  C516  1  0.713900  0.474100  0.158100  1.0  -0.0973
  C  C517  1  0.717500  0.506000  0.095500  1.0  0.1294
  C  C518  1  0.710600  0.629200  0.270800  1.0  -0.1597
  C  C519  1  0.711700  0.399800  0.165100  1.0  -0.1519
  C  C520  1  0.218100  0.113000  0.644100  1.0  0.1759
  C  C521  1  0.213600  0.087900  0.709900  1.0  -0.0502
  C  C522  1  0.212900  0.015900  0.716800  1.0  -0.0028
  C  C523  1  0.213900  0.974100  0.658100  1.0  -0.0973
  C  C524  1  0.217500  0.006000  0.595500  1.0  0.1294
  C  C525  1  0.210600  0.129200  0.770800  1.0  -0.1597
  C  C526  1  0.211700  0.899800  0.665100  1.0  -0.1519
  C  C527  1  0.281900  0.113000  0.355900  1.0  0.1761
  C  C528  1  0.286400  0.087900  0.290100  1.0  -0.0516
  C  C529  1  0.287100  0.015900  0.283200  1.0  -0.0031
  C  C530  1  0.286100  0.974100  0.341900  1.0  -0.0978
  C  C531  1  0.282500  0.006000  0.404500  1.0  0.1285
  C  C532  1  0.289400  0.129200  0.229200  1.0  -0.1595
  C  C533  1  0.288300  0.899800  0.334900  1.0  -0.1507
  C  C534  1  0.781900  0.613000  0.855900  1.0  0.1761
  C  C535  1  0.786400  0.587900  0.790100  1.0  -0.0516
  C  C536  1  0.787100  0.515900  0.783200  1.0  -0.0031
  C  C537  1  0.786100  0.474100  0.841900  1.0  -0.0978
  C  C538  1  0.782500  0.506000  0.904500  1.0  0.1285
  C  C539  1  0.789400  0.629200  0.729200  1.0  -0.1595
  C  C540  1  0.788300  0.399800  0.834900  1.0  -0.1507
  N  N541  1  0.528900  0.337200  0.175300  1.0  -0.339
  N  N542  1  0.028900  0.837200  0.675300  1.0  -0.339
  N  N543  1  0.971100  0.662800  0.675300  1.0  -0.338
  N  N544  1  0.471100  0.162800  0.175300  1.0  -0.338
  N  N545  1  0.471100  0.837200  0.324700  1.0  -0.3383
  N  N546  1  0.971100  0.337200  0.824700  1.0  -0.3383
  N  N547  1  0.028900  0.162800  0.824700  1.0  -0.3382
  N  N548  1  0.528900  0.662800  0.324700  1.0  -0.3382
  N  N549  1  0.587200  0.778900  0.425300  1.0  -0.3362
  N  N550  1  0.087200  0.278900  0.925300  1.0  -0.3362
  N  N551  1  0.912800  0.221100  0.925300  1.0  -0.3359
  N  N552  1  0.412800  0.721100  0.425300  1.0  -0.3359
  N  N553  1  0.087200  0.721100  0.574700  1.0  -0.3366
  N  N554  1  0.587200  0.221100  0.074700  1.0  -0.3366
  N  N555  1  0.412800  0.278900  0.074700  1.0  -0.3349
  N  N556  1  0.912800  0.778900  0.574700  1.0  -0.3349
  N  N557  1  0.175300  0.528900  0.337200  1.0  -0.339
  N  N558  1  0.675300  0.028900  0.837200  1.0  -0.339
  N  N559  1  0.675300  0.971100  0.662800  1.0  -0.3386
  N  N560  1  0.175300  0.471100  0.162800  1.0  -0.3386
  N  N561  1  0.324700  0.471100  0.837200  1.0  -0.3397
  N  N562  1  0.824700  0.971100  0.337200  1.0  -0.3397
  N  N563  1  0.824700  0.028900  0.162800  1.0  -0.3388
  N  N564  1  0.324700  0.528900  0.662800  1.0  -0.3388
  N  N565  1  0.425300  0.587200  0.778900  1.0  -0.3383
  N  N566  1  0.925300  0.087200  0.278900  1.0  -0.3383
  N  N567  1  0.925300  0.912800  0.221100  1.0  -0.337
  N  N568  1  0.425300  0.412800  0.721100  1.0  -0.337
  N  N569  1  0.574700  0.087200  0.721100  1.0  -0.338
  N  N570  1  0.074700  0.587200  0.221100  1.0  -0.338
  N  N571  1  0.074700  0.412800  0.278900  1.0  -0.3382
  N  N572  1  0.574700  0.912800  0.778900  1.0  -0.3382
  N  N573  1  0.337200  0.175300  0.528900  1.0  -0.3381
  N  N574  1  0.837200  0.675300  0.028900  1.0  -0.3381
  N  N575  1  0.662800  0.675300  0.971100  1.0  -0.3361
  N  N576  1  0.162800  0.175300  0.471100  1.0  -0.3361
  N  N577  1  0.837200  0.324700  0.471100  1.0  -0.3365
  N  N578  1  0.337200  0.824700  0.971100  1.0  -0.3365
  N  N579  1  0.162800  0.824700  0.028900  1.0  -0.3363
  N  N580  1  0.662800  0.324700  0.528900  1.0  -0.3363
  N  N581  1  0.778900  0.425300  0.587200  1.0  -0.3415
  N  N582  1  0.278900  0.925300  0.087200  1.0  -0.3415
  N  N583  1  0.221100  0.925300  0.912800  1.0  -0.3397
  N  N584  1  0.721100  0.425300  0.412800  1.0  -0.3397
  N  N585  1  0.721100  0.574700  0.087200  1.0  -0.3398
  N  N586  1  0.221100  0.074700  0.587200  1.0  -0.3398
  N  N587  1  0.278900  0.074700  0.412800  1.0  -0.3401
  N  N588  1  0.778900  0.574700  0.912800  1.0  -0.3401
