# generated using pymatgen
data_Co6H40(C24O7)3
_symmetry_space_group_name_H-M   'P 1'
_cell_length_a   23.71510000
_cell_length_b   23.71510000
_cell_length_c   23.71510000
_cell_angle_alpha   109.47100000
_cell_angle_beta   109.47100000
_cell_angle_gamma   109.47100000
_symmetry_Int_Tables_number   1
_chemical_formula_structural   Co6H40(C24O7)3
_chemical_formula_sum   'Co18 H120 C216 O63'
_cell_volume   10267.30675854
_cell_formula_units_Z   3
loop_
 _symmetry_equiv_pos_site_id
 _symmetry_equiv_pos_as_xyz
  1  'x, y, z'
loop_
 _atom_site_type_symbol
 _atom_site_label
 _atom_site_symmetry_multiplicity
 _atom_site_fract_x
 _atom_site_fract_y
 _atom_site_fract_z
 _atom_site_occupancy
 _atom_site_charge
  Co  Co1  1  0.445120  0.559140  0.004260  1.0  1.0318
  Co  Co2  1  0.554880  0.440860  0.995740  1.0  1.0256
  Co  Co3  1  0.445120  0.440850  0.885980  1.0  1.0308
  Co  Co4  1  0.554880  0.559150  0.114020  1.0  1.0265
  Co  Co5  1  0.885980  0.445120  0.440860  1.0  1.027
  Co  Co6  1  0.114020  0.554880  0.559140  1.0  1.0333
  Co  Co7  1  0.004270  0.445130  0.559150  1.0  1.0305
  Co  Co8  1  0.995730  0.554870  0.440850  1.0  1.0279
  Co  Co9  1  0.440860  0.995740  0.554880  1.0  1.0315
  Co  Co10  1  0.559140  0.004260  0.445120  1.0  1.0306
  Co  Co11  1  0.559140  0.114020  0.554870  1.0  1.0292
  Co  Co12  1  0.440860  0.885980  0.445130  1.0  1.0294
  Co  Co13  1  0.500000  0.668790  0.168790  1.0  0.9998
  Co  Co14  1  0.500000  0.331210  0.831210  1.0  1.0009
  Co  Co15  1  0.831210  0.500000  0.331210  1.0  0.9991
  Co  Co16  1  0.168790  0.500000  0.668790  1.0  0.9993
  Co  Co17  1  0.331210  0.831210  0.500000  1.0  1.0005
  Co  Co18  1  0.668790  0.168790  0.500000  1.0  1.0009
  H  H19  1  0.506200  0.888000  0.906800  1.0  0.1262
  H  H20  1  0.540200  0.817300  0.940300  1.0  0.133
  H  H21  1  0.512200  0.725300  0.958900  1.0  0.1248
  H  H22  1  0.514500  0.837100  0.129600  1.0  0.1225
  H  H23  1  0.543700  0.930700  0.112800  1.0  0.1192
  H  H24  1  0.981200  0.599400  0.093200  1.0  0.1252
  H  H25  1  0.877000  0.599900  0.059700  1.0  0.1299
  H  H26  1  0.766400  0.553300  0.041100  1.0  0.1252
  H  H27  1  0.707500  0.384900  0.870400  1.0  0.1232
  H  H28  1  0.817900  0.430900  0.887200  1.0  0.1218
  H  H29  1  0.018800  0.112000  0.618200  1.0  0.1276
  H  H30  1  0.123000  0.182700  0.722900  1.0  0.1335
  H  H31  1  0.233600  0.274700  0.786900  1.0  0.1261
  H  H32  1  0.292500  0.162900  0.677400  1.0  0.1234
  H  H33  1  0.182100  0.069300  0.613000  1.0  0.1216
  H  H34  1  0.493800  0.400600  0.381800  1.0  0.1237
  H  H35  1  0.459800  0.400100  0.277100  1.0  0.1331
  H  H36  1  0.487800  0.446700  0.213100  1.0  0.1253
  H  H37  1  0.485500  0.615100  0.322600  1.0  0.123
  H  H38  1  0.456300  0.569100  0.387000  1.0  0.1222
  H  H39  1  0.618200  0.018800  0.112000  1.0  0.1262
  H  H40  1  0.722900  0.123000  0.182700  1.0  0.1325
  H  H41  1  0.786900  0.233600  0.274700  1.0  0.1267
  H  H42  1  0.677400  0.292500  0.162900  1.0  0.1238
  H  H43  1  0.613000  0.182100  0.069300  1.0  0.1209
  H  H44  1  0.381800  0.493800  0.400600  1.0  0.1245
  H  H45  1  0.277100  0.459800  0.400100  1.0  0.1334
  H  H46  1  0.213100  0.487800  0.446700  1.0  0.1252
  H  H47  1  0.322600  0.485500  0.615100  1.0  0.1227
  H  H48  1  0.387000  0.456300  0.569100  1.0  0.1227
  H  H49  1  0.906800  0.506200  0.888000  1.0  0.1275
  H  H50  1  0.940300  0.540200  0.817300  1.0  0.135
  H  H51  1  0.958900  0.512200  0.725300  1.0  0.125
  H  H52  1  0.129600  0.514500  0.837100  1.0  0.1228
  H  H53  1  0.112800  0.543700  0.930700  1.0  0.1202
  H  H54  1  0.093200  0.981200  0.599400  1.0  0.1244
  H  H55  1  0.059700  0.877000  0.599900  1.0  0.1322
  H  H56  1  0.041100  0.766400  0.553300  1.0  0.125
  H  H57  1  0.870400  0.707500  0.384900  1.0  0.1223
  H  H58  1  0.887200  0.817900  0.430900  1.0  0.1222
  H  H59  1  0.599400  0.093200  0.981200  1.0  0.1221
  H  H60  1  0.599900  0.059700  0.877000  1.0  0.1326
  H  H61  1  0.553300  0.041100  0.766400  1.0  0.1254
  H  H62  1  0.384900  0.870400  0.707500  1.0  0.1236
  H  H63  1  0.430900  0.887200  0.817900  1.0  0.1214
  H  H64  1  0.888000  0.906800  0.506200  1.0  0.128
  H  H65  1  0.817300  0.940300  0.540200  1.0  0.133
  H  H66  1  0.725300  0.958900  0.512200  1.0  0.1248
  H  H67  1  0.837100  0.129600  0.514500  1.0  0.1219
  H  H68  1  0.930700  0.112800  0.543700  1.0  0.1177
  H  H69  1  0.400600  0.381800  0.493800  1.0  0.125
  H  H70  1  0.400100  0.277100  0.459800  1.0  0.134
  H  H71  1  0.446700  0.213100  0.487800  1.0  0.1251
  H  H72  1  0.615100  0.322600  0.485500  1.0  0.1216
  H  H73  1  0.569100  0.387000  0.456300  1.0  0.1212
  H  H74  1  0.112000  0.618200  0.018800  1.0  0.1259
  H  H75  1  0.182700  0.722900  0.123000  1.0  0.1337
  H  H76  1  0.274700  0.786900  0.233600  1.0  0.1263
  H  H77  1  0.162900  0.677400  0.292500  1.0  0.1234
  H  H78  1  0.069300  0.613000  0.182100  1.0  0.1226
  H  H79  1  0.493800  0.112000  0.093200  1.0  0.1267
  H  H80  1  0.459800  0.182700  0.059700  1.0  0.1331
  H  H81  1  0.487800  0.274700  0.041100  1.0  0.125
  H  H82  1  0.485500  0.162900  0.870400  1.0  0.1223
  H  H83  1  0.456300  0.069300  0.887200  1.0  0.1191
  H  H84  1  0.018800  0.400600  0.906800  1.0  0.1252
  H  H85  1  0.123000  0.400100  0.940300  1.0  0.1302
  H  H86  1  0.233600  0.446700  0.958900  1.0  0.1251
  H  H87  1  0.292500  0.615100  0.129600  1.0  0.1234
  H  H88  1  0.182100  0.569100  0.112800  1.0  0.1215
  H  H89  1  0.981200  0.888000  0.381800  1.0  0.127
  H  H90  1  0.877000  0.817300  0.277100  1.0  0.1334
  H  H91  1  0.766400  0.725300  0.213100  1.0  0.1256
  H  H92  1  0.707500  0.837100  0.322600  1.0  0.1228
  H  H93  1  0.817900  0.930700  0.387000  1.0  0.122
  H  H94  1  0.506200  0.599400  0.618200  1.0  0.1234
  H  H95  1  0.540200  0.599900  0.722900  1.0  0.1336
  H  H96  1  0.512200  0.553300  0.786900  1.0  0.1255
  H  H97  1  0.514500  0.384900  0.677400  1.0  0.1233
  H  H98  1  0.543700  0.430900  0.613000  1.0  0.1223
  H  H99  1  0.381800  0.981200  0.888000  1.0  0.1281
  H  H100  1  0.277100  0.877000  0.817300  1.0  0.1323
  H  H101  1  0.213100  0.766400  0.725300  1.0  0.1262
  H  H102  1  0.322600  0.707500  0.837100  1.0  0.1239
  H  H103  1  0.387000  0.817900  0.930700  1.0  0.1219
  H  H104  1  0.618200  0.506200  0.599400  1.0  0.124
  H  H105  1  0.722900  0.540200  0.599900  1.0  0.1325
  H  H106  1  0.786900  0.512200  0.553300  1.0  0.1251
  H  H107  1  0.677400  0.514500  0.384900  1.0  0.122
  H  H108  1  0.613000  0.543700  0.430900  1.0  0.1224
  H  H109  1  0.093200  0.493800  0.112000  1.0  0.1262
  H  H110  1  0.059700  0.459800  0.182700  1.0  0.1338
  H  H111  1  0.041100  0.487800  0.274700  1.0  0.1253
  H  H112  1  0.870400  0.485500  0.162900  1.0  0.124
  H  H113  1  0.887200  0.456300  0.069300  1.0  0.1198
  H  H114  1  0.906800  0.018800  0.400600  1.0  0.1244
  H  H115  1  0.940300  0.123000  0.400100  1.0  0.132
  H  H116  1  0.958900  0.233600  0.446700  1.0  0.125
  H  H117  1  0.129600  0.292500  0.615100  1.0  0.1217
  H  H118  1  0.112800  0.182100  0.569100  1.0  0.1213
  H  H119  1  0.400600  0.906800  0.018800  1.0  0.1223
  H  H120  1  0.400100  0.940300  0.123000  1.0  0.1318
  H  H121  1  0.446700  0.958900  0.233600  1.0  0.1251
  H  H122  1  0.615100  0.129600  0.292500  1.0  0.1233
  H  H123  1  0.569100  0.112800  0.182100  1.0  0.1217
  H  H124  1  0.112000  0.093200  0.493800  1.0  0.128
  H  H125  1  0.182700  0.059700  0.459800  1.0  0.1336
  H  H126  1  0.274700  0.041100  0.487800  1.0  0.1248
  H  H127  1  0.162900  0.870400  0.485500  1.0  0.1214
  H  H128  1  0.069300  0.887200  0.456300  1.0  0.1174
  H  H129  1  0.599400  0.618200  0.506200  1.0  0.125
  H  H130  1  0.599900  0.722900  0.540200  1.0  0.1347
  H  H131  1  0.553300  0.786900  0.512200  1.0  0.1252
  H  H132  1  0.384900  0.677400  0.514500  1.0  0.1224
  H  H133  1  0.430900  0.613000  0.543700  1.0  0.1227
  H  H134  1  0.888000  0.381800  0.981200  1.0  0.1258
  H  H135  1  0.817300  0.277100  0.877000  1.0  0.1331
  H  H136  1  0.725300  0.213100  0.766400  1.0  0.126
  H  H137  1  0.837100  0.322600  0.707500  1.0  0.1233
  H  H138  1  0.930700  0.387000  0.817900  1.0  0.1216
  C  C139  1  0.534550  0.932990  0.944040  1.0  -0.1216
  C  C140  1  0.561520  0.943610  0.012290  1.0  0.0329
  C  C141  1  0.544390  0.884720  0.024230  1.0  0.104
  C  C142  1  0.535250  0.821620  0.978550  1.0  -0.0919
  C  C143  1  0.519290  0.766880  0.990050  1.0  -0.0398
  C  C144  1  0.513600  0.773320  0.048320  1.0  -0.1215
  C  C145  1  0.520810  0.833760  0.092210  1.0  -0.0287
  C  C146  1  0.537320  0.889650  0.081550  1.0  -0.1194
  C  C147  1  0.498840  0.714220  0.062320  1.0  0.7629
  C  C148  1  0.988950  0.590510  0.055960  1.0  -0.1235
  C  C149  1  0.931320  0.549230  0.987710  1.0  0.022
  C  C150  1  0.860490  0.520160  0.975770  1.0  0.1034
  C  C151  1  0.843070  0.556700  0.021450  1.0  -0.0948
  C  C152  1  0.776830  0.529240  0.009950  1.0  -0.0387
  C  C153  1  0.725000  0.465280  0.951680  1.0  -0.1187
  C  C154  1  0.741550  0.428600  0.907790  1.0  -0.0282
  C  C155  1  0.808100  0.455770  0.918450  1.0  -0.1209
  C  C156  1  0.651900  0.436520  0.937680  1.0  0.766
  C  C157  1  0.011050  0.067010  0.601560  1.0  -0.1288
  C  C158  1  0.068680  0.056390  0.617910  1.0  0.029
  C  C159  1  0.139510  0.115280  0.659670  1.0  0.1042
  C  C160  1  0.156930  0.178380  0.713630  1.0  -0.0909
  C  C161  1  0.223170  0.233120  0.752410  1.0  -0.0384
  C  C162  1  0.275000  0.226680  0.740280  1.0  -0.1202
  C  C163  1  0.258450  0.166240  0.687050  1.0  -0.0259
  C  C164  1  0.191900  0.110350  0.647670  1.0  -0.119
  C  C165  1  0.348100  0.285780  0.784620  1.0  0.7593
  C  C166  1  0.465450  0.409490  0.398440  1.0  -0.1281
  C  C167  1  0.438480  0.450770  0.382090  1.0  0.0197
  C  C168  1  0.455610  0.479840  0.340330  1.0  0.1025
  C  C169  1  0.464750  0.443300  0.286370  1.0  -0.0889
  C  C170  1  0.480710  0.470760  0.247590  1.0  -0.0427
  C  C171  1  0.486400  0.534720  0.259720  1.0  -0.1177
  C  C172  1  0.479190  0.571400  0.312950  1.0  -0.0264
  C  C173  1  0.462680  0.544230  0.352330  1.0  -0.1249
  C  C174  1  0.501160  0.563480  0.215380  1.0  0.7631
  C  C175  1  0.601560  0.011050  0.067010  1.0  -0.1267
  C  C176  1  0.617910  0.068680  0.056390  1.0  0.0236
  C  C177  1  0.659670  0.139510  0.115280  1.0  0.1027
  C  C178  1  0.713630  0.156930  0.178380  1.0  -0.09
  C  C179  1  0.752410  0.223170  0.233120  1.0  -0.0374
  C  C180  1  0.740280  0.275000  0.226680  1.0  -0.1201
  C  C181  1  0.687050  0.258450  0.166240  1.0  -0.0299
  C  C182  1  0.647670  0.191900  0.110350  1.0  -0.1215
  C  C183  1  0.784620  0.348100  0.285780  1.0  0.7606
  C  C184  1  0.398440  0.465450  0.409490  1.0  -0.1314
  C  C185  1  0.382090  0.438480  0.450770  1.0  0.0209
  C  C186  1  0.340330  0.455610  0.479840  1.0  0.1025
  C  C187  1  0.286370  0.464750  0.443300  1.0  -0.0881
  C  C188  1  0.247590  0.480710  0.470760  1.0  -0.0402
  C  C189  1  0.259720  0.486400  0.534720  1.0  -0.1189
  C  C190  1  0.312950  0.479190  0.571400  1.0  -0.0286
  C  C191  1  0.352330  0.462680  0.544230  1.0  -0.1223
  C  C192  1  0.215380  0.501160  0.563480  1.0  0.7625
  C  C193  1  0.944040  0.534550  0.932990  1.0  -0.124
  C  C194  1  0.012290  0.561520  0.943610  1.0  0.032
  C  C195  1  0.024230  0.544390  0.884720  1.0  0.1026
  C  C196  1  0.978550  0.535250  0.821620  1.0  -0.0912
  C  C197  1  0.990050  0.519290  0.766880  1.0  -0.0417
  C  C198  1  0.048320  0.513600  0.773320  1.0  -0.1165
  C  C199  1  0.092210  0.520810  0.833760  1.0  -0.0243
  C  C200  1  0.081550  0.537320  0.889650  1.0  -0.1193
  C  C201  1  0.062320  0.498840  0.714220  1.0  0.7637
  C  C202  1  0.055960  0.988950  0.590510  1.0  -0.1235
  C  C203  1  0.987710  0.931320  0.549230  1.0  0.03
  C  C204  1  0.975770  0.860490  0.520160  1.0  0.1074
  C  C205  1  0.021450  0.843070  0.556700  1.0  -0.097
  C  C206  1  0.009950  0.776830  0.529240  1.0  -0.0384
  C  C207  1  0.951680  0.725000  0.465280  1.0  -0.1209
  C  C208  1  0.907790  0.741550  0.428600  1.0  -0.0272
  C  C209  1  0.918450  0.808100  0.455770  1.0  -0.1212
  C  C210  1  0.937680  0.651900  0.436520  1.0  0.7661
  C  C211  1  0.590510  0.055960  0.988950  1.0  -0.1212
  C  C212  1  0.549230  0.987710  0.931320  1.0  0.021
  C  C213  1  0.520160  0.975770  0.860490  1.0  0.1043
  C  C214  1  0.556700  0.021450  0.843070  1.0  -0.096
  C  C215  1  0.529240  0.009950  0.776830  1.0  -0.0393
  C  C216  1  0.465280  0.951680  0.725000  1.0  -0.1225
  C  C217  1  0.428600  0.907790  0.741550  1.0  -0.0264
  C  C218  1  0.455770  0.918450  0.808100  1.0  -0.1248
  C  C219  1  0.436520  0.937680  0.651900  1.0  0.7663
  C  C220  1  0.932990  0.944040  0.534550  1.0  -0.1215
  C  C221  1  0.943610  0.012290  0.561520  1.0  0.039
  C  C222  1  0.884720  0.024230  0.544390  1.0  0.1041
  C  C223  1  0.821620  0.978550  0.535250  1.0  -0.0932
  C  C224  1  0.766880  0.990050  0.519290  1.0  -0.0418
  C  C225  1  0.773320  0.048320  0.513600  1.0  -0.1164
  C  C226  1  0.833760  0.092210  0.520810  1.0  -0.0255
  C  C227  1  0.889650  0.081550  0.537320  1.0  -0.1236
  C  C228  1  0.714220  0.062320  0.498840  1.0  0.7644
  C  C229  1  0.409490  0.398440  0.465450  1.0  -0.1258
  C  C230  1  0.450770  0.382090  0.438480  1.0  0.0223
  C  C231  1  0.479840  0.340330  0.455610  1.0  0.1058
  C  C232  1  0.443300  0.286370  0.464750  1.0  -0.0909
  C  C233  1  0.470760  0.247590  0.480710  1.0  -0.0413
  C  C234  1  0.534720  0.259720  0.486400  1.0  -0.1191
  C  C235  1  0.571400  0.312950  0.479190  1.0  -0.0272
  C  C236  1  0.544230  0.352330  0.462680  1.0  -0.1265
  C  C237  1  0.563480  0.215380  0.501160  1.0  0.7613
  C  C238  1  0.067010  0.601560  0.011050  1.0  -0.1246
  C  C239  1  0.056390  0.617910  0.068680  1.0  0.0246
  C  C240  1  0.115280  0.659670  0.139510  1.0  0.1039
  C  C241  1  0.178380  0.713630  0.156930  1.0  -0.0934
  C  C242  1  0.233120  0.752410  0.223170  1.0  -0.0377
  C  C243  1  0.226680  0.740280  0.275000  1.0  -0.1214
  C  C244  1  0.166240  0.687050  0.258450  1.0  -0.0283
  C  C245  1  0.110350  0.647670  0.191900  1.0  -0.122
  C  C246  1  0.285780  0.784620  0.348100  1.0  0.7608
  C  C247  1  0.465450  0.067010  0.055960  1.0  -0.1227
  C  C248  1  0.438480  0.056390  0.987710  1.0  0.0328
  C  C249  1  0.455610  0.115280  0.975770  1.0  0.1032
  C  C250  1  0.464750  0.178380  0.021450  1.0  -0.0945
  C  C251  1  0.480710  0.233120  0.009950  1.0  -0.0393
  C  C252  1  0.486400  0.226680  0.951680  1.0  -0.1193
  C  C253  1  0.479190  0.166240  0.907790  1.0  -0.0282
  C  C254  1  0.462680  0.110350  0.918450  1.0  -0.1205
  C  C255  1  0.501160  0.285780  0.937680  1.0  0.7631
  C  C256  1  0.011050  0.409490  0.944040  1.0  -0.1235
  C  C257  1  0.068680  0.450770  0.012290  1.0  0.0221
  C  C258  1  0.139510  0.479840  0.024230  1.0  0.103
  C  C259  1  0.156930  0.443300  0.978550  1.0  -0.0945
  C  C260  1  0.223170  0.470760  0.990050  1.0  -0.0396
  C  C261  1  0.275000  0.534720  0.048320  1.0  -0.1197
  C  C262  1  0.258450  0.571400  0.092210  1.0  -0.0294
  C  C263  1  0.191900  0.544230  0.081550  1.0  -0.1194
  C  C264  1  0.348100  0.563480  0.062320  1.0  0.7662
  C  C265  1  0.988950  0.932990  0.398440  1.0  -0.1241
  C  C266  1  0.931320  0.943610  0.382090  1.0  0.0269
  C  C267  1  0.860490  0.884720  0.340330  1.0  0.1027
  C  C268  1  0.843070  0.821620  0.286370  1.0  -0.0915
  C  C269  1  0.776830  0.766880  0.247590  1.0  -0.038
  C  C270  1  0.725000  0.773320  0.259720  1.0  -0.1219
  C  C271  1  0.741550  0.833760  0.312950  1.0  -0.0263
  C  C272  1  0.808100  0.889650  0.352330  1.0  -0.119
  C  C273  1  0.651900  0.714220  0.215380  1.0  0.759
  C  C274  1  0.534550  0.590510  0.601560  1.0  -0.1257
  C  C275  1  0.561520  0.549230  0.617910  1.0  0.0207
  C  C276  1  0.544390  0.520160  0.659670  1.0  0.1027
  C  C277  1  0.535250  0.556700  0.713630  1.0  -0.0872
  C  C278  1  0.519290  0.529240  0.752410  1.0  -0.043
  C  C279  1  0.513600  0.465280  0.740280  1.0  -0.1185
  C  C280  1  0.520810  0.428600  0.687050  1.0  -0.026
  C  C281  1  0.537320  0.455770  0.647670  1.0  -0.1251
  C  C282  1  0.498840  0.436520  0.784620  1.0  0.7631
  C  C283  1  0.398440  0.988950  0.932990  1.0  -0.1273
  C  C284  1  0.382090  0.931320  0.943610  1.0  0.0243
  C  C285  1  0.340330  0.860490  0.884720  1.0  0.102
  C  C286  1  0.286370  0.843070  0.821620  1.0  -0.091
  C  C287  1  0.247590  0.776830  0.766880  1.0  -0.0389
  C  C288  1  0.259720  0.725000  0.773320  1.0  -0.1198
  C  C289  1  0.312950  0.741550  0.833760  1.0  -0.0309
  C  C290  1  0.352330  0.808100  0.889650  1.0  -0.1205
  C  C291  1  0.215380  0.651900  0.714220  1.0  0.7602
  C  C292  1  0.601560  0.534550  0.590510  1.0  -0.1267
  C  C293  1  0.617910  0.561520  0.549230  1.0  0.021
  C  C294  1  0.659670  0.544390  0.520160  1.0  0.1034
  C  C295  1  0.713630  0.535250  0.556700  1.0  -0.0877
  C  C296  1  0.752410  0.519290  0.529240  1.0  -0.0381
  C  C297  1  0.740280  0.513600  0.465280  1.0  -0.1186
  C  C298  1  0.687050  0.520810  0.428600  1.0  -0.0284
  C  C299  1  0.647670  0.537320  0.455770  1.0  -0.122
  C  C300  1  0.784620  0.498840  0.436520  1.0  0.7624
  C  C301  1  0.055960  0.465450  0.067010  1.0  -0.1196
  C  C302  1  0.987710  0.438480  0.056390  1.0  0.0348
  C  C303  1  0.975770  0.455610  0.115280  1.0  0.1027
  C  C304  1  0.021450  0.464750  0.178380  1.0  -0.0885
  C  C305  1  0.009950  0.480710  0.233120  1.0  -0.0409
  C  C306  1  0.951680  0.486400  0.226680  1.0  -0.1167
  C  C307  1  0.907790  0.479190  0.166240  1.0  -0.024
  C  C308  1  0.918450  0.462680  0.110350  1.0  -0.1194
  C  C309  1  0.937680  0.501160  0.285780  1.0  0.7645
  C  C310  1  0.944040  0.011050  0.409490  1.0  -0.1282
  C  C311  1  0.012290  0.068680  0.450770  1.0  0.0284
  C  C312  1  0.024230  0.139510  0.479840  1.0  0.105
  C  C313  1  0.978550  0.156930  0.443300  1.0  -0.094
  C  C314  1  0.990050  0.223170  0.470760  1.0  -0.0395
  C  C315  1  0.048320  0.275000  0.534720  1.0  -0.1203
  C  C316  1  0.092210  0.258450  0.571400  1.0  -0.0279
  C  C317  1  0.081550  0.191900  0.544230  1.0  -0.1215
  C  C318  1  0.062320  0.348100  0.563480  1.0  0.7664
  C  C319  1  0.409490  0.944040  0.011050  1.0  -0.1215
  C  C320  1  0.450770  0.012290  0.068680  1.0  0.0224
  C  C321  1  0.479840  0.024230  0.139510  1.0  0.105
  C  C322  1  0.443300  0.978550  0.156930  1.0  -0.0968
  C  C323  1  0.470760  0.990050  0.223170  1.0  -0.0391
  C  C324  1  0.534720  0.048320  0.275000  1.0  -0.1222
  C  C325  1  0.571400  0.092210  0.258450  1.0  -0.0271
  C  C326  1  0.544230  0.081550  0.191900  1.0  -0.1269
  C  C327  1  0.563480  0.062320  0.348100  1.0  0.7667
  C  C328  1  0.067010  0.055960  0.465450  1.0  -0.1189
  C  C329  1  0.056390  0.987710  0.438480  1.0  0.0373
  C  C330  1  0.115280  0.975770  0.455610  1.0  0.1031
  C  C331  1  0.178380  0.021450  0.464750  1.0  -0.0926
  C  C332  1  0.233120  0.009950  0.480710  1.0  -0.0418
  C  C333  1  0.226680  0.951680  0.486400  1.0  -0.1168
  C  C334  1  0.166240  0.907790  0.479190  1.0  -0.0262
  C  C335  1  0.110350  0.918450  0.462680  1.0  -0.1219
  C  C336  1  0.285780  0.937680  0.501160  1.0  0.7635
  C  C337  1  0.590510  0.601560  0.534550  1.0  -0.1225
  C  C338  1  0.549230  0.617910  0.561520  1.0  0.0241
  C  C339  1  0.520160  0.659670  0.544390  1.0  0.1066
  C  C340  1  0.556700  0.713630  0.535250  1.0  -0.088
  C  C341  1  0.529240  0.752410  0.519290  1.0  -0.043
  C  C342  1  0.465280  0.740280  0.513600  1.0  -0.1183
  C  C343  1  0.428600  0.687050  0.520810  1.0  -0.0274
  C  C344  1  0.455770  0.647670  0.537320  1.0  -0.1262
  C  C345  1  0.436520  0.784620  0.498840  1.0  0.7624
  C  C346  1  0.932990  0.398440  0.988950  1.0  -0.1246
  C  C347  1  0.943610  0.382090  0.931320  1.0  0.025
  C  C348  1  0.884720  0.340330  0.860490  1.0  0.1019
  C  C349  1  0.821620  0.286370  0.843070  1.0  -0.0937
  C  C350  1  0.766880  0.247590  0.776830  1.0  -0.0363
  C  C351  1  0.773320  0.259720  0.725000  1.0  -0.121
  C  C352  1  0.833760  0.312950  0.741550  1.0  -0.0287
  C  C353  1  0.889650  0.352330  0.808100  1.0  -0.1235
  C  C354  1  0.714220  0.215380  0.651900  1.0  0.76
  O  O355  1  0.500040  0.724590  0.117150  1.0  -0.6071
  O  O356  1  0.481930  0.655930  0.014480  1.0  -0.627
  O  O357  1  0.607440  0.382890  0.882850  1.0  -0.6082
  O  O358  1  0.641450  0.467450  0.985520  1.0  -0.6287
  O  O359  1  0.392560  0.275410  0.775450  1.0  -0.6108
  O  O360  1  0.358550  0.344070  0.826000  1.0  -0.632
  O  O361  1  0.499960  0.617110  0.224550  1.0  -0.6085
  O  O362  1  0.518070  0.532550  0.174000  1.0  -0.6275
  O  O363  1  0.775450  0.392560  0.275410  1.0  -0.6105
  O  O364  1  0.826000  0.358550  0.344070  1.0  -0.6275
  O  O365  1  0.224550  0.499960  0.617110  1.0  -0.6056
  O  O366  1  0.174000  0.518070  0.532550  1.0  -0.6276
  O  O367  1  0.117150  0.500040  0.724590  1.0  -0.6077
  O  O368  1  0.014480  0.481930  0.655930  1.0  -0.6283
  O  O369  1  0.882850  0.607440  0.382890  1.0  -0.6069
  O  O370  1  0.985520  0.641450  0.467450  1.0  -0.6262
  O  O371  1  0.382890  0.882850  0.607440  1.0  -0.6071
  O  O372  1  0.467450  0.985520  0.641450  1.0  -0.6302
  O  O373  1  0.724590  0.117150  0.500040  1.0  -0.6088
  O  O374  1  0.655930  0.014480  0.481930  1.0  -0.6265
  O  O375  1  0.617110  0.224550  0.499960  1.0  -0.6081
  O  O376  1  0.532550  0.174000  0.518070  1.0  -0.627
  O  O377  1  0.275410  0.775450  0.392560  1.0  -0.6105
  O  O378  1  0.344070  0.826000  0.358550  1.0  -0.6304
  O  O379  1  0.499960  0.275410  0.882850  1.0  -0.6067
  O  O380  1  0.518070  0.344070  0.985520  1.0  -0.6274
  O  O381  1  0.392560  0.617110  0.117150  1.0  -0.6085
  O  O382  1  0.358550  0.532550  0.014480  1.0  -0.6289
  O  O383  1  0.607440  0.724590  0.224550  1.0  -0.6096
  O  O384  1  0.641450  0.655930  0.174000  1.0  -0.6307
  O  O385  1  0.500040  0.382890  0.775450  1.0  -0.6093
  O  O386  1  0.481930  0.467450  0.826000  1.0  -0.6285
  O  O387  1  0.224550  0.607440  0.724590  1.0  -0.6098
  O  O388  1  0.174000  0.641450  0.655930  1.0  -0.6289
  O  O389  1  0.775450  0.500040  0.382890  1.0  -0.6058
  O  O390  1  0.826000  0.481930  0.467450  1.0  -0.6257
  O  O391  1  0.882850  0.499960  0.275410  1.0  -0.6063
  O  O392  1  0.985520  0.518070  0.344070  1.0  -0.6266
  O  O393  1  0.117150  0.392560  0.617110  1.0  -0.6075
  O  O394  1  0.014480  0.358550  0.532550  1.0  -0.6277
  O  O395  1  0.617110  0.117150  0.392560  1.0  -0.6086
  O  O396  1  0.532550  0.014480  0.358550  1.0  -0.6302
  O  O397  1  0.275410  0.882850  0.499960  1.0  -0.6082
  O  O398  1  0.344070  0.985520  0.518070  1.0  -0.6271
  O  O399  1  0.382890  0.775450  0.500040  1.0  -0.6068
  O  O400  1  0.467450  0.826000  0.481930  1.0  -0.6267
  O  O401  1  0.724590  0.224550  0.607440  1.0  -0.6091
  O  O402  1  0.655930  0.174000  0.641450  1.0  -0.6312
  O  O403  1  0.500000  0.589650  0.089650  1.0  -0.9824
  O  O404  1  0.500000  0.410350  0.910350  1.0  -0.9798
  O  O405  1  0.910350  0.500000  0.410350  1.0  -0.9815
  O  O406  1  0.089650  0.500000  0.589650  1.0  -0.9819
  O  O407  1  0.410350  0.910350  0.500000  1.0  -0.9807
  O  O408  1  0.589650  0.089650  0.500000  1.0  -0.981
  O  O409  1  0.398890  0.500000  0.898890  1.0  -0.7152
  O  O410  1  0.601110  0.500000  0.101110  1.0  -0.7158
  O  O411  1  0.898890  0.398890  0.500000  1.0  -0.7161
  O  O412  1  0.101110  0.601110  0.500000  1.0  -0.7131
  O  O413  1  0.500000  0.101110  0.601110  1.0  -0.7155
  O  O414  1  0.500000  0.898890  0.398890  1.0  -0.7129
  O  O415  1  0.500000  0.500000  0.000000  1.0  -0.8027
  O  O416  1  0.000000  0.500000  0.500000  1.0  -0.8027
  O  O417  1  0.500000  0.000000  0.500000  1.0  -0.8027
