# generated using pymatgen
data_Co3H30C54O13
_symmetry_space_group_name_H-M   'P 1'
_cell_length_a   17.41300000
_cell_length_b   24.92400000
_cell_length_c   22.27900000
_cell_angle_alpha   90.00000000
_cell_angle_beta   90.00000000
_cell_angle_gamma   90.00000000
_symmetry_Int_Tables_number   1
_chemical_formula_structural   Co3H30C54O13
_chemical_formula_sum   'Co12 H120 C216 O52'
_cell_volume   9669.12191375
_cell_formula_units_Z   4
loop_
 _symmetry_equiv_pos_site_id
 _symmetry_equiv_pos_as_xyz
  1  'x, y, z'
loop_
 _atom_site_type_symbol
 _atom_site_label
 _atom_site_symmetry_multiplicity
 _atom_site_fract_x
 _atom_site_fract_y
 _atom_site_fract_z
 _atom_site_occupancy
 _atom_site_charge
  Co  Co1  1  0.997450  0.321860  0.421490  1.0  1.063
  Co  Co2  1  0.502550  0.678140  0.921490  1.0  1.0626
  Co  Co3  1  0.997450  0.178140  0.421490  1.0  1.0634
  Co  Co4  1  0.502550  0.821860  0.921490  1.0  1.0621
  Co  Co5  1  0.113140  0.250000  0.333660  1.0  1.0506
  Co  Co6  1  0.386860  0.750000  0.833660  1.0  1.052
  Co  Co7  1  0.002550  0.821860  0.578510  1.0  1.0625
  Co  Co8  1  0.497450  0.178140  0.078510  1.0  1.0632
  Co  Co9  1  0.002550  0.678140  0.578510  1.0  1.0631
  Co  Co10  1  0.497450  0.321860  0.078510  1.0  1.0627
  Co  Co11  1  0.886860  0.750000  0.666340  1.0  1.0493
  Co  Co12  1  0.613140  0.250000  0.166340  1.0  1.0496
  H  H13  1  0.888800  0.517700  0.103900  1.0  0.1003
  H  H14  1  0.988000  0.614500  0.986800  1.0  0.1018
  H  H15  1  0.117800  0.519400  0.089700  1.0  0.1173
  H  H16  1  0.091300  0.424600  0.113400  1.0  0.088
  H  H17  1  0.101900  0.360000  0.187900  1.0  0.1212
  H  H18  1  0.940100  0.439800  0.284200  1.0  0.1223
  H  H19  1  0.926300  0.499200  0.204100  1.0  0.1155
  H  H20  1  0.793700  0.516400  0.034500  1.0  0.1126
  H  H21  1  0.673700  0.545800  0.003000  1.0  0.1087
  H  H22  1  0.761000  0.689400  0.964100  1.0  0.106
  H  H23  1  0.877900  0.662800  0.998500  1.0  0.1167
  H  H24  1  0.090500  0.615300  0.925600  1.0  0.1
  H  H25  1  0.197400  0.651800  0.884800  1.0  0.1092
  H  H26  1  0.316600  0.612400  0.031400  1.0  0.1089
  H  H27  1  0.206800  0.579900  0.074200  1.0  0.1188
  H  H28  1  0.611200  0.482300  0.603900  1.0  0.1002
  H  H29  1  0.512000  0.385500  0.486800  1.0  0.1021
  H  H30  1  0.382200  0.480600  0.589700  1.0  0.1174
  H  H31  1  0.408700  0.575400  0.613400  1.0  0.0883
  H  H32  1  0.398100  0.640000  0.687900  1.0  0.1215
  H  H33  1  0.559900  0.560200  0.784200  1.0  0.1224
  H  H34  1  0.573700  0.500800  0.704100  1.0  0.1145
  H  H35  1  0.706300  0.483600  0.534500  1.0  0.1122
  H  H36  1  0.826300  0.454200  0.503000  1.0  0.1085
  H  H37  1  0.739000  0.310600  0.464100  1.0  0.1058
  H  H38  1  0.622100  0.337200  0.498500  1.0  0.1148
  H  H39  1  0.409500  0.384700  0.425600  1.0  0.1005
  H  H40  1  0.302600  0.348200  0.384800  1.0  0.109
  H  H41  1  0.183400  0.387600  0.531400  1.0  0.1088
  H  H42  1  0.293200  0.420100  0.574200  1.0  0.1202
  H  H43  1  0.888800  0.982300  0.103900  1.0  0.1004
  H  H44  1  0.988000  0.885500  0.986800  1.0  0.1021
  H  H45  1  0.117800  0.980600  0.089700  1.0  0.1174
  H  H46  1  0.091300  0.075400  0.113400  1.0  0.0879
  H  H47  1  0.101900  0.140000  0.187900  1.0  0.1212
  H  H48  1  0.940100  0.060200  0.284200  1.0  0.1227
  H  H49  1  0.926300  0.000800  0.204100  1.0  0.1134
  H  H50  1  0.793700  0.983600  0.034500  1.0  0.1129
  H  H51  1  0.673700  0.954200  0.003000  1.0  0.1089
  H  H52  1  0.761000  0.810600  0.964100  1.0  0.1058
  H  H53  1  0.877900  0.837200  0.998500  1.0  0.1164
  H  H54  1  0.090500  0.884700  0.925600  1.0  0.0998
  H  H55  1  0.197400  0.848200  0.884800  1.0  0.1093
  H  H56  1  0.316600  0.887600  0.031400  1.0  0.1087
  H  H57  1  0.206800  0.920100  0.074200  1.0  0.119
  H  H58  1  0.611200  0.017700  0.603900  1.0  0.0999
  H  H59  1  0.512000  0.114500  0.486800  1.0  0.1016
  H  H60  1  0.382200  0.019400  0.589700  1.0  0.1174
  H  H61  1  0.408700  0.924600  0.613400  1.0  0.0885
  H  H62  1  0.398100  0.860000  0.687900  1.0  0.1207
  H  H63  1  0.559900  0.939800  0.784200  1.0  0.1221
  H  H64  1  0.573700  0.999200  0.704100  1.0  0.1129
  H  H65  1  0.706300  0.016400  0.534500  1.0  0.1125
  H  H66  1  0.826300  0.045800  0.503000  1.0  0.1082
  H  H67  1  0.739000  0.189400  0.464100  1.0  0.1057
  H  H68  1  0.622100  0.162800  0.498500  1.0  0.1151
  H  H69  1  0.409500  0.115300  0.425600  1.0  0.1
  H  H70  1  0.302600  0.151800  0.384800  1.0  0.1091
  H  H71  1  0.183400  0.112400  0.531400  1.0  0.1091
  H  H72  1  0.293200  0.079900  0.574200  1.0  0.1202
  H  H73  1  0.111200  0.017700  0.896100  1.0  0.101
  H  H74  1  0.012000  0.114500  0.013200  1.0  0.1009
  H  H75  1  0.882200  0.019400  0.910300  1.0  0.1163
  H  H76  1  0.908700  0.924600  0.886600  1.0  0.0866
  H  H77  1  0.898100  0.860000  0.812100  1.0  0.1208
  H  H78  1  0.059900  0.939800  0.715800  1.0  0.1218
  H  H79  1  0.073700  0.999200  0.795900  1.0  0.1128
  H  H80  1  0.206300  0.016400  0.965500  1.0  0.1131
  H  H81  1  0.326300  0.045800  0.997000  1.0  0.1082
  H  H82  1  0.239000  0.189400  0.035900  1.0  0.1055
  H  H83  1  0.122100  0.162800  0.001500  1.0  0.1164
  H  H84  1  0.909500  0.115300  0.074400  1.0  0.1006
  H  H85  1  0.802600  0.151800  0.115200  1.0  0.1094
  H  H86  1  0.683400  0.112400  0.968600  1.0  0.1086
  H  H87  1  0.793200  0.079900  0.925800  1.0  0.1184
  H  H88  1  0.388800  0.982300  0.396100  1.0  0.1001
  H  H89  1  0.488000  0.885500  0.513200  1.0  0.1018
  H  H90  1  0.617800  0.980600  0.410300  1.0  0.1175
  H  H91  1  0.591300  0.075400  0.386600  1.0  0.0866
  H  H92  1  0.601900  0.140000  0.312100  1.0  0.1213
  H  H93  1  0.440100  0.060200  0.215800  1.0  0.1219
  H  H94  1  0.426300  0.000800  0.295900  1.0  0.1126
  H  H95  1  0.293700  0.983600  0.465500  1.0  0.113
  H  H96  1  0.173700  0.954200  0.497000  1.0  0.1089
  H  H97  1  0.261000  0.810600  0.535900  1.0  0.1056
  H  H98  1  0.377900  0.837200  0.501500  1.0  0.1145
  H  H99  1  0.590500  0.884700  0.574400  1.0  0.0997
  H  H100  1  0.697400  0.848200  0.615200  1.0  0.1095
  H  H101  1  0.816600  0.887600  0.468600  1.0  0.1089
  H  H102  1  0.706800  0.920100  0.425800  1.0  0.1191
  H  H103  1  0.111200  0.482300  0.896100  1.0  0.1011
  H  H104  1  0.012000  0.385500  0.013200  1.0  0.1019
  H  H105  1  0.882200  0.480600  0.910300  1.0  0.1164
  H  H106  1  0.908700  0.575400  0.886600  1.0  0.0863
  H  H107  1  0.898100  0.640000  0.812100  1.0  0.1214
  H  H108  1  0.059900  0.560200  0.715800  1.0  0.122
  H  H109  1  0.073700  0.500800  0.795900  1.0  0.1142
  H  H110  1  0.206300  0.483600  0.965500  1.0  0.1127
  H  H111  1  0.326300  0.454200  0.997000  1.0  0.1086
  H  H112  1  0.239000  0.310600  0.035900  1.0  0.1056
  H  H113  1  0.122100  0.337200  0.001500  1.0  0.1159
  H  H114  1  0.909500  0.384700  0.074400  1.0  0.1009
  H  H115  1  0.802600  0.348200  0.115200  1.0  0.1095
  H  H116  1  0.683400  0.387600  0.968600  1.0  0.1084
  H  H117  1  0.793200  0.420100  0.925800  1.0  0.1182
  H  H118  1  0.388800  0.517700  0.396100  1.0  0.1
  H  H119  1  0.488000  0.614500  0.513200  1.0  0.1008
  H  H120  1  0.617800  0.519400  0.410300  1.0  0.1175
  H  H121  1  0.591300  0.424600  0.386600  1.0  0.0868
  H  H122  1  0.601900  0.360000  0.312100  1.0  0.1213
  H  H123  1  0.440100  0.439800  0.215800  1.0  0.1217
  H  H124  1  0.426300  0.499200  0.295900  1.0  0.1147
  H  H125  1  0.293700  0.516400  0.465500  1.0  0.113
  H  H126  1  0.173700  0.545800  0.497000  1.0  0.1086
  H  H127  1  0.261000  0.689400  0.535900  1.0  0.1057
  H  H128  1  0.377900  0.662800  0.501500  1.0  0.1147
  H  H129  1  0.590500  0.615300  0.574400  1.0  0.1001
  H  H130  1  0.697400  0.651800  0.615200  1.0  0.1092
  H  H131  1  0.816600  0.612400  0.468600  1.0  0.1091
  H  H132  1  0.706800  0.579900  0.425800  1.0  0.1193
  C  C133  1  0.003400  0.511140  0.104640  1.0  0.0614
  C  C134  1  0.933250  0.530480  0.085720  1.0  -0.1247
  C  C135  1  0.926910  0.567210  0.041830  1.0  0.0308
  C  C136  1  0.992250  0.588090  0.016110  1.0  -0.1195
  C  C137  1  0.064170  0.570260  0.033380  1.0  0.0207
  C  C138  1  0.069820  0.531710  0.077720  1.0  -0.1295
  C  C139  1  0.010420  0.470020  0.152880  1.0  0.0246
  C  C140  1  0.060810  0.427270  0.147610  1.0  -0.1321
  C  C141  1  0.067210  0.388100  0.192140  1.0  -0.0539
  C  C142  1  0.021340  0.391680  0.242530  1.0  -0.1242
  C  C143  1  0.969080  0.435740  0.249470  1.0  -0.0821
  C  C144  1  0.963320  0.472360  0.202150  1.0  -0.0959
  C  C145  1  0.027320  0.350690  0.293180  1.0  0.7394
  C  C146  1  0.850030  0.585820  0.019450  1.0  0.086
  C  C147  1  0.787690  0.551390  0.020710  1.0  -0.1401
  C  C148  1  0.715420  0.569090  0.001240  1.0  -0.0535
  C  C149  1  0.705130  0.620580  0.979400  1.0  -0.1384
  C  C150  1  0.767080  0.654710  0.978560  1.0  -0.0331
  C  C151  1  0.837340  0.638520  0.998610  1.0  -0.1238
  C  C152  1  0.626550  0.639140  0.958900  1.0  0.7009
  C  C153  1  0.136110  0.591220  0.003670  1.0  0.0663
  C  C154  1  0.135980  0.614710  0.947450  1.0  -0.1365
  C  C155  1  0.200090  0.636930  0.923080  1.0  -0.0513
  C  C156  1  0.268860  0.638030  0.953600  1.0  -0.116
  C  C157  1  0.270560  0.614120  0.010320  1.0  -0.0811
  C  C158  1  0.205060  0.593190  0.035190  1.0  -0.1304
  C  C159  1  0.337910  0.663790  0.925860  1.0  0.7281
  C  C160  1  0.496600  0.488860  0.604640  1.0  0.0607
  C  C161  1  0.566750  0.469520  0.585720  1.0  -0.1203
  C  C162  1  0.573090  0.432790  0.541830  1.0  0.0327
  C  C163  1  0.507750  0.411910  0.516110  1.0  -0.1198
  C  C164  1  0.435830  0.429740  0.533380  1.0  0.0238
  C  C165  1  0.430180  0.468290  0.577720  1.0  -0.1324
  C  C166  1  0.489580  0.529980  0.652880  1.0  0.0238
  C  C167  1  0.439190  0.572730  0.647610  1.0  -0.1337
  C  C168  1  0.432790  0.611900  0.692140  1.0  -0.0547
  C  C169  1  0.478660  0.608320  0.742530  1.0  -0.1242
  C  C170  1  0.530920  0.564260  0.749470  1.0  -0.0817
  C  C171  1  0.536680  0.527640  0.702150  1.0  -0.0962
  C  C172  1  0.472680  0.649310  0.793180  1.0  0.7405
  C  C173  1  0.649970  0.414180  0.519450  1.0  0.0869
  C  C174  1  0.712310  0.448610  0.520710  1.0  -0.1407
  C  C175  1  0.784580  0.430910  0.501240  1.0  -0.0547
  C  C176  1  0.794870  0.379420  0.479400  1.0  -0.1379
  C  C177  1  0.732920  0.345290  0.478560  1.0  -0.0322
  C  C178  1  0.662660  0.361480  0.498610  1.0  -0.1245
  C  C179  1  0.873450  0.360860  0.458900  1.0  0.6991
  C  C180  1  0.363890  0.408780  0.503670  1.0  0.0661
  C  C181  1  0.364020  0.385290  0.447450  1.0  -0.1378
  C  C182  1  0.299910  0.363070  0.423080  1.0  -0.0505
  C  C183  1  0.231140  0.361970  0.453600  1.0  -0.1178
  C  C184  1  0.229440  0.385880  0.510320  1.0  -0.0813
  C  C185  1  0.294940  0.406810  0.535190  1.0  -0.1296
  C  C186  1  0.162090  0.336210  0.425860  1.0  0.7278
  C  C187  1  0.003400  0.988860  0.104640  1.0  0.0611
  C  C188  1  0.933250  0.969520  0.085720  1.0  -0.1245
  C  C189  1  0.926910  0.932790  0.041830  1.0  0.0319
  C  C190  1  0.992250  0.911910  0.016110  1.0  -0.1203
  C  C191  1  0.064170  0.929740  0.033380  1.0  0.023
  C  C192  1  0.069820  0.968290  0.077720  1.0  -0.129
  C  C193  1  0.010420  0.029980  0.152880  1.0  0.0244
  C  C194  1  0.060810  0.072730  0.147610  1.0  -0.1322
  C  C195  1  0.067210  0.111900  0.192140  1.0  -0.0536
  C  C196  1  0.021340  0.108320  0.242530  1.0  -0.1241
  C  C197  1  0.969080  0.064260  0.249470  1.0  -0.0828
  C  C198  1  0.963320  0.027640  0.202150  1.0  -0.0975
  C  C199  1  0.027320  0.149310  0.293180  1.0  0.7401
  C  C200  1  0.850030  0.914180  0.019450  1.0  0.0866
  C  C201  1  0.787690  0.948610  0.020710  1.0  -0.1413
  C  C202  1  0.715420  0.930910  0.001240  1.0  -0.0545
  C  C203  1  0.705130  0.879420  0.979400  1.0  -0.139
  C  C204  1  0.767080  0.845290  0.978560  1.0  -0.0318
  C  C205  1  0.837340  0.861480  0.998610  1.0  -0.123
  C  C206  1  0.626550  0.860860  0.958900  1.0  0.7008
  C  C207  1  0.136110  0.908780  0.003670  1.0  0.0657
  C  C208  1  0.135980  0.885290  0.947450  1.0  -0.1366
  C  C209  1  0.200090  0.863070  0.923080  1.0  -0.0509
  C  C210  1  0.268860  0.861970  0.953600  1.0  -0.1165
  C  C211  1  0.270560  0.885880  0.010320  1.0  -0.081
  C  C212  1  0.205060  0.906810  0.035190  1.0  -0.1307
  C  C213  1  0.337910  0.836210  0.925860  1.0  0.7276
  C  C214  1  0.496600  0.011140  0.604640  1.0  0.061
  C  C215  1  0.566750  0.030480  0.585720  1.0  -0.12
  C  C216  1  0.573090  0.067210  0.541830  1.0  0.0319
  C  C217  1  0.507750  0.088090  0.516110  1.0  -0.1194
  C  C218  1  0.435830  0.070260  0.533380  1.0  0.0208
  C  C219  1  0.430180  0.031710  0.577720  1.0  -0.1323
  C  C220  1  0.489580  0.970020  0.652880  1.0  0.0238
  C  C221  1  0.439190  0.927270  0.647610  1.0  -0.1342
  C  C222  1  0.432790  0.888100  0.692140  1.0  -0.0537
  C  C223  1  0.478660  0.891680  0.742530  1.0  -0.1242
  C  C224  1  0.530920  0.935740  0.749470  1.0  -0.0809
  C  C225  1  0.536680  0.972360  0.702150  1.0  -0.0944
  C  C226  1  0.472680  0.850690  0.793180  1.0  0.7398
  C  C227  1  0.649970  0.085820  0.519450  1.0  0.0857
  C  C228  1  0.712310  0.051390  0.520710  1.0  -0.1406
  C  C229  1  0.784580  0.069090  0.501240  1.0  -0.0545
  C  C230  1  0.794870  0.120580  0.479400  1.0  -0.1379
  C  C231  1  0.732920  0.154710  0.478560  1.0  -0.0325
  C  C232  1  0.662660  0.138520  0.498610  1.0  -0.1246
  C  C233  1  0.873450  0.139140  0.458900  1.0  0.6995
  C  C234  1  0.363890  0.091220  0.503670  1.0  0.0663
  C  C235  1  0.364020  0.114710  0.447450  1.0  -0.1378
  C  C236  1  0.299910  0.136930  0.423080  1.0  -0.0508
  C  C237  1  0.231140  0.138030  0.453600  1.0  -0.1162
  C  C238  1  0.229440  0.114120  0.510320  1.0  -0.0823
  C  C239  1  0.294940  0.093190  0.535190  1.0  -0.1299
  C  C240  1  0.162090  0.163790  0.425860  1.0  0.728
  C  C241  1  0.996600  0.011140  0.895360  1.0  0.0625
  C  C242  1  0.066750  0.030480  0.914280  1.0  -0.1217
  C  C243  1  0.073090  0.067210  0.958170  1.0  0.0316
  C  C244  1  0.007750  0.088090  0.983890  1.0  -0.1194
  C  C245  1  0.935830  0.070260  0.966620  1.0  0.0202
  C  C246  1  0.930180  0.031710  0.922280  1.0  -0.1297
  C  C247  1  0.989580  0.970020  0.847120  1.0  0.0237
  C  C248  1  0.939190  0.927270  0.852390  1.0  -0.1333
  C  C249  1  0.932790  0.888100  0.807860  1.0  -0.0533
  C  C250  1  0.978660  0.891680  0.757470  1.0  -0.1249
  C  C251  1  0.030920  0.935740  0.750530  1.0  -0.0812
  C  C252  1  0.036680  0.972360  0.797850  1.0  -0.0968
  C  C253  1  0.972680  0.850690  0.706820  1.0  0.7392
  C  C254  1  0.149970  0.085820  0.980550  1.0  0.0854
  C  C255  1  0.212310  0.051390  0.979290  1.0  -0.1399
  C  C256  1  0.284580  0.069090  0.998760  1.0  -0.0553
  C  C257  1  0.294870  0.120580  0.020600  1.0  -0.1382
  C  C258  1  0.232920  0.154710  0.021440  1.0  -0.0329
  C  C259  1  0.162660  0.138520  0.001390  1.0  -0.125
  C  C260  1  0.373450  0.139140  0.041100  1.0  0.699
  C  C261  1  0.863890  0.091220  0.996330  1.0  0.0671
  C  C262  1  0.864020  0.114710  0.052550  1.0  -0.1383
  C  C263  1  0.799910  0.136930  0.076920  1.0  -0.0504
  C  C264  1  0.731140  0.138030  0.046400  1.0  -0.1157
  C  C265  1  0.729440  0.114120  0.989680  1.0  -0.0823
  C  C266  1  0.794940  0.093190  0.964810  1.0  -0.1286
  C  C267  1  0.662090  0.163790  0.074140  1.0  0.7282
  C  C268  1  0.503400  0.988860  0.395360  1.0  0.0632
  C  C269  1  0.433250  0.969520  0.414280  1.0  -0.1244
  C  C270  1  0.426910  0.932790  0.458170  1.0  0.0299
  C  C271  1  0.492250  0.911910  0.483890  1.0  -0.1195
  C  C272  1  0.564170  0.929740  0.466620  1.0  0.0216
  C  C273  1  0.569820  0.968290  0.422280  1.0  -0.1295
  C  C274  1  0.510420  0.029980  0.347120  1.0  0.0218
  C  C275  1  0.560810  0.072730  0.352390  1.0  -0.1323
  C  C276  1  0.567210  0.111900  0.307860  1.0  -0.0537
  C  C277  1  0.521340  0.108320  0.257470  1.0  -0.1245
  C  C278  1  0.469080  0.064260  0.250530  1.0  -0.0805
  C  C279  1  0.463320  0.027640  0.297850  1.0  -0.0947
  C  C280  1  0.527320  0.149310  0.206820  1.0  0.7396
  C  C281  1  0.350030  0.914180  0.480550  1.0  0.0863
  C  C282  1  0.287690  0.948610  0.479290  1.0  -0.1407
  C  C283  1  0.215420  0.930910  0.498760  1.0  -0.0552
  C  C284  1  0.205130  0.879420  0.520600  1.0  -0.1391
  C  C285  1  0.267080  0.845290  0.521440  1.0  -0.0322
  C  C286  1  0.337340  0.861480  0.501390  1.0  -0.1231
  C  C287  1  0.126550  0.860860  0.541100  1.0  0.7006
  C  C288  1  0.636110  0.908780  0.496330  1.0  0.066
  C  C289  1  0.635980  0.885290  0.552550  1.0  -0.1369
  C  C290  1  0.700090  0.863070  0.576920  1.0  -0.05
  C  C291  1  0.768860  0.861970  0.546400  1.0  -0.1163
  C  C292  1  0.770560  0.885880  0.489680  1.0  -0.081
  C  C293  1  0.705060  0.906810  0.464810  1.0  -0.131
  C  C294  1  0.837910  0.836210  0.574140  1.0  0.728
  C  C295  1  0.996600  0.488860  0.895360  1.0  0.0625
  C  C296  1  0.066750  0.469520  0.914280  1.0  -0.1228
  C  C297  1  0.073090  0.432790  0.958170  1.0  0.0312
  C  C298  1  0.007750  0.411910  0.983890  1.0  -0.1193
  C  C299  1  0.935830  0.429740  0.966620  1.0  0.0223
  C  C300  1  0.930180  0.468290  0.922280  1.0  -0.1299
  C  C301  1  0.989580  0.529980  0.847120  1.0  0.0218
  C  C302  1  0.939190  0.572730  0.852390  1.0  -0.1329
  C  C303  1  0.932790  0.611900  0.807860  1.0  -0.0544
  C  C304  1  0.978660  0.608320  0.757470  1.0  -0.1245
  C  C305  1  0.030920  0.564260  0.750530  1.0  -0.0817
  C  C306  1  0.036680  0.527640  0.797850  1.0  -0.0958
  C  C307  1  0.972680  0.649310  0.706820  1.0  0.7399
  C  C308  1  0.149970  0.414180  0.980550  1.0  0.0863
  C  C309  1  0.212310  0.448610  0.979290  1.0  -0.1405
  C  C310  1  0.284580  0.430910  0.998760  1.0  -0.0557
  C  C311  1  0.294870  0.379420  0.020600  1.0  -0.1382
  C  C312  1  0.232920  0.345290  0.021440  1.0  -0.033
  C  C313  1  0.162660  0.361480  0.001390  1.0  -0.1248
  C  C314  1  0.373450  0.360860  0.041100  1.0  0.6988
  C  C315  1  0.863890  0.408780  0.996330  1.0  0.0667
  C  C316  1  0.864020  0.385290  0.052550  1.0  -0.1381
  C  C317  1  0.799910  0.363070  0.076920  1.0  -0.0495
  C  C318  1  0.731140  0.361970  0.046400  1.0  -0.1172
  C  C319  1  0.729440  0.385880  0.989680  1.0  -0.0816
  C  C320  1  0.794940  0.406810  0.964810  1.0  -0.1288
  C  C321  1  0.662090  0.336210  0.074140  1.0  0.728
  C  C322  1  0.503400  0.511140  0.395360  1.0  0.0632
  C  C323  1  0.433250  0.530480  0.414280  1.0  -0.1242
  C  C324  1  0.426910  0.567210  0.458170  1.0  0.03
  C  C325  1  0.492250  0.588090  0.483890  1.0  -0.1194
  C  C326  1  0.564170  0.570260  0.466620  1.0  0.0201
  C  C327  1  0.569820  0.531710  0.422280  1.0  -0.1294
  C  C328  1  0.510420  0.470020  0.347120  1.0  0.0234
  C  C329  1  0.560810  0.427270  0.352390  1.0  -0.1321
  C  C330  1  0.567210  0.388100  0.307860  1.0  -0.0539
  C  C331  1  0.521340  0.391680  0.257470  1.0  -0.1249
  C  C332  1  0.469080  0.435740  0.250530  1.0  -0.0801
  C  C333  1  0.463320  0.472360  0.297850  1.0  -0.0964
  C  C334  1  0.527320  0.350690  0.206820  1.0  0.7388
  C  C335  1  0.350030  0.585820  0.480550  1.0  0.0856
  C  C336  1  0.287690  0.551390  0.479290  1.0  -0.1393
  C  C337  1  0.215420  0.569090  0.498760  1.0  -0.0541
  C  C338  1  0.205130  0.620580  0.520600  1.0  -0.1384
  C  C339  1  0.267080  0.654710  0.521440  1.0  -0.033
  C  C340  1  0.337340  0.638520  0.501390  1.0  -0.1239
  C  C341  1  0.126550  0.639140  0.541100  1.0  0.7006
  C  C342  1  0.636110  0.591220  0.496330  1.0  0.0668
  C  C343  1  0.635980  0.614710  0.552550  1.0  -0.137
  C  C344  1  0.700090  0.636930  0.576920  1.0  -0.0507
  C  C345  1  0.768860  0.638030  0.546400  1.0  -0.116
  C  C346  1  0.770560  0.614120  0.489680  1.0  -0.0807
  C  C347  1  0.705060  0.593190  0.464810  1.0  -0.1309
  C  C348  1  0.837910  0.663790  0.574140  1.0  0.7284
  O  O349  1  0.063800  0.309600  0.280240  1.0  -0.6049
  O  O350  1  0.996140  0.363000  0.341220  1.0  -0.5917
  O  O351  1  0.571320  0.612300  0.969100  1.0  -0.5308
  O  O352  1  0.622180  0.680780  0.932600  1.0  -0.5291
  O  O353  1  0.329320  0.691670  0.881780  1.0  -0.5873
  O  O354  1  0.401870  0.655750  0.953470  1.0  -0.5887
  O  O355  1  0.436200  0.690400  0.780240  1.0  -0.6033
  O  O356  1  0.503860  0.637000  0.841220  1.0  -0.5918
  O  O357  1  0.928680  0.387700  0.469100  1.0  -0.5318
  O  O358  1  0.877820  0.319220  0.432600  1.0  -0.5298
  O  O359  1  0.170680  0.308330  0.381780  1.0  -0.5865
  O  O360  1  0.098130  0.344250  0.453470  1.0  -0.5886
  O  O361  1  0.063800  0.190400  0.280240  1.0  -0.6037
  O  O362  1  0.996140  0.137000  0.341220  1.0  -0.5916
  O  O363  1  0.571320  0.887700  0.969100  1.0  -0.5305
  O  O364  1  0.622180  0.819220  0.932600  1.0  -0.5297
  O  O365  1  0.329320  0.808330  0.881780  1.0  -0.5869
  O  O366  1  0.401870  0.844250  0.953470  1.0  -0.5886
  O  O367  1  0.436200  0.809600  0.780240  1.0  -0.6043
  O  O368  1  0.503860  0.863000  0.841220  1.0  -0.5919
  O  O369  1  0.928680  0.112300  0.469100  1.0  -0.5326
  O  O370  1  0.877820  0.180780  0.432600  1.0  -0.5292
  O  O371  1  0.170680  0.191670  0.381780  1.0  -0.587
  O  O372  1  0.098130  0.155750  0.453470  1.0  -0.5887
  O  O373  1  0.011090  0.250000  0.384210  1.0  -0.7817
  O  O374  1  0.488910  0.750000  0.884210  1.0  -0.7809
  O  O375  1  0.936200  0.809600  0.719760  1.0  -0.6039
  O  O376  1  0.003860  0.863000  0.658780  1.0  -0.5915
  O  O377  1  0.428680  0.112300  0.030900  1.0  -0.5316
  O  O378  1  0.377820  0.180780  0.067400  1.0  -0.5299
  O  O379  1  0.670680  0.191670  0.118220  1.0  -0.5871
  O  O380  1  0.598130  0.155750  0.046530  1.0  -0.591
  O  O381  1  0.563800  0.190400  0.219760  1.0  -0.6033
  O  O382  1  0.496140  0.137000  0.158780  1.0  -0.591
  O  O383  1  0.071320  0.887700  0.530900  1.0  -0.5304
  O  O384  1  0.122180  0.819220  0.567400  1.0  -0.5277
  O  O385  1  0.829320  0.808330  0.618220  1.0  -0.5864
  O  O386  1  0.901870  0.844250  0.546530  1.0  -0.5916
  O  O387  1  0.936200  0.690400  0.719760  1.0  -0.6028
  O  O388  1  0.003860  0.637000  0.658780  1.0  -0.5915
  O  O389  1  0.428680  0.387700  0.030900  1.0  -0.5315
  O  O390  1  0.377820  0.319220  0.067400  1.0  -0.5292
  O  O391  1  0.670680  0.308330  0.118220  1.0  -0.5864
  O  O392  1  0.598130  0.344250  0.046530  1.0  -0.5908
  O  O393  1  0.563800  0.309600  0.219760  1.0  -0.6047
  O  O394  1  0.496140  0.363000  0.158780  1.0  -0.5907
  O  O395  1  0.071320  0.612300  0.530900  1.0  -0.5302
  O  O396  1  0.122180  0.680780  0.567400  1.0  -0.5284
  O  O397  1  0.829320  0.691670  0.618220  1.0  -0.5869
  O  O398  1  0.901870  0.655750  0.546530  1.0  -0.592
  O  O399  1  0.988910  0.750000  0.615790  1.0  -0.7806
  O  O400  1  0.511090  0.250000  0.115790  1.0  -0.7813
