# generated using pymatgen
data_FeH2(CO2)2
_symmetry_space_group_name_H-M   'P 1'
_cell_length_a   10.15680000
_cell_length_b   11.50080000
_cell_length_c   15.28300000
_cell_angle_alpha   90.94640000
_cell_angle_beta   90.00000000
_cell_angle_gamma   90.00000000
_symmetry_Int_Tables_number   1
_chemical_formula_structural   FeH2(CO2)2
_chemical_formula_sum   'Fe12 H24 C24 O48'
_cell_volume   1784.98395366
_cell_formula_units_Z   12
loop_
 _symmetry_equiv_pos_site_id
 _symmetry_equiv_pos_as_xyz
  1  'x, y, z'
loop_
 _atom_site_type_symbol
 _atom_site_label
 _atom_site_symmetry_multiplicity
 _atom_site_fract_x
 _atom_site_fract_y
 _atom_site_fract_z
 _atom_site_occupancy
 _atom_site_charge
  Fe  Fe1  1  0.931550  0.754150  0.134290  1.0  1.0426
  Fe  Fe2  1  0.870950  0.259450  0.699000  1.0  1.0526
  Fe  Fe3  1  0.431550  0.745850  0.365710  1.0  1.0427
  Fe  Fe4  1  0.370950  0.240550  0.801000  1.0  1.0525
  Fe  Fe5  1  0.068450  0.245850  0.865710  1.0  1.0423
  Fe  Fe6  1  0.129050  0.740550  0.301000  1.0  1.0526
  Fe  Fe7  1  0.568450  0.254150  0.634290  1.0  1.0422
  Fe  Fe8  1  0.629050  0.759450  0.199000  1.0  1.0527
  Fe  Fe9  1  0.000000  0.500000  0.000000  1.0  1.0904
  Fe  Fe10  1  0.500000  0.000000  0.500000  1.0  1.0904
  Fe  Fe11  1  0.000000  0.000000  0.000000  1.0  1.1031
  Fe  Fe12  1  0.500000  0.500000  0.500000  1.0  1.1031
  H  H13  1  0.784000  0.845200  0.370200  1.0  0.0189
  H  H14  1  0.066000  0.480000  0.251000  1.0  0.0066
  H  H15  1  0.632000  0.543000  0.069000  1.0  0.0155
  H  H16  1  0.234000  0.962000  0.206000  1.0  0.0114
  H  H17  1  0.123000  0.698000  0.913000  1.0  0.0218
  H  H18  1  0.722000  0.998800  0.030800  1.0  0.013
  H  H19  1  0.284000  0.654800  0.129800  1.0  0.019
  H  H20  1  0.566000  0.020000  0.249000  1.0  0.0053
  H  H21  1  0.132000  0.957000  0.431000  1.0  0.0159
  H  H22  1  0.734000  0.538000  0.294000  1.0  0.0112
  H  H23  1  0.623000  0.802000  0.587000  1.0  0.0225
  H  H24  1  0.222000  0.501200  0.469200  1.0  0.0131
  H  H25  1  0.216000  0.154800  0.629800  1.0  0.0182
  H  H26  1  0.934000  0.520000  0.749000  1.0  0.0057
  H  H27  1  0.368000  0.457000  0.931000  1.0  0.0165
  H  H28  1  0.766000  0.038000  0.794000  1.0  0.0102
  H  H29  1  0.877000  0.302000  0.087000  1.0  0.0225
  H  H30  1  0.278000  0.001200  0.969200  1.0  0.0143
  H  H31  1  0.716000  0.345200  0.870200  1.0  0.0181
  H  H32  1  0.434000  0.980000  0.751000  1.0  0.0067
  H  H33  1  0.868000  0.043000  0.569000  1.0  0.0156
  H  H34  1  0.266000  0.462000  0.706000  1.0  0.0105
  H  H35  1  0.377000  0.198000  0.413000  1.0  0.0224
  H  H36  1  0.778000  0.498800  0.530800  1.0  0.0147
  C  C37  1  0.851800  0.822850  0.328750  1.0  0.6629
  C  C38  1  0.042700  0.520600  0.201600  1.0  0.6879
  C  C39  1  0.724100  0.565000  0.071100  1.0  0.6701
  C  C40  1  0.157100  0.939600  0.168000  1.0  0.6456
  C  C41  1  0.080200  0.741700  0.960800  1.0  0.6633
  C  C42  1  0.736400  0.935040  0.069440  1.0  0.6763
  C  C43  1  0.351800  0.677150  0.171250  1.0  0.6637
  C  C44  1  0.542700  0.979400  0.298400  1.0  0.6884
  C  C45  1  0.224100  0.935000  0.428900  1.0  0.6693
  C  C46  1  0.657100  0.560400  0.332000  1.0  0.6455
  C  C47  1  0.580200  0.758300  0.539200  1.0  0.6636
  C  C48  1  0.236400  0.564960  0.430560  1.0  0.6761
  C  C49  1  0.148200  0.177150  0.671250  1.0  0.6641
  C  C50  1  0.957300  0.479400  0.798400  1.0  0.6872
  C  C51  1  0.275900  0.435000  0.928900  1.0  0.6683
  C  C52  1  0.842900  0.060400  0.832000  1.0  0.645
  C  C53  1  0.919800  0.258300  0.039200  1.0  0.6645
  C  C54  1  0.263600  0.064960  0.930560  1.0  0.6749
  C  C55  1  0.648200  0.322850  0.828750  1.0  0.6636
  C  C56  1  0.457300  0.020600  0.701600  1.0  0.6884
  C  C57  1  0.775900  0.065000  0.571100  1.0  0.6695
  C  C58  1  0.342900  0.439600  0.668000  1.0  0.6446
  C  C59  1  0.419800  0.241700  0.460800  1.0  0.6647
  C  C60  1  0.763600  0.435040  0.569440  1.0  0.6751
  O  O61  1  0.818780  0.804290  0.250040  1.0  -0.6319
  O  O62  1  0.962500  0.809410  0.360210  1.0  -0.5678
  O  O63  1  0.024280  0.628210  0.212210  1.0  -0.6481
  O  O64  1  0.030800  0.463590  0.133590  1.0  -0.5823
  O  O65  1  0.755960  0.651420  0.119620  1.0  -0.639
  O  O66  1  0.797260  0.509440  0.021240  1.0  -0.5827
  O  O67  1  0.097410  0.847250  0.188250  1.0  -0.6395
  O  O68  1  0.132000  0.003560  0.106660  1.0  -0.5717
  O  O69  1  0.019510  0.686390  0.020390  1.0  -0.6315
  O  O70  1  0.088000  0.848300  0.954000  1.0  -0.5825
  O  O71  1  0.855050  0.900060  0.071060  1.0  -0.6308
  O  O72  1  0.642090  0.894040  0.109940  1.0  -0.5782
  O  O73  1  0.318780  0.695710  0.249960  1.0  -0.6317
  O  O74  1  0.462500  0.690590  0.139790  1.0  -0.5685
  O  O75  1  0.524280  0.871790  0.287790  1.0  -0.6477
  O  O76  1  0.530800  0.036410  0.366410  1.0  -0.5815
  O  O77  1  0.255960  0.848580  0.380380  1.0  -0.6383
  O  O78  1  0.297260  0.990560  0.478760  1.0  -0.5816
  O  O79  1  0.597410  0.652750  0.311750  1.0  -0.6396
  O  O80  1  0.632000  0.496440  0.393340  1.0  -0.5723
  O  O81  1  0.519510  0.813610  0.479610  1.0  -0.6316
  O  O82  1  0.588000  0.651700  0.546000  1.0  -0.5832
  O  O83  1  0.355050  0.599940  0.428940  1.0  -0.6308
  O  O84  1  0.142090  0.605960  0.390060  1.0  -0.5777
  O  O85  1  0.181220  0.195710  0.749960  1.0  -0.6321
  O  O86  1  0.037500  0.190590  0.639790  1.0  -0.5675
  O  O87  1  0.975720  0.371790  0.787790  1.0  -0.6476
  O  O88  1  0.969200  0.536410  0.866410  1.0  -0.5818
  O  O89  1  0.244040  0.348580  0.880380  1.0  -0.638
  O  O90  1  0.202740  0.490560  0.978760  1.0  -0.5819
  O  O91  1  0.902590  0.152750  0.811750  1.0  -0.6394
  O  O92  1  0.868000  0.996440  0.893340  1.0  -0.5719
  O  O93  1  0.980490  0.313610  0.979610  1.0  -0.6324
  O  O94  1  0.912000  0.151700  0.046000  1.0  -0.5828
  O  O95  1  0.144950  0.099940  0.928940  1.0  -0.6311
  O  O96  1  0.357910  0.105960  0.890060  1.0  -0.5779
  O  O97  1  0.681220  0.304290  0.750040  1.0  -0.6326
  O  O98  1  0.537500  0.309410  0.860210  1.0  -0.5672
  O  O99  1  0.475720  0.128210  0.712210  1.0  -0.6476
  O  O100  1  0.469200  0.963590  0.633590  1.0  -0.5822
  O  O101  1  0.744040  0.151420  0.619620  1.0  -0.6387
  O  O102  1  0.702740  0.009440  0.521240  1.0  -0.5823
  O  O103  1  0.402590  0.347250  0.688250  1.0  -0.6394
  O  O104  1  0.368000  0.503560  0.606660  1.0  -0.5715
  O  O105  1  0.480490  0.186390  0.520390  1.0  -0.6321
  O  O106  1  0.412000  0.348300  0.454000  1.0  -0.5817
  O  O107  1  0.644950  0.400060  0.571060  1.0  -0.631
  O  O108  1  0.857910  0.394040  0.609940  1.0  -0.5782
