# generated using pymatgen
data_FeH2(CO2)2
_symmetry_space_group_name_H-M   'P 1'
_cell_length_a   11.35940000
_cell_length_b   9.81770000
_cell_length_c   18.37240000
_cell_angle_alpha   90.00000000
_cell_angle_beta   126.93100000
_cell_angle_gamma   90.00000000
_symmetry_Int_Tables_number   1
_chemical_formula_structural   FeH2(CO2)2
_chemical_formula_sum   'Fe12 H24 C24 O48'
_cell_volume   1637.84682121
_cell_formula_units_Z   12
loop_
 _symmetry_equiv_pos_site_id
 _symmetry_equiv_pos_as_xyz
  1  'x, y, z'
loop_
 _atom_site_type_symbol
 _atom_site_label
 _atom_site_symmetry_multiplicity
 _atom_site_fract_x
 _atom_site_fract_y
 _atom_site_fract_z
 _atom_site_occupancy
 _atom_site_charge
  Fe  Fe1  1  0.377690  0.084950  0.133110  1.0  1.0773
  Fe  Fe2  1  0.425850  0.102270  0.686920  1.0  1.0524
  Fe  Fe3  1  0.622310  0.584950  0.366890  1.0  1.0744
  Fe  Fe4  1  0.574150  0.602270  0.813080  1.0  1.0519
  Fe  Fe5  1  0.622310  0.915050  0.866890  1.0  1.0744
  Fe  Fe6  1  0.574150  0.897730  0.313080  1.0  1.0517
  Fe  Fe7  1  0.377690  0.415050  0.633110  1.0  1.0773
  Fe  Fe8  1  0.425850  0.397730  0.186920  1.0  1.0525
  Fe  Fe9  1  0.500000  0.000000  0.000000  1.0  1.0823
  Fe  Fe10  1  0.500000  0.500000  0.500000  1.0  1.0823
  Fe  Fe11  1  0.000000  0.000000  0.000000  1.0  1.0424
  Fe  Fe12  1  0.000000  0.500000  0.500000  1.0  1.0424
  H  H13  1  0.497000  0.250900  0.364600  1.0  0.0036
  H  H14  1  0.791300  0.971400  0.264600  1.0  0.0406
  H  H15  1  0.481400  0.386800  0.038100  1.0  0.0111
  H  H16  1  0.248700  0.815700  0.232700  1.0  0.0147
  H  H17  1  0.228300  0.841300  0.929300  1.0  0.0363
  H  H18  1  0.014400  0.301100  0.007300  1.0  0.0269
  H  H19  1  0.503000  0.750900  0.135400  1.0  0.0036
  H  H20  1  0.208700  0.471400  0.235400  1.0  0.0424
  H  H21  1  0.518600  0.886800  0.461900  1.0  0.0113
  H  H22  1  0.751300  0.315700  0.267300  1.0  0.0135
  H  H23  1  0.771700  0.341300  0.570700  1.0  0.0359
  H  H24  1  0.985600  0.801100  0.492700  1.0  0.0267
  H  H25  1  0.503000  0.749100  0.635400  1.0  0.0041
  H  H26  1  0.208700  0.028600  0.735400  1.0  0.0426
  H  H27  1  0.518600  0.613200  0.961900  1.0  0.0116
  H  H28  1  0.751300  0.184300  0.767300  1.0  0.0139
  H  H29  1  0.771700  0.158700  0.070700  1.0  0.0353
  H  H30  1  0.985600  0.698900  0.992700  1.0  0.0277
  H  H31  1  0.497000  0.249100  0.864600  1.0  0.004
  H  H32  1  0.791300  0.528600  0.764600  1.0  0.0406
  H  H33  1  0.481400  0.113200  0.538100  1.0  0.0112
  H  H34  1  0.248700  0.684300  0.732700  1.0  0.0145
  H  H35  1  0.228300  0.658700  0.429300  1.0  0.036
  H  H36  1  0.014400  0.198900  0.507300  1.0  0.0273
  C  C37  1  0.494900  0.179800  0.328800  1.0  0.7015
  C  C38  1  0.695200  0.991100  0.211300  1.0  0.6748
  C  C39  1  0.473100  0.292900  0.046800  1.0  0.676
  C  C40  1  0.232600  0.874300  0.186400  1.0  0.6947
  C  C41  1  0.225100  0.897600  0.970100  1.0  0.7185
  C  C42  1  0.116800  0.283100  0.049500  1.0  0.6847
  C  C43  1  0.505100  0.679800  0.171200  1.0  0.7009
  C  C44  1  0.304800  0.491100  0.288700  1.0  0.6724
  C  C45  1  0.526900  0.792900  0.453200  1.0  0.6758
  C  C46  1  0.767400  0.374300  0.313600  1.0  0.6935
  C  C47  1  0.774900  0.397600  0.529900  1.0  0.7187
  C  C48  1  0.883200  0.783100  0.450500  1.0  0.6847
  C  C49  1  0.505100  0.820200  0.671200  1.0  0.7022
  C  C50  1  0.304800  0.008900  0.788700  1.0  0.6716
  C  C51  1  0.526900  0.707100  0.953200  1.0  0.6763
  C  C52  1  0.767400  0.125700  0.813600  1.0  0.6935
  C  C53  1  0.774900  0.102400  0.029900  1.0  0.7182
  C  C54  1  0.883200  0.716900  0.950500  1.0  0.6845
  C  C55  1  0.494900  0.320200  0.828800  1.0  0.7022
  C  C56  1  0.695200  0.508900  0.711300  1.0  0.6743
  C  C57  1  0.473100  0.207100  0.546800  1.0  0.6756
  C  C58  1  0.232600  0.625700  0.686400  1.0  0.6948
  C  C59  1  0.225100  0.602400  0.470100  1.0  0.7182
  C  C60  1  0.116800  0.216900  0.549500  1.0  0.6848
  O  O61  1  0.434700  0.207200  0.245570  1.0  -0.6328
  O  O62  1  0.550700  0.070300  0.367660  1.0  -0.5746
  O  O63  1  0.592100  0.003200  0.220000  1.0  -0.6589
  O  O64  1  0.679400  0.003000  0.138660  1.0  -0.6071
  O  O65  1  0.454400  0.263000  0.106850  1.0  -0.6508
  O  O66  1  0.481300  0.211200  0.999070  1.0  -0.5739
  O  O67  1  0.346100  0.921300  0.196410  1.0  -0.661
  O  O68  1  0.102200  0.898500  0.120940  1.0  -0.6162
  O  O69  1  0.337300  0.975400  0.023660  1.0  -0.6383
  O  O70  1  0.114900  0.890200  0.967610  1.0  -0.6056
  O  O71  1  0.158900  0.157800  0.059390  1.0  -0.671
  O  O72  1  0.199600  0.381700  0.090780  1.0  -0.5826
  O  O73  1  0.565300  0.707200  0.254430  1.0  -0.6312
  O  O74  1  0.449300  0.570300  0.132340  1.0  -0.5764
  O  O75  1  0.407900  0.503200  0.280000  1.0  -0.6601
  O  O76  1  0.320600  0.503000  0.361340  1.0  -0.6069
  O  O77  1  0.545600  0.763000  0.393150  1.0  -0.6506
  O  O78  1  0.518700  0.711200  0.500930  1.0  -0.5738
  O  O79  1  0.653900  0.421300  0.303590  1.0  -0.6619
  O  O80  1  0.897800  0.398500  0.379060  1.0  -0.6162
  O  O81  1  0.662700  0.475400  0.476340  1.0  -0.6368
  O  O82  1  0.885100  0.390200  0.532390  1.0  -0.606
  O  O83  1  0.841100  0.657800  0.440610  1.0  -0.6702
  O  O84  1  0.800400  0.881700  0.409220  1.0  -0.5816
  O  O85  1  0.565300  0.792800  0.754430  1.0  -0.6314
  O  O86  1  0.449300  0.929700  0.632340  1.0  -0.5757
  O  O87  1  0.407900  0.996800  0.780000  1.0  -0.6599
  O  O88  1  0.320600  0.997000  0.861340  1.0  -0.6065
  O  O89  1  0.545600  0.737000  0.893150  1.0  -0.6501
  O  O90  1  0.518700  0.788800  0.000930  1.0  -0.5738
  O  O91  1  0.653900  0.078700  0.803590  1.0  -0.6619
  O  O92  1  0.897800  0.101500  0.879060  1.0  -0.616
  O  O93  1  0.662700  0.024600  0.976340  1.0  -0.6371
  O  O94  1  0.885100  0.109800  0.032390  1.0  -0.6064
  O  O95  1  0.841100  0.842200  0.940610  1.0  -0.6701
  O  O96  1  0.800400  0.618300  0.909220  1.0  -0.5833
  O  O97  1  0.434700  0.292800  0.745570  1.0  -0.6329
  O  O98  1  0.550700  0.429700  0.867660  1.0  -0.5749
  O  O99  1  0.592100  0.496800  0.720000  1.0  -0.659
  O  O100  1  0.679400  0.497000  0.638660  1.0  -0.607
  O  O101  1  0.454400  0.237000  0.606850  1.0  -0.6507
  O  O102  1  0.481300  0.288800  0.499070  1.0  -0.5742
  O  O103  1  0.346100  0.578700  0.696410  1.0  -0.6611
  O  O104  1  0.102200  0.601500  0.620940  1.0  -0.6162
  O  O105  1  0.337300  0.524600  0.523660  1.0  -0.6381
  O  O106  1  0.114900  0.609800  0.467610  1.0  -0.6055
  O  O107  1  0.158900  0.342200  0.559390  1.0  -0.6702
  O  O108  1  0.199600  0.118300  0.590780  1.0  -0.5827
