# generated using pymatgen
data_FeH2(CO2)2
_symmetry_space_group_name_H-M   'P 1'
_cell_length_a   11.41980000
_cell_length_b   9.89790000
_cell_length_c   18.43920000
_cell_angle_alpha   90.00000000
_cell_angle_beta   126.85300000
_cell_angle_gamma   90.00000000
_symmetry_Int_Tables_number   1
_chemical_formula_structural   FeH2(CO2)2
_chemical_formula_sum   'Fe12 H24 C24 O48'
_cell_volume   1667.74502416
_cell_formula_units_Z   12
loop_
 _symmetry_equiv_pos_site_id
 _symmetry_equiv_pos_as_xyz
  1  'x, y, z'
loop_
 _atom_site_type_symbol
 _atom_site_label
 _atom_site_symmetry_multiplicity
 _atom_site_fract_x
 _atom_site_fract_y
 _atom_site_fract_z
 _atom_site_occupancy
 _atom_site_charge
  Fe  Fe1  1  0.377250  0.082160  0.132970  1.0  1.0682
  Fe  Fe2  1  0.427810  0.106700  0.688330  1.0  1.0649
  Fe  Fe3  1  0.622750  0.582160  0.367030  1.0  1.0646
  Fe  Fe4  1  0.572190  0.606700  0.811670  1.0  1.0636
  Fe  Fe5  1  0.622750  0.917840  0.867030  1.0  1.0645
  Fe  Fe6  1  0.572190  0.893300  0.311670  1.0  1.0638
  Fe  Fe7  1  0.377250  0.417840  0.632970  1.0  1.068
  Fe  Fe8  1  0.427810  0.393300  0.188330  1.0  1.0652
  Fe  Fe9  1  0.500000  0.000000  0.000000  1.0  1.0919
  Fe  Fe10  1  0.500000  0.500000  0.500000  1.0  1.0919
  Fe  Fe11  1  0.000000  0.000000  0.000000  1.0  1.0563
  Fe  Fe12  1  0.000000  0.500000  0.500000  1.0  1.0563
  H  H13  1  0.498700  0.241300  0.364900  1.0  0.004
  H  H14  1  0.784400  0.965900  0.261300  1.0  0.0125
  H  H15  1  0.481700  0.380800  0.041000  1.0  0.009
  H  H16  1  0.246800  0.810100  0.226500  1.0  0.0036
  H  H17  1  0.224900  0.851000  0.926700  1.0  0.0061
  H  H18  1  0.020000  0.298700  0.013800  1.0  0.0123
  H  H19  1  0.501300  0.741300  0.135100  1.0  0.0038
  H  H20  1  0.215600  0.465900  0.238700  1.0  0.0146
  H  H21  1  0.518300  0.880800  0.459000  1.0  0.0089
  H  H22  1  0.753200  0.310100  0.273500  1.0  0.0016
  H  H23  1  0.775100  0.351000  0.573300  1.0  0.0065
  H  H24  1  0.980000  0.798700  0.486200  1.0  0.0137
  H  H25  1  0.501300  0.758700  0.635100  1.0  0.0049
  H  H26  1  0.215600  0.034100  0.738700  1.0  0.0146
  H  H27  1  0.518300  0.619200  0.959000  1.0  0.0094
  H  H28  1  0.753200  0.189900  0.773500  1.0  0.0017
  H  H29  1  0.775100  0.149000  0.073300  1.0  0.0059
  H  H30  1  0.980000  0.701300  0.986200  1.0  0.0144
  H  H31  1  0.498700  0.258700  0.864900  1.0  0.004
  H  H32  1  0.784400  0.534100  0.761300  1.0  0.0126
  H  H33  1  0.481700  0.119200  0.541000  1.0  0.0091
  H  H34  1  0.246800  0.689900  0.726500  1.0  0.0028
  H  H35  1  0.224900  0.649000  0.426700  1.0  0.0058
  H  H36  1  0.020000  0.201300  0.513800  1.0  0.0131
  C  C37  1  0.496200  0.173500  0.329200  1.0  0.7239
  C  C38  1  0.691300  0.986500  0.209600  1.0  0.6652
  C  C39  1  0.474200  0.289400  0.049200  1.0  0.6935
  C  C40  1  0.231900  0.870300  0.182900  1.0  0.7164
  C  C41  1  0.223900  0.902900  0.968300  1.0  0.7325
  C  C42  1  0.119600  0.280300  0.053200  1.0  0.6884
  C  C43  1  0.503800  0.673500  0.170800  1.0  0.7234
  C  C44  1  0.308700  0.486500  0.290400  1.0  0.6657
  C  C45  1  0.525800  0.789400  0.450800  1.0  0.6942
  C  C46  1  0.768100  0.370300  0.317100  1.0  0.7151
  C  C47  1  0.776100  0.402900  0.531700  1.0  0.7323
  C  C48  1  0.880400  0.780300  0.446800  1.0  0.689
  C  C49  1  0.503800  0.826500  0.670800  1.0  0.7249
  C  C50  1  0.308700  0.013500  0.790400  1.0  0.6635
  C  C51  1  0.525800  0.710600  0.950800  1.0  0.6941
  C  C52  1  0.768100  0.129700  0.817100  1.0  0.7144
  C  C53  1  0.776100  0.097100  0.031700  1.0  0.7318
  C  C54  1  0.880400  0.719700  0.946800  1.0  0.6893
  C  C55  1  0.496200  0.326500  0.829200  1.0  0.7247
  C  C56  1  0.691300  0.513500  0.709600  1.0  0.6657
  C  C57  1  0.474200  0.210600  0.549200  1.0  0.6935
  C  C58  1  0.231900  0.629700  0.682900  1.0  0.7162
  C  C59  1  0.223900  0.597100  0.468300  1.0  0.7322
  C  C60  1  0.119600  0.219700  0.553200  1.0  0.6885
  O  O61  1  0.437100  0.202800  0.246300  1.0  -0.6542
  O  O62  1  0.549700  0.064300  0.365790  1.0  -0.5833
  O  O63  1  0.589500  0.998400  0.218400  1.0  -0.6603
  O  O64  1  0.676300  0.999900  0.137930  1.0  -0.604
  O  O65  1  0.454700  0.259400  0.107450  1.0  -0.6495
  O  O66  1  0.484300  0.209800  0.001710  1.0  -0.5669
  O  O67  1  0.345300  0.918600  0.195480  1.0  -0.6746
  O  O68  1  0.104700  0.894500  0.119530  1.0  -0.592
  O  O69  1  0.336500  0.975400  0.022780  1.0  -0.6317
  O  O70  1  0.114700  0.895500  0.965800  1.0  -0.609
  O  O71  1  0.159700  0.155800  0.060760  1.0  -0.673
  O  O72  1  0.203300  0.377000  0.094320  1.0  -0.5746
  O  O73  1  0.562900  0.702800  0.253700  1.0  -0.6537
  O  O74  1  0.450300  0.564300  0.134210  1.0  -0.5854
  O  O75  1  0.410500  0.498400  0.281600  1.0  -0.6618
  O  O76  1  0.323700  0.499900  0.362070  1.0  -0.6022
  O  O77  1  0.545300  0.759400  0.392550  1.0  -0.6482
  O  O78  1  0.515700  0.709800  0.498290  1.0  -0.5668
  O  O79  1  0.654700  0.418600  0.304520  1.0  -0.6746
  O  O80  1  0.895300  0.394500  0.380470  1.0  -0.5939
  O  O81  1  0.663500  0.475400  0.477220  1.0  -0.6319
  O  O82  1  0.885300  0.395500  0.534200  1.0  -0.6106
  O  O83  1  0.840300  0.655800  0.439240  1.0  -0.6725
  O  O84  1  0.796700  0.877000  0.405680  1.0  -0.5727
  O  O85  1  0.562900  0.797200  0.753700  1.0  -0.6538
  O  O86  1  0.450300  0.935700  0.634210  1.0  -0.584
  O  O87  1  0.410500  0.001600  0.781600  1.0  -0.6617
  O  O88  1  0.323700  0.000100  0.862070  1.0  -0.6016
  O  O89  1  0.545300  0.740600  0.892550  1.0  -0.6476
  O  O90  1  0.515700  0.790200  0.998290  1.0  -0.5672
  O  O91  1  0.654700  0.081400  0.804520  1.0  -0.6743
  O  O92  1  0.895300  0.105500  0.880470  1.0  -0.594
  O  O93  1  0.663500  0.024600  0.977220  1.0  -0.6318
  O  O94  1  0.885300  0.104500  0.034200  1.0  -0.6105
  O  O95  1  0.840300  0.844200  0.939240  1.0  -0.672
  O  O96  1  0.796700  0.623000  0.905680  1.0  -0.5748
  O  O97  1  0.437100  0.297200  0.746300  1.0  -0.6542
  O  O98  1  0.549700  0.435700  0.865790  1.0  -0.583
  O  O99  1  0.589500  0.501600  0.718400  1.0  -0.6603
  O  O100  1  0.676300  0.500100  0.637930  1.0  -0.6039
  O  O101  1  0.454700  0.240600  0.607450  1.0  -0.6492
  O  O102  1  0.484300  0.290200  0.501710  1.0  -0.5676
  O  O103  1  0.345300  0.581400  0.695480  1.0  -0.6744
  O  O104  1  0.104700  0.605500  0.619530  1.0  -0.5918
  O  O105  1  0.336500  0.524600  0.522780  1.0  -0.6314
  O  O106  1  0.114700  0.604500  0.465800  1.0  -0.6085
  O  O107  1  0.159700  0.344200  0.560760  1.0  -0.6723
  O  O108  1  0.203300  0.123000  0.594320  1.0  -0.5749
