# generated using pymatgen
data_FeH2(CO2)2
_symmetry_space_group_name_H-M   'P 1'
_cell_length_a   9.99220000
_cell_length_b   11.41360000
_cell_length_c   14.97070000
_cell_angle_alpha   91.12160000
_cell_angle_beta   90.00000000
_cell_angle_gamma   90.00000000
_symmetry_Int_Tables_number   1
_chemical_formula_structural   FeH2(CO2)2
_chemical_formula_sum   'Fe12 H24 C24 O48'
_cell_volume   1707.03590821
_cell_formula_units_Z   12
loop_
 _symmetry_equiv_pos_site_id
 _symmetry_equiv_pos_as_xyz
  1  'x, y, z'
loop_
 _atom_site_type_symbol
 _atom_site_label
 _atom_site_symmetry_multiplicity
 _atom_site_fract_x
 _atom_site_fract_y
 _atom_site_fract_z
 _atom_site_occupancy
 _atom_site_charge
  Fe  Fe1  1  0.924060  0.754820  0.133710  1.0  1.0447
  Fe  Fe2  1  0.884190  0.261320  0.692740  1.0  1.0493
  Fe  Fe3  1  0.424060  0.745180  0.366290  1.0  1.0447
  Fe  Fe4  1  0.384190  0.238680  0.807260  1.0  1.0492
  Fe  Fe5  1  0.075940  0.245180  0.866290  1.0  1.0443
  Fe  Fe6  1  0.115810  0.738680  0.307260  1.0  1.0494
  Fe  Fe7  1  0.575940  0.254820  0.633710  1.0  1.0444
  Fe  Fe8  1  0.615810  0.761320  0.192740  1.0  1.0494
  Fe  Fe9  1  0.000000  0.500000  0.000000  1.0  1.0666
  Fe  Fe10  1  0.500000  0.000000  0.500000  1.0  1.0666
  Fe  Fe11  1  0.000000  0.000000  0.000000  1.0  0.9732
  Fe  Fe12  1  0.500000  0.500000  0.500000  1.0  0.9732
  H  H13  1  0.765000  0.859000  0.369000  1.0  0.0256
  H  H14  1  0.054000  0.478000  0.259000  1.0  0.0139
  H  H15  1  0.623000  0.558000  0.054000  1.0  0.0075
  H  H16  1  0.221000  0.974000  0.218000  1.0  0.0272
  H  H17  1  0.146000  0.697000  0.926000  1.0  0.004
  H  H18  1  0.710000  0.993000  0.020000  1.0  0.0096
  H  H19  1  0.265000  0.641000  0.131000  1.0  0.0242
  H  H20  1  0.554000  0.022000  0.241000  1.0  0.0134
  H  H21  1  0.123000  0.942000  0.446000  1.0  0.0087
  H  H22  1  0.721000  0.526000  0.282000  1.0  0.0274
  H  H23  1  0.646000  0.803000  0.574000  1.0  0.0039
  H  H24  1  0.210000  0.507000  0.480000  1.0  0.0088
  H  H25  1  0.235000  0.141000  0.631000  1.0  0.0235
  H  H26  1  0.946000  0.522000  0.741000  1.0  0.0137
  H  H27  1  0.377000  0.442000  0.946000  1.0  0.0074
  H  H28  1  0.779000  0.026000  0.782000  1.0  0.0264
  H  H29  1  0.854000  0.303000  0.074000  1.0  0.0039
  H  H30  1  0.290000  0.007000  0.980000  1.0  0.0088
  H  H31  1  0.735000  0.359000  0.869000  1.0  0.0242
  H  H32  1  0.446000  0.978000  0.759000  1.0  0.0141
  H  H33  1  0.877000  0.058000  0.554000  1.0  0.0073
  H  H34  1  0.279000  0.474000  0.718000  1.0  0.0262
  H  H35  1  0.354000  0.197000  0.426000  1.0  0.0034
  H  H36  1  0.790000  0.493000  0.520000  1.0  0.0098
  C  C37  1  0.835400  0.827600  0.329500  1.0  0.6589
  C  C38  1  0.028200  0.517000  0.206400  1.0  0.6701
  C  C39  1  0.714700  0.570900  0.058300  1.0  0.6812
  C  C40  1  0.142500  0.947100  0.178700  1.0  0.6303
  C  C41  1  0.094800  0.742700  0.965200  1.0  0.6916
  C  C42  1  0.725500  0.933200  0.059500  1.0  0.6918
  C  C43  1  0.335400  0.672400  0.170500  1.0  0.6598
  C  C44  1  0.528200  0.983000  0.293600  1.0  0.6706
  C  C45  1  0.214700  0.929100  0.441700  1.0  0.68
  C  C46  1  0.642500  0.552900  0.321300  1.0  0.6312
  C  C47  1  0.594800  0.757300  0.534800  1.0  0.692
  C  C48  1  0.225500  0.566800  0.440500  1.0  0.692
  C  C49  1  0.164600  0.172400  0.670500  1.0  0.66
  C  C50  1  0.971800  0.483000  0.793600  1.0  0.6699
  C  C51  1  0.285300  0.429100  0.941700  1.0  0.6794
  C  C52  1  0.857500  0.052900  0.821300  1.0  0.6327
  C  C53  1  0.905200  0.257300  0.034800  1.0  0.6915
  C  C54  1  0.274500  0.066800  0.940500  1.0  0.6912
  C  C55  1  0.664600  0.327600  0.829500  1.0  0.6597
  C  C56  1  0.471800  0.017000  0.706400  1.0  0.6693
  C  C57  1  0.785300  0.070900  0.558300  1.0  0.6803
  C  C58  1  0.357500  0.447100  0.678700  1.0  0.6313
  C  C59  1  0.405200  0.242700  0.465200  1.0  0.6916
  C  C60  1  0.774500  0.433200  0.559500  1.0  0.6911
  O  O61  1  0.806850  0.807590  0.248390  1.0  -0.623
  O  O62  1  0.946050  0.811300  0.365300  1.0  -0.5702
  O  O63  1  0.011830  0.626230  0.215530  1.0  -0.6362
  O  O64  1  0.016500  0.459420  0.136720  1.0  -0.5718
  O  O65  1  0.746050  0.652560  0.112760  1.0  -0.641
  O  O66  1  0.791000  0.513480  0.010380  1.0  -0.571
  O  O67  1  0.088310  0.848860  0.193160  1.0  -0.6361
  O  O68  1  0.117300  0.012620  0.116620  1.0  -0.57
  O  O69  1  0.024940  0.686540  0.021640  1.0  -0.6383
  O  O70  1  0.102700  0.849180  0.959180  1.0  -0.5725
  O  O71  1  0.846790  0.898970  0.065270  1.0  -0.624
  O  O72  1  0.628530  0.894170  0.100570  1.0  -0.5693
  O  O73  1  0.306850  0.692410  0.251610  1.0  -0.6222
  O  O74  1  0.446050  0.688700  0.134700  1.0  -0.5703
  O  O75  1  0.511830  0.873770  0.284470  1.0  -0.6368
  O  O76  1  0.516500  0.040580  0.363280  1.0  -0.5721
  O  O77  1  0.246050  0.847440  0.387240  1.0  -0.6402
  O  O78  1  0.291000  0.986520  0.489620  1.0  -0.5701
  O  O79  1  0.588310  0.651140  0.306840  1.0  -0.636
  O  O80  1  0.617300  0.487380  0.383380  1.0  -0.5706
  O  O81  1  0.524940  0.813460  0.478360  1.0  -0.6384
  O  O82  1  0.602700  0.650820  0.540820  1.0  -0.5728
  O  O83  1  0.346790  0.601030  0.434730  1.0  -0.6239
  O  O84  1  0.128530  0.605830  0.399430  1.0  -0.5691
  O  O85  1  0.193150  0.192410  0.751610  1.0  -0.6223
  O  O86  1  0.053950  0.188700  0.634700  1.0  -0.5702
  O  O87  1  0.988170  0.373770  0.784470  1.0  -0.6366
  O  O88  1  0.983500  0.540580  0.863280  1.0  -0.5719
  O  O89  1  0.253950  0.347440  0.887240  1.0  -0.6398
  O  O90  1  0.209000  0.486520  0.989620  1.0  -0.5709
  O  O91  1  0.911690  0.151140  0.806840  1.0  -0.6356
  O  O92  1  0.882700  0.987380  0.883380  1.0  -0.5701
  O  O93  1  0.975060  0.313460  0.978360  1.0  -0.6388
  O  O94  1  0.897300  0.150820  0.040820  1.0  -0.5732
  O  O95  1  0.153210  0.101030  0.934730  1.0  -0.6249
  O  O96  1  0.371470  0.105830  0.899430  1.0  -0.5697
  O  O97  1  0.693150  0.307590  0.748390  1.0  -0.6232
  O  O98  1  0.553950  0.311300  0.865300  1.0  -0.5703
  O  O99  1  0.488170  0.126230  0.715530  1.0  -0.6357
  O  O100  1  0.483500  0.959420  0.636720  1.0  -0.5713
  O  O101  1  0.753950  0.152560  0.612760  1.0  -0.6409
  O  O102  1  0.709000  0.013480  0.510380  1.0  -0.5716
  O  O103  1  0.411690  0.348860  0.693160  1.0  -0.6359
  O  O104  1  0.382700  0.512620  0.616620  1.0  -0.5695
  O  O105  1  0.475060  0.186540  0.521640  1.0  -0.6385
  O  O106  1  0.397300  0.349180  0.459180  1.0  -0.5723
  O  O107  1  0.653210  0.398970  0.565270  1.0  -0.6264
  O  O108  1  0.871470  0.394170  0.600570  1.0  -0.57
