# generated using pymatgen
data_FeH2(CO2)2
_symmetry_space_group_name_H-M   'P 1'
_cell_length_a   10.02240000
_cell_length_b   11.44880000
_cell_length_c   15.17540000
_cell_angle_alpha   90.86010000
_cell_angle_beta   90.00000000
_cell_angle_gamma   90.00000000
_symmetry_Int_Tables_number   1
_chemical_formula_structural   FeH2(CO2)2
_chemical_formula_sum   'Fe12 H24 C24 O48'
_cell_volume   1741.09677960
_cell_formula_units_Z   12
loop_
 _symmetry_equiv_pos_site_id
 _symmetry_equiv_pos_as_xyz
  1  'x, y, z'
loop_
 _atom_site_type_symbol
 _atom_site_label
 _atom_site_symmetry_multiplicity
 _atom_site_fract_x
 _atom_site_fract_y
 _atom_site_fract_z
 _atom_site_occupancy
 _atom_site_charge
  Fe  Fe1  1  0.926300  0.754320  0.134420  1.0  1.0522
  Fe  Fe2  1  0.878770  0.259610  0.696740  1.0  1.0588
  Fe  Fe3  1  0.426300  0.745680  0.365580  1.0  1.0521
  Fe  Fe4  1  0.378770  0.240390  0.803260  1.0  1.0589
  Fe  Fe5  1  0.073700  0.245680  0.865580  1.0  1.0514
  Fe  Fe6  1  0.121230  0.740390  0.303260  1.0  1.0588
  Fe  Fe7  1  0.573700  0.254320  0.634420  1.0  1.0517
  Fe  Fe8  1  0.621230  0.759610  0.196740  1.0  1.0588
  Fe  Fe9  1  0.000000  0.500000  0.000000  1.0  1.0916
  Fe  Fe10  1  0.500000  0.000000  0.500000  1.0  1.0916
  Fe  Fe11  1  0.000000  0.000000  0.000000  1.0  1.1035
  Fe  Fe12  1  0.500000  0.500000  0.500000  1.0  1.1035
  H  H13  1  0.773000  0.853400  0.368400  1.0  0.0047
  H  H14  1  0.056000  0.476100  0.257100  1.0  0.0219
  H  H15  1  0.628000  0.534500  0.075500  1.0  0.0053
  H  H16  1  0.230000  0.964700  0.206700  1.0  0.0136
  H  H17  1  0.128000  0.695600  0.916600  1.0  0.0237
  H  H18  1  0.714000  0.995600  0.026600  1.0  0.012
  H  H19  1  0.273000  0.646600  0.131600  1.0  0.0039
  H  H20  1  0.556000  0.023900  0.242900  1.0  0.0218
  H  H21  1  0.128000  0.965500  0.424500  1.0  0.0057
  H  H22  1  0.730000  0.535300  0.293300  1.0  0.0133
  H  H23  1  0.628000  0.804400  0.583400  1.0  0.0228
  H  H24  1  0.214000  0.504400  0.473400  1.0  0.0116
  H  H25  1  0.227000  0.146600  0.631600  1.0  0.005
  H  H26  1  0.944000  0.523900  0.742900  1.0  0.0218
  H  H27  1  0.372000  0.465500  0.924500  1.0  0.0059
  H  H28  1  0.770000  0.035300  0.793300  1.0  0.0134
  H  H29  1  0.872000  0.304400  0.083400  1.0  0.0238
  H  H30  1  0.286000  0.004400  0.973400  1.0  0.0109
  H  H31  1  0.727000  0.353400  0.868400  1.0  0.0048
  H  H32  1  0.444000  0.976100  0.757100  1.0  0.0219
  H  H33  1  0.872000  0.034500  0.575500  1.0  0.0051
  H  H34  1  0.270000  0.464700  0.706700  1.0  0.0138
  H  H35  1  0.372000  0.195600  0.416600  1.0  0.0254
  H  H36  1  0.786000  0.495600  0.526600  1.0  0.0116
  C  C37  1  0.842400  0.826110  0.329510  1.0  0.6645
  C  C38  1  0.036800  0.518560  0.204160  1.0  0.6543
  C  C39  1  0.717800  0.561760  0.069760  1.0  0.6651
  C  C40  1  0.155800  0.940500  0.170300  1.0  0.6667
  C  C41  1  0.083300  0.741420  0.961420  1.0  0.6698
  C  C42  1  0.729900  0.935010  0.065710  1.0  0.6862
  C  C43  1  0.342400  0.673890  0.170490  1.0  0.6649
  C  C44  1  0.536800  0.981440  0.295840  1.0  0.6536
  C  C45  1  0.217800  0.938240  0.430240  1.0  0.6644
  C  C46  1  0.655800  0.559500  0.329700  1.0  0.6668
  C  C47  1  0.583300  0.758580  0.538580  1.0  0.6692
  C  C48  1  0.229900  0.564990  0.434290  1.0  0.6867
  C  C49  1  0.157600  0.173890  0.670490  1.0  0.6656
  C  C50  1  0.963200  0.481440  0.795840  1.0  0.653
  C  C51  1  0.282200  0.438240  0.930240  1.0  0.6635
  C  C52  1  0.844200  0.059500  0.829700  1.0  0.6665
  C  C53  1  0.916700  0.258580  0.038580  1.0  0.6697
  C  C54  1  0.270100  0.064990  0.934290  1.0  0.686
  C  C55  1  0.657600  0.326110  0.829510  1.0  0.6656
  C  C56  1  0.463200  0.018560  0.704160  1.0  0.6545
  C  C57  1  0.782200  0.061760  0.569760  1.0  0.6644
  C  C58  1  0.344200  0.440500  0.670300  1.0  0.6659
  C  C59  1  0.416700  0.241420  0.461420  1.0  0.6705
  C  C60  1  0.770100  0.435010  0.565710  1.0  0.6859
  O  O61  1  0.811400  0.807370  0.249030  1.0  -0.6349
  O  O62  1  0.953810  0.811030  0.363050  1.0  -0.5698
  O  O63  1  0.014870  0.627760  0.214480  1.0  -0.6392
  O  O64  1  0.029010  0.462770  0.134490  1.0  -0.5751
  O  O65  1  0.749990  0.649800  0.118600  1.0  -0.6581
  O  O66  1  0.793460  0.507320  0.019790  1.0  -0.5827
  O  O67  1  0.093900  0.846740  0.189560  1.0  -0.6436
  O  O68  1  0.131860  0.005080  0.108140  1.0  -0.5747
  O  O69  1  0.018470  0.686360  0.020790  1.0  -0.6373
  O  O70  1  0.091630  0.848460  0.954560  1.0  -0.58
  O  O71  1  0.850860  0.899910  0.069350  1.0  -0.6292
  O  O72  1  0.633330  0.894170  0.105670  1.0  -0.5712
  O  O73  1  0.311400  0.692630  0.250970  1.0  -0.6341
  O  O74  1  0.453810  0.688970  0.136950  1.0  -0.5701
  O  O75  1  0.514870  0.872240  0.285520  1.0  -0.6394
  O  O76  1  0.529010  0.037230  0.365510  1.0  -0.5753
  O  O77  1  0.249990  0.850200  0.381400  1.0  -0.6583
  O  O78  1  0.293460  0.992680  0.480210  1.0  -0.5808
  O  O79  1  0.593900  0.653260  0.310440  1.0  -0.6434
  O  O80  1  0.631860  0.494920  0.391860  1.0  -0.5758
  O  O81  1  0.518470  0.813640  0.479210  1.0  -0.637
  O  O82  1  0.591630  0.651540  0.545440  1.0  -0.5803
  O  O83  1  0.350860  0.600090  0.430650  1.0  -0.6293
  O  O84  1  0.133330  0.605830  0.394330  1.0  -0.5712
  O  O85  1  0.188600  0.192630  0.750970  1.0  -0.6341
  O  O86  1  0.046190  0.188970  0.636950  1.0  -0.5695
  O  O87  1  0.985130  0.372240  0.785520  1.0  -0.6391
  O  O88  1  0.970990  0.537230  0.865510  1.0  -0.5755
  O  O89  1  0.250010  0.350200  0.881400  1.0  -0.6576
  O  O90  1  0.206540  0.492680  0.980210  1.0  -0.5816
  O  O91  1  0.906100  0.153260  0.810440  1.0  -0.6432
  O  O92  1  0.868140  0.994920  0.891860  1.0  -0.5755
  O  O93  1  0.981530  0.313640  0.979210  1.0  -0.6372
  O  O94  1  0.908370  0.151540  0.045440  1.0  -0.5801
  O  O95  1  0.149140  0.100090  0.930650  1.0  -0.6297
  O  O96  1  0.366670  0.105830  0.894330  1.0  -0.5716
  O  O97  1  0.688600  0.307370  0.749030  1.0  -0.6351
  O  O98  1  0.546190  0.311030  0.863050  1.0  -0.5694
  O  O99  1  0.485130  0.127760  0.714480  1.0  -0.6386
  O  O100  1  0.470990  0.962770  0.634490  1.0  -0.575
  O  O101  1  0.750010  0.149800  0.618600  1.0  -0.6576
  O  O102  1  0.706540  0.007320  0.519790  1.0  -0.5827
  O  O103  1  0.406100  0.346740  0.689560  1.0  -0.6436
  O  O104  1  0.368140  0.505080  0.608140  1.0  -0.5747
  O  O105  1  0.481530  0.186360  0.520790  1.0  -0.6372
  O  O106  1  0.408370  0.348460  0.454560  1.0  -0.5795
  O  O107  1  0.649140  0.399910  0.569350  1.0  -0.6294
  O  O108  1  0.866670  0.394170  0.605670  1.0  -0.5714
