# generated using pymatgen
data_FeH2(CO2)2
_symmetry_space_group_name_H-M   'P 1'
_cell_length_a   9.90230000
_cell_length_b   11.33900000
_cell_length_c   14.87660000
_cell_angle_alpha   90.95940000
_cell_angle_beta   90.00000000
_cell_angle_gamma   90.00000000
_symmetry_Int_Tables_number   1
_chemical_formula_structural   FeH2(CO2)2
_chemical_formula_sum   'Fe12 H24 C24 O48'
_cell_volume   1670.14290599
_cell_formula_units_Z   12
loop_
 _symmetry_equiv_pos_site_id
 _symmetry_equiv_pos_as_xyz
  1  'x, y, z'
loop_
 _atom_site_type_symbol
 _atom_site_label
 _atom_site_symmetry_multiplicity
 _atom_site_fract_x
 _atom_site_fract_y
 _atom_site_fract_z
 _atom_site_occupancy
 _atom_site_charge
  Fe  Fe1  1  0.920690  0.754840  0.133630  1.0  1.0396
  Fe  Fe2  1  0.889230  0.262000  0.690970  1.0  1.0504
  Fe  Fe3  1  0.420690  0.745160  0.366370  1.0  1.039
  Fe  Fe4  1  0.389230  0.238000  0.809030  1.0  1.05
  Fe  Fe5  1  0.079310  0.245160  0.866370  1.0  1.039
  Fe  Fe6  1  0.110770  0.738000  0.309030  1.0  1.0501
  Fe  Fe7  1  0.579310  0.254840  0.633630  1.0  1.0395
  Fe  Fe8  1  0.610770  0.762000  0.190970  1.0  1.0505
  Fe  Fe9  1  0.000000  0.500000  0.000000  1.0  1.0981
  Fe  Fe10  1  0.500000  0.000000  0.500000  1.0  1.0981
  Fe  Fe11  1  0.000000  0.000000  0.000000  1.0  1.0921
  Fe  Fe12  1  0.500000  0.500000  0.500000  1.0  1.0921
  H  H13  1  0.757000  0.865100  0.369100  1.0  0.0238
  H  H14  1  0.036000  0.469000  0.267000  1.0  0.029
  H  H15  1  0.613000  0.552000  0.051000  1.0  0.0141
  H  H16  1  0.214000  0.975000  0.217000  1.0  0.014
  H  H17  1  0.152000  0.695700  0.930700  1.0  0.0043
  H  H18  1  0.709000  0.991000  0.011000  1.0  0.0058
  H  H19  1  0.257000  0.634900  0.130900  1.0  0.0228
  H  H20  1  0.536000  0.031000  0.233000  1.0  0.0287
  H  H21  1  0.113000  0.948000  0.449000  1.0  0.0142
  H  H22  1  0.714000  0.525000  0.283000  1.0  0.0146
  H  H23  1  0.652000  0.804300  0.569300  1.0  0.0045
  H  H24  1  0.209000  0.509000  0.489000  1.0  0.0063
  H  H25  1  0.243000  0.134900  0.630900  1.0  0.0223
  H  H26  1  0.964000  0.531000  0.733000  1.0  0.0286
  H  H27  1  0.387000  0.448000  0.949000  1.0  0.014
  H  H28  1  0.786000  0.025000  0.783000  1.0  0.0141
  H  H29  1  0.848000  0.304300  0.069300  1.0  0.0035
  H  H30  1  0.291000  0.009000  0.989000  1.0  0.0062
  H  H31  1  0.743000  0.365100  0.869100  1.0  0.0227
  H  H32  1  0.464000  0.969000  0.767000  1.0  0.0286
  H  H33  1  0.887000  0.052000  0.551000  1.0  0.0143
  H  H34  1  0.286000  0.475000  0.717000  1.0  0.014
  H  H35  1  0.348000  0.195700  0.430700  1.0  0.0031
  H  H36  1  0.791000  0.491000  0.511000  1.0  0.006
  C  C37  1  0.829500  0.831060  0.329760  1.0  0.6433
  C  C38  1  0.021000  0.514600  0.209100  1.0  0.6238
  C  C39  1  0.710600  0.571200  0.054900  1.0  0.6597
  C  C40  1  0.137000  0.950300  0.181700  1.0  0.6538
  C  C41  1  0.100800  0.743000  0.967400  1.0  0.6895
  C  C42  1  0.720600  0.930920  0.054420  1.0  0.6753
  C  C43  1  0.329500  0.668940  0.170240  1.0  0.6434
  C  C44  1  0.521000  0.985400  0.290900  1.0  0.6224
  C  C45  1  0.210600  0.928800  0.445100  1.0  0.659
  C  C46  1  0.637000  0.549700  0.318300  1.0  0.6536
  C  C47  1  0.600800  0.757000  0.532600  1.0  0.6904
  C  C48  1  0.220600  0.569080  0.445580  1.0  0.6747
  C  C49  1  0.170500  0.168940  0.670240  1.0  0.6434
  C  C50  1  0.979000  0.485400  0.790900  1.0  0.6225
  C  C51  1  0.289400  0.428800  0.945100  1.0  0.657
  C  C52  1  0.863000  0.049700  0.818300  1.0  0.6537
  C  C53  1  0.899200  0.257000  0.032600  1.0  0.6902
  C  C54  1  0.279400  0.069080  0.945580  1.0  0.6737
  C  C55  1  0.670500  0.331060  0.829760  1.0  0.6436
  C  C56  1  0.479000  0.014600  0.709100  1.0  0.6239
  C  C57  1  0.789400  0.071200  0.554900  1.0  0.6581
  C  C58  1  0.363000  0.450300  0.681700  1.0  0.6535
  C  C59  1  0.399200  0.243000  0.467400  1.0  0.6896
  C  C60  1  0.779400  0.430920  0.554420  1.0  0.6742
  O  O61  1  0.801660  0.810010  0.247410  1.0  -0.6218
  O  O62  1  0.940050  0.812830  0.366930  1.0  -0.5679
  O  O63  1  0.005650  0.624940  0.217140  1.0  -0.6204
  O  O64  1  0.010300  0.456380  0.137980  1.0  -0.575
  O  O65  1  0.742270  0.651420  0.111920  1.0  -0.6386
  O  O66  1  0.789650  0.514600  0.006300  1.0  -0.5712
  O  O67  1  0.086180  0.849280  0.194080  1.0  -0.6378
  O  O68  1  0.111190  0.017530  0.120030  1.0  -0.5767
  O  O69  1  0.025860  0.686410  0.022610  1.0  -0.6386
  O  O70  1  0.110170  0.850030  0.961430  1.0  -0.5759
  O  O71  1  0.842970  0.897480  0.062560  1.0  -0.625
  O  O72  1  0.622240  0.894270  0.097070  1.0  -0.5679
  O  O73  1  0.301660  0.689990  0.252590  1.0  -0.6216
  O  O74  1  0.440050  0.687170  0.133070  1.0  -0.5682
  O  O75  1  0.505650  0.875060  0.282860  1.0  -0.6213
  O  O76  1  0.510300  0.043620  0.362020  1.0  -0.5752
  O  O77  1  0.242270  0.848580  0.388080  1.0  -0.6379
  O  O78  1  0.289650  0.985400  0.493700  1.0  -0.5701
  O  O79  1  0.586180  0.650720  0.305920  1.0  -0.6378
  O  O80  1  0.611190  0.482470  0.379970  1.0  -0.578
  O  O81  1  0.525860  0.813590  0.477390  1.0  -0.6384
  O  O82  1  0.610170  0.649970  0.538570  1.0  -0.5752
  O  O83  1  0.342970  0.602520  0.437440  1.0  -0.6254
  O  O84  1  0.122240  0.605730  0.402930  1.0  -0.5685
  O  O85  1  0.198340  0.189990  0.752590  1.0  -0.6216
  O  O86  1  0.059950  0.187170  0.633070  1.0  -0.5685
  O  O87  1  0.994350  0.375060  0.782860  1.0  -0.6213
  O  O88  1  0.989700  0.543620  0.862020  1.0  -0.5752
  O  O89  1  0.257730  0.348580  0.888080  1.0  -0.6377
  O  O90  1  0.210350  0.485400  0.993700  1.0  -0.571
  O  O91  1  0.913820  0.150720  0.805920  1.0  -0.6368
  O  O92  1  0.888810  0.982470  0.879970  1.0  -0.5782
  O  O93  1  0.974140  0.313590  0.977390  1.0  -0.6388
  O  O94  1  0.889830  0.149970  0.038570  1.0  -0.5747
  O  O95  1  0.157030  0.102520  0.937440  1.0  -0.6256
  O  O96  1  0.377760  0.105730  0.902930  1.0  -0.569
  O  O97  1  0.698340  0.310010  0.747410  1.0  -0.622
  O  O98  1  0.559950  0.312830  0.866930  1.0  -0.5685
  O  O99  1  0.494350  0.124940  0.717140  1.0  -0.6201
  O  O100  1  0.489700  0.956380  0.637980  1.0  -0.5747
  O  O101  1  0.757730  0.151420  0.611920  1.0  -0.6387
  O  O102  1  0.710350  0.014600  0.506300  1.0  -0.5718
  O  O103  1  0.413820  0.349280  0.694080  1.0  -0.637
  O  O104  1  0.388810  0.517530  0.620030  1.0  -0.5773
  O  O105  1  0.474140  0.186410  0.522610  1.0  -0.6388
  O  O106  1  0.389830  0.350030  0.461430  1.0  -0.575
  O  O107  1  0.657030  0.397480  0.562560  1.0  -0.6253
  O  O108  1  0.877760  0.394270  0.597070  1.0  -0.5684
