# generated using pymatgen
data_FeH2(CO2)2
_symmetry_space_group_name_H-M   'P 1'
_cell_length_a   9.84590000
_cell_length_b   11.29110000
_cell_length_c   14.82500000
_cell_angle_alpha   90.82660000
_cell_angle_beta   90.00000000
_cell_angle_gamma   90.00000000
_symmetry_Int_Tables_number   1
_chemical_formula_structural   FeH2(CO2)2
_chemical_formula_sum   'Fe12 H24 C24 O48'
_cell_volume   1647.93917814
_cell_formula_units_Z   12
loop_
 _symmetry_equiv_pos_site_id
 _symmetry_equiv_pos_as_xyz
  1  'x, y, z'
loop_
 _atom_site_type_symbol
 _atom_site_label
 _atom_site_symmetry_multiplicity
 _atom_site_fract_x
 _atom_site_fract_y
 _atom_site_fract_z
 _atom_site_occupancy
 _atom_site_charge
  Fe  Fe1  1  0.918760  0.755080  0.133500  1.0  1.0409
  Fe  Fe2  1  0.892160  0.262220  0.690050  1.0  1.05
  Fe  Fe3  1  0.418760  0.744920  0.366500  1.0  1.0403
  Fe  Fe4  1  0.392160  0.237780  0.809950  1.0  1.0498
  Fe  Fe5  1  0.081240  0.244920  0.866500  1.0  1.0403
  Fe  Fe6  1  0.107840  0.737780  0.309950  1.0  1.0499
  Fe  Fe7  1  0.581240  0.255080  0.633500  1.0  1.0408
  Fe  Fe8  1  0.607840  0.762220  0.190050  1.0  1.0502
  Fe  Fe9  1  0.000000  0.500000  0.000000  1.0  1.0872
  Fe  Fe10  1  0.500000  0.000000  0.500000  1.0  1.0872
  Fe  Fe11  1  0.000000  0.000000  0.000000  1.0  1.0683
  Fe  Fe12  1  0.500000  0.500000  0.500000  1.0  1.0683
  H  H13  1  0.754000  0.869100  0.364100  1.0  0.0108
  H  H14  1  0.030000  0.469400  0.264400  1.0  0.0198
  H  H15  1  0.613000  0.551900  0.045900  1.0  0.02
  H  H16  1  0.207000  0.979700  0.225700  1.0  0.0163
  H  H17  1  0.154000  0.689700  0.931700  1.0  0.0152
  H  H18  1  0.703000  0.988000  0.007000  1.0  0.0122
  H  H19  1  0.254000  0.630900  0.135900  1.0  0.0107
  H  H20  1  0.530000  0.030600  0.235600  1.0  0.0202
  H  H21  1  0.113000  0.948100  0.454100  1.0  0.0202
  H  H22  1  0.707000  0.520300  0.274300  1.0  0.0164
  H  H23  1  0.654000  0.810300  0.568300  1.0  0.0161
  H  H24  1  0.203000  0.512000  0.493000  1.0  0.0125
  H  H25  1  0.246000  0.130900  0.635900  1.0  0.0113
  H  H26  1  0.970000  0.530600  0.735600  1.0  0.0202
  H  H27  1  0.387000  0.448100  0.954100  1.0  0.0198
  H  H28  1  0.793000  0.020300  0.774300  1.0  0.0155
  H  H29  1  0.846000  0.310300  0.068300  1.0  0.0154
  H  H30  1  0.297000  0.012000  0.993000  1.0  0.0124
  H  H31  1  0.746000  0.369100  0.864100  1.0  0.0111
  H  H32  1  0.470000  0.969400  0.764400  1.0  0.0194
  H  H33  1  0.887000  0.051900  0.545900  1.0  0.0195
  H  H34  1  0.293000  0.479700  0.725700  1.0  0.0159
  H  H35  1  0.346000  0.189700  0.431700  1.0  0.0144
  H  H36  1  0.797000  0.488000  0.507000  1.0  0.0122
  C  C37  1  0.826300  0.833070  0.329870  1.0  0.6633
  C  C38  1  0.016900  0.513150  0.210150  1.0  0.6506
  C  C39  1  0.708400  0.571510  0.053210  1.0  0.6592
  C  C40  1  0.134200  0.952670  0.183870  1.0  0.647
  C  C41  1  0.105000  0.743050  0.968950  1.0  0.6717
  C  C42  1  0.717400  0.929940  0.051440  1.0  0.6773
  C  C43  1  0.326300  0.666930  0.170130  1.0  0.6636
  C  C44  1  0.516900  0.986850  0.289850  1.0  0.6498
  C  C45  1  0.208400  0.928490  0.446790  1.0  0.6594
  C  C46  1  0.634200  0.547330  0.316130  1.0  0.6478
  C  C47  1  0.605000  0.756950  0.531050  1.0  0.6726
  C  C48  1  0.217400  0.570060  0.448560  1.0  0.6763
  C  C49  1  0.173700  0.166930  0.670130  1.0  0.6641
  C  C50  1  0.983100  0.486850  0.789850  1.0  0.6501
  C  C51  1  0.291600  0.428490  0.946790  1.0  0.6601
  C  C52  1  0.865800  0.047330  0.816130  1.0  0.6472
  C  C53  1  0.895000  0.256950  0.031050  1.0  0.6725
  C  C54  1  0.282600  0.070060  0.948560  1.0  0.6759
  C  C55  1  0.673700  0.333070  0.829870  1.0  0.6642
  C  C56  1  0.483100  0.013150  0.710150  1.0  0.6506
  C  C57  1  0.791600  0.071510  0.553210  1.0  0.6602
  C  C58  1  0.365800  0.452670  0.683870  1.0  0.6469
  C  C59  1  0.395000  0.243050  0.468950  1.0  0.6726
  C  C60  1  0.782600  0.429940  0.551440  1.0  0.6768
  O  O61  1  0.799130  0.811430  0.246850  1.0  -0.6291
  O  O62  1  0.936770  0.813710  0.367910  1.0  -0.5695
  O  O63  1  0.002350  0.624360  0.218030  1.0  -0.6395
  O  O64  1  0.006930  0.454860  0.138860  1.0  -0.5768
  O  O65  1  0.740170  0.650290  0.111750  1.0  -0.6375
  O  O66  1  0.788940  0.515670  0.004270  1.0  -0.5769
  O  O67  1  0.084840  0.849630  0.194390  1.0  -0.6335
  O  O68  1  0.107440  0.021010  0.121910  1.0  -0.5681
  O  O69  1  0.026430  0.686830  0.023170  1.0  -0.6378
  O  O70  1  0.114990  0.850950  0.962850  1.0  -0.5734
  O  O71  1  0.840970  0.896850  0.061150  1.0  -0.6245
  O  O72  1  0.618180  0.894620  0.094920  1.0  -0.5657
  O  O73  1  0.299130  0.688570  0.253150  1.0  -0.6292
  O  O74  1  0.436770  0.686290  0.132090  1.0  -0.5697
  O  O75  1  0.502350  0.875640  0.281970  1.0  -0.6395
  O  O76  1  0.506930  0.045140  0.361140  1.0  -0.5765
  O  O77  1  0.240170  0.849710  0.388250  1.0  -0.6369
  O  O78  1  0.288940  0.984330  0.495730  1.0  -0.5762
  O  O79  1  0.584840  0.650370  0.305610  1.0  -0.6333
  O  O80  1  0.607440  0.478990  0.378090  1.0  -0.5689
  O  O81  1  0.526430  0.813170  0.476830  1.0  -0.6379
  O  O82  1  0.614990  0.649050  0.537150  1.0  -0.5728
  O  O83  1  0.340970  0.603150  0.438850  1.0  -0.6249
  O  O84  1  0.118180  0.605380  0.405080  1.0  -0.5659
  O  O85  1  0.200870  0.188570  0.753150  1.0  -0.6292
  O  O86  1  0.063230  0.186290  0.632090  1.0  -0.57
  O  O87  1  0.997650  0.375640  0.781970  1.0  -0.6395
  O  O88  1  0.993070  0.545140  0.861140  1.0  -0.5767
  O  O89  1  0.259830  0.349710  0.888250  1.0  -0.6365
  O  O90  1  0.211060  0.484330  0.995730  1.0  -0.5771
  O  O91  1  0.915160  0.150370  0.805610  1.0  -0.6331
  O  O92  1  0.892560  0.978990  0.878090  1.0  -0.5693
  O  O93  1  0.973570  0.313170  0.976830  1.0  -0.6382
  O  O94  1  0.885010  0.149050  0.037150  1.0  -0.572
  O  O95  1  0.159030  0.103150  0.938850  1.0  -0.6255
  O  O96  1  0.381820  0.105380  0.905080  1.0  -0.5663
  O  O97  1  0.700870  0.311430  0.746850  1.0  -0.6293
  O  O98  1  0.563230  0.313710  0.867910  1.0  -0.5701
  O  O99  1  0.497650  0.124360  0.718030  1.0  -0.639
  O  O100  1  0.493070  0.954860  0.638860  1.0  -0.5768
  O  O101  1  0.759830  0.150290  0.611750  1.0  -0.637
  O  O102  1  0.711060  0.015670  0.504270  1.0  -0.5775
  O  O103  1  0.415160  0.349630  0.694390  1.0  -0.6334
  O  O104  1  0.392560  0.521010  0.621910  1.0  -0.5687
  O  O105  1  0.473570  0.186830  0.523170  1.0  -0.6379
  O  O106  1  0.385010  0.350950  0.462850  1.0  -0.5724
  O  O107  1  0.659030  0.396850  0.561150  1.0  -0.625
  O  O108  1  0.881820  0.394620  0.594920  1.0  -0.566
