# generated using pymatgen
data_FeH2(CO2)2
_symmetry_space_group_name_H-M   'P 1'
_cell_length_a   10.07050000
_cell_length_b   11.46670000
_cell_length_c   15.21240000
_cell_angle_alpha   90.89080000
_cell_angle_beta   90.00000000
_cell_angle_gamma   90.00000000
_symmetry_Int_Tables_number   1
_chemical_formula_structural   FeH2(CO2)2
_chemical_formula_sum   'Fe12 H24 C24 O48'
_cell_volume   1756.44570404
_cell_formula_units_Z   12
loop_
 _symmetry_equiv_pos_site_id
 _symmetry_equiv_pos_as_xyz
  1  'x, y, z'
loop_
 _atom_site_type_symbol
 _atom_site_label
 _atom_site_symmetry_multiplicity
 _atom_site_fract_x
 _atom_site_fract_y
 _atom_site_fract_z
 _atom_site_occupancy
 _atom_site_charge
  Fe  Fe1  1  0.928260  0.754210  0.134330  1.0  1.0474
  Fe  Fe2  1  0.875820  0.259480  0.697630  1.0  1.0525
  Fe  Fe3  1  0.428260  0.745790  0.365670  1.0  1.0473
  Fe  Fe4  1  0.375820  0.240520  0.802370  1.0  1.0526
  Fe  Fe5  1  0.071740  0.245790  0.865670  1.0  1.0471
  Fe  Fe6  1  0.124180  0.740520  0.302370  1.0  1.0527
  Fe  Fe7  1  0.571740  0.254210  0.634330  1.0  1.0472
  Fe  Fe8  1  0.624180  0.759480  0.197630  1.0  1.0527
  Fe  Fe9  1  0.000000  0.500000  0.000000  1.0  1.0954
  Fe  Fe10  1  0.500000  0.000000  0.500000  1.0  1.0954
  Fe  Fe11  1  0.000000  0.000000  0.000000  1.0  1.1068
  Fe  Fe12  1  0.500000  0.500000  0.500000  1.0  1.1068
  H  H13  1  0.774000  0.850200  0.368200  1.0  0.0154
  H  H14  1  0.059000  0.476000  0.254000  1.0  0.0089
  H  H15  1  0.623000  0.534600  0.077600  1.0  0.033
  H  H16  1  0.228000  0.963600  0.206600  1.0  -0.0024
  H  H17  1  0.129000  0.696400  0.915400  1.0  0.0231
  H  H18  1  0.717000  0.994100  0.031100  1.0  0.0117
  H  H19  1  0.274000  0.649800  0.131800  1.0  0.0155
  H  H20  1  0.559000  0.024000  0.246000  1.0  0.0088
  H  H21  1  0.123000  0.965400  0.422400  1.0  0.0334
  H  H22  1  0.728000  0.536400  0.293400  1.0  -0.002
  H  H23  1  0.629000  0.803600  0.584600  1.0  0.0232
  H  H24  1  0.217000  0.505900  0.468900  1.0  0.0091
  H  H25  1  0.226000  0.149800  0.631800  1.0  0.0148
  H  H26  1  0.941000  0.524000  0.746000  1.0  0.0088
  H  H27  1  0.377000  0.465400  0.922400  1.0  0.034
  H  H28  1  0.772000  0.036400  0.793400  1.0  -0.002
  H  H29  1  0.871000  0.303600  0.084600  1.0  0.0233
  H  H30  1  0.283000  0.005900  0.968900  1.0  0.0089
  H  H31  1  0.726000  0.350200  0.868200  1.0  0.015
  H  H32  1  0.441000  0.976000  0.754000  1.0  0.0088
  H  H33  1  0.877000  0.034600  0.577600  1.0  0.0339
  H  H34  1  0.272000  0.463600  0.706600  1.0  -0.0023
  H  H35  1  0.371000  0.196400  0.415400  1.0  0.0237
  H  H36  1  0.783000  0.494100  0.531100  1.0  0.0119
  C  C37  1  0.846100  0.824730  0.329130  1.0  0.6533
  C  C38  1  0.039100  0.519350  0.203350  1.0  0.6701
  C  C39  1  0.719900  0.562530  0.070830  1.0  0.6318
  C  C40  1  0.156400  0.940330  0.169230  1.0  0.6771
  C  C41  1  0.081900  0.741680  0.961280  1.0  0.6602
  C  C42  1  0.731800  0.934350  0.066950  1.0  0.7021
  C  C43  1  0.346100  0.675270  0.170870  1.0  0.6538
  C  C44  1  0.539100  0.980650  0.296650  1.0  0.6725
  C  C45  1  0.219900  0.937470  0.429170  1.0  0.6316
  C  C46  1  0.656400  0.559670  0.330770  1.0  0.6775
  C  C47  1  0.581900  0.758320  0.538720  1.0  0.6609
  C  C48  1  0.231800  0.565650  0.433050  1.0  0.7022
  C  C49  1  0.153900  0.175270  0.670870  1.0  0.6546
  C  C50  1  0.960900  0.480650  0.796650  1.0  0.6707
  C  C51  1  0.280100  0.437470  0.929170  1.0  0.631
  C  C52  1  0.843600  0.059670  0.830770  1.0  0.6775
  C  C53  1  0.918100  0.258320  0.038720  1.0  0.6614
  C  C54  1  0.268200  0.065650  0.933050  1.0  0.7008
  C  C55  1  0.653900  0.324730  0.829130  1.0  0.6545
  C  C56  1  0.460900  0.019350  0.703350  1.0  0.67
  C  C57  1  0.780100  0.062530  0.570830  1.0  0.6316
  C  C58  1  0.343600  0.440330  0.669230  1.0  0.6766
  C  C59  1  0.418100  0.241680  0.461280  1.0  0.6611
  C  C60  1  0.768200  0.434350  0.566950  1.0  0.7009
  O  O61  1  0.814320  0.806220  0.249370  1.0  -0.6329
  O  O62  1  0.957150  0.810560  0.362080  1.0  -0.5671
  O  O63  1  0.018380  0.627820  0.213570  1.0  -0.648
  O  O64  1  0.030300  0.463150  0.134100  1.0  -0.5765
  O  O65  1  0.752310  0.650130  0.119190  1.0  -0.6346
  O  O66  1  0.795110  0.507890  0.020620  1.0  -0.5806
  O  O67  1  0.095320  0.846940  0.189040  1.0  -0.6492
  O  O68  1  0.131790  0.004620  0.107670  1.0  -0.5731
  O  O69  1  0.018810  0.686280  0.020600  1.0  -0.6348
  O  O70  1  0.090130  0.848380  0.954230  1.0  -0.5783
  O  O71  1  0.852550  0.899930  0.069800  1.0  -0.6377
  O  O72  1  0.636340  0.893640  0.107050  1.0  -0.5756
  O  O73  1  0.314320  0.693780  0.250630  1.0  -0.6324
  O  O74  1  0.457150  0.689440  0.137920  1.0  -0.5676
  O  O75  1  0.518380  0.872180  0.286430  1.0  -0.6479
  O  O76  1  0.530300  0.036850  0.365900  1.0  -0.5768
  O  O77  1  0.252310  0.849870  0.380810  1.0  -0.6338
  O  O78  1  0.295110  0.992110  0.479380  1.0  -0.5792
  O  O79  1  0.595320  0.653060  0.310960  1.0  -0.6492
  O  O80  1  0.631790  0.495380  0.392330  1.0  -0.5737
  O  O81  1  0.518810  0.813720  0.479400  1.0  -0.6341
  O  O82  1  0.590130  0.651620  0.545770  1.0  -0.5777
  O  O83  1  0.352550  0.600070  0.430200  1.0  -0.6381
  O  O84  1  0.136340  0.606360  0.392950  1.0  -0.5754
  O  O85  1  0.185680  0.193780  0.750630  1.0  -0.6325
  O  O86  1  0.042850  0.189440  0.637920  1.0  -0.5665
  O  O87  1  0.981620  0.372180  0.786430  1.0  -0.6476
  O  O88  1  0.969700  0.536850  0.865900  1.0  -0.5772
  O  O89  1  0.247690  0.349870  0.880810  1.0  -0.633
  O  O90  1  0.204890  0.492110  0.979380  1.0  -0.5798
  O  O91  1  0.904680  0.153060  0.810960  1.0  -0.6492
  O  O92  1  0.868210  0.995380  0.892330  1.0  -0.5733
  O  O93  1  0.981190  0.313720  0.979400  1.0  -0.6346
  O  O94  1  0.909870  0.151620  0.045770  1.0  -0.5774
  O  O95  1  0.147450  0.100070  0.930200  1.0  -0.638
  O  O96  1  0.363660  0.106360  0.892950  1.0  -0.5753
  O  O97  1  0.685680  0.306220  0.749370  1.0  -0.6332
  O  O98  1  0.542850  0.310560  0.862080  1.0  -0.5665
  O  O99  1  0.481620  0.127820  0.713570  1.0  -0.6474
  O  O100  1  0.469700  0.963150  0.634100  1.0  -0.5765
  O  O101  1  0.747690  0.150130  0.619190  1.0  -0.6337
  O  O102  1  0.704890  0.007890  0.520620  1.0  -0.5801
  O  O103  1  0.404680  0.346940  0.689040  1.0  -0.6493
  O  O104  1  0.368210  0.504620  0.607670  1.0  -0.5733
  O  O105  1  0.481190  0.186280  0.520600  1.0  -0.6351
  O  O106  1  0.409870  0.348380  0.454230  1.0  -0.5778
  O  O107  1  0.647450  0.399930  0.569800  1.0  -0.6375
  O  O108  1  0.863660  0.393640  0.607050  1.0  -0.5752
