# generated using pymatgen
data_FeH2(CO2)2
_symmetry_space_group_name_H-M   'P 1'
_cell_length_a   11.38060000
_cell_length_b   9.84510000
_cell_length_c   18.38830000
_cell_angle_alpha   90.00000000
_cell_angle_beta   126.90900000
_cell_angle_gamma   90.00000000
_symmetry_Int_Tables_number   1
_chemical_formula_structural   FeH2(CO2)2
_chemical_formula_sum   'Fe12 H24 C24 O48'
_cell_volume   1647.38234528
_cell_formula_units_Z   12
loop_
 _symmetry_equiv_pos_site_id
 _symmetry_equiv_pos_as_xyz
  1  'x, y, z'
loop_
 _atom_site_type_symbol
 _atom_site_label
 _atom_site_symmetry_multiplicity
 _atom_site_fract_x
 _atom_site_fract_y
 _atom_site_fract_z
 _atom_site_occupancy
 _atom_site_charge
  Fe  Fe1  1  0.377540  0.084030  0.133080  1.0  1.0811
  Fe  Fe2  1  0.426510  0.103800  0.687380  1.0  1.0633
  Fe  Fe3  1  0.622460  0.584030  0.366920  1.0  1.0772
  Fe  Fe4  1  0.573490  0.603800  0.812620  1.0  1.0631
  Fe  Fe5  1  0.622460  0.915970  0.866920  1.0  1.077
  Fe  Fe6  1  0.573490  0.896200  0.312620  1.0  1.0631
  Fe  Fe7  1  0.377540  0.415970  0.633080  1.0  1.0809
  Fe  Fe8  1  0.426510  0.396200  0.187380  1.0  1.0635
  Fe  Fe9  1  0.500000  0.000000  0.000000  1.0  1.0783
  Fe  Fe10  1  0.500000  0.500000  0.500000  1.0  1.0783
  Fe  Fe11  1  0.000000  0.000000  0.000000  1.0  1.0444
  Fe  Fe12  1  0.000000  0.500000  0.500000  1.0  1.0444
  H  H13  1  0.498100  0.248200  0.365300  1.0  0.009
  H  H14  1  0.789300  0.971300  0.264000  1.0  0.0236
  H  H15  1  0.483000  0.385300  0.039600  1.0  0.0087
  H  H16  1  0.248000  0.812700  0.230500  1.0  0.0023
  H  H17  1  0.225900  0.845100  0.927400  1.0  0.0075
  H  H18  1  0.016500  0.300700  0.009200  1.0  0.031
  H  H19  1  0.501900  0.748200  0.134700  1.0  0.0091
  H  H20  1  0.210700  0.471300  0.236000  1.0  0.0248
  H  H21  1  0.517000  0.885300  0.460400  1.0  0.0089
  H  H22  1  0.752000  0.312700  0.269500  1.0  0.0013
  H  H23  1  0.774100  0.345100  0.572600  1.0  0.007
  H  H24  1  0.983500  0.800700  0.490800  1.0  0.0304
  H  H25  1  0.501900  0.751800  0.634700  1.0  0.0093
  H  H26  1  0.210700  0.028700  0.736000  1.0  0.0248
  H  H27  1  0.517000  0.614700  0.960400  1.0  0.0092
  H  H28  1  0.752000  0.187300  0.769500  1.0  0.0016
  H  H29  1  0.774100  0.154900  0.072600  1.0  0.006
  H  H30  1  0.983500  0.699300  0.990800  1.0  0.0307
  H  H31  1  0.498100  0.251800  0.865300  1.0  0.0092
  H  H32  1  0.789300  0.528700  0.764000  1.0  0.0237
  H  H33  1  0.483000  0.114700  0.539600  1.0  0.0088
  H  H34  1  0.248000  0.687300  0.730500  1.0  0.0021
  H  H35  1  0.225900  0.654900  0.427400  1.0  0.0072
  H  H36  1  0.016500  0.199300  0.509200  1.0  0.0308
  C  C37  1  0.495600  0.177800  0.329100  1.0  0.7119
  C  C38  1  0.693400  0.990100  0.210700  1.0  0.6638
  C  C39  1  0.474000  0.291700  0.047900  1.0  0.6818
  C  C40  1  0.232300  0.872600  0.184900  1.0  0.7058
  C  C41  1  0.224200  0.899800  0.969300  1.0  0.7244
  C  C42  1  0.118700  0.282200  0.051000  1.0  0.6936
  C  C43  1  0.504400  0.677800  0.170900  1.0  0.7109
  C  C44  1  0.306600  0.490100  0.289300  1.0  0.6618
  C  C45  1  0.526000  0.791700  0.452100  1.0  0.6813
  C  C46  1  0.767700  0.372600  0.315100  1.0  0.7048
  C  C47  1  0.775800  0.399800  0.530700  1.0  0.7238
  C  C48  1  0.881300  0.782200  0.449000  1.0  0.6926
  C  C49  1  0.504400  0.822200  0.670900  1.0  0.7121
  C  C50  1  0.306600  0.009900  0.789300  1.0  0.6601
  C  C51  1  0.526000  0.708300  0.952100  1.0  0.6814
  C  C52  1  0.767700  0.127400  0.815100  1.0  0.7045
  C  C53  1  0.775800  0.100200  0.030700  1.0  0.7233
  C  C54  1  0.881300  0.717800  0.949000  1.0  0.6937
  C  C55  1  0.495600  0.322200  0.829100  1.0  0.7124
  C  C56  1  0.693400  0.509900  0.710700  1.0  0.664
  C  C57  1  0.474000  0.208300  0.547900  1.0  0.6809
  C  C58  1  0.232300  0.627400  0.684900  1.0  0.7059
  C  C59  1  0.224200  0.600200  0.469300  1.0  0.7241
  C  C60  1  0.118700  0.217800  0.551000  1.0  0.6946
  O  O61  1  0.435400  0.205800  0.245690  1.0  -0.6393
  O  O62  1  0.550500  0.068300  0.366900  1.0  -0.5772
  O  O63  1  0.591000  0.001500  0.219350  1.0  -0.6601
  O  O64  1  0.678300  0.001600  0.138360  1.0  -0.6059
  O  O65  1  0.454400  0.261800  0.107170  1.0  -0.647
  O  O66  1  0.482500  0.210300  0.000190  1.0  -0.5723
  O  O67  1  0.345500  0.920100  0.195940  1.0  -0.6628
  O  O68  1  0.103800  0.896800  0.120600  1.0  -0.6021
  O  O69  1  0.336700  0.975000  0.023090  1.0  -0.64
  O  O70  1  0.114900  0.892300  0.967200  1.0  -0.6131
  O  O71  1  0.159400  0.156800  0.059860  1.0  -0.6717
  O  O72  1  0.201000  0.380000  0.091980  1.0  -0.5729
  O  O73  1  0.564600  0.705800  0.254310  1.0  -0.6382
  O  O74  1  0.449500  0.568300  0.133100  1.0  -0.5784
  O  O75  1  0.409000  0.501500  0.280650  1.0  -0.6601
  O  O76  1  0.321700  0.501600  0.361640  1.0  -0.6051
  O  O77  1  0.545600  0.761800  0.392830  1.0  -0.6474
  O  O78  1  0.517500  0.710300  0.499810  1.0  -0.5719
  O  O79  1  0.654500  0.420100  0.304060  1.0  -0.6634
  O  O80  1  0.896200  0.396800  0.379400  1.0  -0.6039
  O  O81  1  0.663300  0.475000  0.476910  1.0  -0.639
  O  O82  1  0.885100  0.392300  0.532800  1.0  -0.6138
  O  O83  1  0.840600  0.656800  0.440140  1.0  -0.6713
  O  O84  1  0.799000  0.880000  0.408020  1.0  -0.5717
  O  O85  1  0.564600  0.794200  0.754310  1.0  -0.6385
  O  O86  1  0.449500  0.931700  0.633100  1.0  -0.5778
  O  O87  1  0.409000  0.998500  0.780650  1.0  -0.66
  O  O88  1  0.321700  0.998400  0.861640  1.0  -0.605
  O  O89  1  0.545600  0.738200  0.892830  1.0  -0.6469
  O  O90  1  0.517500  0.789700  0.999810  1.0  -0.5712
  O  O91  1  0.654500  0.079900  0.804060  1.0  -0.6631
  O  O92  1  0.896200  0.103200  0.879400  1.0  -0.604
  O  O93  1  0.663300  0.025000  0.976910  1.0  -0.6391
  O  O94  1  0.885100  0.107700  0.032800  1.0  -0.614
  O  O95  1  0.840600  0.843200  0.940140  1.0  -0.6708
  O  O96  1  0.799000  0.620000  0.908020  1.0  -0.5731
  O  O97  1  0.435400  0.294200  0.745690  1.0  -0.6394
  O  O98  1  0.550500  0.431700  0.866900  1.0  -0.5775
  O  O99  1  0.591000  0.498500  0.719350  1.0  -0.6601
  O  O100  1  0.678300  0.498400  0.638360  1.0  -0.606
  O  O101  1  0.454400  0.238200  0.607170  1.0  -0.647
  O  O102  1  0.482500  0.289700  0.500190  1.0  -0.5722
  O  O103  1  0.345500  0.579900  0.695940  1.0  -0.6625
  O  O104  1  0.103800  0.603200  0.620600  1.0  -0.6022
  O  O105  1  0.336700  0.525000  0.523090  1.0  -0.6397
  O  O106  1  0.114900  0.607700  0.467200  1.0  -0.6126
  O  O107  1  0.159400  0.343200  0.559860  1.0  -0.6709
  O  O108  1  0.201000  0.120000  0.591980  1.0  -0.573
