# generated using pymatgen
data_Ce2Mn2P2H20W15C25N5O49
_symmetry_space_group_name_H-M   'P 1'
_cell_length_a   15.36900000
_cell_length_b   15.40300000
_cell_length_c   20.10400000
_cell_angle_alpha   84.83500000
_cell_angle_beta   89.82800000
_cell_angle_gamma   74.46000000
_symmetry_Int_Tables_number   1
_chemical_formula_structural   Ce2Mn2P2H20W15C25N5O49
_chemical_formula_sum   'Ce4 Mn4 P4 H40 W30 C50 N10 O98'
_cell_volume   4565.49129286
_cell_formula_units_Z   2
loop_
 _symmetry_equiv_pos_site_id
 _symmetry_equiv_pos_as_xyz
  1  'x, y, z'
loop_
 _atom_site_type_symbol
 _atom_site_label
 _atom_site_symmetry_multiplicity
 _atom_site_fract_x
 _atom_site_fract_y
 _atom_site_fract_z
 _atom_site_occupancy
 _atom_site_charge
  Ce  Ce1  1  0.359750  0.362480  0.501510  1.0  1.9946
  Ce  Ce2  1  0.646720  0.308810  0.861780  1.0  2.1055
  Ce  Ce3  1  0.353280  0.691190  0.138220  1.0  2.1098
  Ce  Ce4  1  0.640250  0.637520  0.498490  1.0  1.993
  Mn  Mn5  1  0.930690  0.930770  0.500950  1.0  1.0558
  Mn  Mn6  1  0.905140  0.086160  0.608400  1.0  1.0708
  Mn  Mn7  1  0.094860  0.913840  0.391600  1.0  1.0675
  Mn  Mn8  1  0.069310  0.069230  0.499050  1.0  1.0555
  P  P9  1  0.263900  0.715100  0.759400  1.0  1.5834
  P  P10  1  0.914400  0.096000  0.374200  1.0  1.6295
  P  P11  1  0.736100  0.284900  0.240600  1.0  1.5843
  P  P12  1  0.085600  0.904000  0.625800  1.0  1.6308
  H  H13  1  0.217500  0.969400  0.103100  1.0  0.1065
  H  H14  1  0.269900  0.059400  0.381200  1.0  0.0785
  H  H15  1  0.845100  0.739800  0.456800  1.0  0.104
  H  H16  1  0.087200  0.784200  0.119300  1.0  0.0746
  H  H17  1  0.116000  0.057500  0.032700  1.0  0.1134
  H  H18  1  0.101200  0.524100  0.536900  1.0  0.1104
  H  H19  1  0.303400  0.011900  0.274100  1.0  0.0868
  H  H20  1  0.458600  0.233900  0.722200  1.0  0.0916
  H  H21  1  0.898800  0.475900  0.463100  1.0  0.1102
  H  H22  1  0.730100  0.940600  0.618800  1.0  0.0795
  H  H23  1  0.258900  0.162700  0.449900  1.0  0.1075
  H  H24  1  0.009300  0.470300  0.385200  1.0  0.1067
  H  H25  1  0.990700  0.529700  0.614800  1.0  0.1065
  H  H26  1  0.461900  0.135800  0.643600  1.0  0.1156
  H  H27  1  0.978900  0.867700  0.038700  1.0  0.1197
  H  H28  1  0.473400  0.894400  0.533800  1.0  0.1149
  H  H29  1  0.782500  0.030600  0.896900  1.0  0.1067
  H  H30  1  0.538000  0.996400  0.392000  1.0  0.0935
  H  H31  1  0.884000  0.942500  0.967300  1.0  0.1137
  H  H32  1  0.741100  0.837300  0.550100  1.0  0.1078
  H  H33  1  0.888400  0.533700  0.680900  1.0  0.1233
  H  H34  1  0.154900  0.260200  0.543200  1.0  0.1032
  H  H35  1  0.696600  0.988100  0.725900  1.0  0.0867
  H  H36  1  0.538100  0.864200  0.356400  1.0  0.1146
  H  H37  1  0.841600  0.266800  0.770700  1.0  0.0998
  H  H38  1  0.215300  0.468900  0.238000  1.0  0.0824
  H  H39  1  0.111600  0.466300  0.319100  1.0  0.1226
  H  H40  1  0.526600  0.105600  0.466200  1.0  0.1153
  H  H41  1  0.784700  0.531100  0.762000  1.0  0.0825
  H  H42  1  0.037400  0.266200  0.620400  1.0  0.1395
  H  H43  1  0.158400  0.733200  0.229300  1.0  0.0988
  H  H44  1  0.310800  0.905600  0.201000  1.0  0.1016
  H  H45  1  0.956400  0.268200  0.694700  1.0  0.1326
  H  H46  1  0.912800  0.215800  0.880700  1.0  0.0755
  H  H47  1  0.541400  0.766100  0.277800  1.0  0.0913
  H  H48  1  0.021100  0.132300  0.961300  1.0  0.122
  H  H49  1  0.043600  0.731800  0.305300  1.0  0.1329
  H  H50  1  0.462000  0.003600  0.608000  1.0  0.0935
  H  H51  1  0.962600  0.733800  0.379600  1.0  0.1401
  H  H52  1  0.689200  0.094400  0.799000  1.0  0.1002
  W  W53  1  0.450440  0.526020  0.780230  1.0  2.5635
  W  W54  1  0.760120  0.962640  0.373900  1.0  1.4089
  W  W55  1  0.730960  0.121970  0.482250  1.0  1.2879
  W  W56  1  0.404560  0.863680  0.746980  1.0  1.4932
  W  W57  1  0.885620  0.421770  0.245830  1.0  1.474
  W  W58  1  0.084660  0.752840  0.873860  1.0  1.4035
  W  W59  1  0.114380  0.578230  0.754170  1.0  1.4621
  W  W60  1  0.432400  0.705440  0.639210  1.0  2.5864
  W  W61  1  0.915340  0.247160  0.126140  1.0  1.4022
  W  W62  1  0.777580  0.111630  0.129390  1.0  1.4901
  W  W63  1  0.119250  0.730040  0.520150  1.0  1.3382
  W  W64  1  0.048390  0.248870  0.369020  1.0  1.3838
  W  W65  1  0.269040  0.878030  0.517750  1.0  1.2844
  W  W66  1  0.058990  0.059570  0.747320  1.0  1.3932
  W  W67  1  0.576700  0.312300  0.109840  1.0  1.3628
  W  W68  1  0.549560  0.473980  0.219770  1.0  2.5665
  W  W69  1  0.941010  0.940430  0.252680  1.0  1.3954
  W  W70  1  0.281340  0.549330  0.894150  1.0  1.3829
  W  W71  1  0.595440  0.136320  0.253020  1.0  1.4932
  W  W72  1  0.078330  0.077250  0.250270  1.0  1.4111
  W  W73  1  0.951610  0.751130  0.630980  1.0  1.3772
  W  W74  1  0.720020  0.443640  0.357520  1.0  2.5454
  W  W75  1  0.880750  0.269960  0.479850  1.0  1.3393
  W  W76  1  0.423300  0.687700  0.890160  1.0  1.3613
  W  W77  1  0.279980  0.556360  0.642480  1.0  2.5451
  W  W78  1  0.239880  0.037360  0.626100  1.0  1.4067
  W  W79  1  0.921670  0.922750  0.749730  1.0  1.4072
  W  W80  1  0.222420  0.888370  0.870610  1.0  1.4952
  W  W81  1  0.567600  0.294560  0.360790  1.0  2.5885
  W  W82  1  0.718660  0.450670  0.105850  1.0  1.3874
  C  C83  1  0.818000  0.476000  0.748000  1.0  0.0349
  C  C84  1  0.525300  0.904000  0.552000  1.0  -0.0193
  C  C85  1  0.109600  0.000700  0.047800  1.0  -0.1298
  C  C86  1  0.506000  0.181000  0.723100  1.0  0.0209
  C  C87  1  0.353000  0.961000  0.276000  1.0  -0.1568
  C  C88  1  0.677100  0.930700  0.603000  1.0  -0.1295
  C  C89  1  0.415500  0.949700  0.326000  1.0  0.0955
  C  C90  1  0.878300  0.685200  0.442300  1.0  0.0477
  C  C91  1  0.118000  0.521700  0.301000  1.0  -0.2117
  C  C92  1  0.089300  0.470900  0.555000  1.0  -0.0697
  C  C93  1  0.003000  0.397100  0.629000  1.0  0.0593
  C  C94  1  0.051000  0.319700  0.605100  1.0  -0.1228
  C  C95  1  0.508600  0.125000  0.675100  1.0  -0.2658
  C  C96  1  0.593800  0.983700  0.626200  1.0  0.0745
  C  C97  1  0.121700  0.314800  0.557700  1.0  0.0476
  C  C98  1  0.684300  0.870800  0.562000  1.0  0.006
  C  C99  1  0.039000  0.974000  0.024600  1.0  0.0268
  C  C100  1  0.491400  0.875000  0.324900  1.0  -0.2644
  C  C101  1  0.647000  0.039000  0.724000  1.0  -0.1535
  C  C102  1  0.933900  0.400300  0.677000  1.0  0.0843
  C  C103  1  0.518900  0.969000  0.597200  1.0  -0.1359
  C  C104  1  0.977100  0.526100  0.398400  1.0  -0.1399
  C  C105  1  0.910700  0.529100  0.445000  1.0  -0.0687
  C  C106  1  0.168000  0.949700  0.090400  1.0  0.0697
  C  C107  1  0.949000  0.680300  0.394900  1.0  -0.1239
  C  C108  1  0.907000  0.161000  0.900400  1.0  -0.0144
  C  C109  1  0.973000  0.111000  0.948200  1.0  -0.1817
  C  C110  1  0.890400  0.999300  0.952200  1.0  -0.1295
  C  C111  1  0.080100  0.677000  0.293500  1.0  -0.1404
  C  C112  1  0.182000  0.524000  0.252000  1.0  0.0329
  C  C113  1  0.882000  0.478300  0.699000  1.0  -0.2121
  C  C114  1  0.315700  0.129200  0.438000  1.0  0.0054
  C  C115  1  0.961000  0.026000  0.975400  1.0  0.026
  C  C116  1  0.832000  0.050300  0.909600  1.0  0.0679
  C  C117  1  0.853000  0.320900  0.754100  1.0  -0.0221
  C  C118  1  0.997000  0.602900  0.371000  1.0  0.0588
  C  C119  1  0.584500  0.050300  0.674000  1.0  0.0957
  C  C120  1  0.642000  0.099000  0.769000  1.0  -0.0209
  C  C121  1  0.494000  0.819000  0.276900  1.0  0.0217
  C  C122  1  0.027000  0.889000  0.051800  1.0  -0.1831
  C  C123  1  0.022900  0.473900  0.601600  1.0  -0.141
  C  C124  1  0.481100  0.031000  0.402800  1.0  -0.1362
  C  C125  1  0.322900  0.069300  0.397000  1.0  -0.1282
  C  C126  1  0.147000  0.679100  0.245900  1.0  -0.0212
  C  C127  1  0.093000  0.839000  0.099600  1.0  -0.0175
  C  C128  1  0.358000  0.901000  0.231000  1.0  -0.0208
  C  C129  1  0.406200  0.016300  0.373800  1.0  0.0748
  C  C130  1  0.474700  0.096000  0.448000  1.0  -0.0186
  C  C131  1  0.066100  0.599700  0.323000  1.0  0.0854
  C  C132  1  0.919900  0.323000  0.706500  1.0  -0.1375
  N  N133  1  0.160600  0.868000  0.117300  1.0  0.2634
  N  N134  1  0.195900  0.596800  0.224900  1.0  0.3208
  N  N135  1  0.392900  0.144400  0.464700  1.0  0.2955
  N  N136  1  0.804100  0.403200  0.775100  1.0  0.3239
  N  N137  1  0.607100  0.855600  0.535300  1.0  0.2855
  N  N138  1  0.839400  0.132000  0.882700  1.0  0.2583
  N  N139  1  0.566000  0.164200  0.770900  1.0  0.3171
  N  N140  1  0.136000  0.392200  0.536300  1.0  0.2956
  N  N141  1  0.864000  0.607800  0.463700  1.0  0.2934
  N  N142  1  0.434000  0.835800  0.229100  1.0  0.315
  O  O143  1  0.060000  0.189000  0.291000  1.0  -0.7301
  O  O144  1  0.190400  0.651700  0.909700  1.0  -0.7509
  O  O145  1  0.044600  0.647000  0.689500  1.0  -0.69
  O  O146  1  0.818500  0.086000  0.387000  1.0  -0.8291
  O  O147  1  0.211900  0.528400  0.825300  1.0  -0.7593
  O  O148  1  0.302500  0.974600  0.553200  1.0  -0.7154
  O  O149  1  0.963800  0.016200  0.786800  1.0  -0.7113
  O  O150  1  0.631700  0.494300  0.280300  1.0  -0.7968
  O  O151  1  0.850700  0.900700  0.428500  1.0  -0.6839
  O  O152  1  0.612900  0.797900  0.488400  1.0  -0.7029
  O  O153  1  0.942700  0.073500  0.302700  1.0  -0.8435
  O  O154  1  0.869700  0.992800  0.677800  1.0  -0.7159
  O  O155  1  0.940000  0.811000  0.709000  1.0  -0.732
  O  O156  1  0.192500  0.631300  0.587100  1.0  -0.7254
  O  O157  1  0.020900  0.693100  0.557400  1.0  -0.7066
  O  O158  1  0.368300  0.505700  0.719700  1.0  -0.7933
  O  O159  1  0.646000  0.389200  0.065100  1.0  -0.6834
  O  O160  1  0.130300  0.007200  0.322200  1.0  -0.7156
  O  O161  1  0.993600  0.116100  0.675200  1.0  -0.6959
  O  O162  1  0.006400  0.883900  0.324800  1.0  -0.6965
  O  O163  1  0.541600  0.433200  0.781200  1.0  -0.82
  O  O164  1  0.359000  0.631400  0.624800  1.0  -0.8078
  O  O165  1  0.496500  0.590700  0.841400  1.0  -0.7461
  O  O166  1  0.011500  0.842800  0.820400  1.0  -0.7614
  O  O167  1  0.168700  0.948300  0.470800  1.0  -0.7386
  O  O168  1  0.196000  0.510600  0.695100  1.0  -0.7
  O  O169  1  0.036200  0.983800  0.213200  1.0  -0.7134
  O  O170  1  0.200000  0.779300  0.801000  1.0  -0.7508
  O  O171  1  0.788100  0.471600  0.174700  1.0  -0.7574
  O  O172  1  0.859200  0.170900  0.081600  1.0  -0.6742
  O  O173  1  0.018200  0.975700  0.573100  1.0  -0.8071
  O  O174  1  0.979100  0.306900  0.442600  1.0  -0.7054
  O  O175  1  0.809600  0.348300  0.090300  1.0  -0.7472
  O  O176  1  0.981800  0.024300  0.426900  1.0  -0.808
  O  O177  1  0.677900  0.238200  0.283200  1.0  -0.7858
  O  O178  1  0.320400  0.470900  0.591200  1.0  -0.8596
  O  O179  1  0.926400  0.333500  0.184900  1.0  -0.717
  O  O180  1  0.641000  0.368600  0.375200  1.0  -0.807
  O  O181  1  0.748500  0.404100  0.829000  1.0  -0.6547
  O  O182  1  0.988500  0.157200  0.179600  1.0  -0.7612
  O  O183  1  0.149300  0.099300  0.571500  1.0  -0.6843
  O  O184  1  0.478500  0.783900  0.690500  1.0  -0.6716
  O  O185  1  0.800000  0.220700  0.199000  1.0  -0.75
  O  O186  1  0.784500  0.339200  0.277400  1.0  -0.8458
  O  O187  1  0.339100  0.939500  0.681500  1.0  -0.6742
  O  O188  1  0.523200  0.388700  0.283600  1.0  -0.753
  O  O189  1  0.776500  0.183800  0.840700  1.0  -0.6163
  O  O190  1  0.223500  0.816200  0.159300  1.0  -0.6142
  O  O191  1  0.331300  0.645500  0.813000  1.0  -0.7637
  O  O192  1  0.052300  0.833200  0.473000  1.0  -0.7312
  O  O193  1  0.476800  0.611300  0.716400  1.0  -0.7507
  O  O194  1  0.687600  0.099700  0.191100  1.0  -0.7113
  O  O195  1  0.824300  0.955500  0.295300  1.0  -0.7453
  O  O196  1  0.523900  0.666667  0.591200  1.0  -0.8897
  O  O197  1  0.175700  0.044500  0.704700  1.0  -0.7468
  O  O198  1  0.312400  0.900300  0.808900  1.0  -0.706
  O  O199  1  0.552800  0.240100  0.184200  1.0  -0.7576
  O  O200  1  0.476100  0.333400  0.408800  1.0  -0.8904
  O  O201  1  0.387100  0.202100  0.511600  1.0  -0.6998
  O  O202  1  0.521500  0.216100  0.309500  1.0  -0.6727
  O  O203  1  0.503500  0.409300  0.158600  1.0  -0.7441
  O  O204  1  0.140800  0.829100  0.918400  1.0  -0.6753
  O  O205  1  0.199000  0.390700  0.491100  1.0  -0.6773
  O  O206  1  0.697500  0.025400  0.446800  1.0  -0.7152
  O  O207  1  0.681500  0.222300  0.091500  1.0  -0.7441
  O  O208  1  0.923200  0.189100  0.384800  1.0  -0.8135
  O  O209  1  0.831300  0.051700  0.529200  1.0  -0.7398
  O  O210  1  0.443300  0.780800  0.184000  1.0  -0.6573
  O  O211  1  0.668700  0.354500  0.187000  1.0  -0.7616
  O  O212  1  0.380700  0.477900  0.843700  1.0  -0.7497
  O  O213  1  0.322100  0.761800  0.716800  1.0  -0.785
  O  O214  1  0.251500  0.595900  0.171000  1.0  -0.655
  O  O215  1  0.807500  0.368700  0.412900  1.0  -0.7253
  O  O216  1  0.215500  0.660800  0.722600  1.0  -0.8465
  O  O217  1  0.804000  0.489400  0.304900  1.0  -0.6991
  O  O218  1  0.104300  0.154200  0.422400  1.0  -0.724
  O  O219  1  0.447200  0.759900  0.815800  1.0  -0.7563
  O  O220  1  0.801000  0.609300  0.508900  1.0  -0.677
  O  O221  1  0.636600  0.203100  0.415000  1.0  -0.7621
  O  O222  1  0.219500  0.776900  0.524500  1.0  -0.6786
  O  O223  1  0.181500  0.914000  0.613000  1.0  -0.8308
  O  O224  1  0.619300  0.522100  0.156300  1.0  -0.7506
  O  O225  1  0.057300  0.926500  0.697300  1.0  -0.8442
  O  O226  1  0.679600  0.529100  0.408800  1.0  -0.8617
  O  O227  1  0.780500  0.223100  0.475500  1.0  -0.6789
  O  O228  1  0.363400  0.796900  0.585000  1.0  -0.7625
  O  O229  1  0.076800  0.810900  0.615200  1.0  -0.8143
  O  O230  1  0.660900  0.060500  0.318500  1.0  -0.6744
  O  O231  1  0.556700  0.219200  0.816000  1.0  -0.6599
  O  O232  1  0.073600  0.666500  0.815100  1.0  -0.7143
  O  O233  1  0.318500  0.777700  0.908500  1.0  -0.7431
  O  O234  1  0.354000  0.610800  0.934900  1.0  -0.6817
  O  O235  1  0.458400  0.566800  0.218800  1.0  -0.8204
  O  O236  1  0.895700  0.845800  0.577600  1.0  -0.7235
  O  O237  1  0.863600  0.033800  0.181000  1.0  -0.7825
  O  O238  1  0.136400  0.966200  0.819000  1.0  -0.7817
  O  O239  1  0.955400  0.353000  0.310500  1.0  -0.6905
  O  O240  1  0.947700  0.166800  0.527000  1.0  -0.7342
