# generated using pymatgen
data_CuH13C16N7O8
_symmetry_space_group_name_H-M   'P 1'
_cell_length_a   5.74670000
_cell_length_b   17.96310000
_cell_length_c   20.39440000
_cell_angle_alpha   90.00000000
_cell_angle_beta   90.00000000
_cell_angle_gamma   90.00000000
_symmetry_Int_Tables_number   1
_chemical_formula_structural   CuH13C16N7O8
_chemical_formula_sum   'Cu4 H52 C64 N28 O32'
_cell_volume   2105.28427425
_cell_formula_units_Z   4
loop_
 _symmetry_equiv_pos_site_id
 _symmetry_equiv_pos_as_xyz
  1  'x, y, z'
loop_
 _atom_site_type_symbol
 _atom_site_label
 _atom_site_symmetry_multiplicity
 _atom_site_fract_x
 _atom_site_fract_y
 _atom_site_fract_z
 _atom_site_occupancy
 _atom_site_charge
  Cu  Cu1  1  0.144230  0.996170  0.708490  1.0  0.793
  Cu  Cu2  1  0.355770  0.003830  0.208490  1.0  0.7922
  Cu  Cu3  1  0.644230  0.503830  0.291510  1.0  0.7926
  Cu  Cu4  1  0.855770  0.496170  0.791510  1.0  0.7932
  H  H5  1  0.972000  0.133200  0.065400  1.0  0.1268
  H  H6  1  0.472000  0.366800  0.934600  1.0  0.1274
  H  H7  1  0.297800  0.165200  0.276100  1.0  0.0931
  H  H8  1  0.087200  0.716800  0.739100  1.0  0.1107
  H  H9  1  0.412800  0.283200  0.239100  1.0  0.1119
  H  H10  1  0.202200  0.834800  0.776100  1.0  0.094
  H  H11  1  0.702200  0.665200  0.223900  1.0  0.0933
  H  H12  1  0.689800  0.938400  0.942500  1.0  0.329
  H  H13  1  0.826300  0.279500  0.665200  1.0  0.1132
  H  H14  1  0.003500  0.658400  0.142700  1.0  0.1032
  H  H15  1  0.371000  0.376000  0.128600  1.0  0.1155
  H  H16  1  0.996500  0.158400  0.357300  1.0  0.105
  H  H17  1  0.238700  0.554900  0.194800  1.0  0.118
  H  H18  1  0.173700  0.779500  0.834800  1.0  0.1145
  H  H19  1  0.114600  0.464000  0.373600  1.0  0.0989
  H  H20  1  0.310200  0.438400  0.557500  1.0  0.3301
  H  H21  1  0.352600  0.141400  0.775100  1.0  0.1232
  H  H22  1  0.071400  0.347500  0.855500  1.0  0.0968
  H  H23  1  0.911500  0.236600  0.333100  1.0  0.1084
  H  H24  1  0.528000  0.866800  0.565400  1.0  0.127
  H  H25  1  0.326800  0.739600  0.708100  1.0  0.1075
  H  H26  1  0.810200  0.061600  0.442500  1.0  0.3292
  H  H27  1  0.147400  0.858600  0.275100  1.0  0.1233
  H  H28  1  0.326300  0.220500  0.334800  1.0  0.1136
  H  H29  1  0.912800  0.216800  0.760900  1.0  0.1125
  H  H30  1  0.614600  0.036000  0.626400  1.0  0.0988
  H  H31  1  0.928600  0.847500  0.644500  1.0  0.0974
  H  H32  1  0.673200  0.239600  0.791900  1.0  0.1078
  H  H33  1  0.129000  0.624000  0.628600  1.0  0.1153
  H  H34  1  0.647400  0.641400  0.724900  1.0  0.1229
  H  H35  1  0.189800  0.561600  0.057500  1.0  0.3278
  H  H36  1  0.428600  0.652500  0.355500  1.0  0.0972
  H  H37  1  0.761300  0.054900  0.305200  1.0  0.118
  H  H38  1  0.571400  0.152500  0.144500  1.0  0.097
  H  H39  1  0.826800  0.760400  0.291900  1.0  0.1066
  H  H40  1  0.587200  0.783200  0.260900  1.0  0.1115
  H  H41  1  0.503500  0.841600  0.857300  1.0  0.1051
  H  H42  1  0.588500  0.763400  0.833100  1.0  0.1088
  H  H43  1  0.871000  0.124000  0.871400  1.0  0.1155
  H  H44  1  0.852600  0.358600  0.224900  1.0  0.1233
  H  H45  1  0.028000  0.633200  0.434600  1.0  0.1271
  H  H46  1  0.885400  0.964000  0.126400  1.0  0.0983
  H  H47  1  0.088500  0.736600  0.166900  1.0  0.1078
  H  H48  1  0.673700  0.720500  0.165200  1.0  0.1139
  H  H49  1  0.496500  0.341600  0.642700  1.0  0.1026
  H  H50  1  0.738700  0.945100  0.805200  1.0  0.1179
  H  H51  1  0.411500  0.263400  0.666900  1.0  0.1067
  H  H52  1  0.261300  0.445100  0.694800  1.0  0.1182
  H  H53  1  0.629000  0.876000  0.371400  1.0  0.1153
  H  H54  1  0.385400  0.536000  0.873600  1.0  0.0987
  H  H55  1  0.797800  0.334800  0.723900  1.0  0.0922
  H  H56  1  0.173200  0.260400  0.208100  1.0  0.1074
  C  C57  1  0.052600  0.606430  0.591510  1.0  -0.0619
  C  C58  1  0.512800  0.809100  0.819360  1.0  -0.0076
  C  C59  1  0.116100  0.051160  0.902930  1.0  -0.1454
  C  C60  1  0.266700  0.973770  0.459240  1.0  -0.0609
  C  C61  1  0.395400  0.960240  0.955580  1.0  0.6866
  C  C62  1  0.300400  0.032240  0.082030  1.0  0.6656
  C  C63  1  0.051600  0.873520  0.240790  1.0  0.1729
  C  C64  1  0.605200  0.865280  0.469330  1.0  0.0201
  C  C65  1  0.242900  0.410790  0.728540  1.0  0.1606
  C  C66  1  0.839400  0.518530  0.663720  1.0  0.6676
  C  C67  1  0.767900  0.709120  0.203390  1.0  -0.0978
  C  C68  1  0.339400  0.981470  0.336280  1.0  0.6678
  C  C69  1  0.178800  0.057960  0.020180  1.0  -0.1386
  C  C70  1  0.199600  0.967760  0.582030  1.0  0.6649
  C  C71  1  0.905800  0.929740  0.160100  1.0  0.2499
  C  C72  1  0.857900  0.856700  0.684740  1.0  0.2436
  C  C73  1  0.233300  0.026230  0.959240  1.0  -0.0609
  C  C74  1  0.883900  0.551160  0.597070  1.0  -0.1444
  C  C75  1  0.604600  0.460240  0.544420  1.0  0.6872
  C  C76  1  0.987200  0.190900  0.319360  1.0  -0.0078
  C  C77  1  0.594200  0.070260  0.660100  1.0  0.2502
  C  C78  1  0.257100  0.589210  0.228540  1.0  0.1599
  C  C79  1  0.160600  0.018530  0.836280  1.0  0.6675
  C  C80  1  0.660600  0.481470  0.163720  1.0  0.6672
  C  C81  1  0.821200  0.557960  0.479820  1.0  -0.1382
  C  C82  1  0.447400  0.393570  0.091510  1.0  -0.0617
  C  C83  1  0.750300  0.226410  0.751210  1.0  -0.0046
  C  C84  1  0.732100  0.290880  0.703390  1.0  -0.0989
  C  C85  1  0.321200  0.942040  0.520180  1.0  -0.1379
  C  C86  1  0.947400  0.106430  0.908490  1.0  -0.0626
  C  C87  1  0.508600  0.387700  0.975000  1.0  -0.068
  C  C88  1  0.357900  0.643300  0.315260  1.0  0.2452
  C  C89  1  0.699600  0.532240  0.417970  1.0  0.6657
  C  C90  1  0.249700  0.726410  0.748790  1.0  -0.0017
  C  C91  1  0.267900  0.790880  0.796610  1.0  -0.0984
  C  C92  1  0.552600  0.893570  0.408490  1.0  -0.0611
  C  C93  1  0.142100  0.356700  0.815260  1.0  0.2449
  C  C94  1  0.250300  0.273590  0.248790  1.0  -0.0027
  C  C95  1  0.678800  0.442040  0.979820  1.0  -0.1379
  C  C96  1  0.733300  0.473770  0.040760  1.0  -0.0615
  C  C97  1  0.894800  0.134720  0.969330  1.0  0.0193
  C  C98  1  0.757100  0.910790  0.771460  1.0  0.1604
  C  C99  1  0.394800  0.365280  0.030670  1.0  0.0193
  C  C100  1  0.491400  0.887700  0.525000  1.0  -0.0673
  C  C101  1  0.742900  0.089210  0.271460  1.0  0.16
  C  C102  1  0.642100  0.143300  0.184740  1.0  0.2444
  C  C103  1  0.991400  0.612300  0.475000  1.0  -0.0677
  C  C104  1  0.008600  0.112300  0.025000  1.0  -0.0687
  C  C105  1  0.405800  0.570260  0.839900  1.0  0.2496
  C  C106  1  0.948400  0.373520  0.259210  1.0  0.1724
  C  C107  1  0.800400  0.467760  0.917970  1.0  0.6654
  C  C108  1  0.551600  0.626480  0.759210  1.0  0.1718
  C  C109  1  0.104600  0.039760  0.455580  1.0  0.6867
  C  C110  1  0.012800  0.690900  0.180640  1.0  -0.0099
  C  C111  1  0.448400  0.126480  0.740790  1.0  0.1727
  C  C112  1  0.749700  0.773590  0.251210  1.0  -0.0045
  C  C113  1  0.766700  0.526230  0.540760  1.0  -0.061
  C  C114  1  0.616100  0.448840  0.097070  1.0  -0.1452
  C  C115  1  0.105200  0.634720  0.530670  1.0  0.02
  C  C116  1  0.383900  0.948840  0.402930  1.0  -0.1439
  C  C117  1  0.094200  0.429740  0.339900  1.0  0.2492
  C  C118  1  0.232100  0.209120  0.296610  1.0  -0.1
  C  C119  1  0.895400  0.539760  0.044420  1.0  0.6875
  C  C120  1  0.487200  0.309100  0.680640  1.0  -0.0079
  N  N121  1  0.092900  0.931070  0.201350  1.0  -0.3969
  N  N122  1  0.143700  0.340940  0.275770  1.0  0.1803
  N  N123  1  0.592900  0.568930  0.798650  1.0  -0.3975
  N  N124  1  0.856300  0.840940  0.224230  1.0  0.1808
  N  N125  1  0.110800  0.421100  0.781480  1.0  -0.3982
  N  N126  1  0.202700  0.311460  0.026160  1.0  0.6035
  N  N127  1  0.389200  0.578900  0.281480  1.0  -0.3968
  N  N128  1  0.156500  0.654910  0.230800  1.0  0.1811
  N  N129  1  0.297300  0.688540  0.526160  1.0  0.6019
  N  N130  1  0.279700  0.308610  0.786650  1.0  -0.3716
  N  N131  1  0.656500  0.845090  0.769200  1.0  0.1815
  N  N132  1  0.407100  0.068930  0.701350  1.0  -0.3997
  N  N133  1  0.220300  0.691390  0.286650  1.0  -0.3725
  N  N134  1  0.258000  0.623830  0.827930  1.0  -0.3494
  N  N135  1  0.907100  0.431070  0.298650  1.0  -0.3986
  N  N136  1  0.797300  0.811460  0.473840  1.0  0.6027
  N  N137  1  0.720300  0.808610  0.713350  1.0  -0.3715
  N  N138  1  0.843500  0.154910  0.269200  1.0  0.18
  N  N139  1  0.758000  0.876170  0.172070  1.0  -0.35
  N  N140  1  0.356300  0.659060  0.775770  1.0  0.1805
  N  N141  1  0.889200  0.921100  0.718520  1.0  -0.3956
  N  N142  1  0.702700  0.188540  0.973840  1.0  0.6038
  N  N143  1  0.242000  0.376170  0.327930  1.0  -0.3502
  N  N144  1  0.742000  0.123830  0.672070  1.0  -0.3526
  N  N145  1  0.779700  0.191390  0.213350  1.0  -0.3716
  N  N146  1  0.643700  0.159060  0.724230  1.0  0.1809
  N  N147  1  0.610800  0.078900  0.218520  1.0  -0.3981
  N  N148  1  0.343500  0.345090  0.730800  1.0  0.1798
  O  O149  1  0.042800  0.013880  0.579330  1.0  -0.5459
  O  O150  1  0.376100  0.702410  0.471800  1.0  -0.449
  O  O151  1  0.222200  0.059700  0.135470  1.0  -0.5631
  O  O152  1  0.457200  0.986120  0.079330  1.0  -0.5467
  O  O153  1  0.628000  0.215990  0.923600  1.0  -0.4148
  O  O154  1  0.175800  0.102880  0.463320  1.0  -0.5397
  O  O155  1  0.458400  0.953460  0.289040  1.0  -0.5684
  O  O156  1  0.123900  0.297590  0.971800  1.0  -0.4487
  O  O157  1  0.324200  0.897120  0.963320  1.0  -0.5404
  O  O158  1  0.612500  0.976770  0.943870  1.0  -0.5192
  O  O159  1  0.128000  0.284010  0.076400  1.0  -0.416
  O  O160  1  0.722200  0.440300  0.864530  1.0  -0.5629
  O  O161  1  0.112500  0.523230  0.056130  1.0  -0.5212
  O  O162  1  0.958400  0.546540  0.710960  1.0  -0.5685
  O  O163  1  0.801300  0.532350  0.171060  1.0  -0.567
  O  O164  1  0.876100  0.797590  0.528200  1.0  -0.4484
  O  O165  1  0.372000  0.715990  0.576400  1.0  -0.4132
  O  O166  1  0.041600  0.046540  0.789040  1.0  -0.5676
  O  O167  1  0.777800  0.559700  0.364530  1.0  -0.5627
  O  O168  1  0.198700  0.032350  0.328940  1.0  -0.5659
  O  O169  1  0.277800  0.940300  0.635470  1.0  -0.5629
  O  O170  1  0.824200  0.602880  0.036680  1.0  -0.5408
  O  O171  1  0.957200  0.513880  0.920670  1.0  -0.5458
  O  O172  1  0.542800  0.486120  0.420670  1.0  -0.5469
  O  O173  1  0.675800  0.397120  0.536680  1.0  -0.5409
  O  O174  1  0.623900  0.202410  0.028200  1.0  -0.4478
  O  O175  1  0.541600  0.453460  0.210960  1.0  -0.5684
  O  O176  1  0.301300  0.967650  0.828940  1.0  -0.5659
  O  O177  1  0.387500  0.476770  0.556130  1.0  -0.5204
  O  O178  1  0.698700  0.467650  0.671060  1.0  -0.5671
  O  O179  1  0.887500  0.023230  0.443870  1.0  -0.5207
  O  O180  1  0.872000  0.784010  0.423600  1.0  -0.4144
