# generated using pymatgen
data_Co4H64C90S3N16O13
_symmetry_space_group_name_H-M   'P 1'
_cell_length_a   11.19600000
_cell_length_b   13.02000000
_cell_length_c   16.52000000
_cell_angle_alpha   84.07200000
_cell_angle_beta   85.18200000
_cell_angle_gamma   79.13800000
_symmetry_Int_Tables_number   1
_chemical_formula_structural   Co4H64C90S3N16O13
_chemical_formula_sum   'Co4 H64 C90 S3 N16 O13'
_cell_volume   2347.22225495
_cell_formula_units_Z   1
loop_
 _symmetry_equiv_pos_site_id
 _symmetry_equiv_pos_as_xyz
  1  'x, y, z'
loop_
 _atom_site_type_symbol
 _atom_site_label
 _atom_site_symmetry_multiplicity
 _atom_site_fract_x
 _atom_site_fract_y
 _atom_site_fract_z
 _atom_site_occupancy
 _atom_site_charge
  Co  Co1  1  0.250040  0.079190  0.481570  1.0  0.9793
  Co  Co2  1  0.346650  0.142080  0.674490  1.0  0.8361
  Co  Co3  1  0.357830  0.636290  0.934920  1.0  0.8692
  Co  Co4  1  0.445000  0.717350  0.135980  1.0  0.9119
  H  H5  1  0.522000  0.524100  0.384800  1.0  0.1144
  H  H6  1  0.485100  0.409200  0.507100  1.0  0.1073
  H  H7  1  0.854900  0.136900  0.379000  1.0  0.1137
  H  H8  1  0.637800  0.125000  0.382700  1.0  0.1123
  H  H9  1  0.557600  0.076400  0.809100  1.0  0.1086
  H  H10  1  0.503500  0.332700  0.660300  1.0  0.09
  H  H11  1  0.736100  0.159500  0.810900  1.0  0.1239
  H  H12  1  0.869500  0.228700  0.668700  1.0  0.1081
  H  H13  1  0.005700  0.338000  0.619500  1.0  0.0969
  H  H14  1  0.761700  0.587700  0.687400  1.0  0.0995
  H  H15  1  0.624400  0.479000  0.734400  1.0  0.0993
  H  H16  1  0.056400  0.467700  0.515800  1.0  0.1001
  H  H17  1  0.179200  0.585400  0.460900  1.0  0.1006
  H  H18  1  0.071900  0.761300  0.648700  1.0  0.1249
  H  H19  1  0.941800  0.649300  0.698600  1.0  0.1019
  H  H20  1  0.348800  0.685200  0.438400  1.0  0.1272
  H  H21  1  0.409500  0.856800  0.409100  1.0  0.0986
  H  H22  1  0.122500  0.893200  0.563400  1.0  0.103
  H  H23  1  0.097400  0.123000  0.783400  1.0  0.0988
  H  H24  1  0.241200  0.376400  0.738400  1.0  0.1051
  H  H25  1  0.062400  0.418800  0.833100  1.0  0.1281
  H  H26  1  0.985100  0.093300  0.903900  1.0  0.1193
  H  H27  1  0.817000  0.070300  0.989300  1.0  0.1051
  H  H28  1  0.687700  0.378500  0.962600  1.0  0.1042
  H  H29  1  0.853000  0.402600  0.874800  1.0  0.1055
  H  H30  1  0.640700  0.050500  0.037700  1.0  0.1093
  H  H31  1  0.491300  0.023000  0.138200  1.0  0.0966
  H  H32  1  0.431500  0.326500  0.178200  1.0  0.1021
  H  H33  1  0.584900  0.354000  0.079400  1.0  0.1103
  H  H34  1  0.195100  0.238400  0.188400  1.0  0.1255
  H  H35  1  0.100700  0.184500  0.321800  1.0  0.1069
  H  H36  1  0.450000  0.070900  0.325300  1.0  0.0978
  H  H37  1  0.328000  0.574500  0.092100  1.0  0.2715
  H  H38  1  0.243700  0.683400  0.077100  1.0  0.2861
  H  H39  1  0.506000  0.720000  0.774700  1.0  0.1062
  H  H40  1  0.255400  0.546100  0.775800  1.0  0.1035
  H  H41  1  0.335500  0.573100  0.633800  1.0  0.1284
  H  H42  1  0.552000  0.554700  0.558500  1.0  0.1012
  H  H43  1  0.705400  0.592400  0.463200  1.0  0.1211
  H  H44  1  0.685000  0.870100  0.551600  1.0  0.1147
  H  H45  1  0.527600  0.834100  0.643500  1.0  0.1207
  H  H46  1  0.844000  0.628000  0.381300  1.0  0.1237
  H  H47  1  0.002400  0.664600  0.290700  1.0  0.1262
  H  H48  1  0.004500  0.925200  0.401600  1.0  0.1141
  H  H49  1  0.840700  0.888600  0.486400  1.0  0.106
  H  H50  1  0.192700  0.681300  0.239600  1.0  0.0944
  H  H51  1  0.316200  0.945500  0.205400  1.0  0.1026
  H  H52  1  0.131600  0.974700  0.295600  1.0  0.1098
  H  H53  1  0.981500  0.620500  0.838000  1.0  0.116
  H  H54  1  0.764000  0.613000  0.839400  1.0  0.1114
  H  H55  1  0.518800  0.779100  0.313900  1.0  0.103
  H  H56  1  0.682900  0.823600  0.097900  1.0  0.1057
  H  H57  1  0.678500  0.879200  0.329500  1.0  0.1247
  H  H58  1  0.912900  0.820600  0.108200  1.0  0.1087
  H  H59  1  0.055500  0.923100  0.057300  1.0  0.1109
  H  H60  1  0.899900  0.144900  0.206300  1.0  0.1131
  H  H61  1  0.757000  0.043200  0.255000  1.0  0.1014
  H  H62  1  0.216400  0.008000  0.054800  1.0  0.1117
  H  H63  1  0.340500  0.119400  0.992400  1.0  0.127
  H  H64  1  0.073400  0.367300  0.032400  1.0  0.1254
  H  H65  1  0.952100  0.253100  0.098700  1.0  0.1102
  H  H66  1  0.418700  0.247200  0.888700  1.0  0.1267
  H  H67  1  0.500300  0.408900  0.862900  1.0  0.1019
  H  H68  1  0.235800  0.456200  0.034100  1.0  0.1
  C  C69  1  0.391700  0.526900  0.244580  1.0  0.6874
  C  C70  1  0.392100  0.472700  0.328690  1.0  -0.2104
  C  C71  1  0.464300  0.480700  0.389700  1.0  -0.0632
  C  C72  1  0.441400  0.415700  0.460800  1.0  -0.0785
  C  C73  1  0.348600  0.363400  0.454620  1.0  -0.2163
  C  C74  1  0.302400  0.285000  0.516040  1.0  0.7101
  C  C75  1  0.978800  0.102000  0.525440  1.0  0.6811
  C  C76  1  0.851700  0.106800  0.502390  1.0  -0.2012
  C  C77  1  0.808100  0.122700  0.426700  1.0  -0.0718
  C  C78  1  0.682300  0.115100  0.428850  1.0  -0.0687
  C  C79  1  0.634500  0.091900  0.505610  1.0  -0.1918
  C  C80  1  0.509400  0.072300  0.532480  1.0  0.6806
  C  C81  1  0.569200  0.138700  0.779230  1.0  0.0226
  C  C82  1  0.538400  0.279300  0.697540  1.0  0.184
  C  C83  1  0.668200  0.184200  0.780940  1.0  -0.1285
  C  C84  1  0.732300  0.344200  0.703710  1.0  0.1413
  C  C85  1  0.847500  0.300900  0.671060  1.0  -0.1256
  C  C86  1  0.929300  0.366500  0.642050  1.0  -0.1196
  C  C87  1  0.897500  0.475500  0.646530  1.0  0.0274
  C  C88  1  0.783000  0.516000  0.682400  1.0  -0.1037
  C  C89  1  0.700400  0.451000  0.710850  1.0  -0.161
  C  C90  1  0.982900  0.547100  0.613040  1.0  0.0366
  C  C91  1  0.057100  0.527800  0.541600  1.0  -0.0866
  C  C92  1  0.131800  0.597800  0.509100  1.0  -0.1241
  C  C93  1  0.135700  0.686400  0.548350  1.0  0.1335
  C  C94  1  0.066700  0.704000  0.620780  1.0  -0.2053
  C  C95  1  0.990300  0.635600  0.651020  1.0  -0.1032
  C  C96  1  0.310800  0.747400  0.459700  1.0  -0.1544
  C  C97  1  0.343700  0.842700  0.443900  1.0  0.0223
  C  C98  1  0.186100  0.863200  0.528550  1.0  0.1473
  C  C99  1  0.111100  0.191200  0.783610  1.0  0.152
  C  C100  1  0.189400  0.330500  0.759220  1.0  0.0387
  C  C101  1  0.090800  0.354600  0.811700  1.0  -0.1514
  C  C102  1  0.935800  0.250500  0.880150  1.0  0.1031
  C  C103  1  0.925100  0.150800  0.915310  1.0  -0.1671
  C  C104  1  0.824800  0.137600  0.967360  1.0  -0.1202
  C  C105  1  0.735000  0.222400  0.988030  1.0  0.028
  C  C106  1  0.747500  0.320900  0.951290  1.0  -0.1022
  C  C107  1  0.846500  0.335700  0.898240  1.0  -0.1646
  C  C108  1  0.632900  0.205400  0.048860  1.0  -0.0023
  C  C109  1  0.601100  0.106100  0.066780  1.0  -0.1137
  C  C110  1  0.511300  0.089400  0.127160  1.0  -0.1573
  C  C111  1  0.451300  0.170800  0.171050  1.0  0.1718
  C  C112  1  0.475600  0.270500  0.151500  1.0  -0.1684
  C  C113  1  0.567300  0.286800  0.091300  1.0  -0.0859
  C  C114  1  0.234500  0.198200  0.231500  1.0  -0.1222
  C  C115  1  0.183200  0.168700  0.305850  1.0  0.0365
  C  C116  1  0.374900  0.105800  0.308040  1.0  0.1678
  C  C117  1  0.454000  0.679600  0.757960  1.0  0.1575
  C  C118  1  0.316300  0.584300  0.757640  1.0  0.0444
  C  C119  1  0.360200  0.598700  0.679020  1.0  -0.1264
  C  C120  1  0.531000  0.687700  0.613360  1.0  0.1284
  C  C121  1  0.580300  0.617500  0.558030  1.0  -0.169
  C  C122  1  0.672900  0.640200  0.500940  1.0  -0.1019
  C  C123  1  0.717600  0.733700  0.499570  1.0  0.0151
  C  C124  1  0.660100  0.805600  0.553200  1.0  -0.0982
  C  C125  1  0.566200  0.783900  0.609200  1.0  -0.2047
  C  C126  1  0.824000  0.754800  0.443700  1.0  -0.1196
  C  C127  1  0.875200  0.688600  0.384900  1.0  -0.0946
  C  C128  1  0.971700  0.709200  0.331000  1.0  -0.1623
  C  C129  1  0.021500  0.797500  0.338230  1.0  0.106
  C  C130  1  0.972300  0.865400  0.396720  1.0  -0.1952
  C  C131  1  0.874100  0.842500  0.447700  1.0  -0.1164
  C  C132  1  0.200900  0.750600  0.242080  1.0  0.1446
  C  C133  1  0.268000  0.895800  0.223510  1.0  0.0346
  C  C134  1  0.166300  0.912200  0.273500  1.0  -0.1531
  C  C135  1  0.615100  0.631300  0.990210  1.0  0.662
  C  C136  1  0.746800  0.624200  0.962750  1.0  -0.226
  C  C137  1  0.965800  0.632700  0.960340  1.0  -0.2036
  C  C138  1  0.085600  0.650900  0.982430  1.0  0.6791
  C  C139  1  0.929300  0.623500  0.884910  1.0  -0.0541
  C  C140  1  0.803400  0.618900  0.885580  1.0  -0.0801
  C  C141  1  0.572000  0.800700  0.272070  1.0  0.0365
  C  C142  1  0.661700  0.824000  0.153490  1.0  0.1497
  C  C143  1  0.660900  0.855300  0.281470  1.0  -0.1319
  C  C144  1  0.816400  0.925500  0.182360  1.0  0.1127
  C  C145  1  0.908700  0.886900  0.125800  1.0  -0.1691
  C  C146  1  0.994500  0.948100  0.095880  1.0  -0.0814
  C  C147  1  0.990000  0.047100  0.123150  1.0  0.0286
  C  C148  1  0.900900  0.081300  0.185000  1.0  -0.1275
  C  C149  1  0.815400  0.020500  0.214080  1.0  -0.1349
  C  C150  1  0.071900  0.117600  0.084810  1.0  0.0243
  C  C151  1  0.188100  0.080100  0.051700  1.0  -0.0986
  C  C152  1  0.263100  0.146400  0.014260  1.0  -0.1849
  C  C153  1  0.220700  0.254200  0.009800  1.0  0.1322
  C  C154  1  0.103000  0.295400  0.038690  1.0  -0.1444
  C  C155  1  0.030000  0.226300  0.077410  1.0  -0.0868
  C  C156  1  0.391700  0.308400  0.914430  1.0  -0.1367
  C  C157  1  0.436300  0.398000  0.900420  1.0  0.0291
  C  C158  1  0.290800  0.424900  0.994580  1.0  0.1395
  S  S159  1  0.291780  0.388180  0.359620  1.0  0.1215
  S  S160  1  0.740600  0.082560  0.577080  1.0  0.1153
  S  S161  1  0.847280  0.635300  0.033240  1.0  0.1393
  N  N162  1  0.487400  0.198540  0.726280  1.0  -0.4027
  N  N163  1  0.647000  0.275560  0.728420  1.0  0.0061
  N  N164  1  0.208400  0.761200  0.514400  1.0  0.0332
  N  N165  1  0.265400  0.915900  0.487020  1.0  -0.4105
  N  N166  1  0.201600  0.228000  0.741230  1.0  -0.3703
  N  N167  1  0.041000  0.264890  0.827180  1.0  0.0416
  N  N168  1  0.358100  0.155720  0.233440  1.0  0.0039
  N  N169  1  0.271900  0.112100  0.353740  1.0  -0.3657
  N  N170  1  0.376400  0.635430  0.807010  1.0  -0.3765
  N  N171  1  0.448900  0.659040  0.680060  1.0  0.0397
  N  N172  1  0.123200  0.819070  0.285830  1.0  0.0491
  N  N173  1  0.289500  0.792840  0.203220  1.0  -0.4077
  N  N174  1  0.572000  0.781600  0.191500  1.0  -0.3922
  N  N175  1  0.719200  0.868320  0.206380  1.0  0.0287
  N  N176  1  0.298100  0.324900  0.974360  1.0  0.0255
  N  N177  1  0.372700  0.471110  0.950110  1.0  -0.3595
  O  O178  1  0.460800  0.593280  0.228750  1.0  -0.5958
  O  O179  1  0.324300  0.502570  0.195590  1.0  -0.5817
  O  O180  1  0.350910  0.268900  0.583600  1.0  -0.6035
  O  O181  1  0.218780  0.241680  0.495510  1.0  -0.6183
  O  O182  1  0.061740  0.095620  0.469040  1.0  -0.5912
  O  O183  1  0.994100  0.101080  0.600430  1.0  -0.5897
  O  O184  1  0.437490  0.076280  0.477770  1.0  -0.5904
  O  O185  1  0.486700  0.052480  0.607850  1.0  -0.6251
  O  O186  1  0.543330  0.630480  0.934450  1.0  -0.6388
  O  O187  1  0.589240  0.638270  0.064250  1.0  -0.6219
  O  O188  1  0.093700  0.668300  0.055140  1.0  -0.5935
  O  O189  1  0.170100  0.647500  0.926920  1.0  -0.6098
  O  O190  1  0.326190  0.645660  0.067390  1.0  -0.8544
