# generated using pymatgen
data_Nd2Cu3H24(C4O5)6
_symmetry_space_group_name_H-M   'P 1'
_cell_length_a   14.75100000
_cell_length_b   15.06450000
_cell_length_c   15.06450000
_cell_angle_alpha   120.00000000
_cell_angle_beta   90.00000000
_cell_angle_gamma   90.00000000
_symmetry_Int_Tables_number   1
_chemical_formula_structural   Nd2Cu3H24(C4O5)6
_chemical_formula_sum   'Nd4 Cu6 H48 C48 O60'
_cell_volume   2899.08893396
_cell_formula_units_Z   2
loop_
 _symmetry_equiv_pos_site_id
 _symmetry_equiv_pos_as_xyz
  1  'x, y, z'
loop_
 _atom_site_type_symbol
 _atom_site_label
 _atom_site_symmetry_multiplicity
 _atom_site_fract_x
 _atom_site_fract_y
 _atom_site_fract_z
 _atom_site_occupancy
 _atom_site_charge
  Nd  Nd1  1  0.250000  0.333333  0.666667  1.0  2.2215
  Nd  Nd2  1  0.250000  0.666667  0.333333  1.0  2.2215
  Nd  Nd3  1  0.750000  0.666667  0.333333  1.0  2.2215
  Nd  Nd4  1  0.750000  0.333333  0.666667  1.0  2.2215
  Cu  Cu5  1  0.000000  0.500000  0.500000  1.0  1.0566
  Cu  Cu6  1  0.000000  0.000000  0.500000  1.0  1.0566
  Cu  Cu7  1  0.000000  0.500000  0.000000  1.0  1.0566
  Cu  Cu8  1  0.500000  0.000000  0.500000  1.0  1.0566
  Cu  Cu9  1  0.500000  0.500000  0.500000  1.0  1.0566
  Cu  Cu10  1  0.500000  0.500000  0.000000  1.0  1.0566
  H  H11  1  0.837300  0.788200  0.152600  1.0  0.0981
  H  H12  1  0.759700  0.711000  0.088300  1.0  0.0873
  H  H13  1  0.837300  0.364400  0.211800  1.0  0.0975
  H  H14  1  0.759700  0.377300  0.289000  1.0  0.0882
  H  H15  1  0.837300  0.847400  0.635600  1.0  0.0984
  H  H16  1  0.759700  0.911700  0.622700  1.0  0.0876
  H  H17  1  0.837300  0.211800  0.847400  1.0  0.0984
  H  H18  1  0.759700  0.289000  0.911700  1.0  0.0874
  H  H19  1  0.837300  0.635600  0.788200  1.0  0.0975
  H  H20  1  0.759700  0.622700  0.711000  1.0  0.0881
  H  H21  1  0.837300  0.152600  0.364400  1.0  0.0986
  H  H22  1  0.759700  0.088300  0.377300  1.0  0.0876
  H  H23  1  0.662700  0.635600  0.847400  1.0  0.0978
  H  H24  1  0.740300  0.622700  0.911700  1.0  0.0878
  H  H25  1  0.662700  0.152600  0.788200  1.0  0.0989
  H  H26  1  0.740300  0.088300  0.711000  1.0  0.088
  H  H27  1  0.662700  0.211800  0.364400  1.0  0.0974
  H  H28  1  0.740300  0.289000  0.377300  1.0  0.0872
  H  H29  1  0.662700  0.364400  0.152600  1.0  0.0975
  H  H30  1  0.740300  0.377300  0.088300  1.0  0.0883
  H  H31  1  0.662700  0.847400  0.211800  1.0  0.0982
  H  H32  1  0.740300  0.911700  0.289000  1.0  0.0875
  H  H33  1  0.662700  0.788200  0.635600  1.0  0.0986
  H  H34  1  0.740300  0.711000  0.622700  1.0  0.087
  H  H35  1  0.162700  0.211800  0.847400  1.0  0.0984
  H  H36  1  0.240300  0.289000  0.911700  1.0  0.0865
  H  H37  1  0.162700  0.635600  0.788200  1.0  0.0977
  H  H38  1  0.240300  0.622700  0.711000  1.0  0.0867
  H  H39  1  0.162700  0.152600  0.364400  1.0  0.0979
  H  H40  1  0.240300  0.088300  0.377300  1.0  0.0866
  H  H41  1  0.162700  0.788200  0.152600  1.0  0.0981
  H  H42  1  0.240300  0.711000  0.088300  1.0  0.086
  H  H43  1  0.162700  0.364400  0.211800  1.0  0.0972
  H  H44  1  0.240300  0.377300  0.289000  1.0  0.0872
  H  H45  1  0.162700  0.847400  0.635600  1.0  0.099
  H  H46  1  0.240300  0.911700  0.622700  1.0  0.0865
  H  H47  1  0.337300  0.364400  0.152600  1.0  0.0975
  H  H48  1  0.259700  0.377300  0.088300  1.0  0.0874
  H  H49  1  0.337300  0.847400  0.211800  1.0  0.0987
  H  H50  1  0.259700  0.911700  0.289000  1.0  0.0868
  H  H51  1  0.337300  0.788200  0.635600  1.0  0.0982
  H  H52  1  0.259700  0.711000  0.622700  1.0  0.0861
  H  H53  1  0.337300  0.635600  0.847400  1.0  0.0977
  H  H54  1  0.259700  0.622700  0.911700  1.0  0.0868
  H  H55  1  0.337300  0.152600  0.788200  1.0  0.0986
  H  H56  1  0.259700  0.088300  0.711000  1.0  0.0867
  H  H57  1  0.337300  0.211800  0.364400  1.0  0.0979
  H  H58  1  0.259700  0.289000  0.377300  1.0  0.0861
  C  C59  1  0.360100  0.127800  0.643600  1.0  0.7224
  C  C60  1  0.699600  0.854000  0.268100  1.0  -0.0527
  C  C61  1  0.360100  0.515800  0.872200  1.0  0.7227
  C  C62  1  0.699600  0.414100  0.146000  1.0  -0.0533
  C  C63  1  0.360100  0.356400  0.484200  1.0  0.7216
  C  C64  1  0.699600  0.731900  0.585900  1.0  -0.0526
  C  C65  1  0.360100  0.872200  0.356400  1.0  0.7225
  C  C66  1  0.699600  0.146000  0.731900  1.0  -0.0536
  C  C67  1  0.360100  0.484200  0.127800  1.0  0.7225
  C  C68  1  0.699600  0.585900  0.854000  1.0  -0.0527
  C  C69  1  0.360100  0.643600  0.515800  1.0  0.7212
  C  C70  1  0.699600  0.268100  0.414100  1.0  -0.0532
  C  C71  1  0.139900  0.484200  0.356400  1.0  0.7226
  C  C72  1  0.800400  0.585900  0.731900  1.0  -0.0533
  C  C73  1  0.139900  0.643600  0.127800  1.0  0.7217
  C  C74  1  0.800400  0.268100  0.854000  1.0  -0.0529
  C  C75  1  0.139900  0.872200  0.515800  1.0  0.723
  C  C76  1  0.800400  0.146000  0.414100  1.0  -0.0524
  C  C77  1  0.139900  0.515800  0.643600  1.0  0.7226
  C  C78  1  0.800400  0.414100  0.268100  1.0  -0.0531
  C  C79  1  0.139900  0.356400  0.872200  1.0  0.7216
  C  C80  1  0.800400  0.731900  0.146000  1.0  -0.0541
  C  C81  1  0.139900  0.127800  0.484200  1.0  0.7226
  C  C82  1  0.800400  0.854000  0.585900  1.0  -0.0542
  C  C83  1  0.639900  0.872200  0.356400  1.0  0.7227
  C  C84  1  0.300400  0.146000  0.731900  1.0  -0.0539
  C  C85  1  0.639900  0.484200  0.127800  1.0  0.7229
  C  C86  1  0.300400  0.585900  0.854000  1.0  -0.0533
  C  C87  1  0.639900  0.643600  0.515800  1.0  0.7214
  C  C88  1  0.300400  0.268100  0.414100  1.0  -0.0532
  C  C89  1  0.639900  0.127800  0.643600  1.0  0.7228
  C  C90  1  0.300400  0.854000  0.268100  1.0  -0.0533
  C  C91  1  0.639900  0.515800  0.872200  1.0  0.7226
  C  C92  1  0.300400  0.414100  0.146000  1.0  -0.0534
  C  C93  1  0.639900  0.356400  0.484200  1.0  0.7217
  C  C94  1  0.300400  0.731900  0.585900  1.0  -0.0533
  C  C95  1  0.860100  0.515800  0.643600  1.0  0.7221
  C  C96  1  0.199600  0.414100  0.268100  1.0  -0.0534
  C  C97  1  0.860100  0.356400  0.872200  1.0  0.7215
  C  C98  1  0.199600  0.731900  0.146000  1.0  -0.0538
  C  C99  1  0.860100  0.127800  0.484200  1.0  0.7225
  C  C100  1  0.199600  0.854000  0.585900  1.0  -0.0537
  C  C101  1  0.860100  0.484200  0.356400  1.0  0.7229
  C  C102  1  0.199600  0.585900  0.731900  1.0  -0.0529
  C  C103  1  0.860100  0.643600  0.127800  1.0  0.7215
  C  C104  1  0.199600  0.268100  0.854000  1.0  -0.0528
  C  C105  1  0.860100  0.872200  0.515800  1.0  0.7225
  C  C106  1  0.199600  0.146000  0.414100  1.0  -0.0524
  O  O107  1  0.358900  0.192500  0.614400  1.0  -0.7015
  O  O108  1  0.407600  0.049000  0.607100  1.0  -0.6133
  O  O109  1  0.358900  0.421900  0.807500  1.0  -0.7006
  O  O110  1  0.407600  0.558100  0.951000  1.0  -0.6142
  O  O111  1  0.358900  0.385600  0.578100  1.0  -0.7017
  O  O112  1  0.407600  0.392900  0.441900  1.0  -0.6136
  O  O113  1  0.358900  0.807500  0.385600  1.0  -0.7025
  O  O114  1  0.407600  0.951000  0.392900  1.0  -0.6126
  O  O115  1  0.358900  0.578100  0.192500  1.0  -0.7006
  O  O116  1  0.407600  0.441900  0.049000  1.0  -0.6134
  O  O117  1  0.358900  0.614400  0.421900  1.0  -0.7012
  O  O118  1  0.407600  0.607100  0.558100  1.0  -0.6129
  O  O119  1  0.141100  0.578100  0.385600  1.0  -0.7011
  O  O120  1  0.092400  0.441900  0.392900  1.0  -0.6139
  O  O121  1  0.141100  0.614400  0.192500  1.0  -0.7018
  O  O122  1  0.092400  0.607100  0.049000  1.0  -0.6133
  O  O123  1  0.141100  0.807500  0.421900  1.0  -0.7023
  O  O124  1  0.092400  0.951000  0.558100  1.0  -0.6134
  O  O125  1  0.141100  0.421900  0.614400  1.0  -0.7004
  O  O126  1  0.092400  0.558100  0.607100  1.0  -0.6137
  O  O127  1  0.141100  0.385600  0.807500  1.0  -0.7015
  O  O128  1  0.092400  0.392900  0.951000  1.0  -0.6125
  O  O129  1  0.141100  0.192500  0.578100  1.0  -0.7025
  O  O130  1  0.092400  0.049000  0.441900  1.0  -0.6124
  O  O131  1  0.641100  0.807500  0.385600  1.0  -0.7024
  O  O132  1  0.592400  0.951000  0.392900  1.0  -0.6133
  O  O133  1  0.641100  0.578100  0.192500  1.0  -0.7015
  O  O134  1  0.592400  0.441900  0.049000  1.0  -0.6144
  O  O135  1  0.641100  0.614400  0.421900  1.0  -0.7017
  O  O136  1  0.592400  0.607100  0.558100  1.0  -0.6136
  O  O137  1  0.641100  0.192500  0.614400  1.0  -0.7018
  O  O138  1  0.592400  0.049000  0.607100  1.0  -0.6131
  O  O139  1  0.641100  0.421900  0.807500  1.0  -0.7002
  O  O140  1  0.592400  0.558100  0.951000  1.0  -0.6142
  O  O141  1  0.641100  0.385600  0.578100  1.0  -0.7019
  O  O142  1  0.592400  0.392900  0.441900  1.0  -0.6137
  O  O143  1  0.858900  0.421900  0.614400  1.0  -0.7008
  O  O144  1  0.907600  0.558100  0.607100  1.0  -0.6145
  O  O145  1  0.858900  0.385600  0.807500  1.0  -0.7012
  O  O146  1  0.907600  0.392900  0.951000  1.0  -0.6137
  O  O147  1  0.858900  0.192500  0.578100  1.0  -0.7026
  O  O148  1  0.907600  0.049000  0.441900  1.0  -0.6134
  O  O149  1  0.858900  0.578100  0.385600  1.0  -0.7002
  O  O150  1  0.907600  0.441900  0.392900  1.0  -0.6141
  O  O151  1  0.858900  0.614400  0.192500  1.0  -0.7016
  O  O152  1  0.907600  0.607100  0.049000  1.0  -0.6135
  O  O153  1  0.858900  0.807500  0.421900  1.0  -0.7016
  O  O154  1  0.907600  0.951000  0.558100  1.0  -0.6135
  O  O155  1  0.750000  0.763750  0.236250  1.0  -0.3474
  O  O156  1  0.750000  0.472500  0.236250  1.0  -0.3482
  O  O157  1  0.750000  0.763750  0.527500  1.0  -0.3461
  O  O158  1  0.750000  0.236250  0.763750  1.0  -0.3459
  O  O159  1  0.750000  0.527500  0.763750  1.0  -0.3492
  O  O160  1  0.750000  0.236250  0.472500  1.0  -0.3474
  O  O161  1  0.250000  0.236250  0.763750  1.0  -0.3459
  O  O162  1  0.250000  0.527500  0.763750  1.0  -0.3492
  O  O163  1  0.250000  0.236250  0.472500  1.0  -0.3474
  O  O164  1  0.250000  0.763750  0.236250  1.0  -0.3474
  O  O165  1  0.250000  0.472500  0.236250  1.0  -0.3482
  O  O166  1  0.250000  0.763750  0.527500  1.0  -0.3461
