# generated using pymatgen
data_Nd2Cu3(C4O5)6
_symmetry_space_group_name_H-M   'P 1'
_cell_length_a   14.71000000
_cell_length_b   15.09100000
_cell_length_c   15.09100000
_cell_angle_alpha   120.00000000
_cell_angle_beta   90.00000000
_cell_angle_gamma   90.00000000
_symmetry_Int_Tables_number   1
_chemical_formula_structural   Nd2Cu3(C4O5)6
_chemical_formula_sum   'Nd4 Cu6 C48 O60'
_cell_volume   2901.21118174
_cell_formula_units_Z   2
loop_
 _symmetry_equiv_pos_site_id
 _symmetry_equiv_pos_as_xyz
  1  'x, y, z'
loop_
 _atom_site_type_symbol
 _atom_site_label
 _atom_site_symmetry_multiplicity
 _atom_site_fract_x
 _atom_site_fract_y
 _atom_site_fract_z
 _atom_site_occupancy
 _atom_site_charge
  Nd  Nd1  1  0.750000  0.333333  0.666667  1.0  2.0371
  Nd  Nd2  1  0.750000  0.666667  0.333333  1.0  2.0371
  Nd  Nd3  1  0.250000  0.666667  0.333333  1.0  2.0371
  Nd  Nd4  1  0.250000  0.333333  0.666667  1.0  2.0371
  Cu  Cu5  1  0.500000  0.500000  0.000000  1.0  1.0316
  Cu  Cu6  1  0.500000  0.500000  0.500000  1.0  1.0316
  Cu  Cu7  1  0.500000  0.000000  0.500000  1.0  1.0316
  Cu  Cu8  1  0.000000  0.500000  0.000000  1.0  1.0316
  Cu  Cu9  1  0.000000  0.000000  0.500000  1.0  1.0316
  Cu  Cu10  1  0.000000  0.500000  0.500000  1.0  1.0316
  C  C11  1  0.701000  0.587000  0.855600  1.0  -0.1183
  C  C12  1  0.640600  0.514800  0.871700  1.0  0.6736
  C  C13  1  0.701000  0.268600  0.413000  1.0  -0.1283
  C  C14  1  0.640600  0.356900  0.485200  1.0  0.674
  C  C15  1  0.701000  0.144400  0.731400  1.0  -0.1247
  C  C16  1  0.640600  0.128300  0.643100  1.0  0.6742
  C  C17  1  0.701000  0.413000  0.144400  1.0  -0.1185
  C  C18  1  0.640600  0.485200  0.128300  1.0  0.6732
  C  C19  1  0.701000  0.731400  0.587000  1.0  -0.1266
  C  C20  1  0.640600  0.643100  0.514800  1.0  0.6737
  C  C21  1  0.701000  0.855600  0.268600  1.0  -0.1235
  C  C22  1  0.640600  0.871700  0.356900  1.0  0.6743
  C  C23  1  0.799000  0.731400  0.144400  1.0  -0.1289
  C  C24  1  0.859400  0.643100  0.128300  1.0  0.6735
  C  C25  1  0.799000  0.855600  0.587000  1.0  -0.1247
  C  C26  1  0.859400  0.871700  0.514800  1.0  0.6744
  C  C27  1  0.799000  0.413000  0.268600  1.0  -0.12
  C  C28  1  0.859400  0.485200  0.356900  1.0  0.6731
  C  C29  1  0.799000  0.268600  0.855600  1.0  -0.1275
  C  C30  1  0.859400  0.356900  0.871700  1.0  0.6736
  C  C31  1  0.799000  0.144400  0.413000  1.0  -0.1245
  C  C32  1  0.859400  0.128300  0.485200  1.0  0.674
  C  C33  1  0.799000  0.587000  0.731400  1.0  -0.1195
  C  C34  1  0.859400  0.514800  0.643100  1.0  0.6727
  C  C35  1  0.299000  0.413000  0.144400  1.0  -0.1193
  C  C36  1  0.359400  0.485200  0.128300  1.0  0.6728
  C  C37  1  0.299000  0.731400  0.587000  1.0  -0.1265
  C  C38  1  0.359400  0.643100  0.514800  1.0  0.6735
  C  C39  1  0.299000  0.855600  0.268600  1.0  -0.1238
  C  C40  1  0.359400  0.871700  0.356900  1.0  0.6739
  C  C41  1  0.299000  0.587000  0.855600  1.0  -0.1186
  C  C42  1  0.359400  0.514800  0.871700  1.0  0.6731
  C  C43  1  0.299000  0.268600  0.413000  1.0  -0.1285
  C  C44  1  0.359400  0.356900  0.485200  1.0  0.6737
  C  C45  1  0.299000  0.144400  0.731400  1.0  -0.1247
  C  C46  1  0.359400  0.128300  0.643100  1.0  0.674
  C  C47  1  0.201000  0.268600  0.855600  1.0  -0.1273
  C  C48  1  0.140600  0.356900  0.871700  1.0  0.6737
  C  C49  1  0.201000  0.144400  0.413000  1.0  -0.1243
  C  C50  1  0.140600  0.128300  0.485200  1.0  0.6743
  C  C51  1  0.201000  0.587000  0.731400  1.0  -0.1192
  C  C52  1  0.140600  0.514800  0.643100  1.0  0.6732
  C  C53  1  0.201000  0.731400  0.144400  1.0  -0.1284
  C  C54  1  0.140600  0.643100  0.128300  1.0  0.6739
  C  C55  1  0.201000  0.855600  0.587000  1.0  -0.1248
  C  C56  1  0.140600  0.871700  0.514800  1.0  0.6744
  C  C57  1  0.201000  0.413000  0.268600  1.0  -0.1194
  C  C58  1  0.140600  0.485200  0.356900  1.0  0.6734
  O  O59  1  0.640800  0.421500  0.806400  1.0  -0.6117
  O  O60  1  0.592500  0.556800  0.950300  1.0  -0.5324
  O  O61  1  0.640800  0.384900  0.578500  1.0  -0.6146
  O  O62  1  0.592500  0.393500  0.443200  1.0  -0.5323
  O  O63  1  0.640800  0.193600  0.615100  1.0  -0.6128
  O  O64  1  0.592500  0.049700  0.606500  1.0  -0.5322
  O  O65  1  0.640800  0.578500  0.193600  1.0  -0.6126
  O  O66  1  0.592500  0.443200  0.049700  1.0  -0.5341
  O  O67  1  0.640800  0.615100  0.421500  1.0  -0.6131
  O  O68  1  0.592500  0.606500  0.556800  1.0  -0.5348
  O  O69  1  0.640800  0.806400  0.384900  1.0  -0.6145
  O  O70  1  0.592500  0.950300  0.393500  1.0  -0.5328
  O  O71  1  0.859200  0.615100  0.193600  1.0  -0.6144
  O  O72  1  0.907500  0.606500  0.049700  1.0  -0.5323
  O  O73  1  0.859200  0.806400  0.421500  1.0  -0.6124
  O  O74  1  0.907500  0.950300  0.556800  1.0  -0.5328
  O  O75  1  0.859200  0.578500  0.384900  1.0  -0.6121
  O  O76  1  0.907500  0.443200  0.393500  1.0  -0.5338
  O  O77  1  0.859200  0.384900  0.806400  1.0  -0.6126
  O  O78  1  0.907500  0.393500  0.950300  1.0  -0.5341
  O  O79  1  0.859200  0.193600  0.578500  1.0  -0.6138
  O  O80  1  0.907500  0.049700  0.443200  1.0  -0.5323
  O  O81  1  0.859200  0.421500  0.615100  1.0  -0.6118
  O  O82  1  0.907500  0.556800  0.606500  1.0  -0.5331
  O  O83  1  0.359200  0.578500  0.193600  1.0  -0.6118
  O  O84  1  0.407500  0.443200  0.049700  1.0  -0.532
  O  O85  1  0.359200  0.615100  0.421500  1.0  -0.6129
  O  O86  1  0.407500  0.606500  0.556800  1.0  -0.5328
  O  O87  1  0.359200  0.806400  0.384900  1.0  -0.6146
  O  O88  1  0.407500  0.950300  0.393500  1.0  -0.5313
  O  O89  1  0.359200  0.421500  0.806400  1.0  -0.6115
  O  O90  1  0.407500  0.556800  0.950300  1.0  -0.5337
  O  O91  1  0.359200  0.384900  0.578500  1.0  -0.6138
  O  O92  1  0.407500  0.393500  0.443200  1.0  -0.5336
  O  O93  1  0.359200  0.193600  0.615100  1.0  -0.6128
  O  O94  1  0.407500  0.049700  0.606500  1.0  -0.5324
  O  O95  1  0.140800  0.384900  0.806400  1.0  -0.6128
  O  O96  1  0.092500  0.393500  0.950300  1.0  -0.5327
  O  O97  1  0.140800  0.193600  0.578500  1.0  -0.6144
  O  O98  1  0.092500  0.049700  0.443200  1.0  -0.5307
  O  O99  1  0.140800  0.421500  0.615100  1.0  -0.6119
  O  O100  1  0.092500  0.556800  0.606500  1.0  -0.532
  O  O101  1  0.140800  0.615100  0.193600  1.0  -0.6147
  O  O102  1  0.092500  0.606500  0.049700  1.0  -0.534
  O  O103  1  0.140800  0.806400  0.421500  1.0  -0.6123
  O  O104  1  0.092500  0.950300  0.556800  1.0  -0.5309
  O  O105  1  0.140800  0.578500  0.384900  1.0  -0.6126
  O  O106  1  0.092500  0.443200  0.393500  1.0  -0.5326
  O  O107  1  0.750000  0.526200  0.763100  1.0  -0.0043
  O  O108  1  0.750000  0.236900  0.473800  1.0  -0.0033
  O  O109  1  0.750000  0.236900  0.763100  1.0  -0.0021
  O  O110  1  0.750000  0.473800  0.236900  1.0  -0.0033
  O  O111  1  0.750000  0.763100  0.526200  1.0  -0.0026
  O  O112  1  0.750000  0.763100  0.236900  1.0  -0.0037
  O  O113  1  0.250000  0.473800  0.236900  1.0  -0.0033
  O  O114  1  0.250000  0.763100  0.526200  1.0  -0.0026
  O  O115  1  0.250000  0.763100  0.236900  1.0  -0.0037
  O  O116  1  0.250000  0.526200  0.763100  1.0  -0.0043
  O  O117  1  0.250000  0.236900  0.473800  1.0  -0.0033
  O  O118  1  0.250000  0.236900  0.763100  1.0  -0.0021
