# generated using pymatgen
data_Er2Cu3(C4O5)6
_symmetry_space_group_name_H-M   'P 1'
_cell_length_a   14.51600000
_cell_length_b   14.51600000
_cell_length_c   15.27900000
_cell_angle_alpha   90.00000000
_cell_angle_beta   90.00000000
_cell_angle_gamma   120.00000000
_symmetry_Int_Tables_number   1
_chemical_formula_structural   Er2Cu3(C4O5)6
_chemical_formula_sum   'Er4 Cu6 C48 O60'
_cell_volume   2788.17148725
_cell_formula_units_Z   2
loop_
 _symmetry_equiv_pos_site_id
 _symmetry_equiv_pos_as_xyz
  1  'x, y, z'
loop_
 _atom_site_type_symbol
 _atom_site_label
 _atom_site_symmetry_multiplicity
 _atom_site_fract_x
 _atom_site_fract_y
 _atom_site_fract_z
 _atom_site_occupancy
 _atom_site_charge
  Er  Er1  1  0.666667  0.333333  0.750000  1.0  1.1886
  Er  Er2  1  0.333333  0.666667  0.750000  1.0  1.1886
  Er  Er3  1  0.333333  0.666667  0.250000  1.0  1.1886
  Er  Er4  1  0.666667  0.333333  0.250000  1.0  1.1886
  Cu  Cu5  1  0.500000  0.500000  0.500000  1.0  1.0276
  Cu  Cu6  1  0.000000  0.500000  0.500000  1.0  1.0276
  Cu  Cu7  1  0.500000  0.000000  0.500000  1.0  1.0276
  Cu  Cu8  1  0.000000  0.500000  0.000000  1.0  1.0276
  Cu  Cu9  1  0.500000  0.500000  0.000000  1.0  1.0276
  Cu  Cu10  1  0.500000  0.000000  0.000000  1.0  1.0276
  C  C11  1  0.737100  0.588700  0.694300  1.0  -0.0488
  C  C12  1  0.645900  0.513700  0.638100  1.0  0.6594
  C  C13  1  0.851600  0.262900  0.694300  1.0  -0.0431
  C  C14  1  0.867800  0.354100  0.638100  1.0  0.6584
  C  C15  1  0.411300  0.148400  0.694300  1.0  -0.0475
  C  C16  1  0.486300  0.132200  0.638100  1.0  0.6594
  C  C17  1  0.262900  0.411300  0.694300  1.0  -0.0496
  C  C18  1  0.354100  0.486300  0.638100  1.0  0.6593
  C  C19  1  0.148400  0.737100  0.694300  1.0  -0.0412
  C  C20  1  0.132200  0.645900  0.638100  1.0  0.6587
  C  C21  1  0.588700  0.851600  0.694300  1.0  -0.0462
  C  C22  1  0.513700  0.867800  0.638100  1.0  0.6604
  C  C23  1  0.148400  0.411300  0.805700  1.0  -0.0502
  C  C24  1  0.132200  0.486300  0.861900  1.0  0.6601
  C  C25  1  0.588700  0.737100  0.805700  1.0  -0.0419
  C  C26  1  0.513700  0.645900  0.861900  1.0  0.6588
  C  C27  1  0.262900  0.851600  0.805700  1.0  -0.046
  C  C28  1  0.354100  0.867800  0.861900  1.0  0.6594
  C  C29  1  0.851600  0.588700  0.805700  1.0  -0.0487
  C  C30  1  0.867800  0.513700  0.861900  1.0  0.6593
  C  C31  1  0.411300  0.262900  0.805700  1.0  -0.0439
  C  C32  1  0.486300  0.354100  0.861900  1.0  0.658
  C  C33  1  0.737100  0.148400  0.805700  1.0  -0.0468
  C  C34  1  0.645900  0.132200  0.861900  1.0  0.6608
  C  C35  1  0.262900  0.411300  0.305700  1.0  -0.0497
  C  C36  1  0.354100  0.486300  0.361900  1.0  0.6597
  C  C37  1  0.148400  0.737100  0.305700  1.0  -0.0412
  C  C38  1  0.132200  0.645900  0.361900  1.0  0.6584
  C  C39  1  0.588700  0.851600  0.305700  1.0  -0.0466
  C  C40  1  0.513700  0.867800  0.361900  1.0  0.6606
  C  C41  1  0.737100  0.588700  0.305700  1.0  -0.0487
  C  C42  1  0.645900  0.513700  0.361900  1.0  0.6594
  C  C43  1  0.851600  0.262900  0.305700  1.0  -0.0433
  C  C44  1  0.867800  0.354100  0.361900  1.0  0.6588
  C  C45  1  0.411300  0.148400  0.305700  1.0  -0.0475
  C  C46  1  0.486300  0.132200  0.361900  1.0  0.6596
  C  C47  1  0.851600  0.588700  0.194300  1.0  -0.0487
  C  C48  1  0.867800  0.513700  0.138100  1.0  0.6594
  C  C49  1  0.411300  0.262900  0.194300  1.0  -0.0437
  C  C50  1  0.486300  0.354100  0.138100  1.0  0.658
  C  C51  1  0.737100  0.148400  0.194300  1.0  -0.0464
  C  C52  1  0.645900  0.132200  0.138100  1.0  0.6602
  C  C53  1  0.148400  0.411300  0.194300  1.0  -0.0501
  C  C54  1  0.132200  0.486300  0.138100  1.0  0.6596
  C  C55  1  0.588700  0.737100  0.194300  1.0  -0.0416
  C  C56  1  0.513700  0.645900  0.138100  1.0  0.6586
  C  C57  1  0.262900  0.851600  0.194300  1.0  -0.0459
  C  C58  1  0.354100  0.867800  0.138100  1.0  0.6598
  O  O59  1  0.612500  0.415600  0.644700  1.0  -0.5363
  O  O60  1  0.610900  0.556900  0.588600  1.0  -0.5263
  O  O61  1  0.803100  0.387500  0.644700  1.0  -0.5346
  O  O62  1  0.946000  0.389100  0.588600  1.0  -0.5287
  O  O63  1  0.584400  0.196900  0.644700  1.0  -0.5382
  O  O64  1  0.443100  0.054000  0.588600  1.0  -0.5268
  O  O65  1  0.387500  0.584400  0.644700  1.0  -0.5363
  O  O66  1  0.389100  0.443100  0.588600  1.0  -0.5239
  O  O67  1  0.196900  0.612500  0.644700  1.0  -0.5372
  O  O68  1  0.054000  0.610900  0.588600  1.0  -0.5297
  O  O69  1  0.415600  0.803100  0.644700  1.0  -0.5378
  O  O70  1  0.556900  0.946000  0.588600  1.0  -0.5275
  O  O71  1  0.196900  0.584400  0.855300  1.0  -0.5363
  O  O72  1  0.054000  0.443100  0.911400  1.0  -0.5263
  O  O73  1  0.415600  0.612500  0.855300  1.0  -0.5347
  O  O74  1  0.556900  0.610900  0.911400  1.0  -0.5281
  O  O75  1  0.387500  0.803100  0.855300  1.0  -0.5386
  O  O76  1  0.389100  0.946000  0.911400  1.0  -0.5259
  O  O77  1  0.803100  0.415600  0.855300  1.0  -0.5367
  O  O78  1  0.946000  0.556900  0.911400  1.0  -0.528
  O  O79  1  0.584400  0.387500  0.855300  1.0  -0.5373
  O  O80  1  0.443100  0.389100  0.911400  1.0  -0.5292
  O  O81  1  0.612500  0.196900  0.855300  1.0  -0.5363
  O  O82  1  0.610900  0.054000  0.911400  1.0  -0.527
  O  O83  1  0.387500  0.584400  0.355300  1.0  -0.5361
  O  O84  1  0.389100  0.443100  0.411400  1.0  -0.5263
  O  O85  1  0.196900  0.612500  0.355300  1.0  -0.5374
  O  O86  1  0.054000  0.610900  0.411400  1.0  -0.5273
  O  O87  1  0.415600  0.803100  0.355300  1.0  -0.538
  O  O88  1  0.556900  0.946000  0.411400  1.0  -0.5255
  O  O89  1  0.612500  0.415600  0.355300  1.0  -0.5366
  O  O90  1  0.610900  0.556900  0.411400  1.0  -0.5235
  O  O91  1  0.803100  0.387500  0.355300  1.0  -0.5344
  O  O92  1  0.946000  0.389100  0.411400  1.0  -0.5251
  O  O93  1  0.584400  0.196900  0.355300  1.0  -0.5383
  O  O94  1  0.443100  0.054000  0.411400  1.0  -0.5227
  O  O95  1  0.803100  0.415600  0.144700  1.0  -0.5364
  O  O96  1  0.946000  0.556900  0.088600  1.0  -0.5267
  O  O97  1  0.584400  0.387500  0.144700  1.0  -0.5372
  O  O98  1  0.443100  0.389100  0.088600  1.0  -0.5278
  O  O99  1  0.612500  0.196900  0.144700  1.0  -0.5363
  O  O100  1  0.610900  0.054000  0.088600  1.0  -0.5261
  O  O101  1  0.196900  0.584400  0.144700  1.0  -0.5366
  O  O102  1  0.054000  0.443100  0.088600  1.0  -0.5237
  O  O103  1  0.415600  0.612500  0.144700  1.0  -0.5346
  O  O104  1  0.556900  0.610900  0.088600  1.0  -0.526
  O  O105  1  0.387500  0.803100  0.144700  1.0  -0.5382
  O  O106  1  0.389100  0.946000  0.088600  1.0  -0.5261
  O  O107  1  0.762800  0.525600  0.750000  1.0  -0.0098
  O  O108  1  0.762800  0.237200  0.750000  1.0  -0.0104
  O  O109  1  0.474400  0.237200  0.750000  1.0  -0.0105
  O  O110  1  0.237200  0.474400  0.750000  1.0  -0.0082
  O  O111  1  0.237200  0.762800  0.750000  1.0  -0.011
  O  O112  1  0.525600  0.762800  0.750000  1.0  -0.0111
  O  O113  1  0.237200  0.474400  0.250000  1.0  -0.0082
  O  O114  1  0.237200  0.762800  0.250000  1.0  -0.011
  O  O115  1  0.525600  0.762800  0.250000  1.0  -0.0111
  O  O116  1  0.762800  0.525600  0.250000  1.0  -0.0098
  O  O117  1  0.762800  0.237200  0.250000  1.0  -0.0104
  O  O118  1  0.474400  0.237200  0.250000  1.0  -0.0105
