# generated using pymatgen
data_GdH38C22(NO2)4
_symmetry_space_group_name_H-M   'P 1'
_cell_length_a   10.45620000
_cell_length_b   10.45620000
_cell_length_c   14.26400000
_cell_angle_alpha   83.32130000
_cell_angle_beta   83.32130000
_cell_angle_gamma   85.32590000
_symmetry_Int_Tables_number   1
_chemical_formula_structural   GdH38C22(NO2)4
_chemical_formula_sum   'Gd2 H76 C44 N8 O16'
_cell_volume   1534.76400982
_cell_formula_units_Z   2
loop_
 _symmetry_equiv_pos_site_id
 _symmetry_equiv_pos_as_xyz
  1  'x, y, z'
loop_
 _atom_site_type_symbol
 _atom_site_label
 _atom_site_symmetry_multiplicity
 _atom_site_fract_x
 _atom_site_fract_y
 _atom_site_fract_z
 _atom_site_occupancy
 _atom_site_charge
  Gd  Gd1  1  0.228800  0.771200  0.250000  1.0  1.781
  Gd  Gd2  1  0.771200  0.228800  0.750000  1.0  1.7721
  H  H3  1  0.290200  0.168000  0.459600  1.0  0.2135
  H  H4  1  0.804100  0.737700  0.408700  1.0  0.1252
  H  H5  1  0.646400  0.682800  0.411600  1.0  0.0698
  H  H6  1  0.561000  0.883000  0.353100  1.0  0.0523
  H  H7  1  0.715400  0.869000  0.287800  1.0  0.0735
  H  H8  1  0.689900  0.189500  0.333600  1.0  0.0709
  H  H9  1  0.653200  0.081400  0.256900  1.0  0.0599
  H  H10  1  0.464600  0.210600  0.300300  1.0  0.0866
  H  H11  1  0.444600  0.049600  0.354000  1.0  0.092
  H  H12  1  0.519600  0.273200  0.445300  1.0  0.0717
  H  H13  1  0.503200  0.114600  0.499300  1.0  0.0843
  H  H14  1  0.690300  0.671100  0.661000  1.0  0.0907
  H  H15  1  0.682100  0.576500  0.569100  1.0  0.0718
  H  H16  1  0.905000  0.632400  0.507100  1.0  0.1465
  H  H17  1  0.910000  0.708400  0.610800  1.0  0.1206
  H  H18  1  0.882300  0.914300  0.413500  1.0  0.0845
  H  H19  1  0.876000  0.031400  0.313200  1.0  0.0547
  H  H20  1  0.967700  0.116900  0.434400  1.0  0.1272
  H  H21  1  0.818600  0.200800  0.417200  1.0  0.1018
  H  H22  1  0.832000  0.709800  0.040400  1.0  0.215
  H  H23  1  0.262300  0.195900  0.091300  1.0  0.124
  H  H24  1  0.317200  0.353600  0.088400  1.0  0.0686
  H  H25  1  0.117000  0.439000  0.146900  1.0  0.0547
  H  H26  1  0.131000  0.284600  0.212200  1.0  0.0746
  H  H27  1  0.810500  0.310100  0.166400  1.0  0.0697
  H  H28  1  0.918600  0.346800  0.243100  1.0  0.0587
  H  H29  1  0.789400  0.535400  0.199700  1.0  0.0863
  H  H30  1  0.950400  0.555400  0.146000  1.0  0.0938
  H  H31  1  0.726800  0.480400  0.054700  1.0  0.0671
  H  H32  1  0.885400  0.496800  0.000700  1.0  0.0846
  H  H33  1  0.328900  0.309700  0.839000  1.0  0.0904
  H  H34  1  0.423500  0.317900  0.930900  1.0  0.0724
  H  H35  1  0.367600  0.095000  0.992900  1.0  0.146
  H  H36  1  0.291600  0.090000  0.889200  1.0  0.1206
  H  H37  1  0.085700  0.117700  0.086500  1.0  0.085
  H  H38  1  0.968600  0.124000  0.186800  1.0  0.0453
  H  H39  1  0.883100  0.032300  0.065600  1.0  0.1311
  H  H40  1  0.799200  0.181400  0.082800  1.0  0.1013
  H  H41  1  0.709800  0.832000  0.540400  1.0  0.2133
  H  H42  1  0.195900  0.262300  0.591300  1.0  0.1243
  H  H43  1  0.353600  0.317200  0.588400  1.0  0.0697
  H  H44  1  0.439000  0.117000  0.646900  1.0  0.0526
  H  H45  1  0.284600  0.131000  0.712200  1.0  0.074
  H  H46  1  0.310100  0.810500  0.666400  1.0  0.0719
  H  H47  1  0.346800  0.918600  0.743100  1.0  0.0595
  H  H48  1  0.535400  0.789400  0.699700  1.0  0.0861
  H  H49  1  0.555400  0.950400  0.646000  1.0  0.0942
  H  H50  1  0.480400  0.726800  0.554700  1.0  0.0677
  H  H51  1  0.496800  0.885400  0.500700  1.0  0.0836
  H  H52  1  0.309700  0.328900  0.339000  1.0  0.0904
  H  H53  1  0.317900  0.423500  0.430900  1.0  0.0743
  H  H54  1  0.095000  0.367600  0.492900  1.0  0.1457
  H  H55  1  0.090000  0.291600  0.389200  1.0  0.1208
  H  H56  1  0.117700  0.085700  0.586500  1.0  0.0847
  H  H57  1  0.124000  0.968600  0.686800  1.0  0.0457
  H  H58  1  0.032300  0.883100  0.565600  1.0  0.1298
  H  H59  1  0.181400  0.799200  0.582800  1.0  0.1018
  H  H60  1  0.168000  0.290200  0.959600  1.0  0.2132
  H  H61  1  0.737700  0.804100  0.908700  1.0  0.1256
  H  H62  1  0.682800  0.646400  0.911600  1.0  0.0674
  H  H63  1  0.883000  0.561000  0.853100  1.0  0.0559
  H  H64  1  0.869000  0.715400  0.787800  1.0  0.0741
  H  H65  1  0.189500  0.689900  0.833600  1.0  0.0761
  H  H66  1  0.081400  0.653200  0.756900  1.0  0.0593
  H  H67  1  0.210600  0.464600  0.800300  1.0  0.0864
  H  H68  1  0.049600  0.444600  0.854000  1.0  0.0928
  H  H69  1  0.273200  0.519600  0.945300  1.0  0.0681
  H  H70  1  0.114600  0.503200  0.999300  1.0  0.0847
  H  H71  1  0.671100  0.690300  0.161000  1.0  0.0908
  H  H72  1  0.576500  0.682100  0.069100  1.0  0.0736
  H  H73  1  0.632400  0.905000  0.007100  1.0  0.148
  H  H74  1  0.708400  0.910000  0.110800  1.0  0.1195
  H  H75  1  0.914300  0.882300  0.913500  1.0  0.0851
  H  H76  1  0.031400  0.876000  0.813200  1.0  0.0478
  H  H77  1  0.116900  0.967700  0.934400  1.0  0.1289
  H  H78  1  0.200800  0.818600  0.917200  1.0  0.1014
  C  C79  1  0.297000  0.241000  0.574200  1.0  -0.1224
  C  C80  1  0.336000  0.124000  0.642800  1.0  -0.0231
  C  C81  1  0.359600  0.893600  0.671100  1.0  0.0231
  C  C82  1  0.502000  0.864000  0.647800  1.0  -0.1784
  C  C83  1  0.532100  0.810700  0.554000  1.0  -0.0997
  C  C84  1  0.280000  0.342000  0.411900  1.0  -0.021
  C  C85  1  0.136000  0.364000  0.421000  1.0  -0.3958
  C  C86  1  0.100000  0.492000  0.365000  1.0  0.7954
  C  C87  1  0.837400  0.005400  0.386600  1.0  0.0294
  C  C88  1  0.863000  0.109000  0.446000  1.0  -0.3595
  C  C89  1  0.821600  0.083600  0.553000  1.0  0.7207
  C  C90  1  0.759000  0.703000  0.925800  1.0  -0.1191
  C  C91  1  0.876000  0.664000  0.857200  1.0  -0.0205
  C  C92  1  0.106400  0.640400  0.828900  1.0  0.0185
  C  C93  1  0.136000  0.498000  0.852200  1.0  -0.179
  C  C94  1  0.189300  0.467900  0.946000  1.0  -0.0982
  C  C95  1  0.658000  0.720000  0.088100  1.0  -0.0245
  C  C96  1  0.636000  0.864000  0.079000  1.0  -0.3927
  C  C97  1  0.508000  0.900000  0.135000  1.0  0.7956
  C  C98  1  0.994600  0.162600  0.113400  1.0  0.0338
  C  C99  1  0.891000  0.137000  0.054000  1.0  -0.3637
  C  C100  1  0.916400  0.178400  0.947000  1.0  0.7211
  C  C101  1  0.703000  0.759000  0.425800  1.0  -0.1203
  C  C102  1  0.664000  0.876000  0.357200  1.0  -0.0216
  C  C103  1  0.640400  0.106400  0.328900  1.0  0.0232
  C  C104  1  0.498000  0.136000  0.352200  1.0  -0.1777
  C  C105  1  0.467900  0.189300  0.446000  1.0  -0.1002
  C  C106  1  0.720000  0.658000  0.588100  1.0  -0.021
  C  C107  1  0.864000  0.636000  0.579000  1.0  -0.3947
  C  C108  1  0.900000  0.508000  0.635000  1.0  0.7944
  C  C109  1  0.162600  0.994600  0.613400  1.0  0.0336
  C  C110  1  0.137000  0.891000  0.554000  1.0  -0.3628
  C  C111  1  0.178400  0.916400  0.447000  1.0  0.7208
  C  C112  1  0.241000  0.297000  0.074200  1.0  -0.124
  C  C113  1  0.124000  0.336000  0.142800  1.0  -0.0222
  C  C114  1  0.893600  0.359600  0.171100  1.0  0.0192
  C  C115  1  0.864000  0.502000  0.147800  1.0  -0.1787
  C  C116  1  0.810700  0.532100  0.054000  1.0  -0.0975
  C  C117  1  0.342000  0.280000  0.911900  1.0  -0.0232
  C  C118  1  0.364000  0.136000  0.921000  1.0  -0.3943
  C  C119  1  0.492000  0.100000  0.865000  1.0  0.7953
  C  C120  1  0.005400  0.837400  0.886600  1.0  0.0366
  C  C121  1  0.109000  0.863000  0.946000  1.0  -0.3618
  C  C122  1  0.083600  0.821600  0.053000  1.0  0.7223
  N  N123  1  0.327000  0.221400  0.472800  1.0  0.1301
  N  N124  1  0.304200  0.002800  0.610600  1.0  -0.2875
  N  N125  1  0.778600  0.673000  0.027200  1.0  0.1304
  N  N126  1  0.997200  0.695800  0.889400  1.0  -0.2872
  N  N127  1  0.673000  0.778600  0.527200  1.0  0.1291
  N  N128  1  0.695800  0.997200  0.389400  1.0  -0.2881
  N  N129  1  0.221400  0.327000  0.972800  1.0  0.1296
  N  N130  1  0.002800  0.304200  0.110600  1.0  -0.288
  O  O131  1  0.020800  0.477000  0.636400  1.0  -0.6567
  O  O132  1  0.186800  0.556800  0.321500  1.0  -0.8501
  O  O133  1  0.801700  0.971700  0.587100  1.0  -0.663
  O  O134  1  0.862000  0.158000  0.600000  1.0  -0.7277
  O  O135  1  0.523000  0.979200  0.863600  1.0  -0.6553
  O  O136  1  0.443200  0.813200  0.178500  1.0  -0.8446
  O  O137  1  0.028300  0.198300  0.912900  1.0  -0.6639
  O  O138  1  0.842000  0.138000  0.900000  1.0  -0.7352
  O  O139  1  0.979200  0.523000  0.363600  1.0  -0.6564
  O  O140  1  0.813200  0.443200  0.678500  1.0  -0.8383
  O  O141  1  0.198300  0.028300  0.412900  1.0  -0.6643
  O  O142  1  0.138000  0.842000  0.400000  1.0  -0.729
  O  O143  1  0.477000  0.020800  0.136400  1.0  -0.6557
  O  O144  1  0.556800  0.186800  0.821500  1.0  -0.8497
  O  O145  1  0.971700  0.801700  0.087100  1.0  -0.6585
  O  O146  1  0.158000  0.862000  0.100000  1.0  -0.7334
