# generated using pymatgen
data_EuH38C22(NO2)4
_symmetry_space_group_name_H-M   'P 1'
_cell_length_a   10.44100000
_cell_length_b   10.44100000
_cell_length_c   14.13000000
_cell_angle_alpha   83.11080000
_cell_angle_beta   83.11080000
_cell_angle_gamma   85.61420000
_symmetry_Int_Tables_number   1
_chemical_formula_structural   EuH38C22(NO2)4
_chemical_formula_sum   'Eu2 H76 C44 N8 O16'
_cell_volume   1515.19685515
_cell_formula_units_Z   2
loop_
 _symmetry_equiv_pos_site_id
 _symmetry_equiv_pos_as_xyz
  1  'x, y, z'
loop_
 _atom_site_type_symbol
 _atom_site_label
 _atom_site_symmetry_multiplicity
 _atom_site_fract_x
 _atom_site_fract_y
 _atom_site_fract_z
 _atom_site_occupancy
 _atom_site_charge
  Eu  Eu1  1  0.766300  0.233700  0.750000  1.0  1.8969
  Eu  Eu2  1  0.233700  0.766300  0.250000  1.0  1.899
  H  H3  1  0.176500  0.282900  0.969500  1.0  0.1423
  H  H4  1  0.737700  0.804100  0.908700  1.0  0.1181
  H  H5  1  0.682800  0.646400  0.911600  1.0  0.0811
  H  H6  1  0.883000  0.561000  0.853100  1.0  0.0832
  H  H7  1  0.869000  0.715400  0.787800  1.0  0.0705
  H  H8  1  0.189500  0.689900  0.833600  1.0  0.0815
  H  H9  1  0.081400  0.653200  0.756900  1.0  0.0704
  H  H10  1  0.210600  0.464600  0.800300  1.0  0.102
  H  H11  1  0.049600  0.444600  0.854000  1.0  0.0772
  H  H12  1  0.273200  0.519600  0.945300  1.0  0.0747
  H  H13  1  0.114600  0.503200  0.999300  1.0  0.0809
  H  H14  1  0.671100  0.690300  0.161000  1.0  0.095
  H  H15  1  0.576500  0.682100  0.069100  1.0  0.0806
  H  H16  1  0.632400  0.905000  0.007100  1.0  0.1305
  H  H17  1  0.708400  0.910000  0.110800  1.0  0.0892
  H  H18  1  0.914300  0.882300  0.913500  1.0  0.0868
  H  H19  1  0.031400  0.876000  0.813200  1.0  0.0857
  H  H20  1  0.116900  0.967700  0.934400  1.0  0.1036
  H  H21  1  0.200800  0.818600  0.917200  1.0  0.1305
  H  H22  1  0.717100  0.823500  0.530500  1.0  0.1415
  H  H23  1  0.195900  0.262300  0.591300  1.0  0.1157
  H  H24  1  0.353600  0.317200  0.588400  1.0  0.0852
  H  H25  1  0.439000  0.117000  0.646900  1.0  0.0828
  H  H26  1  0.284600  0.131000  0.712200  1.0  0.0702
  H  H27  1  0.310100  0.810500  0.666400  1.0  0.0782
  H  H28  1  0.346800  0.918600  0.743100  1.0  0.0727
  H  H29  1  0.535400  0.789400  0.699700  1.0  0.1026
  H  H30  1  0.555400  0.950400  0.646000  1.0  0.0771
  H  H31  1  0.480400  0.726800  0.554700  1.0  0.0752
  H  H32  1  0.496800  0.885400  0.500700  1.0  0.0796
  H  H33  1  0.309700  0.328900  0.339000  1.0  0.0959
  H  H34  1  0.317900  0.423500  0.430900  1.0  0.0789
  H  H35  1  0.095000  0.367600  0.492900  1.0  0.132
  H  H36  1  0.090000  0.291600  0.389200  1.0  0.0903
  H  H37  1  0.117700  0.085700  0.586500  1.0  0.0881
  H  H38  1  0.124000  0.968600  0.686800  1.0  0.0863
  H  H39  1  0.032300  0.883100  0.565600  1.0  0.1044
  H  H40  1  0.181400  0.799200  0.582800  1.0  0.1315
  H  H41  1  0.823500  0.717100  0.030500  1.0  0.1453
  H  H42  1  0.262300  0.195900  0.091300  1.0  0.1115
  H  H43  1  0.317200  0.353600  0.088400  1.0  0.0833
  H  H44  1  0.117000  0.439000  0.146900  1.0  0.0815
  H  H45  1  0.131000  0.284600  0.212200  1.0  0.071
  H  H46  1  0.810500  0.310100  0.166400  1.0  0.0775
  H  H47  1  0.918600  0.346800  0.243100  1.0  0.0716
  H  H48  1  0.789400  0.535400  0.199700  1.0  0.1039
  H  H49  1  0.950400  0.555400  0.146000  1.0  0.0772
  H  H50  1  0.726800  0.480400  0.054700  1.0  0.0732
  H  H51  1  0.885400  0.496800  0.000700  1.0  0.0797
  H  H52  1  0.328900  0.309700  0.839000  1.0  0.0958
  H  H53  1  0.423500  0.317900  0.930900  1.0  0.0794
  H  H54  1  0.367600  0.095000  0.992900  1.0  0.1328
  H  H55  1  0.291600  0.090000  0.889200  1.0  0.0912
  H  H56  1  0.085700  0.117700  0.086500  1.0  0.0859
  H  H57  1  0.968600  0.124000  0.186800  1.0  0.0856
  H  H58  1  0.883100  0.032300  0.065600  1.0  0.1049
  H  H59  1  0.799200  0.181400  0.082800  1.0  0.1294
  H  H60  1  0.282900  0.176500  0.469500  1.0  0.1425
  H  H61  1  0.804100  0.737700  0.408700  1.0  0.1137
  H  H62  1  0.646400  0.682800  0.411600  1.0  0.0842
  H  H63  1  0.561000  0.883000  0.353100  1.0  0.0809
  H  H64  1  0.715400  0.869000  0.287800  1.0  0.0692
  H  H65  1  0.689900  0.189500  0.333600  1.0  0.0784
  H  H66  1  0.653200  0.081400  0.256900  1.0  0.0704
  H  H67  1  0.464600  0.210600  0.300300  1.0  0.1025
  H  H68  1  0.444600  0.049600  0.354000  1.0  0.0761
  H  H69  1  0.519600  0.273200  0.445300  1.0  0.0755
  H  H70  1  0.503200  0.114600  0.499300  1.0  0.0789
  H  H71  1  0.690300  0.671100  0.661000  1.0  0.0958
  H  H72  1  0.682100  0.576500  0.569100  1.0  0.0793
  H  H73  1  0.905000  0.632400  0.507100  1.0  0.1302
  H  H74  1  0.910000  0.708400  0.610800  1.0  0.0895
  H  H75  1  0.882300  0.914300  0.413500  1.0  0.0873
  H  H76  1  0.876000  0.031400  0.313200  1.0  0.0871
  H  H77  1  0.967700  0.116900  0.434400  1.0  0.1042
  H  H78  1  0.818600  0.200800  0.417200  1.0  0.129
  C  C79  1  0.243000  0.301000  0.076000  1.0  -0.0943
  C  C80  1  0.123000  0.339000  0.145000  1.0  -0.0583
  C  C81  1  0.896000  0.362000  0.174000  1.0  -0.0313
  C  C82  1  0.863000  0.505000  0.149000  1.0  -0.1626
  C  C83  1  0.811000  0.529000  0.055000  1.0  -0.0539
  C  C84  1  0.340000  0.280000  0.911000  1.0  -0.0535
  C  C85  1  0.363000  0.133000  0.921000  1.0  -0.298
  C  C86  1  0.491000  0.095000  0.865000  1.0  0.7452
  C  C87  1  0.002000  0.836000  0.881000  1.0  -0.0613
  C  C88  1  0.105000  0.865000  0.942000  1.0  -0.2936
  C  C89  1  0.081000  0.829000  0.050000  1.0  0.5196
  C  C90  1  0.699000  0.757000  0.424000  1.0  -0.0866
  C  C91  1  0.661000  0.877000  0.355000  1.0  -0.0558
  C  C92  1  0.638000  0.104000  0.326000  1.0  -0.0269
  C  C93  1  0.495000  0.137000  0.351000  1.0  -0.1623
  C  C94  1  0.471000  0.189000  0.445000  1.0  -0.0548
  C  C95  1  0.720000  0.660000  0.589000  1.0  -0.0496
  C  C96  1  0.867000  0.637000  0.579000  1.0  -0.2984
  C  C97  1  0.905000  0.509000  0.635000  1.0  0.7476
  C  C98  1  0.164000  0.998000  0.619000  1.0  -0.0637
  C  C99  1  0.135000  0.895000  0.558000  1.0  -0.2976
  C  C100  1  0.171000  0.919000  0.450000  1.0  0.5204
  C  C101  1  0.757000  0.699000  0.924000  1.0  -0.091
  C  C102  1  0.877000  0.661000  0.855000  1.0  -0.0576
  C  C103  1  0.104000  0.638000  0.826000  1.0  -0.0291
  C  C104  1  0.137000  0.495000  0.851000  1.0  -0.1629
  C  C105  1  0.189000  0.471000  0.945000  1.0  -0.0541
  C  C106  1  0.660000  0.720000  0.089000  1.0  -0.0545
  C  C107  1  0.637000  0.867000  0.079000  1.0  -0.2974
  C  C108  1  0.509000  0.905000  0.135000  1.0  0.7463
  C  C109  1  0.998000  0.164000  0.119000  1.0  -0.0601
  C  C110  1  0.895000  0.135000  0.058000  1.0  -0.296
  C  C111  1  0.919000  0.171000  0.950000  1.0  0.5214
  C  C112  1  0.301000  0.243000  0.576000  1.0  -0.0896
  C  C113  1  0.339000  0.123000  0.645000  1.0  -0.0559
  C  C114  1  0.362000  0.896000  0.674000  1.0  -0.0265
  C  C115  1  0.505000  0.863000  0.649000  1.0  -0.16
  C  C116  1  0.529000  0.811000  0.555000  1.0  -0.0549
  C  C117  1  0.280000  0.340000  0.411000  1.0  -0.0498
  C  C118  1  0.133000  0.363000  0.421000  1.0  -0.2998
  C  C119  1  0.095000  0.491000  0.365000  1.0  0.7488
  C  C120  1  0.836000  0.002000  0.381000  1.0  -0.0636
  C  C121  1  0.865000  0.105000  0.442000  1.0  -0.2951
  C  C122  1  0.829000  0.081000  0.550000  1.0  0.519
  N  N123  1  0.223700  0.327700  0.974000  1.0  0.0561
  N  N124  1  0.004000  0.308000  0.113000  1.0  -0.3166
  N  N125  1  0.672300  0.776300  0.526000  1.0  0.0554
  N  N126  1  0.692000  0.996000  0.387000  1.0  -0.3181
  N  N127  1  0.776300  0.672300  0.026000  1.0  0.0584
  N  N128  1  0.996000  0.692000  0.887000  1.0  -0.3184
  N  N129  1  0.327700  0.223700  0.474000  1.0  0.0554
  N  N130  1  0.308000  0.004000  0.613000  1.0  -0.3177
  O  O131  1  0.477800  0.023800  0.136000  1.0  -0.5934
  O  O132  1  0.558000  0.184000  0.823000  1.0  -0.7676
  O  O133  1  0.965900  0.801900  0.086400  1.0  -0.6226
  O  O134  1  0.186000  0.776000  0.092000  1.0  -0.6485
  O  O135  1  0.976200  0.522200  0.364000  1.0  -0.595
  O  O136  1  0.816000  0.442000  0.677000  1.0  -0.7669
  O  O137  1  0.198100  0.034100  0.413600  1.0  -0.6279
  O  O138  1  0.224000  0.814000  0.408000  1.0  -0.648
  O  O139  1  0.522200  0.976200  0.864000  1.0  -0.5936
  O  O140  1  0.442000  0.816000  0.177000  1.0  -0.7701
  O  O141  1  0.034100  0.198100  0.913600  1.0  -0.6269
  O  O142  1  0.814000  0.224000  0.908000  1.0  -0.647
  O  O143  1  0.023800  0.477800  0.636000  1.0  -0.5948
  O  O144  1  0.184000  0.558000  0.323000  1.0  -0.7678
  O  O145  1  0.801900  0.965900  0.586400  1.0  -0.6255
  O  O146  1  0.776000  0.186000  0.592000  1.0  -0.6496
