# generated using pymatgen
data_CeH38C22(NO2)4
_symmetry_space_group_name_H-M   'P 1'
_cell_length_a   8.50900000
_cell_length_b   17.15790000
_cell_length_c   17.15790000
_cell_angle_alpha   118.70800000
_cell_angle_beta   97.49450000
_cell_angle_gamma   82.50550000
_symmetry_Int_Tables_number   1
_chemical_formula_structural   CeH38C22(NO2)4
_chemical_formula_sum   'Ce2 H76 C44 N8 O16'
_cell_volume   2171.68261987
_cell_formula_units_Z   2
loop_
 _symmetry_equiv_pos_site_id
 _symmetry_equiv_pos_as_xyz
  1  'x, y, z'
loop_
 _atom_site_type_symbol
 _atom_site_label
 _atom_site_symmetry_multiplicity
 _atom_site_fract_x
 _atom_site_fract_y
 _atom_site_fract_z
 _atom_site_occupancy
 _atom_site_charge
  Ce  Ce1  1  0.250000  0.990930  0.990930  1.0  1.3289
  Ce  Ce2  1  0.750000  0.009070  0.009070  1.0  1.3275
  H  H3  1  0.869700  0.103500  0.649500  1.0  0.2231
  H  H4  1  0.955200  0.803900  0.250100  1.0  0.1029
  H  H5  1  0.843000  0.874900  0.251500  1.0  0.1027
  H  H6  1  0.813600  0.795300  0.321500  1.0  0.0829
  H  H7  1  0.788200  0.897000  0.392600  1.0  0.0735
  H  H8  1  0.025100  0.808300  0.511500  1.0  0.0781
  H  H9  1  0.834900  0.787400  0.462200  1.0  0.0756
  H  H10  1  0.793200  0.946200  0.539800  1.0  0.1119
  H  H11  1  0.826000  0.915200  0.597800  1.0  0.0902
  H  H12  1  0.073900  0.958200  0.636800  1.0  0.0901
  H  H13  1  0.064900  0.993100  0.565900  1.0  0.092
  H  H14  1  0.171200  0.866300  0.207700  1.0  0.1022
  H  H15  1  0.237800  0.970600  0.283400  1.0  0.119
  H  H16  1  0.925400  0.948600  0.183400  1.0  0.1266
  H  H17  1  0.988300  0.039900  0.252300  1.0  0.1247
  H  H18  1  0.115500  0.719600  0.299400  1.0  0.0785
  H  H19  1  0.046300  0.695700  0.362300  1.0  0.0342
  H  H20  1  0.211400  0.777100  0.478900  1.0  0.1163
  H  H21  1  0.331100  0.692400  0.384000  1.0  0.1255
  H  H22  1  0.630300  0.649500  0.103500  1.0  0.2256
  H  H23  1  0.544800  0.250100  0.803900  1.0  0.106
  H  H24  1  0.657000  0.251500  0.874900  1.0  0.1025
  H  H25  1  0.686400  0.321500  0.795300  1.0  0.0831
  H  H26  1  0.711800  0.392600  0.897000  1.0  0.0735
  H  H27  1  0.474900  0.511500  0.808300  1.0  0.0796
  H  H28  1  0.665100  0.462200  0.787400  1.0  0.0767
  H  H29  1  0.706800  0.539800  0.946200  1.0  0.1107
  H  H30  1  0.674000  0.597800  0.915200  1.0  0.0934
  H  H31  1  0.426100  0.636800  0.958200  1.0  0.0865
  H  H32  1  0.435100  0.565900  0.993100  1.0  0.0925
  H  H33  1  0.328800  0.207700  0.866300  1.0  0.1014
  H  H34  1  0.262200  0.283400  0.970600  1.0  0.118
  H  H35  1  0.574600  0.183400  0.948600  1.0  0.1261
  H  H36  1  0.511700  0.252300  0.039900  1.0  0.1281
  H  H37  1  0.384500  0.299400  0.719600  1.0  0.0825
  H  H38  1  0.453700  0.362300  0.695700  1.0  0.0332
  H  H39  1  0.288600  0.478900  0.777100  1.0  0.1123
  H  H40  1  0.168900  0.384000  0.692400  1.0  0.1249
  H  H41  1  0.130300  0.896500  0.350500  1.0  0.2256
  H  H42  1  0.044800  0.196100  0.749900  1.0  0.1065
  H  H43  1  0.157000  0.125100  0.748500  1.0  0.1032
  H  H44  1  0.186400  0.204700  0.678500  1.0  0.0827
  H  H45  1  0.211800  0.103000  0.607400  1.0  0.0736
  H  H46  1  0.974900  0.191700  0.488500  1.0  0.0797
  H  H47  1  0.165100  0.212600  0.537800  1.0  0.078
  H  H48  1  0.206800  0.053800  0.460200  1.0  0.1107
  H  H49  1  0.174000  0.084800  0.402200  1.0  0.0925
  H  H50  1  0.926100  0.041800  0.363200  1.0  0.087
  H  H51  1  0.935100  0.006900  0.434100  1.0  0.0913
  H  H52  1  0.828800  0.133700  0.792300  1.0  0.102
  H  H53  1  0.762200  0.029400  0.716600  1.0  0.1189
  H  H54  1  0.074600  0.051400  0.816600  1.0  0.1282
  H  H55  1  0.011700  0.960100  0.747700  1.0  0.1278
  H  H56  1  0.884500  0.280400  0.700600  1.0  0.0795
  H  H57  1  0.953700  0.304300  0.637700  1.0  0.0333
  H  H58  1  0.788600  0.222900  0.521100  1.0  0.1176
  H  H59  1  0.668900  0.307600  0.616000  1.0  0.1261
  H  H60  1  0.369700  0.350500  0.896500  1.0  0.2229
  H  H61  1  0.455200  0.749900  0.196100  1.0  0.1065
  H  H62  1  0.343000  0.748500  0.125100  1.0  0.1041
  H  H63  1  0.313600  0.678500  0.204700  1.0  0.0818
  H  H64  1  0.288200  0.607400  0.103000  1.0  0.0728
  H  H65  1  0.525100  0.488500  0.191700  1.0  0.0792
  H  H66  1  0.334900  0.537800  0.212600  1.0  0.0776
  H  H67  1  0.293200  0.460200  0.053800  1.0  0.1116
  H  H68  1  0.326000  0.402200  0.084800  1.0  0.0892
  H  H69  1  0.573900  0.363200  0.041800  1.0  0.0883
  H  H70  1  0.564900  0.434100  0.006900  1.0  0.0922
  H  H71  1  0.671200  0.792300  0.133700  1.0  0.1019
  H  H72  1  0.737800  0.716600  0.029400  1.0  0.1188
  H  H73  1  0.425400  0.816600  0.051400  1.0  0.1273
  H  H74  1  0.488300  0.747700  0.960100  1.0  0.1281
  H  H75  1  0.615500  0.700600  0.280400  1.0  0.0821
  H  H76  1  0.546300  0.637700  0.304300  1.0  0.0336
  H  H77  1  0.711400  0.521100  0.222900  1.0  0.1116
  H  H78  1  0.831100  0.616000  0.307600  1.0  0.1244
  C  C79  1  0.072000  0.137000  0.715000  1.0  -0.1295
  C  C80  1  0.128000  0.156500  0.646100  1.0  -0.0066
  C  C81  1  0.068000  0.169400  0.511400  1.0  1e-04
  C  C82  1  0.130000  0.078900  0.443100  1.0  -0.1325
  C  C83  1  0.996000  0.017900  0.394900  1.0  -0.0567
  C  C84  1  0.866000  0.067900  0.746500  1.0  -0.0425
  C  C85  1  0.976000  0.026600  0.795400  1.0  -0.3514
  C  C86  1  0.896100  0.028000  0.868600  1.0  0.714
  C  C87  1  0.105000  0.751800  0.367400  1.0  0.054
  C  C88  1  0.268000  0.757400  0.418400  1.0  -0.4164
  C  C89  1  0.366000  0.827000  0.423600  1.0  0.7423
  C  C90  1  0.428000  0.715000  0.137000  1.0  -0.1292
  C  C91  1  0.372000  0.646100  0.156500  1.0  -0.0065
  C  C92  1  0.432000  0.511400  0.169400  1.0  0.001
  C  C93  1  0.370000  0.443100  0.078900  1.0  -0.1359
  C  C94  1  0.504000  0.394900  0.017900  1.0  -0.0594
  C  C95  1  0.634000  0.746500  0.067900  1.0  -0.0431
  C  C96  1  0.524000  0.795400  0.026600  1.0  -0.3531
  C  C97  1  0.603900  0.868600  0.028000  1.0  0.7087
  C  C98  1  0.395000  0.367400  0.751800  1.0  0.0514
  C  C99  1  0.232000  0.418400  0.757400  1.0  -0.414
  C  C100  1  0.134000  0.423600  0.827000  1.0  0.7439
  C  C101  1  0.928000  0.863000  0.285000  1.0  -0.1291
  C  C102  1  0.872000  0.843500  0.353900  1.0  -0.006
  C  C103  1  0.932000  0.830600  0.488600  1.0  0.0006
  C  C104  1  0.870000  0.921100  0.556900  1.0  -0.132
  C  C105  1  0.004000  0.982100  0.605100  1.0  -0.0584
  C  C106  1  0.134000  0.932100  0.253500  1.0  -0.0417
  C  C107  1  0.024000  0.973400  0.204600  1.0  -0.3556
  C  C108  1  0.103900  0.972000  0.131400  1.0  0.7069
  C  C109  1  0.895000  0.248200  0.632600  1.0  0.0547
  C  C110  1  0.732000  0.242600  0.581600  1.0  -0.4174
  C  C111  1  0.634000  0.173000  0.576400  1.0  0.7416
  C  C112  1  0.572000  0.285000  0.863000  1.0  -0.127
  C  C113  1  0.628000  0.353900  0.843500  1.0  -0.0066
  C  C114  1  0.568000  0.488600  0.830600  1.0  0.0025
  C  C115  1  0.630000  0.556900  0.921100  1.0  -0.1379
  C  C116  1  0.496000  0.605100  0.982100  1.0  -0.0586
  C  C117  1  0.366000  0.253500  0.932100  1.0  -0.0411
  C  C118  1  0.476000  0.204600  0.973400  1.0  -0.3482
  C  C119  1  0.396100  0.131400  0.972000  1.0  0.7108
  C  C120  1  0.605000  0.632600  0.248200  1.0  0.0474
  C  C121  1  0.768000  0.581600  0.242600  1.0  -0.4148
  C  C122  1  0.866000  0.576400  0.173000  1.0  0.7436
  N  N123  1  0.945900  0.071500  0.674700  1.0  0.0802
  N  N124  1  0.001000  0.167600  0.586600  1.0  -0.2882
  N  N125  1  0.554100  0.674700  0.071500  1.0  0.0799
  N  N126  1  0.499000  0.586600  0.167600  1.0  -0.289
  N  N127  1  0.054100  0.928500  0.325300  1.0  0.0803
  N  N128  1  0.999000  0.832400  0.413400  1.0  -0.2881
  N  N129  1  0.445900  0.325300  0.928500  1.0  0.0798
  N  N130  1  0.501000  0.413400  0.832400  1.0  -0.2888
  O  O131  1  0.985100  0.009400  0.925400  1.0  -0.7793
  O  O132  1  0.249800  0.957900  0.125100  1.0  -0.6169
  O  O133  1  0.329900  0.860200  0.372000  1.0  -0.6906
  O  O134  1  0.486000  0.846300  0.478700  1.0  -0.6936
  O  O135  1  0.514900  0.925400  0.009400  1.0  -0.7822
  O  O136  1  0.250200  0.125100  0.957900  1.0  -0.6181
  O  O137  1  0.170100  0.372000  0.860200  1.0  -0.6866
  O  O138  1  0.014000  0.478700  0.846300  1.0  -0.6952
  O  O139  1  0.014900  0.990600  0.074600  1.0  -0.7834
  O  O140  1  0.750200  0.042100  0.874900  1.0  -0.6163
  O  O141  1  0.670100  0.139800  0.628000  1.0  -0.6893
  O  O142  1  0.514000  0.153700  0.521300  1.0  -0.6935
  O  O143  1  0.485100  0.074600  0.990600  1.0  -0.7808
  O  O144  1  0.749800  0.874900  0.042100  1.0  -0.6152
  O  O145  1  0.829900  0.628000  0.139800  1.0  -0.6875
  O  O146  1  0.986000  0.521300  0.153700  1.0  -0.6913
