# generated using pymatgen
data_Dy4Cu3H72C144(NO2)12
_symmetry_space_group_name_H-M   'P 1'
_cell_length_a   16.13760000
_cell_length_b   16.13760000
_cell_length_c   30.93770000
_cell_angle_alpha   100.76300000
_cell_angle_beta   100.76300000
_cell_angle_gamma   95.91700000
_symmetry_Int_Tables_number   1
_chemical_formula_structural   Dy4Cu3H72C144(NO2)12
_chemical_formula_sum   'Dy8 Cu6 H144 C288 N24 O48'
_cell_volume   7696.02749095
_cell_formula_units_Z   2
loop_
 _symmetry_equiv_pos_site_id
 _symmetry_equiv_pos_as_xyz
  1  'x, y, z'
loop_
 _atom_site_type_symbol
 _atom_site_label
 _atom_site_symmetry_multiplicity
 _atom_site_fract_x
 _atom_site_fract_y
 _atom_site_fract_z
 _atom_site_occupancy
 _atom_site_charge
  Dy  Dy1  1  0.138570  0.688590  0.699440  1.0  2.2852
  Dy  Dy2  1  0.515800  0.133360  0.087260  1.0  2.1949
  Dy  Dy3  1  0.311410  0.861430  0.800560  1.0  2.285
  Dy  Dy4  1  0.866640  0.484200  0.412740  1.0  2.1961
  Dy  Dy5  1  0.861430  0.311410  0.300560  1.0  2.2841
  Dy  Dy6  1  0.484200  0.866640  0.912740  1.0  2.196
  Dy  Dy7  1  0.688590  0.138570  0.199440  1.0  2.2856
  Dy  Dy8  1  0.133360  0.515800  0.587260  1.0  2.196
  Cu  Cu9  1  0.025590  0.640590  0.071570  1.0  0.7134
  Cu  Cu10  1  0.359410  0.974410  0.428430  1.0  0.712
  Cu  Cu11  1  0.974410  0.359410  0.928430  1.0  0.7138
  Cu  Cu12  1  0.640590  0.025590  0.571570  1.0  0.7135
  Cu  Cu13  1  0.723570  0.276430  0.750000  1.0  0.6558
  Cu  Cu14  1  0.276430  0.723570  0.250000  1.0  0.6572
  H  H15  1  0.177400  0.430200  0.985000  1.0  0.1306
  H  H16  1  0.125600  0.518800  0.930200  1.0  0.1258
  H  H17  1  0.990600  0.807200  0.947200  1.0  0.1256
  H  H18  1  0.906700  0.874700  0.000000  1.0  0.1232
  H  H19  1  0.797000  0.778600  0.138400  1.0  0.1263
  H  H20  1  0.848900  0.687100  0.189800  1.0  0.1112
  H  H21  1  0.135000  0.549000  0.216100  1.0  0.1261
  H  H22  1  0.228500  0.493700  0.165700  1.0  0.1222
  H  H23  1  0.984200  0.580600  0.883600  1.0  0.0971
  H  H24  1  0.018600  0.599000  0.816000  1.0  0.1012
  H  H25  1  0.205100  0.790900  0.884400  1.0  0.0939
  H  H26  1  0.168700  0.773700  0.951400  1.0  0.1147
  H  H27  1  0.918800  0.951400  0.111300  1.0  0.1179
  H  H28  1  0.818400  0.046200  0.123200  1.0  0.0916
  H  H29  1  0.630700  0.871300  0.042400  1.0  0.0874
  H  H30  1  0.724900  0.774100  0.032500  1.0  0.1172
  H  H31  1  0.863800  0.522800  0.189600  1.0  0.1154
  H  H32  1  0.836200  0.489600  0.255400  1.0  0.0898
  H  H33  1  0.048500  0.644500  0.327000  1.0  0.1036
  H  H34  1  0.079300  0.675700  0.260400  1.0  0.0947
  H  H35  1  0.316500  0.498700  0.051000  1.0  0.1186
  H  H36  1  0.413000  0.398800  0.054900  1.0  0.1098
  H  H37  1  0.252700  0.251700  0.104600  1.0  0.1242
  H  H38  1  0.156500  0.348500  0.099500  1.0  0.0916
  H  H39  1  0.909800  0.098800  0.837400  1.0  0.1308
  H  H40  1  0.818800  0.154000  0.888400  1.0  0.1203
  H  H41  1  0.584200  0.355400  0.883700  1.0  0.1195
  H  H42  1  0.524700  0.442500  0.830700  1.0  0.1233
  H  H43  1  0.031300  0.147700  0.792400  1.0  0.0873
  H  H44  1  0.125600  0.052400  0.793800  1.0  0.0902
  H  H45  1  0.589400  0.141000  0.875000  1.0  0.114
  H  H46  1  0.564000  0.126600  0.945700  1.0  0.0874
  H  H47  1  0.742100  0.321100  0.005700  1.0  0.082
  H  H48  1  0.773100  0.334900  0.938200  1.0  0.0712
  H  H49  1  0.597000  0.580800  0.792300  1.0  0.1011
  H  H50  1  0.501300  0.678700  0.792800  1.0  0.1015
  H  H51  1  0.569800  0.822600  0.515000  1.0  0.1309
  H  H52  1  0.481200  0.874400  0.569800  1.0  0.1256
  H  H53  1  0.192800  0.009400  0.552800  1.0  0.1241
  H  H54  1  0.125300  0.093300  0.500000  1.0  0.1215
  H  H55  1  0.221400  0.203000  0.361600  1.0  0.1282
  H  H56  1  0.312900  0.151100  0.310200  1.0  0.1122
  H  H57  1  0.451000  0.865000  0.283900  1.0  0.125
  H  H58  1  0.506300  0.771500  0.334300  1.0  0.1228
  H  H59  1  0.419400  0.015800  0.616400  1.0  0.0965
  H  H60  1  0.401000  0.981400  0.684000  1.0  0.1013
  H  H61  1  0.209100  0.794900  0.615600  1.0  0.0945
  H  H62  1  0.226300  0.831300  0.548600  1.0  0.1143
  H  H63  1  0.048600  0.081200  0.388700  1.0  0.117
  H  H64  1  0.953800  0.181600  0.376800  1.0  0.0905
  H  H65  1  0.128700  0.369300  0.457600  1.0  0.0879
  H  H66  1  0.225900  0.275100  0.467500  1.0  0.1169
  H  H67  1  0.477200  0.136200  0.310400  1.0  0.114
  H  H68  1  0.510400  0.163800  0.244600  1.0  0.0905
  H  H69  1  0.355500  0.951500  0.173000  1.0  0.1036
  H  H70  1  0.324300  0.920700  0.239600  1.0  0.0946
  H  H71  1  0.501300  0.683500  0.449000  1.0  0.118
  H  H72  1  0.601200  0.587000  0.445100  1.0  0.1099
  H  H73  1  0.748300  0.747300  0.395400  1.0  0.1249
  H  H74  1  0.651500  0.843500  0.400500  1.0  0.0921
  H  H75  1  0.901200  0.090200  0.662600  1.0  0.1315
  H  H76  1  0.846000  0.181200  0.611600  1.0  0.1207
  H  H77  1  0.644600  0.415800  0.616300  1.0  0.1223
  H  H78  1  0.557500  0.475300  0.669300  1.0  0.1244
  H  H79  1  0.852300  0.968700  0.707600  1.0  0.0874
  H  H80  1  0.947600  0.874400  0.706200  1.0  0.0904
  H  H81  1  0.859000  0.410600  0.625000  1.0  0.1148
  H  H82  1  0.873400  0.436000  0.554300  1.0  0.088
  H  H83  1  0.678900  0.257900  0.494300  1.0  0.081
  H  H84  1  0.665100  0.226900  0.561800  1.0  0.0712
  H  H85  1  0.419200  0.403000  0.707700  1.0  0.1
  H  H86  1  0.321300  0.498700  0.707200  1.0  0.1013
  H  H87  1  0.822600  0.569800  0.015000  1.0  0.1306
  H  H88  1  0.874400  0.481200  0.069800  1.0  0.1256
  H  H89  1  0.009400  0.192800  0.052800  1.0  0.1242
  H  H90  1  0.093300  0.125300  0.000000  1.0  0.1242
  H  H91  1  0.203000  0.221400  0.861600  1.0  0.1269
  H  H92  1  0.151100  0.312900  0.810200  1.0  0.1121
  H  H93  1  0.865000  0.451000  0.783900  1.0  0.1256
  H  H94  1  0.771500  0.506300  0.834300  1.0  0.1229
  H  H95  1  0.015800  0.419400  0.116400  1.0  0.0968
  H  H96  1  0.981400  0.401000  0.184000  1.0  0.1015
  H  H97  1  0.794900  0.209100  0.115600  1.0  0.0946
  H  H98  1  0.831300  0.226300  0.048600  1.0  0.1147
  H  H99  1  0.081200  0.048600  0.888700  1.0  0.1186
  H  H100  1  0.181600  0.953800  0.876800  1.0  0.0914
  H  H101  1  0.369300  0.128700  0.957600  1.0  0.0875
  H  H102  1  0.275100  0.225900  0.967500  1.0  0.1165
  H  H103  1  0.136200  0.477200  0.810400  1.0  0.1152
  H  H104  1  0.163800  0.510400  0.744600  1.0  0.0899
  H  H105  1  0.951500  0.355500  0.673000  1.0  0.1024
  H  H106  1  0.920700  0.324300  0.739600  1.0  0.0936
  H  H107  1  0.683500  0.501300  0.949000  1.0  0.1187
  H  H108  1  0.587000  0.601200  0.945100  1.0  0.1099
  H  H109  1  0.747300  0.748300  0.895400  1.0  0.1242
  H  H110  1  0.843500  0.651500  0.900500  1.0  0.0912
  H  H111  1  0.090200  0.901200  0.162600  1.0  0.1323
  H  H112  1  0.181200  0.846000  0.111600  1.0  0.121
  H  H113  1  0.415800  0.644600  0.116300  1.0  0.1203
  H  H114  1  0.475300  0.557500  0.169300  1.0  0.1231
  H  H115  1  0.968700  0.852300  0.207600  1.0  0.0877
  H  H116  1  0.874400  0.947600  0.206200  1.0  0.0909
  H  H117  1  0.410600  0.859000  0.125000  1.0  0.1137
  H  H118  1  0.436000  0.873400  0.054300  1.0  0.0877
  H  H119  1  0.257900  0.678900  0.994300  1.0  0.0825
  H  H120  1  0.226900  0.665100  0.061800  1.0  0.0713
  H  H121  1  0.403000  0.419200  0.207700  1.0  0.1011
  H  H122  1  0.498700  0.321300  0.207200  1.0  0.1017
  H  H123  1  0.430200  0.177400  0.485000  1.0  0.1325
  H  H124  1  0.518800  0.125600  0.430200  1.0  0.1273
  H  H125  1  0.807200  0.990600  0.447200  1.0  0.1253
  H  H126  1  0.874700  0.906700  0.500000  1.0  0.1214
  H  H127  1  0.778600  0.797000  0.638400  1.0  0.1268
  H  H128  1  0.687100  0.848900  0.689800  1.0  0.1124
  H  H129  1  0.549000  0.135000  0.716100  1.0  0.1254
  H  H130  1  0.493700  0.228500  0.665700  1.0  0.1228
  H  H131  1  0.580600  0.984200  0.383600  1.0  0.0961
  H  H132  1  0.599000  0.018600  0.316000  1.0  0.1011
  H  H133  1  0.790900  0.205100  0.384400  1.0  0.0938
  H  H134  1  0.773700  0.168700  0.451400  1.0  0.1146
  H  H135  1  0.951400  0.918800  0.611300  1.0  0.1182
  H  H136  1  0.046200  0.818400  0.623200  1.0  0.0907
  H  H137  1  0.871300  0.630700  0.542400  1.0  0.0875
  H  H138  1  0.774100  0.724900  0.532500  1.0  0.1177
  H  H139  1  0.522800  0.863800  0.689600  1.0  0.1144
  H  H140  1  0.489600  0.836200  0.755400  1.0  0.0901
  H  H141  1  0.644500  0.048500  0.827000  1.0  0.1025
  H  H142  1  0.675700  0.079300  0.760400  1.0  0.0931
  H  H143  1  0.498700  0.316500  0.551000  1.0  0.1181
  H  H144  1  0.398800  0.413000  0.554900  1.0  0.1094
  H  H145  1  0.251700  0.252700  0.604600  1.0  0.1245
  H  H146  1  0.348500  0.156500  0.599500  1.0  0.093
  H  H147  1  0.098800  0.909800  0.337400  1.0  0.131
  H  H148  1  0.154000  0.818800  0.388400  1.0  0.1198
  H  H149  1  0.355400  0.584200  0.383700  1.0  0.1205
  H  H150  1  0.442500  0.524700  0.330700  1.0  0.1242
  H  H151  1  0.147700  0.031300  0.292400  1.0  0.0865
  H  H152  1  0.052400  0.125600  0.293800  1.0  0.0899
  H  H153  1  0.141000  0.589400  0.375000  1.0  0.1146
  H  H154  1  0.126600  0.564000  0.445700  1.0  0.0876
  H  H155  1  0.321100  0.742100  0.505700  1.0  0.0822
  H  H156  1  0.334900  0.773100  0.438200  1.0  0.0712
  H  H157  1  0.580800  0.597000  0.292300  1.0  0.1
  H  H158  1  0.678700  0.501300  0.292800  1.0  0.101
  C  C159  1  0.130700  0.516900  0.032800  1.0  0.2222
  C  C160  1  0.149800  0.479000  0.990800  1.0  -0.1775
  C  C161  1  0.120600  0.526800  0.960800  1.0  -0.1907
  C  C162  1  0.080800  0.591800  0.984300  1.0  0.1701
  C  C163  1  0.053800  0.661000  0.967000  1.0  -0.0851
  C  C164  1  0.013800  0.720400  0.991400  1.0  0.1968
  C  C165  1  0.981300  0.790100  0.973900  1.0  -0.1614
  C  C166  1  0.935000  0.826400  0.002300  1.0  -0.1646
  C  C167  1  0.937300  0.777300  0.037100  1.0  0.1376
  C  C168  1  0.890000  0.786800  0.070500  1.0  -0.1069
  C  C169  1  0.894800  0.738800  0.103400  1.0  0.1973
  C  C170  1  0.842300  0.745700  0.136700  1.0  -0.1581
  C  C171  1  0.871000  0.696600  0.164500  1.0  -0.1872
  C  C172  1  0.940400  0.660400  0.150000  1.0  0.2111
  C  C173  1  0.995500  0.617500  0.174900  1.0  -0.1204
  C  C174  1  0.066600  0.588600  0.159800  1.0  0.2148
  C  C175  1  0.129300  0.551300  0.185300  1.0  -0.171
  C  C176  1  0.179500  0.519900  0.157800  1.0  -0.1703
  C  C177  1  0.144000  0.534200  0.114200  1.0  0.1972
  C  C178  1  0.164100  0.497900  0.074000  1.0  -0.0856
  C  C179  1  0.073000  0.673200  0.923500  1.0  0.0453
  C  C180  1  0.029400  0.623200  0.883800  1.0  -0.1033
  C  C181  1  0.050200  0.633800  0.843600  1.0  -0.027
  C  C182  1  0.117400  0.695600  0.843400  1.0  -0.1402
  C  C183  1  0.160300  0.747500  0.884100  1.0  0.0189
  C  C184  1  0.139100  0.737500  0.923800  1.0  -0.1694
  C  C185  1  0.142000  0.704800  0.800300  1.0  0.7255
  C  C186  1  0.830300  0.851500  0.071300  1.0  0.0523
  C  C187  1  0.859900  0.934300  0.098100  1.0  -0.1715
  C  C188  1  0.799800  0.991000  0.104700  1.0  -0.0211
  C  C189  1  0.712900  0.966500  0.084300  1.0  -0.1384
  C  C190  1  0.688800  0.887400  0.057400  1.0  -0.0285
  C  C191  1  0.745000  0.829200  0.050900  1.0  -0.1618
  C  C192  1  0.650400  0.024800  0.092600  1.0  0.68
  C  C193  1  0.976000  0.601600  0.218300  1.0  0.065
  C  C194  1  0.902600  0.546600  0.217400  1.0  -0.1712
  C  C195  1  0.886700  0.526700  0.256600  1.0  -0.045
  C  C196  1  0.941400  0.558800  0.297400  1.0  -0.0939
  C  C197  1  0.012300  0.617700  0.298900  1.0  -0.0595
  C  C198  1  0.029700  0.637300  0.259200  1.0  -0.1217
  C  C199  1  0.928500  0.531500  0.338400  1.0  0.6923
  C  C200  1  0.227200  0.434400  0.075800  1.0  0.0194
  C  C201  1  0.303200  0.448800  0.062000  1.0  -0.1118
  C  C202  1  0.360700  0.389100  0.064200  1.0  -0.0601
  C  C203  1  0.341300  0.316900  0.079700  1.0  -0.0836
  C  C204  1  0.265600  0.301400  0.093400  1.0  -0.1139
  C  C205  1  0.209300  0.359700  0.090800  1.0  -0.0745
  C  C206  1  0.402600  0.253000  0.081900  1.0  0.7057
  C  C207  1  0.841000  0.162200  0.789900  1.0  0.1579
  C  C208  1  0.866600  0.133400  0.831200  1.0  -0.1685
  C  C209  1  0.818100  0.164300  0.859100  1.0  -0.1651
  C  C210  1  0.764400  0.216000  0.836900  1.0  0.1742
  C  C211  1  0.702200  0.255000  0.855400  1.0  -0.1307
  C  C212  1  0.654300  0.308500  0.834300  1.0  0.2117
  C  C213  1  0.597000  0.356600  0.855000  1.0  -0.1638
  C  C214  1  0.564700  0.404100  0.826300  1.0  -0.1665
  C  C215  1  0.602000  0.385600  0.788200  1.0  0.1707
  C  C216  1  0.013500  0.091300  0.775100  1.0  -0.1356
  C  C217  1  0.070100  0.034500  0.775500  1.0  -0.0824
  C  C218  1  0.686800  0.240800  0.899300  1.0  0.0949
  C  C219  1  0.622200  0.178200  0.901600  1.0  -0.2297
  C  C220  1  0.606300  0.171100  0.944600  1.0  -0.0872
  C  C221  1  0.647600  0.224200  0.984500  1.0  0.0477
  C  C222  1  0.709700  0.283100  0.979300  1.0  -0.1287
  C  C223  1  0.728800  0.291600  0.938600  1.0  -0.1817
  C  C224  1  0.628500  0.216100  0.026200  1.0  0.7343
  C  C225  1  0.540600  0.564000  0.774900  1.0  -0.0854
  C  C226  1  0.483800  0.622600  0.775300  1.0  -0.0733
  C  C227  1  0.483100  0.869300  0.467200  1.0  0.2233
  C  C228  1  0.521000  0.850200  0.509200  1.0  -0.1755
  C  C229  1  0.473200  0.879400  0.539200  1.0  -0.1931
  C  C230  1  0.408200  0.919200  0.515700  1.0  0.1708
  C  C231  1  0.339000  0.946200  0.533000  1.0  -0.0842
  C  C232  1  0.279600  0.986200  0.508600  1.0  0.1991
  C  C233  1  0.209900  0.018700  0.526100  1.0  -0.1648
  C  C234  1  0.173600  0.065000  0.497700  1.0  -0.1635
  C  C235  1  0.222700  0.062700  0.462900  1.0  0.1353
  C  C236  1  0.213200  0.110000  0.429500  1.0  -0.1062
  C  C237  1  0.261200  0.105200  0.396600  1.0  0.1987
  C  C238  1  0.254300  0.157700  0.363300  1.0  -0.1563
  C  C239  1  0.303400  0.129000  0.335500  1.0  -0.1832
  C  C240  1  0.339600  0.059600  0.350000  1.0  0.2126
  C  C241  1  0.382500  0.004500  0.325100  1.0  -0.1204
  C  C242  1  0.411400  0.933400  0.340200  1.0  0.2139
  C  C243  1  0.448700  0.870700  0.314700  1.0  -0.1707
  C  C244  1  0.480100  0.820500  0.342200  1.0  -0.1715
  C  C245  1  0.465800  0.856000  0.385800  1.0  0.1971
  C  C246  1  0.502100  0.835900  0.426000  1.0  -0.0861
  C  C247  1  0.326800  0.927000  0.576500  1.0  0.0437
  C  C248  1  0.376800  0.970600  0.616200  1.0  -0.1031
  C  C249  1  0.366200  0.949800  0.656400  1.0  -0.0252
  C  C250  1  0.304400  0.882600  0.656600  1.0  -0.142
  C  C251  1  0.252500  0.839700  0.615900  1.0  0.0154
  C  C252  1  0.262500  0.860900  0.576200  1.0  -0.1672
  C  C253  1  0.295200  0.858000  0.699700  1.0  0.7249
  C  C254  1  0.148500  0.169700  0.428700  1.0  0.0518
  C  C255  1  0.065700  0.140100  0.401900  1.0  -0.1698
  C  C256  1  0.009000  0.200200  0.395300  1.0  -0.02
  C  C257  1  0.033500  0.287100  0.415700  1.0  -0.1385
  C  C258  1  0.112600  0.311200  0.442600  1.0  -0.0316
  C  C259  1  0.170800  0.255000  0.449100  1.0  -0.1635
  C  C260  1  0.975200  0.349600  0.407400  1.0  0.6826
  C  C261  1  0.398400  0.024000  0.281700  1.0  0.0671
  C  C262  1  0.453400  0.097400  0.282600  1.0  -0.1744
  C  C263  1  0.473300  0.113300  0.243400  1.0  -0.0487
  C  C264  1  0.441200  0.058600  0.202600  1.0  -0.0928
  C  C265  1  0.382300  0.987700  0.201100  1.0  -0.0586
  C  C266  1  0.362700  0.970300  0.240800  1.0  -0.124
  C  C267  1  0.468500  0.071500  0.161600  1.0  0.6942
  C  C268  1  0.565600  0.772800  0.424200  1.0  0.019
  C  C269  1  0.551200  0.696800  0.438000  1.0  -0.1144
  C  C270  1  0.610900  0.639300  0.435800  1.0  -0.0613
  C  C271  1  0.683100  0.658700  0.420300  1.0  -0.0826
  C  C272  1  0.698600  0.734400  0.406600  1.0  -0.1095
  C  C273  1  0.640300  0.790700  0.409200  1.0  -0.0693
  C  C274  1  0.747000  0.597400  0.418100  1.0  0.7049
  C  C275  1  0.837800  0.159000  0.710100  1.0  0.1572
  C  C276  1  0.866600  0.133400  0.668800  1.0  -0.1663
  C  C277  1  0.835700  0.181900  0.640900  1.0  -0.1651
  C  C278  1  0.784000  0.235600  0.663100  1.0  0.1737
  C  C279  1  0.745000  0.297800  0.644600  1.0  -0.1308
  C  C280  1  0.691500  0.345700  0.665700  1.0  0.2112
  C  C281  1  0.643400  0.403000  0.645000  1.0  -0.1609
  C  C282  1  0.595900  0.435300  0.673700  1.0  -0.1666
  C  C283  1  0.614400  0.398000  0.711800  1.0  0.1714
  C  C284  1  0.908700  0.986500  0.724900  1.0  -0.1342
  C  C285  1  0.965500  0.929900  0.724500  1.0  -0.0819
  C  C286  1  0.759200  0.313200  0.600700  1.0  0.0966
  C  C287  1  0.821800  0.377800  0.598400  1.0  -0.2305
  C  C288  1  0.828900  0.393700  0.555400  1.0  -0.0888
  C  C289  1  0.775800  0.352400  0.515500  1.0  0.0496
  C  C290  1  0.716900  0.290300  0.520700  1.0  -0.128
  C  C291  1  0.708400  0.271200  0.561400  1.0  -0.182
  C  C292  1  0.783900  0.371500  0.473800  1.0  0.7353
  C  C293  1  0.436000  0.459400  0.725100  1.0  -0.0866
  C  C294  1  0.377400  0.516200  0.724700  1.0  -0.0693
  C  C295  1  0.869300  0.483100  0.967200  1.0  0.2222
  C  C296  1  0.850200  0.521000  0.009200  1.0  -0.1786
  C  C297  1  0.879400  0.473200  0.039200  1.0  -0.1911
  C  C298  1  0.919200  0.408200  0.015700  1.0  0.1701
  C  C299  1  0.946200  0.339000  0.033000  1.0  -0.0853
  C  C300  1  0.986200  0.279600  0.008600  1.0  0.1965
  C  C301  1  0.018700  0.209900  0.026100  1.0  -0.1616
  C  C302  1  0.065000  0.173600  0.997700  1.0  -0.1655
  C  C303  1  0.062700  0.222700  0.962900  1.0  0.1366
  C  C304  1  0.110000  0.213200  0.929500  1.0  -0.1063
  C  C305  1  0.105200  0.261200  0.896600  1.0  0.1986
  C  C306  1  0.157700  0.254300  0.863300  1.0  -0.1549
  C  C307  1  0.129000  0.303400  0.835500  1.0  -0.1871
  C  C308  1  0.059600  0.339600  0.850000  1.0  0.2117
  C  C309  1  0.004500  0.382500  0.825100  1.0  -0.1211
  C  C310  1  0.933400  0.411400  0.840200  1.0  0.2144
  C  C311  1  0.870700  0.448700  0.814700  1.0  -0.1709
  C  C312  1  0.820500  0.480100  0.842200  1.0  -0.1695
  C  C313  1  0.856000  0.465800  0.885800  1.0  0.1968
  C  C314  1  0.835900  0.502100  0.926000  1.0  -0.0865
  C  C315  1  0.927000  0.326800  0.076500  1.0  0.045
  C  C316  1  0.970600  0.376800  0.116200  1.0  -0.1054
  C  C317  1  0.949800  0.366200  0.156400  1.0  -0.0278
  C  C318  1  0.882600  0.304400  0.156600  1.0  -0.1411
  C  C319  1  0.839700  0.252500  0.115900  1.0  0.0174
  C  C320  1  0.860900  0.262500  0.076200  1.0  -0.1677
  C  C321  1  0.858000  0.295200  0.199700  1.0  0.7255
  C  C322  1  0.169700  0.148500  0.928700  1.0  0.0532
  C  C323  1  0.140100  0.065700  0.901900  1.0  -0.1707
  C  C324  1  0.200200  0.009000  0.895300  1.0  -0.022
  C  C325  1  0.287100  0.033500  0.915700  1.0  -0.1395
  C  C326  1  0.311200  0.112600  0.942600  1.0  -0.0287
  C  C327  1  0.255000  0.170800  0.949100  1.0  -0.1635
  C  C328  1  0.349600  0.975200  0.907400  1.0  0.681
  C  C329  1  0.024000  0.398400  0.781700  1.0  0.0665
  C  C330  1  0.097400  0.453400  0.782600  1.0  -0.1721
  C  C331  1  0.113300  0.473300  0.743400  1.0  -0.0451
  C  C332  1  0.058600  0.441200  0.702600  1.0  -0.094
  C  C333  1  0.987700  0.382300  0.701100  1.0  -0.0588
  C  C334  1  0.970300  0.362700  0.740800  1.0  -0.1222
  C  C335  1  0.071500  0.468500  0.661600  1.0  0.697
  C  C336  1  0.772800  0.565600  0.924200  1.0  0.0179
  C  C337  1  0.696800  0.551200  0.938000  1.0  -0.1125
  C  C338  1  0.639300  0.610900  0.935800  1.0  -0.0608
  C  C339  1  0.658700  0.683100  0.920300  1.0  -0.0827
  C  C340  1  0.734400  0.698600  0.906600  1.0  -0.1128
  C  C341  1  0.790700  0.640300  0.909200  1.0  -0.078
  C  C342  1  0.597400  0.747000  0.918100  1.0  0.707
  C  C343  1  0.159000  0.837800  0.210100  1.0  0.1557
  C  C344  1  0.133400  0.866600  0.168800  1.0  -0.1677
  C  C345  1  0.181900  0.835700  0.140900  1.0  -0.1647
  C  C346  1  0.235600  0.784000  0.163100  1.0  0.174
  C  C347  1  0.297800  0.745000  0.144600  1.0  -0.1306
  C  C348  1  0.345700  0.691500  0.165700  1.0  0.2125
  C  C349  1  0.403000  0.643400  0.145000  1.0  -0.1635
  C  C350  1  0.435300  0.595900  0.173700  1.0  -0.1671
  C  C351  1  0.398000  0.614400  0.211800  1.0  0.1695
  C  C352  1  0.986500  0.908700  0.224900  1.0  -0.1351
  C  C353  1  0.929900  0.965500  0.224500  1.0  -0.0823
  C  C354  1  0.313200  0.759200  0.100700  1.0  0.0968
  C  C355  1  0.377800  0.821800  0.098400  1.0  -0.2295
  C  C356  1  0.393700  0.828900  0.055400  1.0  -0.0889
  C  C357  1  0.352400  0.775800  0.015500  1.0  0.0469
  C  C358  1  0.290300  0.716900  0.020700  1.0  -0.1304
  C  C359  1  0.271200  0.708400  0.061400  1.0  -0.1815
  C  C360  1  0.371500  0.783900  0.973800  1.0  0.7361
  C  C361  1  0.459400  0.436000  0.225100  1.0  -0.0863
  C  C362  1  0.516200  0.377400  0.224700  1.0  -0.0742
  C  C363  1  0.516900  0.130700  0.532800  1.0  0.2225
  C  C364  1  0.479000  0.149800  0.490800  1.0  -0.1781
  C  C365  1  0.526800  0.120600  0.460800  1.0  -0.193
  C  C366  1  0.591800  0.080800  0.484300  1.0  0.1703
  C  C367  1  0.661000  0.053800  0.467000  1.0  -0.0845
  C  C368  1  0.720400  0.013800  0.491400  1.0  0.2006
  C  C369  1  0.790100  0.981300  0.473900  1.0  -0.1644
  C  C370  1  0.826400  0.935000  0.502300  1.0  -0.1625
  C  C371  1  0.777300  0.937300  0.537100  1.0  0.1361
  C  C372  1  0.786800  0.890000  0.570500  1.0  -0.106
  C  C373  1  0.738800  0.894800  0.603400  1.0  0.1994
  C  C374  1  0.745700  0.842300  0.636700  1.0  -0.158
  C  C375  1  0.696600  0.871000  0.664500  1.0  -0.184
  C  C376  1  0.660400  0.940400  0.650000  1.0  0.2119
  C  C377  1  0.617500  0.995500  0.674900  1.0  -0.1199
  C  C378  1  0.588600  0.066600  0.659800  1.0  0.2163
  C  C379  1  0.551300  0.129300  0.685300  1.0  -0.1696
  C  C380  1  0.519900  0.179500  0.657800  1.0  -0.172
  C  C381  1  0.534200  0.144000  0.614200  1.0  0.1964
  C  C382  1  0.497900  0.164100  0.574000  1.0  -0.0869
  C  C383  1  0.673200  0.073000  0.423500  1.0  0.0448
  C  C384  1  0.623200  0.029400  0.383800  1.0  -0.1011
  C  C385  1  0.633800  0.050200  0.343600  1.0  -0.0247
  C  C386  1  0.695600  0.117400  0.343400  1.0  -0.1418
  C  C387  1  0.747500  0.160300  0.384100  1.0  0.0178
  C  C388  1  0.737500  0.139100  0.423800  1.0  -0.1683
  C  C389  1  0.704800  0.142000  0.300300  1.0  0.7249
  C  C390  1  0.851500  0.830300  0.571300  1.0  0.0533
  C  C391  1  0.934300  0.859900  0.598100  1.0  -0.169
  C  C392  1  0.991000  0.799800  0.604700  1.0  -0.019
  C  C393  1  0.966500  0.712900  0.584300  1.0  -0.1389
  C  C394  1  0.887400  0.688800  0.557400  1.0  -0.0333
  C  C395  1  0.829200  0.745000  0.550900  1.0  -0.1632
  C  C396  1  0.024800  0.650400  0.592600  1.0  0.6822
  C  C397  1  0.601600  0.976000  0.718300  1.0  0.0673
  C  C398  1  0.546600  0.902600  0.717400  1.0  -0.1737
  C  C399  1  0.526700  0.886700  0.756600  1.0  -0.0502
  C  C400  1  0.558800  0.941400  0.797400  1.0  -0.0944
  C  C401  1  0.617700  0.012300  0.798900  1.0  -0.0596
  C  C402  1  0.637300  0.029700  0.759200  1.0  -0.122
  C  C403  1  0.531500  0.928500  0.838400  1.0  0.6926
  C  C404  1  0.434400  0.227200  0.575800  1.0  0.0186
  C  C405  1  0.448800  0.303200  0.562000  1.0  -0.1161
  C  C406  1  0.389100  0.360700  0.564200  1.0  -0.0613
  C  C407  1  0.316900  0.341300  0.579700  1.0  -0.0829
  C  C408  1  0.301400  0.265600  0.593400  1.0  -0.1098
  C  C409  1  0.359700  0.209300  0.590800  1.0  -0.0685
  C  C410  1  0.253000  0.402600  0.581900  1.0  0.7061
  C  C411  1  0.162200  0.841000  0.289900  1.0  0.157
  C  C412  1  0.133400  0.866600  0.331200  1.0  -0.1672
  C  C413  1  0.164300  0.818100  0.359100  1.0  -0.1654
  C  C414  1  0.216000  0.764400  0.336900  1.0  0.1739
  C  C415  1  0.255000  0.702200  0.355400  1.0  -0.1305
  C  C416  1  0.308500  0.654300  0.334300  1.0  0.2112
  C  C417  1  0.356600  0.597000  0.355000  1.0  -0.1635
  C  C418  1  0.404100  0.564700  0.326300  1.0  -0.1679
  C  C419  1  0.385600  0.602000  0.288200  1.0  0.1712
  C  C420  1  0.091300  0.013500  0.275100  1.0  -0.134
  C  C421  1  0.034500  0.070100  0.275500  1.0  -0.0817
  C  C422  1  0.240800  0.686800  0.399300  1.0  0.095
  C  C423  1  0.178200  0.622200  0.401600  1.0  -0.2302
  C  C424  1  0.171100  0.606300  0.444600  1.0  -0.0871
  C  C425  1  0.224200  0.647600  0.484500  1.0  0.0482
  C  C426  1  0.283100  0.709700  0.479300  1.0  -0.1269
  C  C427  1  0.291600  0.728800  0.438600  1.0  -0.1815
  C  C428  1  0.216100  0.628500  0.526200  1.0  0.7328
  C  C429  1  0.564000  0.540600  0.274900  1.0  -0.0852
  C  C430  1  0.622600  0.483800  0.275300  1.0  -0.0702
  C  C431  1  0.867300  0.132700  0.750000  1.0  -0.0921
  C  C432  1  0.579200  0.420800  0.750000  1.0  -0.0743
  C  C433  1  0.930300  0.069700  0.750000  1.0  0.0861
  C  C434  1  0.050100  0.949900  0.750000  1.0  -0.0838
  C  C435  1  0.108900  0.891100  0.750000  1.0  0.7401
  C  C436  1  0.517600  0.482400  0.750000  1.0  0.0917
  C  C437  1  0.400800  0.599200  0.750000  1.0  -0.1165
  C  C438  1  0.338300  0.661700  0.750000  1.0  0.7524
  C  C439  1  0.132700  0.867300  0.250000  1.0  -0.0921
  C  C440  1  0.420800  0.579200  0.250000  1.0  -0.0739
  C  C441  1  0.069700  0.930300  0.250000  1.0  0.0849
  C  C442  1  0.949900  0.050100  0.250000  1.0  -0.0838
  C  C443  1  0.891100  0.108900  0.250000  1.0  0.7406
  C  C444  1  0.482400  0.517600  0.250000  1.0  0.0931
  C  C445  1  0.599200  0.400800  0.250000  1.0  -0.1168
  C  C446  1  0.661700  0.338300  0.250000  1.0  0.7512
  N  N447  1  0.083000  0.582600  0.028070  1.0  -0.4125
  N  N448  1  0.988800  0.713400  0.030500  1.0  -0.4597
  N  N449  1  0.952200  0.684400  0.110710  1.0  -0.4449
  N  N450  1  0.078500  0.583500  0.117240  1.0  -0.4338
  N  N451  1  0.778900  0.215100  0.794280  1.0  -0.4036
  N  N452  1  0.656600  0.325200  0.792990  1.0  -0.4543
  N  N453  1  0.417400  0.917000  0.471930  1.0  -0.4143
  N  N454  1  0.286600  0.011200  0.469500  1.0  -0.4636
  N  N455  1  0.315600  0.047800  0.389290  1.0  -0.4418
  N  N456  1  0.416500  0.921500  0.382760  1.0  -0.434
  N  N457  1  0.784900  0.221100  0.705720  1.0  -0.4031
  N  N458  1  0.674800  0.343400  0.707010  1.0  -0.4525
  N  N459  1  0.917000  0.417400  0.971930  1.0  -0.4119
  N  N460  1  0.011200  0.286600  0.969500  1.0  -0.4598
  N  N461  1  0.047800  0.315600  0.889290  1.0  -0.444
  N  N462  1  0.921500  0.416500  0.882760  1.0  -0.433
  N  N463  1  0.221100  0.784900  0.205720  1.0  -0.4022
  N  N464  1  0.343400  0.674800  0.207010  1.0  -0.4546
  N  N465  1  0.582600  0.083000  0.528070  1.0  -0.4139
  N  N466  1  0.713400  0.988800  0.530500  1.0  -0.4623
  N  N467  1  0.684400  0.952200  0.610710  1.0  -0.4412
  N  N468  1  0.583500  0.078500  0.617240  1.0  -0.4331
  N  N469  1  0.215100  0.778900  0.294280  1.0  -0.4029
  N  N470  1  0.325200  0.656600  0.292990  1.0  -0.452
  O  O471  1  0.099120  0.658280  0.764230  1.0  -0.6406
  O  O472  1  0.205500  0.759500  0.801170  1.0  -0.8066
  O  O473  1  0.574810  0.003790  0.072390  1.0  -0.6335
  O  O474  1  0.675370  0.095230  0.120820  1.0  -0.7725
  O  O475  1  0.877080  0.460520  0.333370  1.0  -0.7799
  O  O476  1  0.963660  0.571540  0.376640  1.0  -0.6477
  O  O477  1  0.404000  0.206600  0.110200  1.0  -0.6359
  O  O478  1  0.453300  0.247100  0.054400  1.0  -0.6305
  O  O479  1  0.086630  0.815370  0.726020  1.0  -0.7472
  O  O480  1  0.653800  0.279200  0.059500  1.0  -0.5358
  O  O481  1  0.586600  0.152400  0.031300  1.0  -0.6046
  O  O482  1  0.362870  0.735530  0.772760  1.0  -0.699
  O  O483  1  0.341720  0.900880  0.735770  1.0  -0.6441
  O  O484  1  0.240500  0.794500  0.698830  1.0  -0.8076
  O  O485  1  0.996210  0.425190  0.427610  1.0  -0.6315
  O  O486  1  0.904770  0.324630  0.379180  1.0  -0.7693
  O  O487  1  0.539480  0.122920  0.166630  1.0  -0.7778
  O  O488  1  0.428460  0.036340  0.123360  1.0  -0.6524
  O  O489  1  0.793400  0.596000  0.389800  1.0  -0.6349
  O  O490  1  0.752900  0.546700  0.445600  1.0  -0.6283
  O  O491  1  0.184630  0.913370  0.773980  1.0  -0.7464
  O  O492  1  0.720800  0.346200  0.440500  1.0  -0.5356
  O  O493  1  0.847600  0.413400  0.468700  1.0  -0.6046
  O  O494  1  0.264470  0.637130  0.727240  1.0  -0.6961
  O  O495  1  0.900880  0.341720  0.235770  1.0  -0.6402
  O  O496  1  0.794500  0.240500  0.198830  1.0  -0.8072
  O  O497  1  0.425190  0.996210  0.927610  1.0  -0.6336
  O  O498  1  0.324630  0.904770  0.879180  1.0  -0.7729
  O  O499  1  0.122920  0.539480  0.666667  1.0  -0.7783
  O  O500  1  0.036340  0.428460  0.623360  1.0  -0.6506
  O  O501  1  0.596000  0.793400  0.889800  1.0  -0.6354
  O  O502  1  0.546700  0.752900  0.945600  1.0  -0.6288
  O  O503  1  0.913370  0.184630  0.273980  1.0  -0.7478
  O  O504  1  0.346200  0.720800  0.940500  1.0  -0.5353
  O  O505  1  0.413400  0.847600  0.968700  1.0  -0.6058
  O  O506  1  0.637130  0.264470  0.227240  1.0  -0.7005
  O  O507  1  0.658280  0.099120  0.264230  1.0  -0.6415
  O  O508  1  0.759500  0.205500  0.301170  1.0  -0.8065
  O  O509  1  0.003790  0.574810  0.572390  1.0  -0.6318
  O  O510  1  0.095230  0.675370  0.620820  1.0  -0.7689
  O  O511  1  0.460520  0.877080  0.833370  1.0  -0.7797
  O  O512  1  0.571540  0.963660  0.876640  1.0  -0.6515
  O  O513  1  0.206600  0.404000  0.610200  1.0  -0.6337
  O  O514  1  0.247100  0.453300  0.554400  1.0  -0.6286
  O  O515  1  0.815370  0.086630  0.226020  1.0  -0.7454
  O  O516  1  0.279200  0.653800  0.559500  1.0  -0.5372
  O  O517  1  0.152400  0.586600  0.531300  1.0  -0.604
  O  O518  1  0.735530  0.362870  0.272760  1.0  -0.6973
