# generated using pymatgen
data_SmH19C36(NO2)3
_symmetry_space_group_name_H-M   'P 1'
_cell_length_a   16.15960000
_cell_length_b   16.15960000
_cell_length_c   31.23270000
_cell_angle_alpha   99.95500000
_cell_angle_beta   99.95500000
_cell_angle_gamma   96.31440000
_symmetry_Int_Tables_number   1
_chemical_formula_structural   SmH19C36(NO2)3
_chemical_formula_sum   'Sm8 H152 C288 N24 O48'
_cell_volume   7829.46616185
_cell_formula_units_Z   8
loop_
 _symmetry_equiv_pos_site_id
 _symmetry_equiv_pos_as_xyz
  1  'x, y, z'
loop_
 _atom_site_type_symbol
 _atom_site_label
 _atom_site_symmetry_multiplicity
 _atom_site_fract_x
 _atom_site_fract_y
 _atom_site_fract_z
 _atom_site_occupancy
 _atom_site_charge
  Sm  Sm1  1  0.315210  0.856020  0.800730  1.0  2.3081
  Sm  Sm2  1  0.137280  0.517440  0.586870  1.0  2.2245
  Sm  Sm3  1  0.143980  0.684790  0.699270  1.0  2.3092
  Sm  Sm4  1  0.482560  0.862720  0.913130  1.0  2.2248
  Sm  Sm5  1  0.684790  0.143980  0.199270  1.0  2.3105
  Sm  Sm6  1  0.862720  0.482560  0.413130  1.0  2.2248
  Sm  Sm7  1  0.856020  0.315210  0.300730  1.0  2.3099
  Sm  Sm8  1  0.517440  0.137280  0.086870  1.0  2.2243
  H  H9  1  0.521000  0.129200  0.430600  1.0  0.1324
  H  H10  1  0.435600  0.182800  0.484200  1.0  0.1267
  H  H11  1  0.486300  0.220900  0.663500  1.0  0.1071
  H  H12  1  0.547900  0.136100  0.715700  1.0  0.1271
  H  H13  1  0.702000  0.854800  0.694200  1.0  0.1132
  H  H14  1  0.790500  0.802500  0.640900  1.0  0.1217
  H  H15  1  0.867700  0.894900  0.494600  1.0  0.1062
  H  H16  1  0.801200  0.974800  0.440800  1.0  0.1224
  H  H17  1  0.610400  0.062000  0.545800  1.0  0.2764
  H  H18  1  0.671700  0.986300  0.595100  1.0  0.2567
  H  H19  1  0.499800  0.312400  0.547300  1.0  0.1093
  H  H20  1  0.403500  0.411900  0.551300  1.0  0.1094
  H  H21  1  0.257900  0.256700  0.607300  1.0  0.1078
  H  H22  1  0.352800  0.158000  0.601300  1.0  0.0921
  H  H23  1  0.533100  0.863100  0.691300  1.0  0.1001
  H  H24  1  0.497000  0.831000  0.756000  1.0  0.1227
  H  H25  1  0.640100  0.052100  0.824800  1.0  0.0913
  H  H26  1  0.673800  0.084400  0.759400  1.0  0.1062
  H  H27  1  0.950100  0.916100  0.609800  1.0  0.1274
  H  H28  1  0.044500  0.818700  0.622100  1.0  0.0916
  H  H29  1  0.874600  0.629800  0.542400  1.0  0.1053
  H  H30  1  0.780900  0.725500  0.529000  1.0  0.1084
  H  H31  1  0.775400  0.163400  0.446900  1.0  0.1027
  H  H32  1  0.790400  0.201000  0.379900  1.0  0.1035
  H  H33  1  0.591700  0.020700  0.316200  1.0  0.1066
  H  H34  1  0.577700  0.983700  0.383400  1.0  0.0938
  H  H35  1  0.905300  0.081100  0.834600  1.0  0.1192
  H  H36  1  0.818500  0.140900  0.887000  1.0  0.1232
  H  H37  1  0.591400  0.355600  0.886100  1.0  0.1291
  H  H38  1  0.536000  0.445800  0.833100  1.0  0.1147
  H  H39  1  0.027900  0.135500  0.799600  1.0  0.0844
  H  H40  1  0.127000  0.041800  0.798300  1.0  0.1132
  H  H41  1  0.585400  0.148000  0.871500  1.0  0.1097
  H  H42  1  0.551100  0.123900  0.938200  1.0  0.1041
  H  H43  1  0.746600  0.296600  0.004500  1.0  0.0908
  H  H44  1  0.784600  0.318600  0.938800  1.0  0.0954
  H  H45  1  0.603600  0.578400  0.790800  1.0  0.1251
  H  H46  1  0.503300  0.676100  0.790400  1.0  0.099
  H  H47  1  0.870800  0.479000  0.069400  1.0  0.1295
  H  H48  1  0.817200  0.564400  0.015800  1.0  0.1253
  H  H49  1  0.779100  0.513700  0.836500  1.0  0.1074
  H  H50  1  0.863900  0.452100  0.784300  1.0  0.1279
  H  H51  1  0.145200  0.298000  0.805800  1.0  0.1107
  H  H52  1  0.197500  0.209500  0.859100  1.0  0.121
  H  H53  1  0.105100  0.132300  0.005400  1.0  0.1072
  H  H54  1  0.025200  0.198800  0.059200  1.0  0.1202
  H  H55  1  0.938000  0.389600  0.954200  1.0  0.2758
  H  H56  1  0.013700  0.328300  0.904900  1.0  0.2562
  H  H57  1  0.687600  0.500200  0.952700  1.0  0.11
  H  H58  1  0.588100  0.596500  0.948700  1.0  0.1089
  H  H59  1  0.743300  0.742100  0.892700  1.0  0.1076
  H  H60  1  0.842000  0.647200  0.898700  1.0  0.0898
  H  H61  1  0.136900  0.466900  0.808700  1.0  0.1018
  H  H62  1  0.169000  0.503000  0.744000  1.0  0.1222
  H  H63  1  0.947900  0.359900  0.675200  1.0  0.0914
  H  H64  1  0.915600  0.326200  0.740600  1.0  0.1061
  H  H65  1  0.083900  0.049900  0.890200  1.0  0.1253
  H  H66  1  0.181300  0.955500  0.877900  1.0  0.0926
  H  H67  1  0.370200  0.125400  0.957600  1.0  0.1047
  H  H68  1  0.274500  0.219100  0.971000  1.0  0.1089
  H  H69  1  0.836600  0.224600  0.053100  1.0  0.1021
  H  H70  1  0.799000  0.209600  0.120100  1.0  0.1036
  H  H71  1  0.979300  0.408300  0.183800  1.0  0.1072
  H  H72  1  0.016300  0.422300  0.116600  1.0  0.0924
  H  H73  1  0.918900  0.094700  0.665400  1.0  0.1195
  H  H74  1  0.859100  0.181500  0.613000  1.0  0.1227
  H  H75  1  0.644400  0.408600  0.613900  1.0  0.1329
  H  H76  1  0.554200  0.464000  0.666900  1.0  0.1154
  H  H77  1  0.864500  0.972100  0.700400  1.0  0.0835
  H  H78  1  0.958200  0.873000  0.701700  1.0  0.1131
  H  H79  1  0.852000  0.414600  0.628500  1.0  0.1095
  H  H80  1  0.876100  0.448900  0.561800  1.0  0.1043
  H  H81  1  0.703400  0.253400  0.495500  1.0  0.0913
  H  H82  1  0.681400  0.215400  0.561200  1.0  0.0953
  H  H83  1  0.421600  0.396400  0.709200  1.0  0.1233
  H  H84  1  0.323900  0.496700  0.709600  1.0  0.0983
  H  H85  1  0.479000  0.870800  0.569400  1.0  0.1304
  H  H86  1  0.564400  0.817200  0.515800  1.0  0.1253
  H  H87  1  0.513700  0.779100  0.336500  1.0  0.1071
  H  H88  1  0.452100  0.863900  0.284300  1.0  0.1276
  H  H89  1  0.298000  0.145200  0.305800  1.0  0.1147
  H  H90  1  0.209500  0.197500  0.359100  1.0  0.1225
  H  H91  1  0.132300  0.105100  0.505400  1.0  0.106
  H  H92  1  0.198800  0.025200  0.559200  1.0  0.1212
  H  H93  1  0.389600  0.938000  0.454200  1.0  0.2769
  H  H94  1  0.328300  0.013700  0.404900  1.0  0.2571
  H  H95  1  0.500200  0.687600  0.452700  1.0  0.1095
  H  H96  1  0.596500  0.588100  0.448700  1.0  0.1094
  H  H97  1  0.742100  0.743300  0.392700  1.0  0.108
  H  H98  1  0.647200  0.842000  0.398700  1.0  0.0918
  H  H99  1  0.466900  0.136900  0.308700  1.0  0.0998
  H  H100  1  0.503000  0.169000  0.244000  1.0  0.1227
  H  H101  1  0.359900  0.947900  0.175200  1.0  0.0916
  H  H102  1  0.326200  0.915600  0.240600  1.0  0.1062
  H  H103  1  0.049900  0.083900  0.390200  1.0  0.1277
  H  H104  1  0.955500  0.181300  0.377900  1.0  0.0913
  H  H105  1  0.125400  0.370200  0.457600  1.0  0.1053
  H  H106  1  0.219100  0.274500  0.471000  1.0  0.1088
  H  H107  1  0.224600  0.836600  0.553100  1.0  0.1027
  H  H108  1  0.209600  0.799000  0.620100  1.0  0.1035
  H  H109  1  0.408300  0.979300  0.683800  1.0  0.1067
  H  H110  1  0.422300  0.016300  0.616600  1.0  0.0915
  H  H111  1  0.094700  0.918900  0.165400  1.0  0.1195
  H  H112  1  0.181500  0.859100  0.113000  1.0  0.1242
  H  H113  1  0.408600  0.644400  0.113900  1.0  0.1295
  H  H114  1  0.464000  0.554200  0.166900  1.0  0.1143
  H  H115  1  0.972100  0.864500  0.200400  1.0  0.0847
  H  H116  1  0.873000  0.958200  0.201700  1.0  0.1137
  H  H117  1  0.414600  0.852000  0.128500  1.0  0.1089
  H  H118  1  0.448900  0.876100  0.061800  1.0  0.1041
  H  H119  1  0.253400  0.703400  0.995500  1.0  0.0909
  H  H120  1  0.215400  0.681400  0.061200  1.0  0.0953
  H  H121  1  0.396400  0.421600  0.209200  1.0  0.1248
  H  H122  1  0.496700  0.323900  0.209600  1.0  0.0991
  H  H123  1  0.129200  0.521000  0.930600  1.0  0.1301
  H  H124  1  0.182800  0.435600  0.984200  1.0  0.1248
  H  H125  1  0.220900  0.486300  0.163500  1.0  0.1063
  H  H126  1  0.136100  0.547900  0.215700  1.0  0.1275
  H  H127  1  0.854800  0.702000  0.194200  1.0  0.1107
  H  H128  1  0.802500  0.790500  0.140900  1.0  0.1209
  H  H129  1  0.894900  0.867700  0.994600  1.0  0.1072
  H  H130  1  0.974800  0.801200  0.940800  1.0  0.1225
  H  H131  1  0.062000  0.610400  0.045800  1.0  0.2766
  H  H132  1  0.986300  0.671700  0.095100  1.0  0.2572
  H  H133  1  0.312400  0.499800  0.047300  1.0  0.1099
  H  H134  1  0.411900  0.403500  0.051300  1.0  0.1089
  H  H135  1  0.256700  0.257900  0.107300  1.0  0.1076
  H  H136  1  0.158000  0.352800  0.101300  1.0  0.0907
  H  H137  1  0.863100  0.533100  0.191300  1.0  0.1017
  H  H138  1  0.831000  0.497000  0.256000  1.0  0.1224
  H  H139  1  0.052100  0.640100  0.324800  1.0  0.0912
  H  H140  1  0.084400  0.673800  0.259400  1.0  0.1063
  H  H141  1  0.916100  0.950100  0.109800  1.0  0.1258
  H  H142  1  0.818700  0.044500  0.122100  1.0  0.0927
  H  H143  1  0.629800  0.874600  0.042400  1.0  0.1051
  H  H144  1  0.725500  0.780900  0.029000  1.0  0.1095
  H  H145  1  0.163400  0.775400  0.946900  1.0  0.1022
  H  H146  1  0.201000  0.790400  0.879900  1.0  0.1035
  H  H147  1  0.020700  0.591700  0.816200  1.0  0.107
  H  H148  1  0.983700  0.577700  0.883400  1.0  0.0938
  H  H149  1  0.081100  0.905300  0.334600  1.0  0.1183
  H  H150  1  0.140900  0.818500  0.387000  1.0  0.1216
  H  H151  1  0.355600  0.591400  0.386100  1.0  0.1316
  H  H152  1  0.445800  0.536000  0.333100  1.0  0.1154
  H  H153  1  0.135500  0.027900  0.299600  1.0  0.0836
  H  H154  1  0.041800  0.127000  0.298300  1.0  0.1133
  H  H155  1  0.148000  0.585400  0.371500  1.0  0.11
  H  H156  1  0.123900  0.551100  0.438200  1.0  0.1043
  H  H157  1  0.296600  0.746600  0.504500  1.0  0.0907
  H  H158  1  0.318600  0.784600  0.438800  1.0  0.0955
  H  H159  1  0.578400  0.603600  0.290800  1.0  0.1239
  H  H160  1  0.676100  0.503300  0.290400  1.0  0.0985
  C  C161  1  0.592100  0.082500  0.483300  1.0  0.1514
  C  C162  1  0.528900  0.123900  0.460900  1.0  -0.1622
  C  C163  1  0.483100  0.153700  0.490000  1.0  -0.1905
  C  C164  1  0.518600  0.133800  0.532100  1.0  0.1681
  C  C165  1  0.498400  0.164600  0.573000  1.0  -0.0971
  C  C166  1  0.532300  0.141100  0.613100  1.0  0.1988
  C  C167  1  0.516000  0.174400  0.656500  1.0  -0.1593
  C  C168  1  0.549600  0.128400  0.685000  1.0  -0.1869
  C  C169  1  0.588800  0.065200  0.660400  1.0  0.177
  C  C170  1  0.621800  0.997600  0.675190  1.0  -0.0854
  C  C171  1  0.668700  0.942500  0.652300  1.0  0.1209
  C  C172  1  0.708400  0.875200  0.668070  1.0  -0.1867
  C  C173  1  0.756300  0.846300  0.638950  1.0  -0.1835
  C  C174  1  0.745200  0.895000  0.604110  1.0  0.1444
  C  C175  1  0.787800  0.887400  0.568500  1.0  -0.073
  C  C176  1  0.775400  0.930000  0.533100  1.0  0.1987
  C  C177  1  0.820800  0.924600  0.497200  1.0  -0.1709
  C  C178  1  0.785300  0.968700  0.468100  1.0  -0.1566
  C  C179  1  0.717600  0.005400  0.486570  1.0  0.1891
  C  C180  1  0.660300  0.051100  0.465580  1.0  -0.0955
  C  C181  1  0.435600  0.225800  0.575100  1.0  0.025
  C  C182  1  0.450700  0.301300  0.559400  1.0  -0.1571
  C  C183  1  0.393200  0.360600  0.561800  1.0  -0.0512
  C  C184  1  0.319500  0.343300  0.579900  1.0  -0.1241
  C  C185  1  0.306400  0.268600  0.594800  1.0  -0.0515
  C  C186  1  0.363900  0.209900  0.591600  1.0  -0.0943
  C  C187  1  0.255900  0.405100  0.583000  1.0  0.643
  C  C188  1  0.605500  0.977300  0.718610  1.0  0.041
  C  C189  1  0.553700  0.902100  0.718600  1.0  -0.1029
  C  C190  1  0.531800  0.882800  0.756700  1.0  -0.1114
  C  C191  1  0.562400  0.941600  0.796990  1.0  -0.1155
  C  C192  1  0.616700  0.014500  0.797400  1.0  -0.0291
  C  C193  1  0.637800  0.033400  0.758600  1.0  -0.1372
  C  C194  1  0.533000  0.926000  0.837860  1.0  0.7253
  C  C195  1  0.854200  0.828800  0.570410  1.0  0.0235
  C  C196  1  0.934000  0.857800  0.596700  1.0  -0.1566
  C  C197  1  0.990100  0.799500  0.603700  1.0  -0.0233
  C  C198  1  0.968700  0.715100  0.584540  1.0  -0.1381
  C  C199  1  0.889700  0.687900  0.556500  1.0  -0.0396
  C  C200  1  0.833800  0.744200  0.549000  1.0  -0.1103
  C  C201  1  0.026700  0.651700  0.594000  1.0  0.6947
  C  C202  1  0.672400  0.070600  0.421770  1.0  0.0331
  C  C203  1  0.737600  0.135200  0.420400  1.0  -0.1292
  C  C204  1  0.746500  0.157500  0.380600  1.0  -0.0109
  C  C205  1  0.691200  0.116200  0.341310  1.0  -0.1464
  C  C206  1  0.628600  0.050400  0.342700  1.0  -0.0428
  C  C207  1  0.620300  0.028700  0.382800  1.0  -0.1021
  C  C208  1  0.699500  0.141700  0.299200  1.0  0.7087
  C  C209  1  0.845900  0.152300  0.789520  1.0  0.1404
  C  C210  1  0.865800  0.119400  0.829400  1.0  -0.1566
  C  C211  1  0.818800  0.152400  0.858200  1.0  -0.1613
  C  C212  1  0.768800  0.208800  0.836980  1.0  0.1961
  C  C213  1  0.708600  0.252200  0.854910  1.0  -0.0401
  C  C214  1  0.660900  0.307300  0.836010  1.0  0.2085
  C  C215  1  0.604200  0.356600  0.857700  1.0  -0.1485
  C  C216  1  0.573100  0.405100  0.828100  1.0  -0.1524
  C  C217  1  0.605600  0.384200  0.788700  1.0  0.1813
  C  C218  1  0.014400  0.082800  0.779100  1.0  -0.1314
  C  C219  1  0.073100  0.026900  0.779000  1.0  -0.0743
  C  C220  1  0.689900  0.236100  0.898800  1.0  0.0477
  C  C221  1  0.619300  0.178300  0.898800  1.0  -0.1538
  C  C222  1  0.598200  0.164800  0.938500  1.0  -0.0706
  C  C223  1  0.645800  0.211000  0.978600  1.0  -0.078
  C  C224  1  0.713000  0.265600  0.977300  1.0  -0.1231
  C  C225  1  0.736200  0.279000  0.938100  1.0  -0.1739
  C  C226  1  0.634000  0.211600  0.024700  1.0  0.7159
  C  C227  1  0.547200  0.561400  0.774400  1.0  -0.136
  C  C228  1  0.486800  0.619600  0.773900  1.0  -0.0511
  C  C229  1  0.917500  0.407900  0.016700  1.0  0.1529
  C  C230  1  0.876100  0.471100  0.039100  1.0  -0.16
  C  C231  1  0.846300  0.516900  0.010000  1.0  -0.1914
  C  C232  1  0.866200  0.481400  0.967900  1.0  0.1689
  C  C233  1  0.835400  0.501600  0.927000  1.0  -0.0973
  C  C234  1  0.858900  0.467700  0.886900  1.0  0.1966
  C  C235  1  0.825600  0.484000  0.843500  1.0  -0.1579
  C  C236  1  0.871600  0.450400  0.815000  1.0  -0.1867
  C  C237  1  0.934800  0.411200  0.839600  1.0  0.1761
  C  C238  1  0.002400  0.378200  0.824810  1.0  -0.0861
  C  C239  1  0.057500  0.331300  0.847700  1.0  0.1224
  C  C240  1  0.124800  0.291600  0.831930  1.0  -0.1906
  C  C241  1  0.153700  0.243700  0.861050  1.0  -0.1822
  C  C242  1  0.105000  0.254800  0.895890  1.0  0.1467
  C  C243  1  0.112600  0.212200  0.931500  1.0  -0.0735
  C  C244  1  0.070000  0.224600  0.966900  1.0  0.1972
  C  C245  1  0.075400  0.179200  0.002800  1.0  -0.1708
  C  C246  1  0.031300  0.214700  0.031900  1.0  -0.1526
  C  C247  1  0.994600  0.282400  0.013430  1.0  0.1869
  C  C248  1  0.948900  0.339700  0.034420  1.0  -0.0961
  C  C249  1  0.774200  0.564400  0.924900  1.0  0.0261
  C  C250  1  0.698700  0.549300  0.940600  1.0  -0.1572
  C  C251  1  0.639400  0.606800  0.938200  1.0  -0.0538
  C  C252  1  0.656700  0.680500  0.920100  1.0  -0.1245
  C  C253  1  0.731400  0.693600  0.905200  1.0  -0.0545
  C  C254  1  0.790100  0.636100  0.908400  1.0  -0.0994
  C  C255  1  0.594900  0.744100  0.917000  1.0  0.6443
  C  C256  1  0.022700  0.394500  0.781390  1.0  0.0394
  C  C257  1  0.097900  0.446300  0.781400  1.0  -0.0998
  C  C258  1  0.117200  0.468200  0.743300  1.0  -0.1084
  C  C259  1  0.058400  0.437600  0.703010  1.0  -0.1153
  C  C260  1  0.985500  0.383300  0.702600  1.0  -0.0279
  C  C261  1  0.966600  0.362200  0.741400  1.0  -0.1359
  C  C262  1  0.074000  0.467000  0.662140  1.0  0.725
  C  C263  1  0.171200  0.145800  0.929590  1.0  0.0221
  C  C264  1  0.142200  0.066000  0.903300  1.0  -0.1568
  C  C265  1  0.200500  0.009900  0.896300  1.0  -0.0255
  C  C266  1  0.284900  0.031300  0.915460  1.0  -0.1385
  C  C267  1  0.312100  0.110300  0.943500  1.0  -0.036
  C  C268  1  0.255800  0.166200  0.951000  1.0  -0.1085
  C  C269  1  0.348300  0.973300  0.906000  1.0  0.6933
  C  C270  1  0.929400  0.327600  0.078230  1.0  0.0342
  C  C271  1  0.864800  0.262400  0.079600  1.0  -0.1313
  C  C272  1  0.842500  0.253500  0.119400  1.0  -0.0099
  C  C273  1  0.883800  0.308800  0.158690  1.0  -0.1458
  C  C274  1  0.949600  0.371400  0.157300  1.0  -0.0455
  C  C275  1  0.971300  0.379700  0.117200  1.0  -0.1046
  C  C276  1  0.858300  0.300500  0.200800  1.0  0.709
  C  C277  1  0.847700  0.154100  0.710480  1.0  0.1391
  C  C278  1  0.880600  0.134200  0.670600  1.0  -0.1536
  C  C279  1  0.847600  0.181200  0.641800  1.0  -0.1621
  C  C280  1  0.791200  0.231200  0.663020  1.0  0.1947
  C  C281  1  0.747800  0.291400  0.645090  1.0  -0.04
  C  C282  1  0.692700  0.339100  0.663990  1.0  0.2071
  C  C283  1  0.643400  0.395800  0.642300  1.0  -0.1435
  C  C284  1  0.594900  0.426900  0.671900  1.0  -0.1539
  C  C285  1  0.615800  0.394400  0.711300  1.0  0.182
  C  C286  1  0.917200  0.985600  0.720900  1.0  -0.1315
  C  C287  1  0.973100  0.926900  0.721000  1.0  -0.0776
  C  C288  1  0.763900  0.310100  0.601200  1.0  0.0484
  C  C289  1  0.821700  0.380700  0.601200  1.0  -0.1587
  C  C290  1  0.835200  0.401800  0.561500  1.0  -0.0721
  C  C291  1  0.789000  0.354200  0.521400  1.0  -0.0762
  C  C292  1  0.734400  0.287000  0.522700  1.0  -0.1247
  C  C293  1  0.721000  0.263800  0.561900  1.0  -0.1734
  C  C294  1  0.788400  0.366000  0.475300  1.0  0.7135
  C  C295  1  0.438600  0.452800  0.725600  1.0  -0.1363
  C  C296  1  0.380400  0.513200  0.726100  1.0  -0.0476
  C  C297  1  0.407900  0.917500  0.516700  1.0  0.1509
  C  C298  1  0.471100  0.876100  0.539100  1.0  -0.1603
  C  C299  1  0.516900  0.846300  0.510000  1.0  -0.1903
  C  C300  1  0.481400  0.866200  0.467900  1.0  0.1699
  C  C301  1  0.501600  0.835400  0.427000  1.0  -0.0971
  C  C302  1  0.467700  0.858900  0.386900  1.0  0.1973
  C  C303  1  0.484000  0.825600  0.343500  1.0  -0.1606
  C  C304  1  0.450400  0.871600  0.315000  1.0  -0.1873
  C  C305  1  0.411200  0.934800  0.339600  1.0  0.1763
  C  C306  1  0.378200  0.002400  0.324810  1.0  -0.0862
  C  C307  1  0.331300  0.057500  0.347700  1.0  0.1198
  C  C308  1  0.291600  0.124800  0.331930  1.0  -0.1871
  C  C309  1  0.243700  0.153700  0.361050  1.0  -0.1809
  C  C310  1  0.254800  0.105000  0.395890  1.0  0.1468
  C  C311  1  0.212200  0.112600  0.431500  1.0  -0.0733
  C  C312  1  0.224600  0.070000  0.466900  1.0  0.1985
  C  C313  1  0.179200  0.075400  0.502800  1.0  -0.1688
  C  C314  1  0.214700  0.031300  0.531900  1.0  -0.156
  C  C315  1  0.282400  0.994600  0.513430  1.0  0.1882
  C  C316  1  0.339700  0.948900  0.534420  1.0  -0.0954
  C  C317  1  0.564400  0.774200  0.424900  1.0  0.0252
  C  C318  1  0.549300  0.698700  0.440600  1.0  -0.1551
  C  C319  1  0.606800  0.639400  0.438200  1.0  -0.051
  C  C320  1  0.680500  0.656700  0.420100  1.0  -0.1247
  C  C321  1  0.693600  0.731400  0.405200  1.0  -0.05
  C  C322  1  0.636100  0.790100  0.408400  1.0  -0.0945
  C  C323  1  0.744100  0.594900  0.417000  1.0  0.6439
  C  C324  1  0.394500  0.022700  0.281390  1.0  0.0404
  C  C325  1  0.446300  0.097900  0.281400  1.0  -0.1019
  C  C326  1  0.468200  0.117200  0.243300  1.0  -0.1108
  C  C327  1  0.437600  0.058400  0.203010  1.0  -0.1147
  C  C328  1  0.383300  0.985500  0.202600  1.0  -0.0283
  C  C329  1  0.362200  0.966600  0.241400  1.0  -0.1379
  C  C330  1  0.467000  0.074000  0.162140  1.0  0.7252
  C  C331  1  0.145800  0.171200  0.429590  1.0  0.0217
  C  C332  1  0.066000  0.142200  0.403300  1.0  -0.1563
  C  C333  1  0.009900  0.200500  0.396300  1.0  -0.0235
  C  C334  1  0.031300  0.284900  0.415460  1.0  -0.1376
  C  C335  1  0.110300  0.312100  0.443500  1.0  -0.0381
  C  C336  1  0.166200  0.255800  0.451000  1.0  -0.111
  C  C337  1  0.973300  0.348300  0.406000  1.0  0.6958
  C  C338  1  0.327600  0.929400  0.578230  1.0  0.0325
  C  C339  1  0.262400  0.864800  0.579600  1.0  -0.1284
  C  C340  1  0.253500  0.842500  0.619400  1.0  -0.0114
  C  C341  1  0.308800  0.883800  0.658690  1.0  -0.1473
  C  C342  1  0.371400  0.949600  0.657300  1.0  -0.0428
  C  C343  1  0.379700  0.971300  0.617200  1.0  -0.1029
  C  C344  1  0.300500  0.858300  0.700800  1.0  0.7083
  C  C345  1  0.154100  0.847700  0.210480  1.0  0.1396
  C  C346  1  0.134200  0.880600  0.170600  1.0  -0.1568
  C  C347  1  0.181200  0.847600  0.141800  1.0  -0.1615
  C  C348  1  0.231200  0.791200  0.163020  1.0  0.1958
  C  C349  1  0.291400  0.747800  0.145090  1.0  -0.0396
  C  C350  1  0.339100  0.692700  0.163990  1.0  0.2096
  C  C351  1  0.395800  0.643400  0.142300  1.0  -0.1468
  C  C352  1  0.426900  0.594900  0.171900  1.0  -0.1526
  C  C353  1  0.394400  0.615800  0.211300  1.0  0.1817
  C  C354  1  0.985600  0.917200  0.220900  1.0  -0.1317
  C  C355  1  0.926900  0.973100  0.221000  1.0  -0.0751
  C  C356  1  0.310100  0.763900  0.101200  1.0  0.0484
  C  C357  1  0.380700  0.821700  0.101200  1.0  -0.1546
  C  C358  1  0.401800  0.835200  0.061500  1.0  -0.0698
  C  C359  1  0.354200  0.789000  0.021400  1.0  -0.0773
  C  C360  1  0.287000  0.734400  0.022700  1.0  -0.1251
  C  C361  1  0.263800  0.721000  0.061900  1.0  -0.174
  C  C362  1  0.366000  0.788400  0.975300  1.0  0.7151
  C  C363  1  0.452800  0.438600  0.225600  1.0  -0.136
  C  C364  1  0.513200  0.380400  0.226100  1.0  -0.0503
  C  C365  1  0.082500  0.592100  0.983300  1.0  0.1516
  C  C366  1  0.123900  0.528900  0.960900  1.0  -0.1603
  C  C367  1  0.153700  0.483100  0.990000  1.0  -0.1914
  C  C368  1  0.133800  0.518600  0.032100  1.0  0.1692
  C  C369  1  0.164600  0.498400  0.073000  1.0  -0.0965
  C  C370  1  0.141100  0.532300  0.113100  1.0  0.1986
  C  C371  1  0.174400  0.516000  0.156500  1.0  -0.1578
  C  C372  1  0.128400  0.549600  0.185000  1.0  -0.1863
  C  C373  1  0.065200  0.588800  0.160400  1.0  0.1767
  C  C374  1  0.997600  0.621800  0.175190  1.0  -0.0854
  C  C375  1  0.942500  0.668700  0.152300  1.0  0.1196
  C  C376  1  0.875200  0.708400  0.168070  1.0  -0.1921
  C  C377  1  0.846300  0.756300  0.138950  1.0  -0.1816
  C  C378  1  0.895000  0.745200  0.104110  1.0  0.1451
  C  C379  1  0.887400  0.787800  0.068500  1.0  -0.0738
  C  C380  1  0.930000  0.775400  0.033100  1.0  0.1971
  C  C381  1  0.924600  0.820800  0.997200  1.0  -0.1716
  C  C382  1  0.968700  0.785300  0.968100  1.0  -0.1527
  C  C383  1  0.005400  0.717600  0.986570  1.0  0.1874
  C  C384  1  0.051100  0.660300  0.965580  1.0  -0.0953
  C  C385  1  0.225800  0.435600  0.075100  1.0  0.0257
  C  C386  1  0.301300  0.450700  0.059400  1.0  -0.1551
  C  C387  1  0.360600  0.393200  0.061800  1.0  -0.0515
  C  C388  1  0.343300  0.319500  0.079900  1.0  -0.1262
  C  C389  1  0.268600  0.306400  0.094800  1.0  -0.0551
  C  C390  1  0.209900  0.363900  0.091600  1.0  -0.0965
  C  C391  1  0.405100  0.255900  0.083000  1.0  0.6463
  C  C392  1  0.977300  0.605500  0.218610  1.0  0.0387
  C  C393  1  0.902100  0.553700  0.218600  1.0  -0.1003
  C  C394  1  0.882800  0.531800  0.256700  1.0  -0.1083
  C  C395  1  0.941600  0.562400  0.296990  1.0  -0.1169
  C  C396  1  0.014500  0.616700  0.297400  1.0  -0.0293
  C  C397  1  0.033400  0.637800  0.258600  1.0  -0.1362
  C  C398  1  0.926000  0.533000  0.337860  1.0  0.7263
  C  C399  1  0.828800  0.854200  0.070410  1.0  0.0224
  C  C400  1  0.857800  0.934000  0.096700  1.0  -0.1582
  C  C401  1  0.799500  0.990100  0.103700  1.0  -0.0251
  C  C402  1  0.715100  0.968700  0.084540  1.0  -0.1394
  C  C403  1  0.687900  0.889700  0.056500  1.0  -0.0365
  C  C404  1  0.744200  0.833800  0.049000  1.0  -0.1086
  C  C405  1  0.651700  0.026700  0.094000  1.0  0.6936
  C  C406  1  0.070600  0.672400  0.921770  1.0  0.0343
  C  C407  1  0.135200  0.737600  0.920400  1.0  -0.1321
  C  C408  1  0.157500  0.746500  0.880600  1.0  -0.0092
  C  C409  1  0.116200  0.691200  0.841310  1.0  -0.1457
  C  C410  1  0.050400  0.628600  0.842700  1.0  -0.0459
  C  C411  1  0.028700  0.620300  0.882800  1.0  -0.1024
  C  C412  1  0.141700  0.699500  0.799200  1.0  0.7093
  C  C413  1  0.152300  0.845900  0.289520  1.0  0.1384
  C  C414  1  0.119400  0.865800  0.329400  1.0  -0.1547
  C  C415  1  0.152400  0.818800  0.358200  1.0  -0.1622
  C  C416  1  0.208800  0.768800  0.336980  1.0  0.1954
  C  C417  1  0.252200  0.708600  0.354910  1.0  -0.0403
  C  C418  1  0.307300  0.660900  0.336010  1.0  0.2058
  C  C419  1  0.356600  0.604200  0.357700  1.0  -0.1473
  C  C420  1  0.405100  0.573100  0.328100  1.0  -0.1546
  C  C421  1  0.384200  0.605600  0.288700  1.0  0.1823
  C  C422  1  0.082800  0.014400  0.279100  1.0  -0.1328
  C  C423  1  0.026900  0.073100  0.279000  1.0  -0.0777
  C  C424  1  0.236100  0.689900  0.398800  1.0  0.0474
  C  C425  1  0.178300  0.619300  0.398800  1.0  -0.1581
  C  C426  1  0.164800  0.598200  0.438500  1.0  -0.0726
  C  C427  1  0.211000  0.645800  0.478600  1.0  -0.0777
  C  C428  1  0.265600  0.713000  0.477300  1.0  -0.1223
  C  C429  1  0.279000  0.736200  0.438100  1.0  -0.1728
  C  C430  1  0.211600  0.634000  0.524700  1.0  0.7161
  C  C431  1  0.561400  0.547200  0.274400  1.0  -0.1351
  C  C432  1  0.619600  0.486800  0.273900  1.0  -0.0476
  C  C433  1  0.584100  0.415900  0.750000  1.0  -0.0562
  C  C434  1  0.873800  0.126200  0.750000  1.0  -0.07
  C  C435  1  0.935700  0.064300  0.750000  1.0  0.0835
  C  C436  1  0.052500  0.947500  0.750000  1.0  -0.1294
  C  C437  1  0.114800  0.885200  0.750000  1.0  0.7536
  C  C438  1  0.521300  0.478700  0.750000  1.0  0.0539
  C  C439  1  0.404700  0.595300  0.750000  1.0  -0.0511
  C  C440  1  0.343200  0.656800  0.750000  1.0  0.7316
  C  C441  1  0.415900  0.584100  0.250000  1.0  -0.0556
  C  C442  1  0.126200  0.873800  0.250000  1.0  -0.0709
  C  C443  1  0.064300  0.935700  0.250000  1.0  0.0827
  C  C444  1  0.947500  0.052500  0.250000  1.0  -0.1294
  C  C445  1  0.885200  0.114800  0.250000  1.0  0.7548
  C  C446  1  0.478700  0.521300  0.250000  1.0  0.0546
  C  C447  1  0.595300  0.404700  0.250000  1.0  -0.0503
  C  C448  1  0.656800  0.343200  0.250000  1.0  0.7311
  N  N449  1  0.581760  0.086040  0.525960  1.0  -0.2832
  N  N450  1  0.582130  0.079270  0.617700  1.0  -0.4268
  N  N451  1  0.689980  0.951420  0.612060  1.0  -0.2653
  N  N452  1  0.715150  0.981650  0.526490  1.0  -0.4278
  N  N453  1  0.786920  0.208280  0.795670  1.0  -0.3299
  N  N454  1  0.658930  0.325270  0.794350  1.0  -0.2992
  N  N455  1  0.913960  0.418240  0.974040  1.0  -0.2849
  N  N456  1  0.920730  0.417870  0.882300  1.0  -0.4272
  N  N457  1  0.048580  0.310020  0.887940  1.0  -0.2652
  N  N458  1  0.018350  0.284850  0.973510  1.0  -0.4299
  N  N459  1  0.791720  0.213080  0.704330  1.0  -0.3313
  N  N460  1  0.674730  0.341070  0.705650  1.0  -0.3011
  N  N461  1  0.418240  0.913960  0.474040  1.0  -0.2842
  N  N462  1  0.417870  0.920730  0.382300  1.0  -0.4281
  N  N463  1  0.310020  0.048580  0.387940  1.0  -0.2644
  N  N464  1  0.284850  0.018350  0.473510  1.0  -0.429
  N  N465  1  0.213080  0.791720  0.204330  1.0  -0.3312
  N  N466  1  0.341070  0.674730  0.205650  1.0  -0.3004
  N  N467  1  0.086040  0.581760  0.025960  1.0  -0.2831
  N  N468  1  0.079270  0.582130  0.117700  1.0  -0.4276
  N  N469  1  0.951420  0.689980  0.112060  1.0  -0.2652
  N  N470  1  0.981650  0.715150  0.026490  1.0  -0.4284
  N  N471  1  0.208280  0.786920  0.295670  1.0  -0.331
  N  N472  1  0.325270  0.658930  0.294350  1.0  -0.2996
  O  O473  1  0.268100  0.470900  0.563800  1.0  -0.6204
  O  O474  1  0.200300  0.393900  0.605100  1.0  -0.6385
  O  O475  1  0.463870  0.873650  0.833510  1.0  -0.7664
  O  O476  1  0.572490  0.962510  0.875320  1.0  -0.6621
  O  O477  1  0.004660  0.577340  0.573850  1.0  -0.6864
  O  O478  1  0.096240  0.675960  0.621490  1.0  -0.7663
  O  O479  1  0.751310  0.205690  0.298730  1.0  -0.7984
  O  O480  1  0.651630  0.098970  0.264130  1.0  -0.6262
  O  O481  1  0.186820  0.908980  0.774660  1.0  -0.7476
  O  O482  1  0.668200  0.264400  0.057700  1.0  -0.4541
  O  O483  1  0.591300  0.150700  0.032000  1.0  -0.5989
  O  O484  1  0.369090  0.731810  0.771600  1.0  -0.7214
  O  O485  1  0.529100  0.731900  0.936200  1.0  -0.6171
  O  O486  1  0.606100  0.799700  0.894900  1.0  -0.6369
  O  O487  1  0.126350  0.536130  0.666490  1.0  -0.765
  O  O488  1  0.037490  0.427510  0.624680  1.0  -0.6622
  O  O489  1  0.422660  0.995340  0.926150  1.0  -0.688
  O  O490  1  0.324040  0.903760  0.878510  1.0  -0.7701
  O  O491  1  0.794310  0.248690  0.201270  1.0  -0.7993
  O  O492  1  0.901030  0.348370  0.235870  1.0  -0.6234
  O  O493  1  0.091020  0.813180  0.725340  1.0  -0.7497
  O  O494  1  0.735600  0.331800  0.442300  1.0  -0.4503
  O  O495  1  0.849300  0.408700  0.468000  1.0  -0.5988
  O  O496  1  0.268190  0.630910  0.728400  1.0  -0.7183
  O  O497  1  0.731900  0.529100  0.436200  1.0  -0.6174
  O  O498  1  0.799700  0.606100  0.394900  1.0  -0.6393
  O  O499  1  0.536130  0.126350  0.166490  1.0  -0.766
  O  O500  1  0.427510  0.037490  0.124680  1.0  -0.6622
  O  O501  1  0.995340  0.422660  0.426150  1.0  -0.6862
  O  O502  1  0.903760  0.324040  0.378510  1.0  -0.7657
  O  O503  1  0.248690  0.794310  0.701270  1.0  -0.7981
  O  O504  1  0.348370  0.901030  0.735870  1.0  -0.6282
  O  O505  1  0.813180  0.091020  0.225340  1.0  -0.7476
  O  O506  1  0.331800  0.735600  0.942300  1.0  -0.451
  O  O507  1  0.408700  0.849300  0.968000  1.0  -0.5992
  O  O508  1  0.630910  0.268190  0.228400  1.0  -0.7232
  O  O509  1  0.470900  0.268100  0.063800  1.0  -0.6164
  O  O510  1  0.393900  0.200300  0.105100  1.0  -0.6381
  O  O511  1  0.873650  0.463870  0.333510  1.0  -0.7665
  O  O512  1  0.962510  0.572490  0.375320  1.0  -0.6627
  O  O513  1  0.577340  0.004660  0.073850  1.0  -0.6886
  O  O514  1  0.675960  0.096240  0.121490  1.0  -0.7709
  O  O515  1  0.205690  0.751310  0.798730  1.0  -0.7978
  O  O516  1  0.098970  0.651630  0.764130  1.0  -0.6243
  O  O517  1  0.908980  0.186820  0.274660  1.0  -0.7499
  O  O518  1  0.264400  0.668200  0.557700  1.0  -0.4525
  O  O519  1  0.150700  0.591300  0.532000  1.0  -0.5987
  O  O520  1  0.731810  0.369090  0.271600  1.0  -0.7198
