# generated using pymatgen
data_ErH24C48(NO2)4
_symmetry_space_group_name_H-M   'P 1'
_cell_length_a   9.42170000
_cell_length_b   22.14110000
_cell_length_c   26.34000000
_cell_angle_alpha   90.00000000
_cell_angle_beta   90.00000000
_cell_angle_gamma   90.00000000
_symmetry_Int_Tables_number   1
_chemical_formula_structural   ErH24C48(NO2)4
_chemical_formula_sum   'Er4 H96 C192 N16 O32'
_cell_volume   5494.70316126
_cell_formula_units_Z   4
loop_
 _symmetry_equiv_pos_site_id
 _symmetry_equiv_pos_as_xyz
  1  'x, y, z'
loop_
 _atom_site_type_symbol
 _atom_site_label
 _atom_site_symmetry_multiplicity
 _atom_site_fract_x
 _atom_site_fract_y
 _atom_site_fract_z
 _atom_site_occupancy
 _atom_site_charge
  Er  Er1  1  0.750000  0.000000  0.486190  1.0  1.5494
  Er  Er2  1  0.750000  0.500000  0.013810  1.0  1.5491
  Er  Er3  1  0.250000  0.000000  0.513810  1.0  1.5491
  Er  Er4  1  0.250000  0.500000  0.986190  1.0  1.5494
  H  H5  1  0.868700  0.890500  0.111200  1.0  0.1359
  H  H6  1  0.911200  0.813100  0.044600  1.0  0.138
  H  H7  1  0.860700  0.806500  0.843200  1.0  0.1238
  H  H8  1  0.815200  0.882000  0.776900  1.0  0.1242
  H  H9  1  0.585600  0.941400  0.142100  1.0  0.1164
  H  H10  1  0.584500  0.943900  0.229900  1.0  0.0971
  H  H11  1  0.699200  0.754800  0.969500  1.0  0.1
  H  H12  1  0.762200  0.655300  0.982200  1.0  0.1167
  H  H13  1  0.153300  0.692800  0.930800  1.0  0.1107
  H  H14  1  0.087800  0.792900  0.916300  1.0  0.1185
  H  H15  1  0.909200  0.059900  0.746800  1.0  0.1162
  H  H16  1  0.907700  0.060500  0.658700  1.0  0.1154
  H  H17  1  0.631300  0.109500  0.111200  1.0  0.1332
  H  H18  1  0.588800  0.186900  0.044600  1.0  0.1373
  H  H19  1  0.639300  0.193500  0.843200  1.0  0.1268
  H  H20  1  0.684800  0.118000  0.776900  1.0  0.1249
  H  H21  1  0.914400  0.058600  0.142100  1.0  0.1169
  H  H22  1  0.915500  0.056100  0.229900  1.0  0.0977
  H  H23  1  0.800800  0.245200  0.969500  1.0  0.1013
  H  H24  1  0.737800  0.344700  0.982200  1.0  0.1169
  H  H25  1  0.346700  0.307200  0.930800  1.0  0.1099
  H  H26  1  0.412200  0.207100  0.916300  1.0  0.1189
  H  H27  1  0.590800  0.940100  0.746800  1.0  0.114
  H  H28  1  0.592300  0.939500  0.658700  1.0  0.114
  H  H29  1  0.631300  0.390500  0.388800  1.0  0.138
  H  H30  1  0.588800  0.313100  0.455400  1.0  0.1374
  H  H31  1  0.639300  0.306500  0.656800  1.0  0.1267
  H  H32  1  0.684800  0.382000  0.723100  1.0  0.1242
  H  H33  1  0.914400  0.441400  0.357900  1.0  0.1168
  H  H34  1  0.915500  0.443900  0.270100  1.0  0.0976
  H  H35  1  0.800800  0.254800  0.530500  1.0  0.1009
  H  H36  1  0.737800  0.155300  0.517800  1.0  0.1175
  H  H37  1  0.346700  0.192800  0.569200  1.0  0.1112
  H  H38  1  0.412200  0.292900  0.583700  1.0  0.1193
  H  H39  1  0.590800  0.559900  0.753200  1.0  0.1164
  H  H40  1  0.592300  0.560500  0.841300  1.0  0.1143
  H  H41  1  0.868700  0.609500  0.388800  1.0  0.1377
  H  H42  1  0.911200  0.686900  0.455400  1.0  0.1375
  H  H43  1  0.860700  0.693500  0.656800  1.0  0.1252
  H  H44  1  0.815200  0.618000  0.723100  1.0  0.124
  H  H45  1  0.585600  0.558600  0.357900  1.0  0.1168
  H  H46  1  0.584500  0.556100  0.270100  1.0  0.0977
  H  H47  1  0.699200  0.745200  0.530500  1.0  0.1007
  H  H48  1  0.762200  0.844700  0.517800  1.0  0.1166
  H  H49  1  0.153300  0.807200  0.569200  1.0  0.1107
  H  H50  1  0.087800  0.707100  0.583700  1.0  0.1195
  H  H51  1  0.909200  0.440100  0.753200  1.0  0.116
  H  H52  1  0.907700  0.439500  0.841300  1.0  0.1139
  H  H53  1  0.131300  0.109500  0.888800  1.0  0.1377
  H  H54  1  0.088800  0.186900  0.955400  1.0  0.1373
  H  H55  1  0.139300  0.193500  0.156800  1.0  0.1273
  H  H56  1  0.184800  0.118000  0.223100  1.0  0.124
  H  H57  1  0.414400  0.058600  0.857900  1.0  0.1168
  H  H58  1  0.415500  0.056100  0.770100  1.0  0.0976
  H  H59  1  0.300800  0.245200  0.030500  1.0  0.1013
  H  H60  1  0.237800  0.344700  0.017800  1.0  0.1171
  H  H61  1  0.846700  0.307200  0.069200  1.0  0.1109
  H  H62  1  0.912200  0.207100  0.083700  1.0  0.1195
  H  H63  1  0.090800  0.940100  0.253200  1.0  0.1154
  H  H64  1  0.092300  0.939500  0.341300  1.0  0.1136
  H  H65  1  0.368700  0.890500  0.888800  1.0  0.1379
  H  H66  1  0.411200  0.813100  0.955400  1.0  0.1378
  H  H67  1  0.360700  0.806500  0.156800  1.0  0.1268
  H  H68  1  0.315200  0.882000  0.223100  1.0  0.1243
  H  H69  1  0.085600  0.941400  0.857900  1.0  0.1167
  H  H70  1  0.084500  0.943900  0.770100  1.0  0.0971
  H  H71  1  0.199200  0.754800  0.030500  1.0  0.1
  H  H72  1  0.262200  0.655300  0.017800  1.0  0.1169
  H  H73  1  0.653300  0.692800  0.069200  1.0  0.1109
  H  H74  1  0.587800  0.792900  0.083700  1.0  0.1188
  H  H75  1  0.409200  0.059900  0.253200  1.0  0.1167
  H  H76  1  0.407700  0.060500  0.341300  1.0  0.1142
  H  H77  1  0.368700  0.609500  0.611200  1.0  0.1355
  H  H78  1  0.411200  0.686900  0.544600  1.0  0.1376
  H  H79  1  0.360700  0.693500  0.343200  1.0  0.1269
  H  H80  1  0.315200  0.618000  0.276900  1.0  0.1246
  H  H81  1  0.085600  0.558600  0.642100  1.0  0.117
  H  H82  1  0.084500  0.556100  0.729900  1.0  0.0977
  H  H83  1  0.199200  0.745200  0.469500  1.0  0.1011
  H  H84  1  0.262200  0.844700  0.482200  1.0  0.1163
  H  H85  1  0.653300  0.807200  0.430800  1.0  0.1107
  H  H86  1  0.587800  0.707100  0.416300  1.0  0.1191
  H  H87  1  0.409200  0.440100  0.246800  1.0  0.1145
  H  H88  1  0.407700  0.439500  0.158700  1.0  0.1145
  H  H89  1  0.131300  0.390500  0.611200  1.0  0.1337
  H  H90  1  0.088800  0.313100  0.544600  1.0  0.1378
  H  H91  1  0.139300  0.306500  0.343200  1.0  0.126
  H  H92  1  0.184800  0.382000  0.276900  1.0  0.1245
  H  H93  1  0.414400  0.441400  0.642100  1.0  0.1165
  H  H94  1  0.415500  0.443900  0.729900  1.0  0.0977
  H  H95  1  0.300800  0.254800  0.469500  1.0  0.1007
  H  H96  1  0.237800  0.155300  0.482200  1.0  0.1173
  H  H97  1  0.846700  0.192800  0.430800  1.0  0.11
  H  H98  1  0.912200  0.292900  0.416300  1.0  0.1189
  H  H99  1  0.090800  0.559900  0.246800  1.0  0.1161
  H  H100  1  0.092300  0.560500  0.158700  1.0  0.1153
  C  C101  1  0.794900  0.947100  0.051280  1.0  0.1967
  C  C102  1  0.851800  0.895000  0.075860  1.0  -0.1606
  C  C103  1  0.877200  0.853100  0.039480  1.0  -0.1563
  C  C104  1  0.842800  0.880700  0.991670  1.0  0.2105
  C  C105  1  0.850600  0.850660  0.944480  1.0  0.0236
  C  C106  1  0.823700  0.877700  0.897220  1.0  0.2135
  C  C107  1  0.837500  0.847800  0.848550  1.0  -0.1654
  C  C108  1  0.811800  0.888800  0.812510  1.0  -0.1645
  C  C109  1  0.777700  0.945400  0.837310  1.0  0.204
  C  C110  1  0.652700  0.965700  0.159600  1.0  -0.1267
  C  C111  1  0.653300  0.966800  0.211900  1.0  -0.0512
  C  C112  1  0.888500  0.786400  0.945900  1.0  0.1029
  C  C113  1  0.794100  0.742900  0.962500  1.0  -0.0991
  C  C114  1  0.830200  0.683200  0.969600  1.0  -0.1386
  C  C115  1  0.964900  0.664500  0.958360  1.0  -0.1293
  C  C116  1  0.059900  0.705600  0.939100  1.0  -0.0077
  C  C117  1  0.022100  0.765800  0.931400  1.0  -0.1685
  C  C118  1  0.011100  0.601800  0.970500  1.0  0.7269
  C  C119  1  0.843300  0.035200  0.729070  1.0  -0.1208
  C  C120  1  0.842800  0.035500  0.676550  1.0  -0.0725
  C  C121  1  0.705100  0.052900  0.051280  1.0  0.1957
  C  C122  1  0.648200  0.105000  0.075860  1.0  -0.1627
  C  C123  1  0.622800  0.146900  0.039480  1.0  -0.1565
  C  C124  1  0.657200  0.119300  0.991670  1.0  0.2099
  C  C125  1  0.649400  0.149340  0.944480  1.0  0.0224
  C  C126  1  0.676300  0.122300  0.897220  1.0  0.2129
  C  C127  1  0.662500  0.152200  0.848550  1.0  -0.1661
  C  C128  1  0.688200  0.111200  0.812510  1.0  -0.1655
  C  C129  1  0.722300  0.054600  0.837310  1.0  0.2042
  C  C130  1  0.847300  0.034300  0.159600  1.0  -0.1233
  C  C131  1  0.846700  0.033200  0.211900  1.0  -0.0497
  C  C132  1  0.611500  0.213600  0.945900  1.0  0.1035
  C  C133  1  0.705900  0.257100  0.962500  1.0  -0.0978
  C  C134  1  0.669800  0.316800  0.969600  1.0  -0.1416
  C  C135  1  0.535100  0.335500  0.958360  1.0  -0.1291
  C  C136  1  0.440100  0.294400  0.939100  1.0  -0.0069
  C  C137  1  0.477900  0.234200  0.931400  1.0  -0.1666
  C  C138  1  0.488900  0.398200  0.970500  1.0  0.7276
  C  C139  1  0.656700  0.964800  0.729070  1.0  -0.1245
  C  C140  1  0.657200  0.964500  0.676550  1.0  -0.0713
  C  C141  1  0.705100  0.447100  0.448720  1.0  0.1955
  C  C142  1  0.648200  0.395000  0.424140  1.0  -0.1606
  C  C143  1  0.622800  0.353100  0.460520  1.0  -0.1586
  C  C144  1  0.657200  0.380700  0.508330  1.0  0.2099
  C  C145  1  0.649400  0.350660  0.555520  1.0  0.0229
  C  C146  1  0.676300  0.377700  0.602780  1.0  0.2139
  C  C147  1  0.662500  0.347800  0.651450  1.0  -0.1669
  C  C148  1  0.688200  0.388800  0.687490  1.0  -0.1634
  C  C149  1  0.722300  0.445400  0.662690  1.0  0.2047
  C  C150  1  0.847300  0.465700  0.340400  1.0  -0.1233
  C  C151  1  0.846700  0.466800  0.288100  1.0  -0.0495
  C  C152  1  0.611500  0.286400  0.554100  1.0  0.1035
  C  C153  1  0.705900  0.242900  0.537500  1.0  -0.098
  C  C154  1  0.669800  0.183200  0.530400  1.0  -0.1427
  C  C155  1  0.535100  0.164500  0.541640  1.0  -0.1302
  C  C156  1  0.440100  0.205600  0.560900  1.0  -0.0081
  C  C157  1  0.477900  0.265800  0.568600  1.0  -0.1669
  C  C158  1  0.488900  0.101800  0.529500  1.0  0.7278
  C  C159  1  0.656700  0.535200  0.770930  1.0  -0.1241
  C  C160  1  0.657200  0.535500  0.823450  1.0  -0.0715
  C  C161  1  0.794900  0.552900  0.448720  1.0  0.1954
  C  C162  1  0.851800  0.605000  0.424140  1.0  -0.1607
  C  C163  1  0.877200  0.646900  0.460520  1.0  -0.1565
  C  C164  1  0.842800  0.619300  0.508330  1.0  0.2107
  C  C165  1  0.850600  0.649340  0.555520  1.0  0.023
  C  C166  1  0.823700  0.622300  0.602780  1.0  0.2133
  C  C167  1  0.837500  0.652200  0.651450  1.0  -0.1645
  C  C168  1  0.811800  0.611200  0.687490  1.0  -0.1669
  C  C169  1  0.777700  0.554600  0.662690  1.0  0.2019
  C  C170  1  0.652700  0.534300  0.340400  1.0  -0.1234
  C  C171  1  0.653300  0.533200  0.288100  1.0  -0.0522
  C  C172  1  0.888500  0.713600  0.554100  1.0  0.1028
  C  C173  1  0.794100  0.757100  0.537500  1.0  -0.0987
  C  C174  1  0.830200  0.816800  0.530400  1.0  -0.1415
  C  C175  1  0.964900  0.835500  0.541640  1.0  -0.1296
  C  C176  1  0.059900  0.794400  0.560900  1.0  -0.0081
  C  C177  1  0.022100  0.734200  0.568600  1.0  -0.1666
  C  C178  1  0.011100  0.898200  0.529500  1.0  0.7271
  C  C179  1  0.843300  0.464800  0.770930  1.0  -0.1216
  C  C180  1  0.842800  0.464500  0.823450  1.0  -0.0689
  C  C181  1  0.205100  0.052900  0.948720  1.0  0.1953
  C  C182  1  0.148200  0.105000  0.924140  1.0  -0.1607
  C  C183  1  0.122800  0.146900  0.960520  1.0  -0.1563
  C  C184  1  0.157200  0.119300  0.008330  1.0  0.2105
  C  C185  1  0.149400  0.149340  0.055520  1.0  0.0225
  C  C186  1  0.176300  0.122300  0.102780  1.0  0.2134
  C  C187  1  0.162500  0.152200  0.151450  1.0  -0.1665
  C  C188  1  0.188200  0.111200  0.187490  1.0  -0.166
  C  C189  1  0.222300  0.054600  0.162690  1.0  0.2038
  C  C190  1  0.347300  0.034300  0.840400  1.0  -0.1237
  C  C191  1  0.346700  0.033200  0.788100  1.0  -0.0496
  C  C192  1  0.111500  0.213600  0.054100  1.0  0.1035
  C  C193  1  0.205900  0.257100  0.037500  1.0  -0.0992
  C  C194  1  0.169800  0.316800  0.030400  1.0  -0.1414
  C  C195  1  0.035100  0.335500  0.041640  1.0  -0.1298
  C  C196  1  0.940100  0.294400  0.060900  1.0  -0.0086
  C  C197  1  0.977900  0.234200  0.068600  1.0  -0.1678
  C  C198  1  0.988900  0.398200  0.029500  1.0  0.7301
  C  C199  1  0.156700  0.964800  0.270930  1.0  -0.1236
  C  C200  1  0.157200  0.964500  0.323450  1.0  -0.0676
  C  C201  1  0.294900  0.947100  0.948720  1.0  0.1955
  C  C202  1  0.351800  0.895000  0.924140  1.0  -0.1603
  C  C203  1  0.377200  0.853100  0.960520  1.0  -0.1567
  C  C204  1  0.342800  0.880700  0.008330  1.0  0.2102
  C  C205  1  0.350600  0.850660  0.055520  1.0  0.0239
  C  C206  1  0.323700  0.877700  0.102780  1.0  0.2137
  C  C207  1  0.337500  0.847800  0.151450  1.0  -0.1648
  C  C208  1  0.311800  0.888800  0.187490  1.0  -0.1641
  C  C209  1  0.277700  0.945400  0.162690  1.0  0.2025
  C  C210  1  0.152700  0.965700  0.840400  1.0  -0.1228
  C  C211  1  0.153300  0.966800  0.788100  1.0  -0.0522
  C  C212  1  0.388500  0.786400  0.054100  1.0  0.1028
  C  C213  1  0.294100  0.742900  0.037500  1.0  -0.0989
  C  C214  1  0.330200  0.683200  0.030400  1.0  -0.1429
  C  C215  1  0.464900  0.664500  0.041640  1.0  -0.1299
  C  C216  1  0.559900  0.705600  0.060900  1.0  -0.0079
  C  C217  1  0.522100  0.765800  0.068600  1.0  -0.1669
  C  C218  1  0.511100  0.601800  0.029500  1.0  0.7258
  C  C219  1  0.343300  0.035200  0.270930  1.0  -0.1214
  C  C220  1  0.342800  0.035500  0.323450  1.0  -0.0713
  C  C221  1  0.294900  0.552900  0.551280  1.0  0.1956
  C  C222  1  0.351800  0.605000  0.575860  1.0  -0.1616
  C  C223  1  0.377200  0.646900  0.539480  1.0  -0.1562
  C  C224  1  0.342800  0.619300  0.491670  1.0  0.2101
  C  C225  1  0.350600  0.649340  0.444480  1.0  0.0228
  C  C226  1  0.323700  0.622300  0.397220  1.0  0.2128
  C  C227  1  0.337500  0.652200  0.348550  1.0  -0.1648
  C  C228  1  0.311800  0.611200  0.312510  1.0  -0.166
  C  C229  1  0.277700  0.554600  0.337310  1.0  0.2037
  C  C230  1  0.152700  0.534300  0.659600  1.0  -0.1269
  C  C231  1  0.153300  0.533200  0.711900  1.0  -0.0527
  C  C232  1  0.388500  0.713600  0.445900  1.0  0.1027
  C  C233  1  0.294100  0.757100  0.462500  1.0  -0.0988
  C  C234  1  0.330200  0.816800  0.469600  1.0  -0.1419
  C  C235  1  0.464900  0.835500  0.458360  1.0  -0.1288
  C  C236  1  0.559900  0.794400  0.439100  1.0  -0.0075
  C  C237  1  0.522100  0.734200  0.431400  1.0  -0.1671
  C  C238  1  0.511100  0.898200  0.470500  1.0  0.7277
  C  C239  1  0.343300  0.464800  0.229070  1.0  -0.1222
  C  C240  1  0.342800  0.464500  0.176550  1.0  -0.0722
  C  C241  1  0.205100  0.447100  0.551280  1.0  0.1967
  C  C242  1  0.148200  0.395000  0.575860  1.0  -0.1606
  C  C243  1  0.122800  0.353100  0.539480  1.0  -0.1566
  C  C244  1  0.157200  0.380700  0.491670  1.0  0.21
  C  C245  1  0.149400  0.350660  0.444480  1.0  0.0227
  C  C246  1  0.176300  0.377700  0.397220  1.0  0.2137
  C  C247  1  0.162500  0.347800  0.348550  1.0  -0.1677
  C  C248  1  0.188200  0.388800  0.312510  1.0  -0.164
  C  C249  1  0.222300  0.445400  0.337310  1.0  0.2049
  C  C250  1  0.347300  0.465700  0.659600  1.0  -0.1228
  C  C251  1  0.346700  0.466800  0.711900  1.0  -0.0484
  C  C252  1  0.111500  0.286400  0.445900  1.0  0.1036
  C  C253  1  0.205900  0.242900  0.462500  1.0  -0.1014
  C  C254  1  0.169800  0.183200  0.469600  1.0  -0.146
  C  C255  1  0.035100  0.164500  0.458360  1.0  -0.1297
  C  C256  1  0.940100  0.205600  0.439100  1.0  -0.0069
  C  C257  1  0.977900  0.265800  0.431400  1.0  -0.1663
  C  C258  1  0.988900  0.101800  0.470500  1.0  0.7265
  C  C259  1  0.156700  0.535200  0.229070  1.0  -0.121
  C  C260  1  0.157200  0.535500  0.176550  1.0  -0.0727
  C  C261  1  0.750000  0.000000  0.076200  1.0  -0.0021
  C  C262  1  0.750000  0.000000  0.812700  1.0  -0.0735
  C  C263  1  0.750000  0.000000  0.132500  1.0  0.1051
  C  C264  1  0.750000  0.000000  0.238600  1.0  -0.1009
  C  C265  1  0.750000  0.000000  0.297400  1.0  0.7251
  C  C266  1  0.750000  0.000000  0.755900  1.0  0.0986
  C  C267  1  0.750000  0.000000  0.650000  1.0  -0.1192
  C  C268  1  0.750000  0.000000  0.592910  1.0  0.6821
  C  C269  1  0.750000  0.500000  0.423800  1.0  -0.0024
  C  C270  1  0.750000  0.500000  0.687300  1.0  -0.0729
  C  C271  1  0.750000  0.500000  0.367500  1.0  0.1045
  C  C272  1  0.750000  0.500000  0.261400  1.0  -0.1013
  C  C273  1  0.750000  0.500000  0.202600  1.0  0.7283
  C  C274  1  0.750000  0.500000  0.744100  1.0  0.0998
  C  C275  1  0.750000  0.500000  0.850000  1.0  -0.1188
  C  C276  1  0.750000  0.500000  0.907090  1.0  0.6837
  C  C277  1  0.250000  0.000000  0.923800  1.0  -0.0024
  C  C278  1  0.250000  0.000000  0.187300  1.0  -0.0729
  C  C279  1  0.250000  0.000000  0.867500  1.0  0.1045
  C  C280  1  0.250000  0.000000  0.761400  1.0  -0.1013
  C  C281  1  0.250000  0.000000  0.702600  1.0  0.7283
  C  C282  1  0.250000  0.000000  0.244100  1.0  0.0998
  C  C283  1  0.250000  0.000000  0.350000  1.0  -0.1188
  C  C284  1  0.250000  0.000000  0.407090  1.0  0.682
  C  C285  1  0.250000  0.500000  0.576200  1.0  -0.0021
  C  C286  1  0.250000  0.500000  0.312700  1.0  -0.0735
  C  C287  1  0.250000  0.500000  0.632500  1.0  0.1051
  C  C288  1  0.250000  0.500000  0.738600  1.0  -0.1009
  C  C289  1  0.250000  0.500000  0.797400  1.0  0.7251
  C  C290  1  0.250000  0.500000  0.255900  1.0  0.0986
  C  C291  1  0.250000  0.500000  0.150000  1.0  -0.1192
  C  C292  1  0.250000  0.500000  0.092910  1.0  0.6818
  N  N293  1  0.791300  0.937750  0.999820  1.0  -0.2457
  N  N294  1  0.786900  0.936710  0.888810  1.0  -0.2428
  N  N295  1  0.708700  0.062250  0.999820  1.0  -0.2437
  N  N296  1  0.713100  0.063290  0.888810  1.0  -0.2424
  N  N297  1  0.708700  0.437750  0.500180  1.0  -0.2445
  N  N298  1  0.713100  0.436710  0.611190  1.0  -0.2374
  N  N299  1  0.791300  0.562250  0.500180  1.0  -0.2497
  N  N300  1  0.786900  0.563290  0.611190  1.0  -0.2387
  N  N301  1  0.208700  0.062250  0.000180  1.0  -0.2479
  N  N302  1  0.213100  0.063290  0.111190  1.0  -0.2384
  N  N303  1  0.291300  0.937750  0.000180  1.0  -0.2466
  N  N304  1  0.286900  0.936710  0.111190  1.0  -0.2374
  N  N305  1  0.291300  0.562250  0.499820  1.0  -0.2465
  N  N306  1  0.286900  0.563290  0.388810  1.0  -0.243
  N  N307  1  0.208700  0.437750  0.499820  1.0  -0.2415
  N  N308  1  0.213100  0.436710  0.388810  1.0  -0.2425
  O  O309  1  0.842500  0.029600  0.319210  1.0  -0.4664
  O  O310  1  0.921800  0.566070  0.989150  1.0  -0.7225
  O  O311  1  0.137100  0.587740  0.962350  1.0  -0.6852
  O  O312  1  0.833900  0.034850  0.569160  1.0  -0.6072
  O  O313  1  0.657500  0.970400  0.319210  1.0  -0.4639
  O  O314  1  0.578200  0.433930  0.989150  1.0  -0.7232
  O  O315  1  0.362900  0.412260  0.962350  1.0  -0.6843
  O  O316  1  0.666100  0.965150  0.569160  1.0  -0.6047
  O  O317  1  0.657500  0.529600  0.180790  1.0  -0.464
  O  O318  1  0.578200  0.066070  0.510850  1.0  -0.7239
  O  O319  1  0.362900  0.087740  0.537650  1.0  -0.6827
  O  O320  1  0.666100  0.534850  0.930840  1.0  -0.6048
  O  O321  1  0.842500  0.470400  0.180790  1.0  -0.4649
  O  O322  1  0.921800  0.933930  0.510850  1.0  -0.7233
  O  O323  1  0.137100  0.912260  0.537650  1.0  -0.6829
  O  O324  1  0.833900  0.465150  0.930840  1.0  -0.6073
  O  O325  1  0.157500  0.970400  0.680790  1.0  -0.465
  O  O326  1  0.078200  0.433930  0.010850  1.0  -0.7236
  O  O327  1  0.862900  0.412260  0.037650  1.0  -0.6832
  O  O328  1  0.166100  0.965150  0.430840  1.0  -0.6045
  O  O329  1  0.342500  0.029600  0.680790  1.0  -0.4649
  O  O330  1  0.421800  0.566070  0.010850  1.0  -0.7247
  O  O331  1  0.637100  0.587740  0.037650  1.0  -0.6828
  O  O332  1  0.333900  0.034850  0.430840  1.0  -0.6073
  O  O333  1  0.342500  0.470400  0.819210  1.0  -0.4652
  O  O334  1  0.421800  0.933930  0.489150  1.0  -0.7234
  O  O335  1  0.637100  0.912260  0.462350  1.0  -0.6851
  O  O336  1  0.333900  0.465150  0.069160  1.0  -0.6057
  O  O337  1  0.157500  0.529600  0.819210  1.0  -0.464
  O  O338  1  0.078200  0.066070  0.489150  1.0  -0.7226
  O  O339  1  0.862900  0.087740  0.462350  1.0  -0.6843
  O  O340  1  0.166100  0.534850  0.069160  1.0  -0.6051
