# generated using pymatgen
data_ErH29C48(NO2)4
_symmetry_space_group_name_H-M   'P 1'
_cell_length_a   8.51750000
_cell_length_b   28.17450000
_cell_length_c   21.42170000
_cell_angle_alpha   90.00000000
_cell_angle_beta   97.10260000
_cell_angle_gamma   90.00000000
_symmetry_Int_Tables_number   1
_chemical_formula_structural   ErH29C48(NO2)4
_chemical_formula_sum   'Er4 H116 C192 N16 O32'
_cell_volume   5101.25233746
_cell_formula_units_Z   4
loop_
 _symmetry_equiv_pos_site_id
 _symmetry_equiv_pos_as_xyz
  1  'x, y, z'
loop_
 _atom_site_type_symbol
 _atom_site_label
 _atom_site_symmetry_multiplicity
 _atom_site_fract_x
 _atom_site_fract_y
 _atom_site_fract_z
 _atom_site_occupancy
 _atom_site_charge
  Er  Er1  1  0.294970  0.058310  0.006440  1.0  1.5773
  Er  Er2  1  0.705030  0.558310  0.493560  1.0  1.5762
  Er  Er3  1  0.705030  0.941690  0.993560  1.0  1.5762
  Er  Er4  1  0.294970  0.441690  0.506440  1.0  1.5775
  H  H5  1  0.588200  0.883000  0.562600  1.0  0.1347
  H  H6  1  0.507100  0.937600  0.643400  1.0  0.1247
  H  H7  1  0.645300  0.121300  0.702200  1.0  0.1276
  H  H8  1  0.690700  0.190300  0.636700  1.0  0.1319
  H  H9  1  0.752300  0.212900  0.390700  1.0  0.1341
  H  H10  1  0.835700  0.159300  0.309500  1.0  0.1257
  H  H11  1  0.017200  0.975000  0.312400  1.0  0.1244
  H  H12  1  0.962500  0.905800  0.377300  1.0  0.1337
  H  H13  1  0.736500  0.014900  0.525600  1.0  0.1768
  H  H14  1  0.699200  0.073000  0.529600  1.0  0.2
  H  H15  1  0.783500  0.080400  0.461700  1.0  0.2053
  H  H16  1  0.774400  0.021700  0.449500  1.0  0.1931
  H  H17  1  0.395200  0.076300  0.696100  1.0  0.0949
  H  H18  1  0.347300  0.071400  0.800400  1.0  0.1191
  H  H19  1  0.653300  0.961700  0.827000  1.0  0.094
  H  H20  1  0.716500  0.971100  0.725400  1.0  0.094
  H  H21  1  0.480700  0.222400  0.455400  1.0  0.1307
  H  H22  1  0.437800  0.303900  0.468000  1.0  0.1033
  H  H23  1  0.850400  0.316500  0.579900  1.0  0.1061
  H  H24  1  0.891800  0.235000  0.573500  1.0  0.1018
  H  H25  1  0.793800  0.019000  0.240800  1.0  0.0898
  H  H26  1  0.881400  0.023900  0.142500  1.0  0.1179
  H  H27  1  0.180100  0.130300  0.206300  1.0  0.1112
  H  H28  1  0.099500  0.122700  0.306700  1.0  0.1105
  H  H29  1  0.893300  0.863000  0.560100  1.0  0.1082
  H  H30  1  0.910700  0.780700  0.553500  1.0  0.1102
  H  H31  1  0.696400  0.784600  0.374100  1.0  0.1197
  H  H32  1  0.678100  0.867000  0.380200  1.0  0.0975
  H  H33  1  0.787400  0.673700  0.406200  1.0  0.3984
  H  H34  1  0.411800  0.383000  0.937400  1.0  0.1351
  H  H35  1  0.492900  0.437600  0.856600  1.0  0.1252
  H  H36  1  0.354700  0.621300  0.797800  1.0  0.1283
  H  H37  1  0.309300  0.690300  0.863300  1.0  0.1328
  H  H38  1  0.247700  0.712900  0.109300  1.0  0.1335
  H  H39  1  0.164300  0.659300  0.190500  1.0  0.1259
  H  H40  1  0.982800  0.475000  0.187600  1.0  0.1243
  H  H41  1  0.037500  0.405800  0.122700  1.0  0.1338
  H  H42  1  0.263500  0.514900  0.974400  1.0  0.1778
  H  H43  1  0.300800  0.573000  0.970400  1.0  0.2017
  H  H44  1  0.216500  0.580400  0.038300  1.0  0.2025
  H  H45  1  0.225600  0.521700  0.050500  1.0  0.1924
  H  H46  1  0.604800  0.576300  0.803900  1.0  0.0945
  H  H47  1  0.652700  0.571400  0.699600  1.0  0.1182
  H  H48  1  0.346700  0.461700  0.673000  1.0  0.0935
  H  H49  1  0.283500  0.471100  0.774600  1.0  0.0936
  H  H50  1  0.519300  0.722400  0.044600  1.0  0.13
  H  H51  1  0.562200  0.803900  0.032000  1.0  0.1029
  H  H52  1  0.149600  0.816500  0.920100  1.0  0.1063
  H  H53  1  0.108200  0.735000  0.926500  1.0  0.1019
  H  H54  1  0.206200  0.519000  0.259200  1.0  0.0913
  H  H55  1  0.118600  0.523900  0.357500  1.0  0.1177
  H  H56  1  0.819900  0.630300  0.293700  1.0  0.1115
  H  H57  1  0.900500  0.622700  0.193300  1.0  0.1105
  H  H58  1  0.106700  0.363000  0.939900  1.0  0.1081
  H  H59  1  0.089300  0.280700  0.946500  1.0  0.1096
  H  H60  1  0.303600  0.284600  0.125900  1.0  0.1193
  H  H61  1  0.321900  0.367000  0.119800  1.0  0.0976
  H  H62  1  0.212600  0.173700  0.093800  1.0  0.398
  H  H63  1  0.411800  0.117000  0.437400  1.0  0.136
  H  H64  1  0.492900  0.062400  0.356600  1.0  0.1254
  H  H65  1  0.354700  0.878700  0.297800  1.0  0.1282
  H  H66  1  0.309300  0.809700  0.363300  1.0  0.1318
  H  H67  1  0.247700  0.787100  0.609300  1.0  0.1337
  H  H68  1  0.164300  0.840700  0.690500  1.0  0.1265
  H  H69  1  0.982800  0.025000  0.687600  1.0  0.124
  H  H70  1  0.037500  0.094200  0.622700  1.0  0.1328
  H  H71  1  0.263500  0.985100  0.474400  1.0  0.1787
  H  H72  1  0.300800  0.927000  0.470400  1.0  0.2014
  H  H73  1  0.216500  0.919600  0.538300  1.0  0.203
  H  H74  1  0.225600  0.978300  0.550500  1.0  0.1928
  H  H75  1  0.604800  0.923700  0.303900  1.0  0.0946
  H  H76  1  0.652700  0.928600  0.199600  1.0  0.1179
  H  H77  1  0.346700  0.038300  0.173000  1.0  0.0937
  H  H78  1  0.283500  0.028900  0.274600  1.0  0.0939
  H  H79  1  0.519300  0.777600  0.544600  1.0  0.1301
  H  H80  1  0.562200  0.696100  0.532000  1.0  0.1038
  H  H81  1  0.149600  0.683500  0.420100  1.0  0.1061
  H  H82  1  0.108200  0.765000  0.426500  1.0  0.1017
  H  H83  1  0.206200  0.981000  0.759200  1.0  0.0912
  H  H84  1  0.118600  0.976100  0.857500  1.0  0.1177
  H  H85  1  0.819900  0.869700  0.793700  1.0  0.1101
  H  H86  1  0.900500  0.877300  0.693300  1.0  0.1098
  H  H87  1  0.106700  0.137000  0.439900  1.0  0.1079
  H  H88  1  0.089300  0.219300  0.446500  1.0  0.1101
  H  H89  1  0.303600  0.215400  0.625900  1.0  0.1192
  H  H90  1  0.321900  0.133000  0.619800  1.0  0.0975
  H  H91  1  0.212600  0.326300  0.593800  1.0  0.3962
  H  H92  1  0.588200  0.617000  0.062600  1.0  0.1348
  H  H93  1  0.507100  0.562400  0.143400  1.0  0.1245
  H  H94  1  0.645300  0.378700  0.202200  1.0  0.1275
  H  H95  1  0.690700  0.309700  0.136700  1.0  0.1321
  H  H96  1  0.752300  0.287100  0.890700  1.0  0.1338
  H  H97  1  0.835700  0.340700  0.809500  1.0  0.1257
  H  H98  1  0.017200  0.525000  0.812400  1.0  0.1245
  H  H99  1  0.962500  0.594200  0.877300  1.0  0.1334
  H  H100  1  0.736500  0.485100  0.025600  1.0  0.1778
  H  H101  1  0.699200  0.427000  0.029600  1.0  0.1993
  H  H102  1  0.783500  0.419600  0.961700  1.0  0.2058
  H  H103  1  0.774400  0.478300  0.949500  1.0  0.193
  H  H104  1  0.395200  0.423700  0.196100  1.0  0.0955
  H  H105  1  0.347300  0.428600  0.300400  1.0  0.1184
  H  H106  1  0.653300  0.538300  0.327000  1.0  0.094
  H  H107  1  0.716500  0.528900  0.225400  1.0  0.094
  H  H108  1  0.480700  0.277600  0.955400  1.0  0.1304
  H  H109  1  0.437800  0.196100  0.968000  1.0  0.1042
  H  H110  1  0.850400  0.183500  0.079900  1.0  0.1064
  H  H111  1  0.891800  0.265000  0.073500  1.0  0.1017
  H  H112  1  0.793800  0.481000  0.740800  1.0  0.0901
  H  H113  1  0.881400  0.476100  0.642500  1.0  0.1181
  H  H114  1  0.180100  0.369700  0.706300  1.0  0.1113
  H  H115  1  0.099500  0.377300  0.806700  1.0  0.1104
  H  H116  1  0.893300  0.637000  0.060100  1.0  0.1074
  H  H117  1  0.910700  0.719300  0.053500  1.0  0.1101
  H  H118  1  0.696400  0.715400  0.874100  1.0  0.1198
  H  H119  1  0.678100  0.633000  0.880200  1.0  0.0979
  H  H120  1  0.787400  0.826300  0.906200  1.0  0.3965
  C  C121  1  0.696400  0.944650  0.525100  1.0  0.1679
  C  C122  1  0.609700  0.916100  0.566100  1.0  -0.2084
  C  C123  1  0.566300  0.945860  0.610200  1.0  -0.2025
  C  C124  1  0.625200  0.992280  0.598000  1.0  0.1515
  C  C125  1  0.614600  0.032800  0.636600  1.0  -0.0904
  C  C126  1  0.656200  0.078730  0.620100  1.0  0.1708
  C  C127  1  0.659200  0.120530  0.658900  1.0  -0.1863
  C  C128  1  0.685000  0.158100  0.623500  1.0  -0.1911
  C  C129  1  0.702800  0.140160  0.560700  1.0  0.1493
  C  C130  1  0.719100  0.168600  0.507800  1.0  -0.0951
  C  C131  1  0.752100  0.150690  0.449300  1.0  0.1397
  C  C132  1  0.769900  0.179650  0.394700  1.0  -0.1772
  C  C133  1  0.816400  0.150380  0.350600  1.0  -0.189
  C  C134  1  0.831500  0.103280  0.376800  1.0  0.1507
  C  C135  1  0.885900  0.063000  0.347700  1.0  -0.0963
  C  C136  1  0.889400  0.016690  0.373000  1.0  0.1781
  C  C137  1  0.959800  0.975400  0.347700  1.0  -0.1885
  C  C138  1  0.929800  0.937600  0.383000  1.0  -0.1779
  C  C139  1  0.838900  0.954580  0.430700  1.0  0.1467
  C  C140  1  0.772300  0.926710  0.475200  1.0  -0.0777
  C  C141  1  0.566600  0.025600  0.700500  1.0  0.061
  C  C142  1  0.452700  0.054150  0.723400  1.0  -0.0908
  C  C143  1  0.422100  0.050780  0.785100  1.0  -0.067
  C  C144  1  0.500800  0.017140  0.824600  1.0  -0.1429
  C  C145  1  0.605300  0.986400  0.801200  1.0  -0.0555
  C  C146  1  0.640300  0.991500  0.740300  1.0  -0.1071
  C  C147  1  0.476100  0.015100  0.892800  1.0  0.7497
  C  C148  1  0.695900  0.220370  0.513800  1.0  0.0461
  C  C149  1  0.555100  0.241100  0.481300  1.0  -0.1039
  C  C150  1  0.530800  0.289500  0.488800  1.0  -0.0173
  C  C151  1  0.639000  0.317100  0.526000  1.0  -0.1133
  C  C152  1  0.774100  0.297200  0.555800  1.0  -0.0427
  C  C153  1  0.800100  0.248800  0.550800  1.0  -0.1128
  C  C154  1  0.608100  0.370000  0.530100  1.0  0.6765
  C  C155  1  0.937800  0.069250  0.284200  1.0  0.0239
  C  C156  1  0.874500  0.041100  0.234400  1.0  -0.081
  C  C157  1  0.925200  0.044150  0.175500  1.0  -0.0772
  C  C158  1  0.041400  0.077290  0.165100  1.0  -0.0729
  C  C159  1  0.103800  0.107080  0.213700  1.0  -0.1198
  C  C160  1  0.054400  0.102890  0.273400  1.0  -0.0843
  C  C161  1  0.112400  0.076650  0.104400  1.0  0.6715
  C  C162  1  0.784500  0.873900  0.470300  1.0  0.0628
  C  C163  1  0.853400  0.847300  0.522200  1.0  -0.1091
  C  C164  1  0.863400  0.798300  0.518300  1.0  -0.0633
  C  C165  1  0.804100  0.774600  0.462900  1.0  -0.0961
  C  C166  1  0.736300  0.800400  0.411900  1.0  -0.0567
  C  C167  1  0.725900  0.849600  0.415600  1.0  -0.1231
  C  C168  1  0.821200  0.721900  0.461200  1.0  0.6352
  C  C169  1  0.303600  0.444650  0.974900  1.0  0.1674
  C  C170  1  0.390300  0.416100  0.933900  1.0  -0.209
  C  C171  1  0.433700  0.445860  0.889800  1.0  -0.2026
  C  C172  1  0.374800  0.492280  0.902000  1.0  0.1508
  C  C173  1  0.385400  0.532800  0.863400  1.0  -0.0903
  C  C174  1  0.343800  0.578730  0.879900  1.0  0.1731
  C  C175  1  0.340800  0.620530  0.841100  1.0  -0.1855
  C  C176  1  0.315000  0.658100  0.876500  1.0  -0.1868
  C  C177  1  0.297200  0.640160  0.939300  1.0  0.1491
  C  C178  1  0.280900  0.668600  0.992200  1.0  -0.0949
  C  C179  1  0.247900  0.650690  0.050700  1.0  0.1397
  C  C180  1  0.230100  0.679650  0.105300  1.0  -0.1788
  C  C181  1  0.183600  0.650380  0.149400  1.0  -0.1909
  C  C182  1  0.168500  0.603280  0.123200  1.0  0.15
  C  C183  1  0.114100  0.563000  0.152300  1.0  -0.0976
  C  C184  1  0.110600  0.516690  0.127000  1.0  0.1784
  C  C185  1  0.040200  0.475400  0.152300  1.0  -0.187
  C  C186  1  0.070200  0.437600  0.117000  1.0  -0.1764
  C  C187  1  0.161100  0.454580  0.069300  1.0  0.1475
  C  C188  1  0.227700  0.426710  0.024800  1.0  -0.0778
  C  C189  1  0.433400  0.525600  0.799500  1.0  0.0606
  C  C190  1  0.547300  0.554150  0.776600  1.0  -0.0903
  C  C191  1  0.577900  0.550780  0.714900  1.0  -0.0636
  C  C192  1  0.499200  0.517140  0.675400  1.0  -0.1425
  C  C193  1  0.394700  0.486400  0.698800  1.0  -0.0547
  C  C194  1  0.359700  0.491500  0.759700  1.0  -0.1069
  C  C195  1  0.523900  0.515100  0.607200  1.0  0.7526
  C  C196  1  0.304100  0.720370  0.986200  1.0  0.0459
  C  C197  1  0.444900  0.741100  0.018700  1.0  -0.1042
  C  C198  1  0.469200  0.789500  0.011200  1.0  -0.0163
  C  C199  1  0.361000  0.817100  0.974000  1.0  -0.1136
  C  C200  1  0.225900  0.797200  0.944200  1.0  -0.0421
  C  C201  1  0.199900  0.748800  0.949200  1.0  -0.1128
  C  C202  1  0.391900  0.870000  0.969900  1.0  0.6766
  C  C203  1  0.062200  0.569250  0.215800  1.0  0.0251
  C  C204  1  0.125500  0.541100  0.265600  1.0  -0.0818
  C  C205  1  0.074800  0.544150  0.324500  1.0  -0.0767
  C  C206  1  0.958600  0.577290  0.334900  1.0  -0.0739
  C  C207  1  0.896200  0.607080  0.286300  1.0  -0.1212
  C  C208  1  0.945600  0.602890  0.226600  1.0  -0.0837
  C  C209  1  0.887600  0.576650  0.395600  1.0  0.6719
  C  C210  1  0.215500  0.373900  0.029700  1.0  0.0622
  C  C211  1  0.146600  0.347300  0.977800  1.0  -0.1076
  C  C212  1  0.136600  0.298300  0.981700  1.0  -0.0637
  C  C213  1  0.195900  0.274600  0.037100  1.0  -0.0958
  C  C214  1  0.263700  0.300400  0.088100  1.0  -0.0605
  C  C215  1  0.274100  0.349600  0.084400  1.0  -0.1212
  C  C216  1  0.178800  0.221900  0.038800  1.0  0.6356
  C  C217  1  0.303600  0.055350  0.474900  1.0  0.1679
  C  C218  1  0.390300  0.083900  0.433900  1.0  -0.2071
  C  C219  1  0.433700  0.054140  0.389800  1.0  -0.2007
  C  C220  1  0.374800  0.007720  0.402000  1.0  0.1502
  C  C221  1  0.385400  0.967200  0.363400  1.0  -0.0901
  C  C222  1  0.343800  0.921270  0.379900  1.0  0.1733
  C  C223  1  0.340800  0.879470  0.341100  1.0  -0.184
  C  C224  1  0.315000  0.841900  0.376500  1.0  -0.1888
  C  C225  1  0.297200  0.859840  0.439300  1.0  0.1495
  C  C226  1  0.280900  0.831400  0.492200  1.0  -0.0953
  C  C227  1  0.247900  0.849310  0.550700  1.0  0.1409
  C  C228  1  0.230100  0.820350  0.605300  1.0  -0.1803
  C  C229  1  0.183600  0.849620  0.649400  1.0  -0.1895
  C  C230  1  0.168500  0.896720  0.623200  1.0  0.1515
  C  C231  1  0.114100  0.937000  0.652300  1.0  -0.0979
  C  C232  1  0.110600  0.983310  0.627000  1.0  0.1785
  C  C233  1  0.040200  0.024600  0.652300  1.0  -0.187
  C  C234  1  0.070200  0.062400  0.617000  1.0  -0.1771
  C  C235  1  0.161100  0.045420  0.569300  1.0  0.1473
  C  C236  1  0.227700  0.073290  0.524800  1.0  -0.078
  C  C237  1  0.433400  0.974400  0.299500  1.0  0.0612
  C  C238  1  0.547300  0.945850  0.276600  1.0  -0.093
  C  C239  1  0.577900  0.949220  0.214900  1.0  -0.0663
  C  C240  1  0.499200  0.982860  0.175400  1.0  -0.143
  C  C241  1  0.394700  0.013600  0.198800  1.0  -0.0551
  C  C242  1  0.359700  0.008500  0.259700  1.0  -0.1069
  C  C243  1  0.523900  0.984900  0.107200  1.0  0.7523
  C  C244  1  0.304100  0.779630  0.486200  1.0  0.0453
  C  C245  1  0.444900  0.758900  0.518700  1.0  -0.1038
  C  C246  1  0.469200  0.710500  0.511200  1.0  -0.0168
  C  C247  1  0.361000  0.682900  0.474000  1.0  -0.1127
  C  C248  1  0.225900  0.702800  0.444200  1.0  -0.043
  C  C249  1  0.199900  0.751200  0.449200  1.0  -0.1125
  C  C250  1  0.391900  0.630000  0.469900  1.0  0.6782
  C  C251  1  0.062200  0.930750  0.715800  1.0  0.0248
  C  C252  1  0.125500  0.958900  0.765600  1.0  -0.0818
  C  C253  1  0.074800  0.955850  0.824500  1.0  -0.0766
  C  C254  1  0.958600  0.922710  0.834900  1.0  -0.0734
  C  C255  1  0.896200  0.892920  0.786300  1.0  -0.1184
  C  C256  1  0.945600  0.897110  0.726600  1.0  -0.0828
  C  C257  1  0.887600  0.923350  0.895600  1.0  0.6725
  C  C258  1  0.215500  0.126100  0.529700  1.0  0.0618
  C  C259  1  0.146600  0.152700  0.477800  1.0  -0.1078
  C  C260  1  0.136600  0.201700  0.481700  1.0  -0.0639
  C  C261  1  0.195900  0.225400  0.537100  1.0  -0.0947
  C  C262  1  0.263700  0.199600  0.588100  1.0  -0.0597
  C  C263  1  0.274100  0.150400  0.584400  1.0  -0.1207
  C  C264  1  0.178800  0.278100  0.538800  1.0  0.6355
  C  C265  1  0.696400  0.555350  0.025100  1.0  0.1684
  C  C266  1  0.609700  0.583900  0.066100  1.0  -0.2077
  C  C267  1  0.566300  0.554140  0.110200  1.0  -0.2016
  C  C268  1  0.625200  0.507720  0.098000  1.0  0.1508
  C  C269  1  0.614600  0.467200  0.136600  1.0  -0.0902
  C  C270  1  0.656200  0.421270  0.120100  1.0  0.1714
  C  C271  1  0.659200  0.379470  0.158900  1.0  -0.1837
  C  C272  1  0.685000  0.341900  0.123500  1.0  -0.1924
  C  C273  1  0.702800  0.359840  0.060700  1.0  0.1504
  C  C274  1  0.719100  0.331400  0.007800  1.0  -0.0954
  C  C275  1  0.752100  0.349310  0.949300  1.0  0.1402
  C  C276  1  0.769900  0.320350  0.894700  1.0  -0.1798
  C  C277  1  0.816400  0.349620  0.850600  1.0  -0.1893
  C  C278  1  0.831500  0.396720  0.876800  1.0  0.1517
  C  C279  1  0.885900  0.437000  0.847700  1.0  -0.0964
  C  C280  1  0.889400  0.483310  0.873000  1.0  0.1776
  C  C281  1  0.959800  0.524600  0.847700  1.0  -0.1878
  C  C282  1  0.929800  0.562400  0.883000  1.0  -0.1767
  C  C283  1  0.838900  0.545420  0.930700  1.0  0.1468
  C  C284  1  0.772300  0.573290  0.975200  1.0  -0.0779
  C  C285  1  0.566600  0.474400  0.200500  1.0  0.0614
  C  C286  1  0.452700  0.445850  0.223400  1.0  -0.0908
  C  C287  1  0.422100  0.449220  0.285100  1.0  -0.064
  C  C288  1  0.500800  0.482860  0.324600  1.0  -0.1438
  C  C289  1  0.605300  0.513600  0.301200  1.0  -0.0555
  C  C290  1  0.640300  0.508500  0.240300  1.0  -0.107
  C  C291  1  0.476100  0.484900  0.392800  1.0  0.7495
  C  C292  1  0.695900  0.279630  0.013800  1.0  0.0457
  C  C293  1  0.555100  0.258900  0.981300  1.0  -0.103
  C  C294  1  0.530800  0.210500  0.988800  1.0  -0.0174
  C  C295  1  0.639000  0.182900  0.026000  1.0  -0.1123
  C  C296  1  0.774100  0.202800  0.055800  1.0  -0.0435
  C  C297  1  0.800100  0.251200  0.050800  1.0  -0.1131
  C  C298  1  0.608100  0.130000  0.030100  1.0  0.6782
  C  C299  1  0.937800  0.430750  0.784200  1.0  0.0237
  C  C300  1  0.874500  0.458900  0.734400  1.0  -0.0813
  C  C301  1  0.925200  0.455850  0.675500  1.0  -0.0779
  C  C302  1  0.041400  0.422710  0.665100  1.0  -0.0738
  C  C303  1  0.103800  0.392920  0.713700  1.0  -0.1198
  C  C304  1  0.054400  0.397110  0.773400  1.0  -0.085
  C  C305  1  0.112400  0.423350  0.604400  1.0  0.6711
  C  C306  1  0.784500  0.626100  0.970300  1.0  0.0622
  C  C307  1  0.853400  0.652700  0.022200  1.0  -0.1097
  C  C308  1  0.863400  0.701700  0.018300  1.0  -0.0632
  C  C309  1  0.804100  0.725400  0.962900  1.0  -0.0946
  C  C310  1  0.736300  0.699600  0.911900  1.0  -0.0562
  C  C311  1  0.725900  0.650400  0.915600  1.0  -0.1221
  C  C312  1  0.821200  0.778100  0.961200  1.0  0.6349
  N  N313  1  0.697100  0.990620  0.544320  1.0  -0.2827
  N  N314  1  0.689000  0.092210  0.561320  1.0  -0.2734
  N  N315  1  0.787800  0.104810  0.436320  1.0  -0.2695
  N  N316  1  0.821200  0.002970  0.424610  1.0  -0.3005
  N  N317  1  0.302900  0.490620  0.955680  1.0  -0.2827
  N  N318  1  0.311000  0.592210  0.938680  1.0  -0.273
  N  N319  1  0.212200  0.604810  0.063680  1.0  -0.2693
  N  N320  1  0.178800  0.502970  0.075390  1.0  -0.2992
  N  N321  1  0.302900  0.009380  0.455680  1.0  -0.2825
  N  N322  1  0.311000  0.907790  0.438680  1.0  -0.2736
  N  N323  1  0.212200  0.895190  0.563680  1.0  -0.27
  N  N324  1  0.178800  0.997030  0.575390  1.0  -0.2988
  N  N325  1  0.697100  0.509380  0.044320  1.0  -0.2828
  N  N326  1  0.689000  0.407790  0.061320  1.0  -0.2738
  N  N327  1  0.787800  0.395190  0.936320  1.0  -0.2698
  N  N328  1  0.821200  0.497030  0.924610  1.0  -0.3003
  O  O329  1  0.396000  0.046890  0.914060  1.0  -0.661
  O  O330  1  0.538000  0.980770  0.925670  1.0  -0.7304
  O  O331  1  0.722700  0.396030  0.549800  1.0  -0.5395
  O  O332  1  0.469000  0.384040  0.512100  1.0  -0.6862
  O  O333  1  0.084900  0.041230  0.067640  1.0  -0.6696
  O  O334  1  0.212500  0.107330  0.092290  1.0  -0.6634
  O  O335  1  0.870300  0.698410  0.506840  1.0  -0.4852
  O  O336  1  0.772800  0.703200  0.404940  1.0  -0.5061
  O  O337  1  0.604000  0.546890  0.585940  1.0  -0.6627
  O  O338  1  0.462000  0.480770  0.574330  1.0  -0.7319
  O  O339  1  0.277300  0.896030  0.950200  1.0  -0.5385
  O  O340  1  0.531000  0.884040  0.987900  1.0  -0.687
  O  O341  1  0.915100  0.541230  0.432360  1.0  -0.67
  O  O342  1  0.787500  0.607330  0.407710  1.0  -0.6625
  O  O343  1  0.129700  0.198410  0.993160  1.0  -0.4839
  O  O344  1  0.227200  0.203200  0.095060  1.0  -0.5053
  O  O345  1  0.604000  0.953110  0.085940  1.0  -0.6633
  O  O346  1  0.462000  0.019230  0.074330  1.0  -0.7319
  O  O347  1  0.277300  0.603970  0.450200  1.0  -0.5382
  O  O348  1  0.531000  0.615960  0.487900  1.0  -0.6861
  O  O349  1  0.915100  0.958770  0.932360  1.0  -0.6709
  O  O350  1  0.787500  0.892670  0.907710  1.0  -0.6629
  O  O351  1  0.129700  0.301590  0.493160  1.0  -0.484
  O  O352  1  0.227200  0.296800  0.595060  1.0  -0.5052
  O  O353  1  0.396000  0.453110  0.414060  1.0  -0.6623
  O  O354  1  0.538000  0.519230  0.425670  1.0  -0.7309
  O  O355  1  0.722700  0.103970  0.049800  1.0  -0.5397
  O  O356  1  0.469000  0.115960  0.012100  1.0  -0.6861
  O  O357  1  0.084900  0.458770  0.567640  1.0  -0.671
  O  O358  1  0.212500  0.392670  0.592290  1.0  -0.6633
  O  O359  1  0.870300  0.801590  0.006840  1.0  -0.4835
  O  O360  1  0.772800  0.796800  0.904940  1.0  -0.507
