# generated using pymatgen
data_FeH2(CO2)2
_symmetry_space_group_name_H-M   'P 1'
_cell_length_a   9.91460000
_cell_length_b   11.40810000
_cell_length_c   14.84400000
_cell_angle_alpha   91.16590000
_cell_angle_beta   90.00000000
_cell_angle_gamma   90.00000000
_symmetry_Int_Tables_number   1
_chemical_formula_structural   FeH2(CO2)2
_chemical_formula_sum   'Fe12 H24 C24 O48'
_cell_volume   1678.60897753
_cell_formula_units_Z   12
loop_
 _symmetry_equiv_pos_site_id
 _symmetry_equiv_pos_as_xyz
  1  'x, y, z'
loop_
 _atom_site_type_symbol
 _atom_site_label
 _atom_site_symmetry_multiplicity
 _atom_site_fract_x
 _atom_site_fract_y
 _atom_site_fract_z
 _atom_site_occupancy
 _atom_site_charge
  Fe  Fe1  1  0.921620  0.756050  0.133810  1.0  1.0391
  Fe  Fe2  1  0.887960  0.260860  0.690970  1.0  1.0485
  Fe  Fe3  1  0.421620  0.743950  0.366190  1.0  1.0391
  Fe  Fe4  1  0.387960  0.239140  0.809030  1.0  1.0486
  Fe  Fe5  1  0.078380  0.243950  0.866190  1.0  1.0388
  Fe  Fe6  1  0.112040  0.739140  0.309030  1.0  1.0485
  Fe  Fe7  1  0.578380  0.256050  0.633810  1.0  1.0388
  Fe  Fe8  1  0.612040  0.760860  0.190970  1.0  1.0485
  Fe  Fe9  1  0.000000  0.500000  0.000000  1.0  1.0719
  Fe  Fe10  1  0.500000  0.000000  0.500000  1.0  1.0719
  Fe  Fe11  1  0.000000  0.000000  0.000000  1.0  1.096
  Fe  Fe12  1  0.500000  0.500000  0.500000  1.0  1.096
  H  H13  1  0.752800  0.846300  0.370000  1.0  0.0149
  H  H14  1  0.054000  0.471100  0.261100  1.0  0.0284
  H  H15  1  0.615000  0.550800  0.053800  1.0  0.0129
  H  H16  1  0.200000  0.976800  0.228800  1.0  0.003
  H  H17  1  0.154400  0.693000  0.929900  1.0  0.0156
  H  H18  1  0.706900  0.001700  0.022700  1.0  0.0065
  H  H19  1  0.252800  0.653700  0.130000  1.0  0.0144
  H  H20  1  0.554000  0.028900  0.238900  1.0  0.0287
  H  H21  1  0.115000  0.949200  0.446200  1.0  0.0132
  H  H22  1  0.700000  0.523200  0.271200  1.0  0.0035
  H  H23  1  0.654400  0.807000  0.570100  1.0  0.0163
  H  H24  1  0.206900  0.498300  0.477300  1.0  0.0064
  H  H25  1  0.247200  0.153700  0.630000  1.0  0.0146
  H  H26  1  0.946000  0.528900  0.738900  1.0  0.0285
  H  H27  1  0.385000  0.449200  0.946200  1.0  0.0132
  H  H28  1  0.800000  0.023200  0.771200  1.0  0.0032
  H  H29  1  0.845600  0.307000  0.070100  1.0  0.0159
  H  H30  1  0.293100  0.998300  0.977300  1.0  0.0065
  H  H31  1  0.747200  0.346300  0.870000  1.0  0.0151
  H  H32  1  0.446000  0.971100  0.761100  1.0  0.028
  H  H33  1  0.885000  0.050800  0.553800  1.0  0.0131
  H  H34  1  0.300000  0.476800  0.728800  1.0  0.0029
  H  H35  1  0.345600  0.193000  0.429900  1.0  0.0152
  H  H36  1  0.793100  0.501700  0.522700  1.0  0.0066
  C  C37  1  0.828500  0.819710  0.333030  1.0  0.6549
  C  C38  1  0.028100  0.516100  0.207300  1.0  0.6396
  C  C39  1  0.710000  0.570500  0.055100  1.0  0.6622
  C  C40  1  0.136000  0.952730  0.183430  1.0  0.6631
  C  C41  1  0.097720  0.741970  0.966270  1.0  0.6774
  C  C42  1  0.722900  0.938520  0.061120  1.0  0.6775
  C  C43  1  0.328500  0.680290  0.166970  1.0  0.6558
  C  C44  1  0.528100  0.983900  0.292700  1.0  0.639
  C  C45  1  0.210000  0.929500  0.444900  1.0  0.6619
  C  C46  1  0.636000  0.547270  0.316570  1.0  0.6629
  C  C47  1  0.597720  0.758030  0.533730  1.0  0.6773
  C  C48  1  0.222900  0.561480  0.438880  1.0  0.6776
  C  C49  1  0.171500  0.180290  0.666970  1.0  0.6565
  C  C50  1  0.971900  0.483900  0.792700  1.0  0.6395
  C  C51  1  0.290000  0.429500  0.944900  1.0  0.6623
  C  C52  1  0.864000  0.047270  0.816570  1.0  0.6626
  C  C53  1  0.902280  0.258030  0.033730  1.0  0.6763
  C  C54  1  0.277100  0.061480  0.938880  1.0  0.6782
  C  C55  1  0.671500  0.319710  0.833030  1.0  0.6562
  C  C56  1  0.471900  0.016100  0.707300  1.0  0.6399
  C  C57  1  0.790000  0.070500  0.555100  1.0  0.6628
  C  C58  1  0.364000  0.452730  0.683430  1.0  0.6622
  C  C59  1  0.402280  0.241970  0.466270  1.0  0.677
  C  C60  1  0.777100  0.438520  0.561120  1.0  0.678
  O  O61  1  0.803020  0.804230  0.249300  1.0  -0.6315
  O  O62  1  0.938920  0.803650  0.370060  1.0  -0.5628
  O  O63  1  0.010130  0.626220  0.215560  1.0  -0.6246
  O  O64  1  0.014090  0.456460  0.137650  1.0  -0.57
  O  O65  1  0.742500  0.654500  0.108930  1.0  -0.6445
  O  O66  1  0.789470  0.512540  0.007260  1.0  -0.5755
  O  O67  1  0.083630  0.852280  0.196470  1.0  -0.6436
  O  O68  1  0.114580  0.015960  0.118680  1.0  -0.5698
  O  O69  1  0.024560  0.686800  0.022930  1.0  -0.6355
  O  O70  1  0.105110  0.848550  0.958480  1.0  -0.5728
  O  O71  1  0.844450  0.901770  0.065910  1.0  -0.6248
  O  O72  1  0.624380  0.899120  0.101760  1.0  -0.5713
  O  O73  1  0.303020  0.695770  0.250700  1.0  -0.6311
  O  O74  1  0.438920  0.696350  0.129940  1.0  -0.563
  O  O75  1  0.510130  0.873780  0.284440  1.0  -0.6256
  O  O76  1  0.514090  0.043540  0.362350  1.0  -0.5712
  O  O77  1  0.242500  0.845500  0.391070  1.0  -0.6438
  O  O78  1  0.289470  0.987460  0.492740  1.0  -0.5752
  O  O79  1  0.583630  0.647720  0.303530  1.0  -0.6434
  O  O80  1  0.614580  0.484040  0.381320  1.0  -0.5708
  O  O81  1  0.524560  0.813200  0.477070  1.0  -0.6351
  O  O82  1  0.605110  0.651450  0.541520  1.0  -0.5731
  O  O83  1  0.344450  0.598230  0.434090  1.0  -0.625
  O  O84  1  0.124380  0.600880  0.398240  1.0  -0.5717
  O  O85  1  0.196980  0.195770  0.750700  1.0  -0.6313
  O  O86  1  0.061080  0.196350  0.629940  1.0  -0.5635
  O  O87  1  0.989870  0.373780  0.784440  1.0  -0.6253
  O  O88  1  0.985910  0.543540  0.862350  1.0  -0.5708
  O  O89  1  0.257500  0.345500  0.891070  1.0  -0.6428
  O  O90  1  0.210530  0.487460  0.992740  1.0  -0.5767
  O  O91  1  0.916370  0.147720  0.803530  1.0  -0.6426
  O  O92  1  0.885420  0.984040  0.881320  1.0  -0.571
  O  O93  1  0.975440  0.313200  0.977070  1.0  -0.6356
  O  O94  1  0.894890  0.151450  0.041520  1.0  -0.5728
  O  O95  1  0.155550  0.098230  0.934090  1.0  -0.6255
  O  O96  1  0.375620  0.100880  0.898240  1.0  -0.572
  O  O97  1  0.696980  0.304230  0.749300  1.0  -0.6318
  O  O98  1  0.561080  0.303650  0.870060  1.0  -0.5635
  O  O99  1  0.489870  0.126220  0.715560  1.0  -0.6242
  O  O100  1  0.485910  0.956460  0.637650  1.0  -0.5697
  O  O101  1  0.757500  0.154500  0.608930  1.0  -0.6435
  O  O102  1  0.710530  0.012540  0.507260  1.0  -0.5766
  O  O103  1  0.416370  0.352280  0.696470  1.0  -0.6428
  O  O104  1  0.385420  0.515960  0.618680  1.0  -0.5704
  O  O105  1  0.475440  0.186800  0.522930  1.0  -0.6357
  O  O106  1  0.394890  0.348550  0.458480  1.0  -0.5723
  O  O107  1  0.655550  0.401770  0.565910  1.0  -0.625
  O  O108  1  0.875620  0.399120  0.601760  1.0  -0.5717
