# generated using pymatgen
data_FeH2(CO2)2
_symmetry_space_group_name_H-M   'P 1'
_cell_length_a   9.98030000
_cell_length_b   11.45250000
_cell_length_c   14.86190000
_cell_angle_alpha   91.27800000
_cell_angle_beta   90.00000000
_cell_angle_gamma   90.00000000
_symmetry_Int_Tables_number   1
_chemical_formula_structural   FeH2(CO2)2
_chemical_formula_sum   'Fe12 H24 C24 O48'
_cell_volume   1698.28348274
_cell_formula_units_Z   12
loop_
 _symmetry_equiv_pos_site_id
 _symmetry_equiv_pos_as_xyz
  1  'x, y, z'
loop_
 _atom_site_type_symbol
 _atom_site_label
 _atom_site_symmetry_multiplicity
 _atom_site_fract_x
 _atom_site_fract_y
 _atom_site_fract_z
 _atom_site_occupancy
 _atom_site_charge
  Fe  Fe1  1  0.923770  0.755910  0.133680  1.0  1.0351
  Fe  Fe2  1  0.884530  0.260490  0.691980  1.0  1.0479
  Fe  Fe3  1  0.423770  0.744090  0.366320  1.0  1.0348
  Fe  Fe4  1  0.384530  0.239510  0.808020  1.0  1.0478
  Fe  Fe5  1  0.076230  0.244090  0.866320  1.0  1.0344
  Fe  Fe6  1  0.115470  0.739510  0.308020  1.0  1.0479
  Fe  Fe7  1  0.576230  0.255910  0.633680  1.0  1.0346
  Fe  Fe8  1  0.615470  0.760490  0.191980  1.0  1.048
  Fe  Fe9  1  0.000000  0.500000  0.000000  1.0  1.0654
  Fe  Fe10  1  0.500000  0.000000  0.500000  1.0  1.0654
  Fe  Fe11  1  0.000000  0.000000  0.000000  1.0  1.0978
  Fe  Fe12  1  0.500000  0.500000  0.500000  1.0  1.0978
  H  H13  1  0.758000  0.842800  0.370800  1.0  0.014
  H  H14  1  0.056000  0.471300  0.261300  1.0  0.0234
  H  H15  1  0.620000  0.553600  0.051600  1.0  0.0038
  H  H16  1  0.206000  0.978000  0.223000  1.0  0.0011
  H  H17  1  0.146000  0.696100  0.927100  1.0  0.0017
  H  H18  1  0.708000  0.001700  0.021700  1.0  0.0274
  H  H19  1  0.258000  0.657200  0.129200  1.0  0.0141
  H  H20  1  0.556000  0.028700  0.238700  1.0  0.024
  H  H21  1  0.120000  0.946400  0.448400  1.0  0.0043
  H  H22  1  0.706000  0.522000  0.277000  1.0  0.001
  H  H23  1  0.646000  0.803900  0.572900  1.0  0.0016
  H  H24  1  0.208000  0.498300  0.478300  1.0  0.0274
  H  H25  1  0.242000  0.157200  0.629200  1.0  0.0137
  H  H26  1  0.944000  0.528700  0.738700  1.0  0.0242
  H  H27  1  0.380000  0.446400  0.948400  1.0  0.0045
  H  H28  1  0.794000  0.022000  0.777000  1.0  0.0006
  H  H29  1  0.854000  0.303900  0.072900  1.0  0.0013
  H  H30  1  0.292000  0.998300  0.978300  1.0  0.0275
  H  H31  1  0.742000  0.342800  0.870800  1.0  0.0137
  H  H32  1  0.444000  0.971300  0.761300  1.0  0.0233
  H  H33  1  0.880000  0.053600  0.551600  1.0  0.0046
  H  H34  1  0.294000  0.478000  0.723000  1.0  0.0009
  H  H35  1  0.354000  0.196100  0.427100  1.0  0.0011
  H  H36  1  0.792000  0.501700  0.521700  1.0  0.0278
  C  C37  1  0.833000  0.819260  0.332860  1.0  0.6587
  C  C38  1  0.030500  0.517810  0.206510  1.0  0.6362
  C  C39  1  0.713300  0.570930  0.056430  1.0  0.6699
  C  C40  1  0.138200  0.951100  0.181900  1.0  0.6636
  C  C41  1  0.095600  0.742380  0.965380  1.0  0.6856
  C  C42  1  0.725700  0.936990  0.061590  1.0  0.6642
  C  C43  1  0.333000  0.680740  0.167140  1.0  0.6592
  C  C44  1  0.530500  0.982190  0.293490  1.0  0.6362
  C  C45  1  0.213300  0.929070  0.443570  1.0  0.6697
  C  C46  1  0.638200  0.548900  0.318100  1.0  0.6635
  C  C47  1  0.595600  0.757620  0.534620  1.0  0.6872
  C  C48  1  0.225700  0.563010  0.438410  1.0  0.6646
  C  C49  1  0.167000  0.180740  0.667140  1.0  0.6592
  C  C50  1  0.969500  0.482190  0.793490  1.0  0.6362
  C  C51  1  0.286700  0.429070  0.943570  1.0  0.6691
  C  C52  1  0.861800  0.048900  0.818100  1.0  0.6631
  C  C53  1  0.904400  0.257620  0.034620  1.0  0.6871
  C  C54  1  0.274300  0.063010  0.938410  1.0  0.6648
  C  C55  1  0.667000  0.319260  0.832860  1.0  0.6592
  C  C56  1  0.469500  0.017810  0.706510  1.0  0.6367
  C  C57  1  0.786700  0.070930  0.556430  1.0  0.6695
  C  C58  1  0.361800  0.451100  0.681900  1.0  0.6627
  C  C59  1  0.404400  0.242380  0.465380  1.0  0.686
  C  C60  1  0.774300  0.436990  0.561590  1.0  0.6642
  O  O61  1  0.806130  0.803490  0.249670  1.0  -0.6322
  O  O62  1  0.943140  0.803620  0.368890  1.0  -0.5615
  O  O63  1  0.013580  0.627160  0.214780  1.0  -0.6225
  O  O64  1  0.014560  0.457970  0.137370  1.0  -0.5671
  O  O65  1  0.745440  0.654160  0.109940  1.0  -0.6418
  O  O66  1  0.791060  0.512930  0.008250  1.0  -0.5745
  O  O67  1  0.085700  0.851610  0.195640  1.0  -0.6456
  O  O68  1  0.115130  0.014530  0.118060  1.0  -0.5735
  O  O69  1  0.024760  0.686900  0.022320  1.0  -0.6384
  O  O70  1  0.103130  0.848460  0.958470  1.0  -0.5753
  O  O71  1  0.846620  0.900870  0.066150  1.0  -0.6189
  O  O72  1  0.629020  0.897590  0.102830  1.0  -0.5632
  O  O73  1  0.306130  0.696510  0.250330  1.0  -0.6317
  O  O74  1  0.443140  0.696380  0.131110  1.0  -0.5612
  O  O75  1  0.513580  0.872840  0.285220  1.0  -0.6233
  O  O76  1  0.514560  0.042030  0.362630  1.0  -0.568
  O  O77  1  0.245440  0.845840  0.390060  1.0  -0.6411
  O  O78  1  0.291060  0.987070  0.491750  1.0  -0.5736
  O  O79  1  0.585700  0.648390  0.304360  1.0  -0.6457
  O  O80  1  0.615130  0.485470  0.381940  1.0  -0.5744
  O  O81  1  0.524760  0.813100  0.477680  1.0  -0.6386
  O  O82  1  0.603130  0.651540  0.541530  1.0  -0.5756
  O  O83  1  0.346620  0.599130  0.433850  1.0  -0.6189
  O  O84  1  0.129020  0.602410  0.397170  1.0  -0.5635
  O  O85  1  0.193870  0.196510  0.750330  1.0  -0.6318
  O  O86  1  0.056860  0.196380  0.631110  1.0  -0.5616
  O  O87  1  0.986420  0.372840  0.785220  1.0  -0.6233
  O  O88  1  0.985440  0.542030  0.862630  1.0  -0.5678
  O  O89  1  0.254560  0.345840  0.890060  1.0  -0.6407
  O  O90  1  0.208940  0.487070  0.991750  1.0  -0.575
  O  O91  1  0.914300  0.148390  0.804360  1.0  -0.6447
  O  O92  1  0.884870  0.985470  0.881940  1.0  -0.574
  O  O93  1  0.975240  0.313100  0.977680  1.0  -0.6383
  O  O94  1  0.896870  0.151540  0.041530  1.0  -0.5752
  O  O95  1  0.153380  0.099130  0.933850  1.0  -0.6193
  O  O96  1  0.370980  0.102410  0.897170  1.0  -0.564
  O  O97  1  0.693870  0.303490  0.749670  1.0  -0.6324
  O  O98  1  0.556860  0.303620  0.868890  1.0  -0.562
  O  O99  1  0.486420  0.127160  0.714780  1.0  -0.6222
  O  O100  1  0.485440  0.957970  0.637370  1.0  -0.5668
  O  O101  1  0.754560  0.154160  0.609940  1.0  -0.6416
  O  O102  1  0.708940  0.012930  0.508250  1.0  -0.5754
  O  O103  1  0.414300  0.351610  0.695640  1.0  -0.6448
  O  O104  1  0.384870  0.514530  0.618060  1.0  -0.5737
  O  O105  1  0.475240  0.186900  0.522320  1.0  -0.638
  O  O106  1  0.396870  0.348460  0.458470  1.0  -0.5747
  O  O107  1  0.653380  0.400870  0.566150  1.0  -0.6191
  O  O108  1  0.870980  0.397590  0.602830  1.0  -0.5638
