# generated using pymatgen
data_FeH2(CO2)2
_symmetry_space_group_name_H-M   'P 1'
_cell_length_a   9.96270000
_cell_length_b   11.42070000
_cell_length_c   14.59070000
_cell_angle_alpha   91.42490000
_cell_angle_beta   90.00000000
_cell_angle_gamma   90.00000000
_symmetry_Int_Tables_number   1
_chemical_formula_structural   FeH2(CO2)2
_chemical_formula_sum   'Fe12 H24 C24 O48'
_cell_volume   1659.63119772
_cell_formula_units_Z   12
loop_
 _symmetry_equiv_pos_site_id
 _symmetry_equiv_pos_as_xyz
  1  'x, y, z'
loop_
 _atom_site_type_symbol
 _atom_site_label
 _atom_site_symmetry_multiplicity
 _atom_site_fract_x
 _atom_site_fract_y
 _atom_site_fract_z
 _atom_site_occupancy
 _atom_site_charge
  Fe  Fe1  1  0.920330  0.755460  0.132730  1.0  1.0387
  Fe  Fe2  1  0.890940  0.259990  0.687750  1.0  1.0495
  Fe  Fe3  1  0.420330  0.744540  0.367270  1.0  1.0385
  Fe  Fe4  1  0.390940  0.240010  0.812250  1.0  1.0493
  Fe  Fe5  1  0.079670  0.244540  0.867270  1.0  1.0385
  Fe  Fe6  1  0.109060  0.740010  0.312250  1.0  1.0493
  Fe  Fe7  1  0.579670  0.255460  0.632730  1.0  1.0387
  Fe  Fe8  1  0.609060  0.759990  0.187750  1.0  1.0495
  Fe  Fe9  1  0.000000  0.500000  0.000000  1.0  1.0137
  Fe  Fe10  1  0.500000  0.000000  0.500000  1.0  1.0137
  Fe  Fe11  1  0.000000  0.000000  0.000000  1.0  1.0998
  Fe  Fe12  1  0.500000  0.500000  0.500000  1.0  1.0998
  H  H13  1  0.756700  0.856200  0.368200  1.0  -0.0095
  H  H14  1  0.033600  0.478000  0.265100  1.0  0.0055
  H  H15  1  0.621500  0.555500  0.042400  1.0  0.004
  H  H16  1  0.181200  0.983400  0.234600  1.0  -0.0036
  H  H17  1  0.159100  0.699700  0.928700  1.0  -0.0017
  H  H18  1  0.703100  0.984700  0.006200  1.0  0.0048
  H  H19  1  0.256700  0.643800  0.131800  1.0  -0.0094
  H  H20  1  0.533600  0.022000  0.234900  1.0  0.0052
  H  H21  1  0.121500  0.944500  0.457600  1.0  0.0037
  H  H22  1  0.681200  0.516600  0.265400  1.0  -0.0024
  H  H23  1  0.659100  0.800300  0.571300  1.0  -0.0015
  H  H24  1  0.203100  0.515300  0.493800  1.0  0.0047
  H  H25  1  0.243300  0.143800  0.631800  1.0  -0.0094
  H  H26  1  0.966400  0.522000  0.734900  1.0  0.0053
  H  H27  1  0.378500  0.444500  0.957600  1.0  0.0046
  H  H28  1  0.818800  0.016600  0.765400  1.0  -0.003
  H  H29  1  0.840900  0.300300  0.071300  1.0  -0.0019
  H  H30  1  0.296900  0.015300  0.993800  1.0  0.0045
  H  H31  1  0.743300  0.356200  0.868200  1.0  -0.0097
  H  H32  1  0.466400  0.978000  0.765100  1.0  0.0053
  H  H33  1  0.878500  0.055500  0.542400  1.0  0.0047
  H  H34  1  0.318800  0.483400  0.734600  1.0  -0.0026
  H  H35  1  0.340900  0.199700  0.428700  1.0  -0.0017
  H  H36  1  0.796900  0.484700  0.506200  1.0  0.0049
  C  C37  1  0.826200  0.827030  0.331730  1.0  0.684
  C  C38  1  0.014500  0.517610  0.211710  1.0  0.6773
  C  C39  1  0.712100  0.573500  0.048800  1.0  0.6743
  C  C40  1  0.124900  0.954630  0.188430  1.0  0.6835
  C  C41  1  0.104500  0.743670  0.968170  1.0  0.6968
  C  C42  1  0.719800  0.927650  0.049150  1.0  0.6877
  C  C43  1  0.326200  0.672970  0.168270  1.0  0.6843
  C  C44  1  0.514500  0.982390  0.288290  1.0  0.6785
  C  C45  1  0.212100  0.926500  0.451200  1.0  0.6774
  C  C46  1  0.624900  0.545370  0.311570  1.0  0.6831
  C  C47  1  0.604500  0.756330  0.531830  1.0  0.6972
  C  C48  1  0.219800  0.572350  0.450850  1.0  0.6883
  C  C49  1  0.173800  0.172970  0.668270  1.0  0.6845
  C  C50  1  0.985500  0.482390  0.788290  1.0  0.6769
  C  C51  1  0.287900  0.426500  0.951200  1.0  0.6759
  C  C52  1  0.875100  0.045370  0.811570  1.0  0.6829
  C  C53  1  0.895500  0.256330  0.031830  1.0  0.6972
  C  C54  1  0.280200  0.072350  0.950850  1.0  0.6882
  C  C55  1  0.673800  0.327030  0.831730  1.0  0.6846
  C  C56  1  0.485500  0.017610  0.711710  1.0  0.6776
  C  C57  1  0.787900  0.073500  0.548800  1.0  0.6771
  C  C58  1  0.375100  0.454630  0.688430  1.0  0.683
  C  C59  1  0.395500  0.243670  0.468170  1.0  0.6972
  C  C60  1  0.780200  0.427650  0.549150  1.0  0.6873
  O  O61  1  0.799470  0.807150  0.247550  1.0  -0.6307
  O  O62  1  0.935470  0.811370  0.369870  1.0  -0.5644
  O  O63  1  0.005670  0.627590  0.218590  1.0  -0.643
  O  O64  1  0.000200  0.457840  0.141340  1.0  -0.5644
  O  O65  1  0.742060  0.651810  0.107310  1.0  -0.6444
  O  O66  1  0.791500  0.517890  0.998690  1.0  -0.5702
  O  O67  1  0.081660  0.852190  0.197190  1.0  -0.6487
  O  O68  1  0.100900  0.020820  0.125620  1.0  -0.5749
  O  O69  1  0.027570  0.686980  0.021780  1.0  -0.636
  O  O70  1  0.112800  0.849910  0.964110  1.0  -0.5796
  O  O71  1  0.842350  0.896730  0.059700  1.0  -0.6282
  O  O72  1  0.621910  0.889040  0.090440  1.0  -0.5659
  O  O73  1  0.299470  0.692850  0.252450  1.0  -0.6308
  O  O74  1  0.435470  0.688630  0.130130  1.0  -0.5644
  O  O75  1  0.505670  0.872410  0.281410  1.0  -0.6439
  O  O76  1  0.500200  0.042160  0.358660  1.0  -0.5654
  O  O77  1  0.242060  0.848190  0.392690  1.0  -0.6444
  O  O78  1  0.291500  0.982110  0.501310  1.0  -0.57
  O  O79  1  0.581660  0.647810  0.302810  1.0  -0.6486
  O  O80  1  0.600900  0.479180  0.374380  1.0  -0.5752
  O  O81  1  0.527570  0.813020  0.478220  1.0  -0.6361
  O  O82  1  0.612800  0.650090  0.535890  1.0  -0.5783
  O  O83  1  0.342350  0.603270  0.440300  1.0  -0.6287
  O  O84  1  0.121910  0.610960  0.409560  1.0  -0.566
  O  O85  1  0.200530  0.192850  0.752450  1.0  -0.6308
  O  O86  1  0.064530  0.188630  0.630130  1.0  -0.5652
  O  O87  1  0.994330  0.372410  0.781410  1.0  -0.6438
  O  O88  1  0.999800  0.542160  0.858660  1.0  -0.5656
  O  O89  1  0.257940  0.348190  0.892690  1.0  -0.6438
  O  O90  1  0.208500  0.482110  0.001310  1.0  -0.5698
  O  O91  1  0.918340  0.147810  0.802810  1.0  -0.6487
  O  O92  1  0.899100  0.979180  0.874380  1.0  -0.5755
  O  O93  1  0.972430  0.313020  0.978220  1.0  -0.636
  O  O94  1  0.887200  0.150090  0.035890  1.0  -0.5777
  O  O95  1  0.157650  0.103270  0.940300  1.0  -0.6281
  O  O96  1  0.378090  0.110960  0.909560  1.0  -0.5663
  O  O97  1  0.700530  0.307150  0.747550  1.0  -0.6309
  O  O98  1  0.564530  0.311370  0.869870  1.0  -0.5656
  O  O99  1  0.494330  0.127590  0.718590  1.0  -0.6428
  O  O100  1  0.499800  0.957840  0.641340  1.0  -0.5644
  O  O101  1  0.757940  0.151810  0.607310  1.0  -0.6442
  O  O102  1  0.708500  0.017890  0.498690  1.0  -0.5697
  O  O103  1  0.418340  0.352190  0.697190  1.0  -0.6488
  O  O104  1  0.399100  0.520820  0.625620  1.0  -0.5755
  O  O105  1  0.472430  0.186980  0.521780  1.0  -0.6361
  O  O106  1  0.387200  0.349910  0.464110  1.0  -0.5789
  O  O107  1  0.657650  0.396730  0.559700  1.0  -0.6277
  O  O108  1  0.878090  0.389040  0.590440  1.0  -0.5663
