# generated using pymatgen
data_FeH2(CO2)2
_symmetry_space_group_name_H-M   'P 1'
_cell_length_a   9.84740000
_cell_length_b   11.33690000
_cell_length_c   14.45070000
_cell_angle_alpha   91.14170000
_cell_angle_beta   90.00000000
_cell_angle_gamma   90.00000000
_symmetry_Int_Tables_number   1
_chemical_formula_structural   FeH2(CO2)2
_chemical_formula_sum   'Fe12 H24 C24 O48'
_cell_volume   1612.94126708
_cell_formula_units_Z   12
loop_
 _symmetry_equiv_pos_site_id
 _symmetry_equiv_pos_as_xyz
  1  'x, y, z'
loop_
 _atom_site_type_symbol
 _atom_site_label
 _atom_site_symmetry_multiplicity
 _atom_site_fract_x
 _atom_site_fract_y
 _atom_site_fract_z
 _atom_site_occupancy
 _atom_site_charge
  Fe  Fe1  1  0.917820  0.755290  0.132350  1.0  1.0366
  Fe  Fe2  1  0.896070  0.260950  0.685360  1.0  1.047
  Fe  Fe3  1  0.417820  0.744710  0.367650  1.0  1.0368
  Fe  Fe4  1  0.396070  0.239050  0.814640  1.0  1.0468
  Fe  Fe5  1  0.082180  0.244710  0.867650  1.0  1.0365
  Fe  Fe6  1  0.103930  0.739050  0.314640  1.0  1.0471
  Fe  Fe7  1  0.582180  0.255290  0.632350  1.0  1.0365
  Fe  Fe8  1  0.603930  0.760950  0.185360  1.0  1.0473
  Fe  Fe9  1  0.000000  0.500000  0.000000  1.0  1.0727
  Fe  Fe10  1  0.500000  0.000000  0.500000  1.0  1.0727
  Fe  Fe11  1  0.000000  0.000000  0.000000  1.0  1.0807
  Fe  Fe12  1  0.500000  0.500000  0.500000  1.0  1.0807
  H  H13  1  0.747200  0.860700  0.368400  1.0  -0.0015
  H  H14  1  0.022200  0.472900  0.269900  1.0  0.0103
  H  H15  1  0.615000  0.557200  0.034100  1.0  0.0054
  H  H16  1  0.172500  0.990500  0.242200  1.0  0.0094
  H  H17  1  0.169700  0.698000  0.931500  1.0  0.0182
  H  H18  1  0.698700  0.983400  0.996700  1.0  0.006
  H  H19  1  0.247200  0.639300  0.131600  1.0  -0.0016
  H  H20  1  0.522200  0.027100  0.230100  1.0  0.0098
  H  H21  1  0.115000  0.942800  0.465900  1.0  0.0057
  H  H22  1  0.672500  0.509500  0.257800  1.0  0.0103
  H  H23  1  0.669700  0.802000  0.568500  1.0  0.0189
  H  H24  1  0.198700  0.516600  0.503300  1.0  0.006
  H  H25  1  0.252800  0.139300  0.631600  1.0  -0.0016
  H  H26  1  0.977800  0.527100  0.730100  1.0  0.0097
  H  H27  1  0.385000  0.442800  0.965900  1.0  0.0059
  H  H28  1  0.827500  0.009500  0.757800  1.0  0.0092
  H  H29  1  0.830300  0.302000  0.068500  1.0  0.0185
  H  H30  1  0.301300  0.016600  0.003300  1.0  0.0059
  H  H31  1  0.752800  0.360700  0.868400  1.0  -0.0014
  H  H32  1  0.477800  0.972900  0.769900  1.0  0.0101
  H  H33  1  0.885000  0.057200  0.534100  1.0  0.006
  H  H34  1  0.327500  0.490500  0.742200  1.0  0.0101
  H  H35  1  0.330300  0.198000  0.431500  1.0  0.0179
  H  H36  1  0.801300  0.483400  0.496700  1.0  0.0056
  C  C37  1  0.819700  0.829600  0.332000  1.0  0.6814
  C  C38  1  0.005400  0.514200  0.214500  1.0  0.6591
  C  C39  1  0.708500  0.574800  0.042900  1.0  0.6643
  C  C40  1  0.119000  0.959500  0.192800  1.0  0.6751
  C  C41  1  0.111500  0.743800  0.970500  1.0  0.6833
  C  C42  1  0.714800  0.926900  0.043100  1.0  0.6742
  C  C43  1  0.319700  0.670400  0.168000  1.0  0.6816
  C  C44  1  0.505400  0.985800  0.285500  1.0  0.6595
  C  C45  1  0.208500  0.925200  0.457100  1.0  0.6648
  C  C46  1  0.619000  0.540500  0.307200  1.0  0.6759
  C  C47  1  0.611500  0.756200  0.529500  1.0  0.6832
  C  C48  1  0.214800  0.573100  0.456900  1.0  0.6738
  C  C49  1  0.180300  0.170400  0.668000  1.0  0.6818
  C  C50  1  0.994600  0.485800  0.785500  1.0  0.6587
  C  C51  1  0.291500  0.425200  0.957100  1.0  0.6627
  C  C52  1  0.881000  0.040500  0.807200  1.0  0.6764
  C  C53  1  0.888500  0.256200  0.029500  1.0  0.6825
  C  C54  1  0.285200  0.073100  0.956900  1.0  0.6738
  C  C55  1  0.680300  0.329600  0.832000  1.0  0.682
  C  C56  1  0.494600  0.014200  0.714500  1.0  0.6593
  C  C57  1  0.791500  0.074800  0.542900  1.0  0.6615
  C  C58  1  0.381000  0.459500  0.692800  1.0  0.6749
  C  C59  1  0.388500  0.243800  0.470500  1.0  0.6835
  C  C60  1  0.785200  0.426900  0.543100  1.0  0.6741
  O  O61  1  0.795250  0.809390  0.246290  1.0  -0.6299
  O  O62  1  0.928690  0.812660  0.372060  1.0  -0.562
  O  O63  1  0.999550  0.625920  0.220920  1.0  -0.6391
  O  O64  1  0.991100  0.454170  0.142670  1.0  -0.5751
  O  O65  1  0.738090  0.651650  0.105050  1.0  -0.6425
  O  O66  1  0.790500  0.520830  0.992730  1.0  -0.5683
  O  O67  1  0.079550  0.852250  0.198850  1.0  -0.6539
  O  O68  1  0.093910  0.025890  0.128990  1.0  -0.5622
  O  O69  1  0.030070  0.687100  0.023100  1.0  -0.6364
  O  O70  1  0.121150  0.851160  0.965860  1.0  -0.5778
  O  O71  1  0.838300  0.895880  0.056880  1.0  -0.6313
  O  O72  1  0.614330  0.889080  0.085380  1.0  -0.5668
  O  O73  1  0.295250  0.690610  0.253710  1.0  -0.6295
  O  O74  1  0.428690  0.687340  0.127940  1.0  -0.561
  O  O75  1  0.499550  0.874080  0.279080  1.0  -0.6392
  O  O76  1  0.491100  0.045830  0.357330  1.0  -0.5753
  O  O77  1  0.238090  0.848350  0.394950  1.0  -0.6416
  O  O78  1  0.290500  0.979170  0.507270  1.0  -0.5678
  O  O79  1  0.579550  0.647750  0.301150  1.0  -0.6534
  O  O80  1  0.593910  0.474110  0.371010  1.0  -0.5628
  O  O81  1  0.530070  0.812900  0.476900  1.0  -0.6366
  O  O82  1  0.621150  0.648840  0.534140  1.0  -0.5763
  O  O83  1  0.338300  0.604120  0.443120  1.0  -0.6316
  O  O84  1  0.114330  0.610920  0.414620  1.0  -0.5672
  O  O85  1  0.204750  0.190610  0.753710  1.0  -0.6294
  O  O86  1  0.071310  0.187340  0.627940  1.0  -0.5617
  O  O87  1  0.000450  0.374080  0.779080  1.0  -0.6394
  O  O88  1  0.008900  0.545830  0.857330  1.0  -0.5756
  O  O89  1  0.261910  0.348350  0.894950  1.0  -0.6419
  O  O90  1  0.209500  0.479170  0.007270  1.0  -0.5684
  O  O91  1  0.920450  0.147750  0.801150  1.0  -0.6535
  O  O92  1  0.906090  0.974110  0.871010  1.0  -0.5626
  O  O93  1  0.969930  0.312900  0.976900  1.0  -0.6368
  O  O94  1  0.878850  0.148840  0.034140  1.0  -0.5761
  O  O95  1  0.161700  0.104120  0.943120  1.0  -0.6322
  O  O96  1  0.385670  0.110920  0.914620  1.0  -0.5674
  O  O97  1  0.704750  0.309390  0.746290  1.0  -0.6299
  O  O98  1  0.571310  0.312660  0.872060  1.0  -0.5629
  O  O99  1  0.500450  0.125920  0.720920  1.0  -0.6391
  O  O100  1  0.508900  0.954170  0.642670  1.0  -0.5753
  O  O101  1  0.761910  0.151650  0.605050  1.0  -0.6429
  O  O102  1  0.709500  0.020830  0.492730  1.0  -0.5685
  O  O103  1  0.420450  0.352250  0.698850  1.0  -0.6542
  O  O104  1  0.406090  0.525890  0.628990  1.0  -0.5622
  O  O105  1  0.469930  0.187100  0.523100  1.0  -0.6365
  O  O106  1  0.378850  0.351160  0.465860  1.0  -0.5777
  O  O107  1  0.661700  0.395880  0.556880  1.0  -0.632
  O  O108  1  0.885670  0.389080  0.585380  1.0  -0.5673
