# generated using pymatgen
data_FeH2(CO2)2
_symmetry_space_group_name_H-M   'P 1'
_cell_length_a   9.88620000
_cell_length_b   11.35770000
_cell_length_c   14.49590000
_cell_angle_alpha   91.25160000
_cell_angle_beta   90.00000000
_cell_angle_gamma   90.00000000
_symmetry_Int_Tables_number   1
_chemical_formula_structural   FeH2(CO2)2
_chemical_formula_sum   'Fe12 H24 C24 O48'
_cell_volume   1627.27646048
_cell_formula_units_Z   12
loop_
 _symmetry_equiv_pos_site_id
 _symmetry_equiv_pos_as_xyz
  1  'x, y, z'
loop_
 _atom_site_type_symbol
 _atom_site_label
 _atom_site_symmetry_multiplicity
 _atom_site_fract_x
 _atom_site_fract_y
 _atom_site_fract_z
 _atom_site_occupancy
 _atom_site_charge
  Fe  Fe1  1  0.918590  0.755400  0.132440  1.0  1.0309
  Fe  Fe2  1  0.894550  0.260520  0.686100  1.0  1.0546
  Fe  Fe3  1  0.418590  0.744600  0.367560  1.0  1.031
  Fe  Fe4  1  0.394550  0.239480  0.813900  1.0  1.0546
  Fe  Fe5  1  0.081410  0.244600  0.867560  1.0  1.0308
  Fe  Fe6  1  0.105450  0.739480  0.313900  1.0  1.0545
  Fe  Fe7  1  0.581410  0.255400  0.632440  1.0  1.0306
  Fe  Fe8  1  0.605450  0.760520  0.186100  1.0  1.0545
  Fe  Fe9  1  0.000000  0.500000  0.000000  1.0  1.0664
  Fe  Fe10  1  0.500000  0.000000  0.500000  1.0  1.0664
  Fe  Fe11  1  0.000000  0.000000  0.000000  1.0  1.0922
  Fe  Fe12  1  0.500000  0.500000  0.500000  1.0  1.0922
  H  H13  1  0.749500  0.859200  0.368600  1.0  -0.0039
  H  H14  1  0.024500  0.474000  0.269000  1.0  0.0119
  H  H15  1  0.616600  0.556700  0.036300  1.0  0.0048
  H  H16  1  0.174900  0.988900  0.240200  1.0  0.0014
  H  H17  1  0.166800  0.697800  0.930600  1.0  0.0016
  H  H18  1  0.699800  0.983800  0.999600  1.0  0.0065
  H  H19  1  0.249500  0.640800  0.131400  1.0  -0.0042
  H  H20  1  0.524500  0.026000  0.231000  1.0  0.0118
  H  H21  1  0.116600  0.943300  0.463700  1.0  0.0051
  H  H22  1  0.674900  0.511100  0.259800  1.0  0.0026
  H  H23  1  0.666800  0.802200  0.569400  1.0  0.0019
  H  H24  1  0.199800  0.516200  0.500400  1.0  0.0058
  H  H25  1  0.250500  0.140800  0.631400  1.0  -0.004
  H  H26  1  0.975500  0.526000  0.731000  1.0  0.0117
  H  H27  1  0.383400  0.443300  0.963700  1.0  0.0059
  H  H28  1  0.825100  0.011100  0.759800  1.0  0.0017
  H  H29  1  0.833200  0.302200  0.069400  1.0  0.0015
  H  H30  1  0.300200  0.016200  0.000400  1.0  0.0057
  H  H31  1  0.750500  0.359200  0.868600  1.0  -0.0036
  H  H32  1  0.475500  0.974000  0.769000  1.0  0.0118
  H  H33  1  0.883400  0.056700  0.536300  1.0  0.0059
  H  H34  1  0.325100  0.488900  0.740200  1.0  0.0022
  H  H35  1  0.333200  0.197800  0.430600  1.0  0.0014
  H  H36  1  0.800200  0.483800  0.499600  1.0  0.0063
  C  C37  1  0.821500  0.828650  0.331850  1.0  0.6767
  C  C38  1  0.007500  0.515100  0.213800  1.0  0.66
  C  C39  1  0.709800  0.574500  0.044600  1.0  0.6601
  C  C40  1  0.120200  0.958200  0.191400  1.0  0.6666
  C  C41  1  0.109500  0.743380  0.969880  1.0  0.6869
  C  C42  1  0.716400  0.926620  0.045120  1.0  0.6768
  C  C43  1  0.321500  0.671350  0.168150  1.0  0.6773
  C  C44  1  0.507500  0.984900  0.286200  1.0  0.6605
  C  C45  1  0.209800  0.925500  0.455400  1.0  0.661
  C  C46  1  0.620200  0.541800  0.308600  1.0  0.6662
  C  C47  1  0.609500  0.756620  0.530120  1.0  0.6858
  C  C48  1  0.216400  0.573380  0.454880  1.0  0.6767
  C  C49  1  0.178500  0.171350  0.668150  1.0  0.6774
  C  C50  1  0.992500  0.484900  0.786200  1.0  0.6597
  C  C51  1  0.290200  0.425500  0.955400  1.0  0.6584
  C  C52  1  0.879800  0.041800  0.808600  1.0  0.666
  C  C53  1  0.890500  0.256620  0.030120  1.0  0.6861
  C  C54  1  0.283600  0.073380  0.954880  1.0  0.677
  C  C55  1  0.678500  0.328650  0.831850  1.0  0.6772
  C  C56  1  0.492500  0.015100  0.713800  1.0  0.6603
  C  C57  1  0.790200  0.074500  0.544600  1.0  0.6575
  C  C58  1  0.379800  0.458200  0.691400  1.0  0.666
  C  C59  1  0.390500  0.243380  0.469880  1.0  0.6879
  C  C60  1  0.783600  0.426620  0.545120  1.0  0.6768
  O  O61  1  0.796090  0.808540  0.246640  1.0  -0.628
  O  O62  1  0.930520  0.812230  0.371330  1.0  -0.5634
  O  O63  1  0.001070  0.626330  0.220230  1.0  -0.6307
  O  O64  1  0.993750  0.455240  0.142340  1.0  -0.5715
  O  O65  1  0.739500  0.651810  0.105810  1.0  -0.6423
  O  O66  1  0.790960  0.519910  0.994610  1.0  -0.564
  O  O67  1  0.079990  0.852410  0.198470  1.0  -0.6463
  O  O68  1  0.095350  0.024580  0.127880  1.0  -0.5652
  O  O69  1  0.029300  0.687090  0.022690  1.0  -0.634
  O  O70  1  0.118820  0.850780  0.965480  1.0  -0.577
  O  O71  1  0.839390  0.896320  0.057570  1.0  -0.6243
  O  O72  1  0.617040  0.888760  0.086660  1.0  -0.5659
  O  O73  1  0.296090  0.691460  0.253360  1.0  -0.6277
  O  O74  1  0.430520  0.687770  0.128670  1.0  -0.5624
  O  O75  1  0.501070  0.873670  0.279770  1.0  -0.631
  O  O76  1  0.493750  0.044760  0.357660  1.0  -0.572
  O  O77  1  0.239500  0.848190  0.394190  1.0  -0.6411
  O  O78  1  0.290960  0.980090  0.505390  1.0  -0.5632
  O  O79  1  0.579990  0.647590  0.301530  1.0  -0.6461
  O  O80  1  0.595350  0.475420  0.372120  1.0  -0.5657
  O  O81  1  0.529300  0.812910  0.477310  1.0  -0.6342
  O  O82  1  0.618820  0.649220  0.534520  1.0  -0.5761
  O  O83  1  0.339390  0.603680  0.442430  1.0  -0.6249
  O  O84  1  0.117040  0.611240  0.413340  1.0  -0.566
  O  O85  1  0.203910  0.191460  0.753360  1.0  -0.6275
  O  O86  1  0.069480  0.187770  0.628670  1.0  -0.5634
  O  O87  1  0.998930  0.373670  0.779770  1.0  -0.6311
  O  O88  1  0.006250  0.544760  0.857660  1.0  -0.5726
  O  O89  1  0.260500  0.348190  0.894190  1.0  -0.6417
  O  O90  1  0.209040  0.480090  0.005390  1.0  -0.5641
  O  O91  1  0.920010  0.147590  0.801530  1.0  -0.6466
  O  O92  1  0.904650  0.975420  0.872120  1.0  -0.5661
  O  O93  1  0.970700  0.312910  0.977310  1.0  -0.6344
  O  O94  1  0.881180  0.149220  0.034520  1.0  -0.5757
  O  O95  1  0.160610  0.103680  0.942430  1.0  -0.6258
  O  O96  1  0.382960  0.111240  0.913340  1.0  -0.5665
  O  O97  1  0.703910  0.308540  0.746640  1.0  -0.6279
  O  O98  1  0.569480  0.312230  0.871330  1.0  -0.5643
  O  O99  1  0.498930  0.126330  0.720230  1.0  -0.6306
  O  O100  1  0.506250  0.955240  0.642340  1.0  -0.5719
  O  O101  1  0.760500  0.151810  0.605810  1.0  -0.6425
  O  O102  1  0.709040  0.019910  0.494610  1.0  -0.5646
  O  O103  1  0.420010  0.352410  0.698470  1.0  -0.6468
  O  O104  1  0.404650  0.524580  0.627880  1.0  -0.5659
  O  O105  1  0.470700  0.187090  0.522690  1.0  -0.634
  O  O106  1  0.381180  0.350780  0.465480  1.0  -0.5767
  O  O107  1  0.660610  0.396320  0.557570  1.0  -0.6252
  O  O108  1  0.882960  0.388760  0.586660  1.0  -0.5663
