# generated using pymatgen
data_FeH2(CO2)2
_symmetry_space_group_name_H-M   'P 1'
_cell_length_a   10.08530000
_cell_length_b   11.52000000
_cell_length_c   14.95960000
_cell_angle_alpha   91.46640000
_cell_angle_beta   90.00000000
_cell_angle_gamma   90.00000000
_symmetry_Int_Tables_number   1
_chemical_formula_structural   FeH2(CO2)2
_chemical_formula_sum   'Fe12 H24 C24 O48'
_cell_volume   1737.47685765
_cell_formula_units_Z   12
loop_
 _symmetry_equiv_pos_site_id
 _symmetry_equiv_pos_as_xyz
  1  'x, y, z'
loop_
 _atom_site_type_symbol
 _atom_site_label
 _atom_site_symmetry_multiplicity
 _atom_site_fract_x
 _atom_site_fract_y
 _atom_site_fract_z
 _atom_site_occupancy
 _atom_site_charge
  Fe  Fe1  1  0.927910  0.755830  0.133610  1.0  1.0447
  Fe  Fe2  1  0.878000  0.259600  0.694160  1.0  1.0534
  Fe  Fe3  1  0.427910  0.744170  0.366390  1.0  1.0445
  Fe  Fe4  1  0.378000  0.240400  0.805840  1.0  1.053
  Fe  Fe5  1  0.072090  0.244170  0.866390  1.0  1.0442
  Fe  Fe6  1  0.122000  0.740400  0.305840  1.0  1.0531
  Fe  Fe7  1  0.572090  0.255830  0.633610  1.0  1.0444
  Fe  Fe8  1  0.622000  0.759600  0.194160  1.0  1.0536
  Fe  Fe9  1  0.000000  0.500000  0.000000  1.0  1.0601
  Fe  Fe10  1  0.500000  0.000000  0.500000  1.0  1.0601
  Fe  Fe11  1  0.000000  0.000000  0.000000  1.0  1.0971
  Fe  Fe12  1  0.500000  0.500000  0.500000  1.0  1.0971
  H  H13  1  0.772000  0.845600  0.371600  1.0  0.0088
  H  H14  1  0.061000  0.473800  0.258800  1.0  0.0238
  H  H15  1  0.623000  0.559000  0.055000  1.0  0.0096
  H  H16  1  0.218000  0.970200  0.215200  1.0  -0.0033
  H  H17  1  0.138000  0.698100  0.924100  1.0  -0.0038
  H  H18  1  0.715000  0.995500  0.027500  1.0  0.0072
  H  H19  1  0.272000  0.654400  0.128400  1.0  0.0092
  H  H20  1  0.561000  0.026200  0.241200  1.0  0.0241
  H  H21  1  0.123000  0.941000  0.445000  1.0  0.0096
  H  H22  1  0.718000  0.529800  0.284800  1.0  -0.003
  H  H23  1  0.638000  0.801900  0.575900  1.0  -0.0047
  H  H24  1  0.215000  0.504500  0.472500  1.0  0.0066
  H  H25  1  0.228000  0.154400  0.628400  1.0  0.0086
  H  H26  1  0.939000  0.526200  0.741200  1.0  0.0242
  H  H27  1  0.377000  0.441000  0.945000  1.0  0.0102
  H  H28  1  0.782000  0.029800  0.784800  1.0  -0.0037
  H  H29  1  0.862000  0.301900  0.075900  1.0  -0.0041
  H  H30  1  0.285000  0.004500  0.972500  1.0  0.0067
  H  H31  1  0.728000  0.345600  0.871600  1.0  0.008
  H  H32  1  0.439000  0.973800  0.758800  1.0  0.0235
  H  H33  1  0.877000  0.059000  0.555000  1.0  0.0099
  H  H34  1  0.282000  0.470200  0.715200  1.0  -0.0036
  H  H35  1  0.362000  0.198100  0.424100  1.0  -0.0037
  H  H36  1  0.785000  0.495500  0.527500  1.0  0.0077
  C  C37  1  0.841100  0.819140  0.332340  1.0  0.6753
  C  C38  1  0.036900  0.520450  0.204750  1.0  0.6359
  C  C39  1  0.718500  0.571450  0.059250  1.0  0.6781
  C  C40  1  0.143100  0.948110  0.178110  1.0  0.6639
  C  C41  1  0.091600  0.742560  0.963960  1.0  0.706
  C  C42  1  0.731000  0.934440  0.063940  1.0  0.6941
  C  C43  1  0.341100  0.680860  0.167660  1.0  0.6753
  C  C44  1  0.536900  0.979550  0.295250  1.0  0.6366
  C  C45  1  0.218500  0.928550  0.440750  1.0  0.6761
  C  C46  1  0.643100  0.551890  0.321890  1.0  0.6637
  C  C47  1  0.591600  0.757440  0.536040  1.0  0.7069
  C  C48  1  0.231000  0.565560  0.436060  1.0  0.6944
  C  C49  1  0.158900  0.180860  0.667660  1.0  0.6757
  C  C50  1  0.963100  0.479550  0.795250  1.0  0.6369
  C  C51  1  0.281500  0.428550  0.940750  1.0  0.6752
  C  C52  1  0.856900  0.051890  0.821890  1.0  0.6641
  C  C53  1  0.908400  0.257440  0.036040  1.0  0.7077
  C  C54  1  0.269000  0.065560  0.936060  1.0  0.6939
  C  C55  1  0.658900  0.319140  0.832340  1.0  0.676
  C  C56  1  0.463100  0.020450  0.704750  1.0  0.6374
  C  C57  1  0.781500  0.071450  0.559250  1.0  0.6772
  C  C58  1  0.356900  0.448110  0.678110  1.0  0.6632
  C  C59  1  0.408400  0.242560  0.463960  1.0  0.707
  C  C60  1  0.769000  0.434440  0.563940  1.0  0.6937
  O  O61  1  0.811880  0.802000  0.250480  1.0  -0.6325
  O  O62  1  0.951240  0.805610  0.366260  1.0  -0.5651
  O  O63  1  0.020300  0.629030  0.213290  1.0  -0.6328
  O  O64  1  0.018560  0.460860  0.136600  1.0  -0.5721
  O  O65  1  0.750540  0.654010  0.112400  1.0  -0.638
  O  O66  1  0.793830  0.512770  0.011280  1.0  -0.5731
  O  O67  1  0.089680  0.850990  0.193550  1.0  -0.6461
  O  O68  1  0.118560  0.011570  0.115940  1.0  -0.5756
  O  O69  1  0.024780  0.687130  0.020950  1.0  -0.6384
  O  O70  1  0.098540  0.848080  0.957830  1.0  -0.5934
  O  O71  1  0.850280  0.900270  0.067330  1.0  -0.6344
  O  O72  1  0.636290  0.894800  0.105220  1.0  -0.5728
  O  O73  1  0.311880  0.698000  0.249520  1.0  -0.6317
  O  O74  1  0.451240  0.694390  0.133740  1.0  -0.5647
  O  O75  1  0.520300  0.870970  0.286710  1.0  -0.6334
  O  O76  1  0.518560  0.039140  0.363400  1.0  -0.5724
  O  O77  1  0.250540  0.845990  0.387600  1.0  -0.637
  O  O78  1  0.293830  0.987230  0.488720  1.0  -0.5725
  O  O79  1  0.589680  0.649010  0.306450  1.0  -0.6458
  O  O80  1  0.618560  0.488430  0.384060  1.0  -0.577
  O  O81  1  0.524780  0.812870  0.479050  1.0  -0.6382
  O  O82  1  0.598540  0.651920  0.542170  1.0  -0.5928
  O  O83  1  0.350280  0.599730  0.432670  1.0  -0.6347
  O  O84  1  0.136290  0.605200  0.394780  1.0  -0.5723
  O  O85  1  0.188120  0.198000  0.749520  1.0  -0.6321
  O  O86  1  0.048760  0.194390  0.633740  1.0  -0.5632
  O  O87  1  0.979700  0.370970  0.786710  1.0  -0.6332
  O  O88  1  0.981440  0.539140  0.863400  1.0  -0.5718
  O  O89  1  0.249460  0.345990  0.887600  1.0  -0.6362
  O  O90  1  0.206170  0.487230  0.988720  1.0  -0.5732
  O  O91  1  0.910320  0.149010  0.806450  1.0  -0.6452
  O  O92  1  0.881440  0.988430  0.884060  1.0  -0.5771
  O  O93  1  0.975220  0.312870  0.979050  1.0  -0.638
  O  O94  1  0.901460  0.151920  0.042170  1.0  -0.5922
  O  O95  1  0.149720  0.099730  0.932670  1.0  -0.6346
  O  O96  1  0.363710  0.105200  0.894780  1.0  -0.5727
  O  O97  1  0.688120  0.302000  0.750480  1.0  -0.6329
  O  O98  1  0.548760  0.305610  0.866260  1.0  -0.5641
  O  O99  1  0.479700  0.129030  0.713290  1.0  -0.6322
  O  O100  1  0.481440  0.960860  0.636600  1.0  -0.5716
  O  O101  1  0.749460  0.154010  0.612400  1.0  -0.6374
  O  O102  1  0.706170  0.012770  0.511280  1.0  -0.5736
  O  O103  1  0.410320  0.350990  0.693550  1.0  -0.6456
  O  O104  1  0.381440  0.511570  0.615940  1.0  -0.5761
  O  O105  1  0.475220  0.187130  0.520950  1.0  -0.6381
  O  O106  1  0.401460  0.348080  0.457830  1.0  -0.5922
  O  O107  1  0.649720  0.400270  0.567330  1.0  -0.6343
  O  O108  1  0.863710  0.394800  0.605220  1.0  -0.573
