# generated using pymatgen
data_FeH2(CO2)2
_symmetry_space_group_name_H-M   'P 1'
_cell_length_a   9.88550000
_cell_length_b   11.40820000
_cell_length_c   14.80510000
_cell_angle_alpha   91.41070000
_cell_angle_beta   90.00000000
_cell_angle_gamma   90.00000000
_symmetry_Int_Tables_number   1
_chemical_formula_structural   FeH2(CO2)2
_chemical_formula_sum   'Fe12 H24 C24 O48'
_cell_volume   1669.15036389
_cell_formula_units_Z   12
loop_
 _symmetry_equiv_pos_site_id
 _symmetry_equiv_pos_as_xyz
  1  'x, y, z'
loop_
 _atom_site_type_symbol
 _atom_site_label
 _atom_site_symmetry_multiplicity
 _atom_site_fract_x
 _atom_site_fract_y
 _atom_site_fract_z
 _atom_site_occupancy
 _atom_site_charge
  Fe  Fe1  1  0.923920  0.756540  0.132910  1.0  1.0448
  Fe  Fe2  1  0.886010  0.260190  0.691760  1.0  1.0487
  Fe  Fe3  1  0.423920  0.743460  0.367090  1.0  1.0445
  Fe  Fe4  1  0.386010  0.239810  0.808240  1.0  1.0487
  Fe  Fe5  1  0.076080  0.243460  0.867090  1.0  1.0443
  Fe  Fe6  1  0.113990  0.739810  0.308240  1.0  1.0488
  Fe  Fe7  1  0.576080  0.256540  0.632910  1.0  1.0446
  Fe  Fe8  1  0.613990  0.760190  0.191760  1.0  1.0489
  Fe  Fe9  1  0.000000  0.500000  0.000000  1.0  1.0507
  Fe  Fe10  1  0.500000  0.000000  0.500000  1.0  1.0507
  Fe  Fe11  1  0.000000  0.000000  0.000000  1.0  1.0887
  Fe  Fe12  1  0.500000  0.500000  0.500000  1.0  1.0887
  H  H13  1  0.762100  0.854800  0.368300  1.0  -0.0028
  H  H14  1  0.042900  0.476500  0.260200  1.0  0.009
  H  H15  1  0.620200  0.558100  0.044300  1.0  0.0034
  H  H16  1  0.205300  0.977000  0.223400  1.0  -0.0027
  H  H17  1  0.160300  0.696800  0.929600  1.0  -0.001
  H  H18  1  0.705400  0.994800  0.018700  1.0  0.0056
  H  H19  1  0.262100  0.645200  0.131700  1.0  -0.0028
  H  H20  1  0.542900  0.023500  0.239800  1.0  0.0091
  H  H21  1  0.120200  0.941900  0.455700  1.0  0.0037
  H  H22  1  0.705300  0.523000  0.276600  1.0  -0.0029
  H  H23  1  0.660300  0.803200  0.570400  1.0  -0.0007
  H  H24  1  0.205400  0.505200  0.481300  1.0  0.0055
  H  H25  1  0.237900  0.145200  0.631700  1.0  -0.0029
  H  H26  1  0.957100  0.523500  0.739800  1.0  0.0093
  H  H27  1  0.379800  0.441900  0.955700  1.0  0.0034
  H  H28  1  0.794700  0.023000  0.776600  1.0  -0.0028
  H  H29  1  0.839700  0.303200  0.070400  1.0  -0.0003
  H  H30  1  0.294600  0.005200  0.981300  1.0  0.0062
  H  H31  1  0.737900  0.354800  0.868300  1.0  -0.0032
  H  H32  1  0.457100  0.976500  0.760200  1.0  0.0094
  H  H33  1  0.879800  0.058100  0.544300  1.0  0.0035
  H  H34  1  0.294700  0.477000  0.723400  1.0  -0.0023
  H  H35  1  0.339700  0.196800  0.429600  1.0  -0.0008
  H  H36  1  0.794600  0.494800  0.518700  1.0  0.0064
  C  C37  1  0.831800  0.825540  0.332040  1.0  0.6773
  C  C38  1  0.020500  0.516100  0.208100  1.0  0.6708
  C  C39  1  0.711800  0.575300  0.050100  1.0  0.6782
  C  C40  1  0.141300  0.951000  0.181500  1.0  0.6779
  C  C41  1  0.104200  0.741800  0.967100  1.0  0.6871
  C  C42  1  0.722400  0.934690  0.058490  1.0  0.6794
  C  C43  1  0.331800  0.674460  0.167960  1.0  0.6781
  C  C44  1  0.520500  0.983900  0.291900  1.0  0.6715
  C  C45  1  0.211800  0.924700  0.449900  1.0  0.6777
  C  C46  1  0.641300  0.549000  0.318500  1.0  0.6775
  C  C47  1  0.604200  0.758200  0.532900  1.0  0.6873
  C  C48  1  0.222400  0.565310  0.441510  1.0  0.6796
  C  C49  1  0.168200  0.174460  0.667960  1.0  0.6786
  C  C50  1  0.979500  0.483900  0.791900  1.0  0.6701
  C  C51  1  0.288200  0.424700  0.949900  1.0  0.6774
  C  C52  1  0.858700  0.049000  0.818500  1.0  0.6774
  C  C53  1  0.895800  0.258200  0.032900  1.0  0.6868
  C  C54  1  0.277600  0.065310  0.941510  1.0  0.6797
  C  C55  1  0.668200  0.325540  0.832040  1.0  0.678
  C  C56  1  0.479500  0.016100  0.708100  1.0  0.671
  C  C57  1  0.788200  0.075300  0.550100  1.0  0.6782
  C  C58  1  0.358700  0.451000  0.681500  1.0  0.6772
  C  C59  1  0.395800  0.241800  0.467100  1.0  0.6871
  C  C60  1  0.777600  0.434690  0.558490  1.0  0.6793
  O  O61  1  0.804840  0.807440  0.248720  1.0  -0.6315
  O  O62  1  0.941780  0.807990  0.369390  1.0  -0.5685
  O  O63  1  0.010120  0.627460  0.215460  1.0  -0.6418
  O  O64  1  0.003960  0.456120  0.139120  1.0  -0.567
  O  O65  1  0.744170  0.654290  0.108500  1.0  -0.6475
  O  O66  1  0.790310  0.519250  0.000250  1.0  -0.565
  O  O67  1  0.087520  0.851400  0.195050  1.0  -0.652
  O  O68  1  0.117080  0.016140  0.118440  1.0  -0.5704
  O  O69  1  0.029090  0.686590  0.022790  1.0  -0.6363
  O  O70  1  0.108520  0.849150  0.959050  1.0  -0.5774
  O  O71  1  0.844830  0.900420  0.064700  1.0  -0.6243
  O  O72  1  0.624030  0.896300  0.099900  1.0  -0.564
  O  O73  1  0.304840  0.692560  0.251280  1.0  -0.6315
  O  O74  1  0.441780  0.692010  0.130610  1.0  -0.5687
  O  O75  1  0.510120  0.872540  0.284540  1.0  -0.6417
  O  O76  1  0.503960  0.043880  0.360880  1.0  -0.5679
  O  O77  1  0.244170  0.845710  0.391500  1.0  -0.6477
  O  O78  1  0.290310  0.980750  0.499750  1.0  -0.5646
  O  O79  1  0.587520  0.648600  0.304950  1.0  -0.6517
  O  O80  1  0.617080  0.483860  0.381560  1.0  -0.5708
  O  O81  1  0.529090  0.813410  0.477210  1.0  -0.6362
  O  O82  1  0.608520  0.650850  0.540950  1.0  -0.5778
  O  O83  1  0.344830  0.599580  0.435300  1.0  -0.6247
  O  O84  1  0.124030  0.603700  0.400100  1.0  -0.5643
  O  O85  1  0.195160  0.192560  0.751280  1.0  -0.6316
  O  O86  1  0.058220  0.192010  0.630610  1.0  -0.5693
  O  O87  1  0.989880  0.372540  0.784540  1.0  -0.6416
  O  O88  1  0.996040  0.543880  0.860880  1.0  -0.5678
  O  O89  1  0.255830  0.345710  0.891500  1.0  -0.6469
  O  O90  1  0.209690  0.480750  0.999750  1.0  -0.5648
  O  O91  1  0.912480  0.148600  0.804950  1.0  -0.6507
  O  O92  1  0.882920  0.983860  0.881560  1.0  -0.5707
  O  O93  1  0.970910  0.313410  0.977210  1.0  -0.636
  O  O94  1  0.891480  0.150850  0.040950  1.0  -0.5774
  O  O95  1  0.155170  0.099580  0.935300  1.0  -0.6253
  O  O96  1  0.375970  0.103700  0.900100  1.0  -0.5647
  O  O97  1  0.695160  0.307440  0.748720  1.0  -0.6317
  O  O98  1  0.558220  0.307990  0.869390  1.0  -0.5691
  O  O99  1  0.489880  0.127460  0.715460  1.0  -0.6415
  O  O100  1  0.496040  0.956120  0.639120  1.0  -0.567
  O  O101  1  0.755830  0.154290  0.608500  1.0  -0.6466
  O  O102  1  0.709690  0.019250  0.500250  1.0  -0.5647
  O  O103  1  0.412480  0.351400  0.695050  1.0  -0.651
  O  O104  1  0.382920  0.516140  0.618440  1.0  -0.5707
  O  O105  1  0.470910  0.186590  0.522790  1.0  -0.6363
  O  O106  1  0.391480  0.349150  0.459050  1.0  -0.5766
  O  O107  1  0.655170  0.400420  0.564700  1.0  -0.6249
  O  O108  1  0.875970  0.396300  0.599900  1.0  -0.5644
