# generated using pymatgen
data_FeH2(CO2)2
_symmetry_space_group_name_H-M   'P 1'
_cell_length_a   9.88200000
_cell_length_b   11.39830000
_cell_length_c   14.61440000
_cell_angle_alpha   91.32230000
_cell_angle_beta   90.00000000
_cell_angle_gamma   90.00000000
_symmetry_Int_Tables_number   1
_chemical_formula_structural   FeH2(CO2)2
_chemical_formula_sum   'Fe12 H24 C24 O48'
_cell_volume   1645.69843550
_cell_formula_units_Z   12
loop_
 _symmetry_equiv_pos_site_id
 _symmetry_equiv_pos_as_xyz
  1  'x, y, z'
loop_
 _atom_site_type_symbol
 _atom_site_label
 _atom_site_symmetry_multiplicity
 _atom_site_fract_x
 _atom_site_fract_y
 _atom_site_fract_z
 _atom_site_occupancy
 _atom_site_charge
  Fe  Fe1  1  0.918470  0.756050  0.131960  1.0  1.0403
  Fe  Fe2  1  0.894650  0.260170  0.687170  1.0  1.0513
  Fe  Fe3  1  0.418470  0.743950  0.368040  1.0  1.04
  Fe  Fe4  1  0.394650  0.239830  0.812830  1.0  1.0513
  Fe  Fe5  1  0.081530  0.243950  0.868040  1.0  1.0402
  Fe  Fe6  1  0.105350  0.739830  0.312830  1.0  1.0515
  Fe  Fe7  1  0.581530  0.256050  0.631960  1.0  1.0404
  Fe  Fe8  1  0.605350  0.760170  0.187170  1.0  1.0516
  Fe  Fe9  1  0.000000  0.500000  0.000000  1.0  0.8615
  Fe  Fe10  1  0.500000  0.000000  0.500000  1.0  0.8615
  Fe  Fe11  1  0.000000  0.000000  0.000000  1.0  1.1003
  Fe  Fe12  1  0.500000  0.500000  0.500000  1.0  1.1003
  H  H13  1  0.752400  0.859700  0.366100  1.0  -0.0085
  H  H14  1  0.025000  0.475800  0.265500  1.0  0.0071
  H  H15  1  0.618800  0.558700  0.037900  1.0  0.0036
  H  H16  1  0.188000  0.980300  0.232800  1.0  -0.0028
  H  H17  1  0.168100  0.700000  0.934000  1.0  0.0006
  H  H18  1  0.700100  0.991500  0.010700  1.0  0.0069
  H  H19  1  0.252400  0.640300  0.133900  1.0  -0.0087
  H  H20  1  0.525000  0.024200  0.234500  1.0  0.006
  H  H21  1  0.118800  0.941300  0.462100  1.0  0.0037
  H  H22  1  0.688000  0.519700  0.267200  1.0  -0.0027
  H  H23  1  0.668100  0.800000  0.566000  1.0  0.001
  H  H24  1  0.200100  0.508500  0.489300  1.0  0.0067
  H  H25  1  0.247600  0.140300  0.633900  1.0  -0.0088
  H  H26  1  0.975000  0.524200  0.734500  1.0  0.0061
  H  H27  1  0.381200  0.441300  0.962100  1.0  0.0036
  H  H28  1  0.812000  0.019700  0.767200  1.0  -0.0028
  H  H29  1  0.831900  0.300000  0.066000  1.0  0.0011
  H  H30  1  0.299900  0.008500  0.989300  1.0  0.007
  H  H31  1  0.747600  0.359700  0.866100  1.0  -0.0085
  H  H32  1  0.475000  0.975800  0.765500  1.0  0.0069
  H  H33  1  0.881200  0.058700  0.537900  1.0  0.0035
  H  H34  1  0.312000  0.480300  0.732800  1.0  -0.0028
  H  H35  1  0.331900  0.200000  0.434000  1.0  0.0007
  H  H36  1  0.799900  0.491500  0.510700  1.0  0.0073
  C  C37  1  0.822600  0.830110  0.330010  1.0  0.6935
  C  C38  1  0.008100  0.516090  0.212090  1.0  0.6681
  C  C39  1  0.710000  0.576200  0.045500  1.0  0.6735
  C  C40  1  0.129500  0.952910  0.187210  1.0  0.6846
  C  C41  1  0.108100  0.743750  0.970150  1.0  0.6973
  C  C42  1  0.716800  0.931340  0.051140  1.0  0.6908
  C  C43  1  0.322600  0.669890  0.169990  1.0  0.6939
  C  C44  1  0.508100  0.983910  0.287910  1.0  0.6675
  C  C45  1  0.210000  0.923800  0.454500  1.0  0.674
  C  C46  1  0.629500  0.547090  0.312790  1.0  0.6838
  C  C47  1  0.608100  0.756250  0.529850  1.0  0.698
  C  C48  1  0.216800  0.568660  0.448860  1.0  0.6906
  C  C49  1  0.177400  0.169890  0.669990  1.0  0.6938
  C  C50  1  0.991900  0.483910  0.787910  1.0  0.6677
  C  C51  1  0.290000  0.423800  0.954500  1.0  0.6736
  C  C52  1  0.870500  0.047090  0.812790  1.0  0.6836
  C  C53  1  0.891900  0.256250  0.029850  1.0  0.6971
  C  C54  1  0.283200  0.068660  0.948860  1.0  0.6903
  C  C55  1  0.677400  0.330110  0.830010  1.0  0.6936
  C  C56  1  0.491900  0.016090  0.712090  1.0  0.6682
  C  C57  1  0.790000  0.076200  0.545500  1.0  0.6736
  C  C58  1  0.370500  0.452910  0.687210  1.0  0.6843
  C  C59  1  0.391900  0.243750  0.470150  1.0  0.6967
  C  C60  1  0.783200  0.431340  0.551140  1.0  0.6905
  O  O61  1  0.796370  0.809030  0.246230  1.0  -0.6282
  O  O62  1  0.932570  0.815090  0.368290  1.0  -0.5703
  O  O63  1  0.001020  0.626740  0.218810  1.0  -0.6335
  O  O64  1  0.994600  0.456930  0.141130  1.0  -0.5543
  O  O65  1  0.739210  0.652480  0.106110  1.0  -0.6386
  O  O66  1  0.790270  0.522230  0.995030  1.0  -0.5451
  O  O67  1  0.081630  0.851190  0.196680  1.0  -0.6471
  O  O68  1  0.107000  0.019260  0.124160  1.0  -0.5728
  O  O69  1  0.030080  0.686620  0.023030  1.0  -0.6239
  O  O70  1  0.111300  0.849970  0.962670  1.0  -0.5757
  O  O71  1  0.840290  0.898620  0.059830  1.0  -0.6358
  O  O72  1  0.618400  0.890980  0.091160  1.0  -0.5617
  O  O73  1  0.296370  0.690970  0.253770  1.0  -0.6285
  O  O74  1  0.432570  0.684910  0.131710  1.0  -0.5702
  O  O75  1  0.501020  0.873260  0.281190  1.0  -0.6338
  O  O76  1  0.494600  0.043070  0.358870  1.0  -0.5539
  O  O77  1  0.239210  0.847520  0.393890  1.0  -0.6385
  O  O78  1  0.290270  0.977770  0.504970  1.0  -0.5439
  O  O79  1  0.581630  0.648810  0.303320  1.0  -0.6467
  O  O80  1  0.607000  0.480740  0.375840  1.0  -0.573
  O  O81  1  0.530080  0.813380  0.476970  1.0  -0.6254
  O  O82  1  0.611300  0.650030  0.537330  1.0  -0.5753
  O  O83  1  0.340290  0.601380  0.440170  1.0  -0.6362
  O  O84  1  0.118400  0.609020  0.408840  1.0  -0.5618
  O  O85  1  0.203630  0.190970  0.753770  1.0  -0.6283
  O  O86  1  0.067430  0.184910  0.631710  1.0  -0.5706
  O  O87  1  0.998980  0.373260  0.781190  1.0  -0.6337
  O  O88  1  0.005400  0.543070  0.858870  1.0  -0.5544
  O  O89  1  0.260790  0.347520  0.893890  1.0  -0.6383
  O  O90  1  0.209730  0.477770  0.004970  1.0  -0.5435
  O  O91  1  0.918370  0.148810  0.803320  1.0  -0.6459
  O  O92  1  0.893000  0.980740  0.875840  1.0  -0.5731
  O  O93  1  0.969920  0.313380  0.976970  1.0  -0.625
  O  O94  1  0.888700  0.150030  0.037330  1.0  -0.5748
  O  O95  1  0.159710  0.101380  0.940170  1.0  -0.6358
  O  O96  1  0.381600  0.109020  0.908840  1.0  -0.5622
  O  O97  1  0.703630  0.309030  0.746230  1.0  -0.6282
  O  O98  1  0.567430  0.315090  0.868290  1.0  -0.5708
  O  O99  1  0.498980  0.126740  0.718810  1.0  -0.6331
  O  O100  1  0.505400  0.956930  0.641130  1.0  -0.5549
  O  O101  1  0.760790  0.152480  0.606110  1.0  -0.6385
  O  O102  1  0.709730  0.022230  0.495030  1.0  -0.544
  O  O103  1  0.418370  0.351190  0.696680  1.0  -0.6463
  O  O104  1  0.393000  0.519260  0.624160  1.0  -0.5732
  O  O105  1  0.469920  0.186620  0.523030  1.0  -0.6235
  O  O106  1  0.388700  0.349970  0.462670  1.0  -0.5753
  O  O107  1  0.659710  0.398620  0.559830  1.0  -0.6354
  O  O108  1  0.881600  0.390980  0.591160  1.0  -0.5621
