# generated using pymatgen
data_FeH2(CO2)2
_symmetry_space_group_name_H-M   'P 1'
_cell_length_a   10.02050000
_cell_length_b   11.49640000
_cell_length_c   14.84520000
_cell_angle_alpha   91.54760000
_cell_angle_beta   90.00000000
_cell_angle_gamma   90.00000000
_symmetry_Int_Tables_number   1
_chemical_formula_structural   FeH2(CO2)2
_chemical_formula_sum   'Fe12 H24 C24 O48'
_cell_volume   1709.53842204
_cell_formula_units_Z   12
loop_
 _symmetry_equiv_pos_site_id
 _symmetry_equiv_pos_as_xyz
  1  'x, y, z'
loop_
 _atom_site_type_symbol
 _atom_site_label
 _atom_site_symmetry_multiplicity
 _atom_site_fract_x
 _atom_site_fract_y
 _atom_site_fract_z
 _atom_site_occupancy
 _atom_site_charge
  Fe  Fe1  1  0.925950  0.756180  0.133020  1.0  1.0348
  Fe  Fe2  1  0.881810  0.259580  0.692730  1.0  1.0533
  Fe  Fe3  1  0.425950  0.743820  0.366980  1.0  1.0347
  Fe  Fe4  1  0.381810  0.240420  0.807270  1.0  1.0536
  Fe  Fe5  1  0.074050  0.243820  0.866980  1.0  1.0342
  Fe  Fe6  1  0.118190  0.740420  0.307270  1.0  1.0539
  Fe  Fe7  1  0.574050  0.256180  0.633020  1.0  1.0346
  Fe  Fe8  1  0.618190  0.759580  0.192730  1.0  1.0537
  Fe  Fe9  1  0.000000  0.500000  0.000000  1.0  1.0622
  Fe  Fe10  1  0.500000  0.000000  0.500000  1.0  1.0622
  Fe  Fe11  1  0.000000  0.000000  0.000000  1.0  1.1008
  Fe  Fe12  1  0.500000  0.500000  0.500000  1.0  1.1008
  H  H13  1  0.768700  0.849600  0.369000  1.0  -0.0003
  H  H14  1  0.053400  0.481000  0.258300  1.0  0.0082
  H  H15  1  0.626100  0.555400  0.049100  1.0  0.0029
  H  H16  1  0.200800  0.976900  0.223600  1.0  -0.0043
  H  H17  1  0.150000  0.698600  0.926400  1.0  -0.0043
  H  H18  1  0.710300  0.994700  0.023000  1.0  0.0037
  H  H19  1  0.268700  0.650400  0.131000  1.0  -1e-04
  H  H20  1  0.553400  0.019000  0.241700  1.0  0.0082
  H  H21  1  0.126100  0.944600  0.450900  1.0  0.0036
  H  H22  1  0.700800  0.523100  0.276400  1.0  -0.0044
  H  H23  1  0.650000  0.801400  0.573600  1.0  -0.0038
  H  H24  1  0.210300  0.505300  0.477000  1.0  0.0031
  H  H25  1  0.231300  0.150400  0.631000  1.0  -0.0006
  H  H26  1  0.946600  0.519000  0.741700  1.0  0.008
  H  H27  1  0.373900  0.444600  0.950900  1.0  0.0033
  H  H28  1  0.799200  0.023100  0.776400  1.0  -0.0041
  H  H29  1  0.850000  0.301400  0.073600  1.0  -0.004
  H  H30  1  0.289700  0.005300  0.977000  1.0  0.0029
  H  H31  1  0.731300  0.349600  0.869000  1.0  -0.0009
  H  H32  1  0.446600  0.981000  0.758300  1.0  0.0079
  H  H33  1  0.873900  0.055400  0.549100  1.0  0.0028
  H  H34  1  0.299200  0.476900  0.723600  1.0  -0.0038
  H  H35  1  0.350000  0.198600  0.426400  1.0  -0.0045
  H  H36  1  0.789700  0.494700  0.523000  1.0  0.0035
  C  C37  1  0.836900  0.821860  0.331860  1.0  0.6882
  C  C38  1  0.027900  0.519620  0.206820  1.0  0.6776
  C  C39  1  0.716300  0.573570  0.053770  1.0  0.6833
  C  C40  1  0.139000  0.950240  0.181140  1.0  0.6837
  C  C41  1  0.097400  0.742620  0.966020  1.0  0.6983
  C  C42  1  0.727800  0.933550  0.061050  1.0  0.6888
  C  C43  1  0.336900  0.678140  0.168140  1.0  0.6889
  C  C44  1  0.527900  0.980380  0.293180  1.0  0.6787
  C  C45  1  0.216300  0.926430  0.446230  1.0  0.6835
  C  C46  1  0.639000  0.549760  0.318860  1.0  0.6838
  C  C47  1  0.597400  0.757380  0.533980  1.0  0.6986
  C  C48  1  0.227800  0.566450  0.438950  1.0  0.6889
  C  C49  1  0.163100  0.178140  0.668140  1.0  0.6891
  C  C50  1  0.972100  0.480380  0.793180  1.0  0.6773
  C  C51  1  0.283700  0.426430  0.946230  1.0  0.6825
  C  C52  1  0.861000  0.049760  0.818860  1.0  0.6838
  C  C53  1  0.902600  0.257380  0.033980  1.0  0.6985
  C  C54  1  0.272200  0.066450  0.938950  1.0  0.6885
  C  C55  1  0.663100  0.321860  0.831860  1.0  0.6886
  C  C56  1  0.472100  0.019620  0.706820  1.0  0.6774
  C  C57  1  0.783700  0.073570  0.553770  1.0  0.6833
  C  C58  1  0.361000  0.450240  0.681140  1.0  0.6831
  C  C59  1  0.402600  0.242620  0.466020  1.0  0.6983
  C  C60  1  0.772200  0.433550  0.561050  1.0  0.6884
  O  O61  1  0.808550  0.803560  0.249340  1.0  -0.6335
  O  O62  1  0.946730  0.806190  0.367340  1.0  -0.57
  O  O63  1  0.016090  0.628940  0.214200  1.0  -0.639
  O  O64  1  0.009070  0.459330  0.138510  1.0  -0.5733
  O  O65  1  0.747660  0.654370  0.109850  1.0  -0.6498
  O  O66  1  0.792810  0.516610  0.004970  1.0  -0.5715
  O  O67  1  0.087920  0.851620  0.194010  1.0  -0.6507
  O  O68  1  0.115510  0.014230  0.118370  1.0  -0.5737
  O  O69  1  0.026520  0.686730  0.021590  1.0  -0.6379
  O  O70  1  0.103250  0.848270  0.959540  1.0  -0.5845
  O  O71  1  0.848070  0.900000  0.065500  1.0  -0.6393
  O  O72  1  0.631250  0.893860  0.101830  1.0  -0.5743
  O  O73  1  0.308550  0.696440  0.250660  1.0  -0.6335
  O  O74  1  0.446730  0.693810  0.132660  1.0  -0.5701
  O  O75  1  0.516090  0.871060  0.285800  1.0  -0.6397
  O  O76  1  0.509070  0.040670  0.361490  1.0  -0.5729
  O  O77  1  0.247660  0.845630  0.390150  1.0  -0.6491
  O  O78  1  0.292810  0.983390  0.495030  1.0  -0.5703
  O  O79  1  0.587920  0.648380  0.305990  1.0  -0.6507
  O  O80  1  0.615510  0.485770  0.381630  1.0  -0.5739
  O  O81  1  0.526520  0.813270  0.478410  1.0  -0.6378
  O  O82  1  0.603250  0.651730  0.540460  1.0  -0.5849
  O  O83  1  0.348070  0.600000  0.434500  1.0  -0.639
  O  O84  1  0.131250  0.606140  0.398170  1.0  -0.5739
  O  O85  1  0.191450  0.196440  0.750660  1.0  -0.6335
  O  O86  1  0.053270  0.193810  0.632660  1.0  -0.5706
  O  O87  1  0.983910  0.371060  0.785800  1.0  -0.6396
  O  O88  1  0.990930  0.540670  0.861490  1.0  -0.5721
  O  O89  1  0.252340  0.345630  0.890150  1.0  -0.648
  O  O90  1  0.207190  0.483390  0.995030  1.0  -0.5707
  O  O91  1  0.912080  0.148380  0.805990  1.0  -0.6504
  O  O92  1  0.884490  0.985770  0.881630  1.0  -0.5735
  O  O93  1  0.973480  0.313270  0.978410  1.0  -0.6381
  O  O94  1  0.896750  0.151730  0.040460  1.0  -0.5842
  O  O95  1  0.151930  0.100000  0.934500  1.0  -0.6389
  O  O96  1  0.368750  0.106140  0.898170  1.0  -0.5742
  O  O97  1  0.691450  0.303560  0.749340  1.0  -0.6338
  O  O98  1  0.553270  0.306190  0.867340  1.0  -0.5705
  O  O99  1  0.483910  0.128940  0.714200  1.0  -0.6387
  O  O100  1  0.490930  0.959330  0.638510  1.0  -0.5727
  O  O101  1  0.752340  0.154370  0.609850  1.0  -0.6494
  O  O102  1  0.707190  0.016610  0.504970  1.0  -0.5716
  O  O103  1  0.412080  0.351620  0.694010  1.0  -0.6505
  O  O104  1  0.384490  0.514230  0.618370  1.0  -0.5734
  O  O105  1  0.473480  0.186730  0.521590  1.0  -0.638
  O  O106  1  0.396750  0.348270  0.459540  1.0  -0.5835
  O  O107  1  0.651930  0.400000  0.565500  1.0  -0.6392
  O  O108  1  0.868750  0.393860  0.601830  1.0  -0.5746
