# generated using pymatgen
data_FeH2(CO2)2
_symmetry_space_group_name_H-M   'P 1'
_cell_length_a   9.80580000
_cell_length_b   11.34160000
_cell_length_c   14.55340000
_cell_angle_alpha   91.19620000
_cell_angle_beta   90.00000000
_cell_angle_gamma   90.00000000
_symmetry_Int_Tables_number   1
_chemical_formula_structural   FeH2(CO2)2
_chemical_formula_sum   'Fe12 H24 C24 O48'
_cell_volume   1618.18126065
_cell_formula_units_Z   12
loop_
 _symmetry_equiv_pos_site_id
 _symmetry_equiv_pos_as_xyz
  1  'x, y, z'
loop_
 _atom_site_type_symbol
 _atom_site_label
 _atom_site_symmetry_multiplicity
 _atom_site_fract_x
 _atom_site_fract_y
 _atom_site_fract_z
 _atom_site_occupancy
 _atom_site_charge
  Fe  Fe1  1  0.916730  0.755940  0.131640  1.0  1.0381
  Fe  Fe2  1  0.898200  0.260850  0.685760  1.0  1.0557
  Fe  Fe3  1  0.416730  0.744060  0.368360  1.0  1.038
  Fe  Fe4  1  0.398200  0.239150  0.814240  1.0  1.0555
  Fe  Fe5  1  0.083270  0.244060  0.868360  1.0  1.038
  Fe  Fe6  1  0.101800  0.739150  0.314240  1.0  1.056
  Fe  Fe7  1  0.583270  0.255940  0.631640  1.0  1.0382
  Fe  Fe8  1  0.601800  0.760850  0.185760  1.0  1.0561
  Fe  Fe9  1  0.000000  0.500000  0.000000  1.0  1.0638
  Fe  Fe10  1  0.500000  0.000000  0.500000  1.0  1.0638
  Fe  Fe11  1  0.000000  0.000000  0.000000  1.0  1.0826
  Fe  Fe12  1  0.500000  0.500000  0.500000  1.0  1.0826
  H  H13  1  0.745500  0.864300  0.366000  1.0  -0.0027
  H  H14  1  0.018500  0.472800  0.269200  1.0  0.0198
  H  H15  1  0.613200  0.559000  0.034400  1.0  0.004
  H  H16  1  0.184600  0.983400  0.237000  1.0  0.0003
  H  H17  1  0.174800  0.698000  0.935600  1.0  0.0037
  H  H18  1  0.697200  0.992400  0.005500  1.0  0.0062
  H  H19  1  0.245500  0.635700  0.134000  1.0  -0.0025
  H  H20  1  0.518500  0.027200  0.230800  1.0  0.0196
  H  H21  1  0.113200  0.941000  0.465600  1.0  0.0042
  H  H22  1  0.684600  0.516600  0.263000  1.0  0.0009
  H  H23  1  0.674800  0.802000  0.564400  1.0  0.0039
  H  H24  1  0.197200  0.507600  0.494500  1.0  0.0063
  H  H25  1  0.254500  0.135700  0.634000  1.0  -0.0025
  H  H26  1  0.981500  0.527200  0.730800  1.0  0.0195
  H  H27  1  0.386800  0.441000  0.965600  1.0  0.0043
  H  H28  1  0.815400  0.016600  0.763000  1.0  0.0005
  H  H29  1  0.825200  0.302000  0.064400  1.0  0.0038
  H  H30  1  0.302800  0.007600  0.994500  1.0  0.0064
  H  H31  1  0.754500  0.364300  0.866000  1.0  -0.0027
  H  H32  1  0.481500  0.972800  0.769200  1.0  0.0196
  H  H33  1  0.886800  0.059000  0.534400  1.0  0.0044
  H  H34  1  0.315400  0.483400  0.737000  1.0  0.0002
  H  H35  1  0.325200  0.198000  0.435600  1.0  0.0039
  H  H36  1  0.802800  0.492400  0.505500  1.0  0.0061
  C  C37  1  0.818100  0.832890  0.329790  1.0  0.6806
  C  C38  1  0.003000  0.514180  0.214080  1.0  0.6607
  C  C39  1  0.707100  0.576790  0.043090  1.0  0.6666
  C  C40  1  0.126900  0.954790  0.189090  1.0  0.6682
  C  C41  1  0.111900  0.743270  0.971270  1.0  0.6845
  C  C42  1  0.713600  0.931380  0.047880  1.0  0.6723
  C  C43  1  0.318100  0.667110  0.170210  1.0  0.6816
  C  C44  1  0.503000  0.985820  0.285920  1.0  0.6605
  C  C45  1  0.207100  0.923210  0.456910  1.0  0.6669
  C  C46  1  0.626900  0.545210  0.310910  1.0  0.6677
  C  C47  1  0.611900  0.756730  0.528730  1.0  0.684
  C  C48  1  0.213600  0.568620  0.452120  1.0  0.6725
  C  C49  1  0.181900  0.167110  0.670210  1.0  0.6813
  C  C50  1  0.997000  0.485820  0.785920  1.0  0.6604
  C  C51  1  0.292900  0.423210  0.956910  1.0  0.6665
  C  C52  1  0.873100  0.045210  0.810910  1.0  0.6672
  C  C53  1  0.888100  0.256730  0.028730  1.0  0.6841
  C  C54  1  0.286400  0.068620  0.952120  1.0  0.6727
  C  C55  1  0.681900  0.332890  0.829790  1.0  0.6809
  C  C56  1  0.497000  0.014180  0.714080  1.0  0.6605
  C  C57  1  0.792900  0.076790  0.543090  1.0  0.6664
  C  C58  1  0.373100  0.454790  0.689090  1.0  0.6675
  C  C59  1  0.388100  0.243270  0.471270  1.0  0.685
  C  C60  1  0.786400  0.431380  0.547880  1.0  0.6723
  O  O61  1  0.793440  0.810980  0.244940  1.0  -0.6251
  O  O62  1  0.928360  0.816710  0.368910  1.0  -0.5698
  O  O63  1  0.996310  0.626000  0.220210  1.0  -0.637
  O  O64  1  0.991100  0.454610  0.142210  1.0  -0.5762
  O  O65  1  0.736330  0.652380  0.105090  1.0  -0.6406
  O  O66  1  0.789350  0.523560  0.992560  1.0  -0.5671
  O  O67  1  0.080190  0.850660  0.197180  1.0  -0.6476
  O  O68  1  0.105030  0.021840  0.125580  1.0  -0.5633
  O  O69  1  0.031260  0.686250  0.023760  1.0  -0.6386
  O  O70  1  0.115380  0.850620  0.962820  1.0  -0.5718
  O  O71  1  0.837330  0.898060  0.057870  1.0  -0.6251
  O  O72  1  0.613200  0.891370  0.088470  1.0  -0.5688
  O  O73  1  0.293440  0.689020  0.255060  1.0  -0.6254
  O  O74  1  0.428360  0.683290  0.131090  1.0  -0.569
  O  O75  1  0.496310  0.874000  0.279790  1.0  -0.637
  O  O76  1  0.491100  0.045390  0.357790  1.0  -0.5765
  O  O77  1  0.236330  0.847620  0.394910  1.0  -0.6401
  O  O78  1  0.289350  0.976440  0.507440  1.0  -0.5669
  O  O79  1  0.580190  0.649340  0.302820  1.0  -0.647
  O  O80  1  0.605030  0.478160  0.374420  1.0  -0.5638
  O  O81  1  0.531260  0.813750  0.476240  1.0  -0.639
  O  O82  1  0.615380  0.649380  0.537180  1.0  -0.5717
  O  O83  1  0.337330  0.601940  0.442130  1.0  -0.6253
  O  O84  1  0.113200  0.608630  0.411530  1.0  -0.5692
  O  O85  1  0.206560  0.189020  0.755060  1.0  -0.6254
  O  O86  1  0.071640  0.183290  0.631090  1.0  -0.5696
  O  O87  1  0.003690  0.374000  0.779790  1.0  -0.6371
  O  O88  1  0.008900  0.545390  0.857790  1.0  -0.577
  O  O89  1  0.263670  0.347620  0.894910  1.0  -0.6403
  O  O90  1  0.210650  0.476440  0.007440  1.0  -0.5672
  O  O91  1  0.919810  0.149340  0.802820  1.0  -0.6465
  O  O92  1  0.894970  0.978160  0.874420  1.0  -0.5641
  O  O93  1  0.968740  0.313750  0.976240  1.0  -0.6391
  O  O94  1  0.884620  0.149380  0.037180  1.0  -0.5715
  O  O95  1  0.162670  0.101940  0.942130  1.0  -0.6255
  O  O96  1  0.386800  0.108630  0.911530  1.0  -0.5689
  O  O97  1  0.706560  0.310980  0.744940  1.0  -0.6252
  O  O98  1  0.571640  0.316710  0.868910  1.0  -0.5705
  O  O99  1  0.503690  0.126000  0.720210  1.0  -0.6371
  O  O100  1  0.508900  0.954610  0.642210  1.0  -0.5767
  O  O101  1  0.763670  0.152380  0.605090  1.0  -0.6409
  O  O102  1  0.710650  0.023560  0.492560  1.0  -0.567
  O  O103  1  0.419810  0.350660  0.697180  1.0  -0.6474
  O  O104  1  0.394970  0.521840  0.625580  1.0  -0.5635
  O  O105  1  0.468740  0.186250  0.523760  1.0  -0.6386
  O  O106  1  0.384620  0.350620  0.462820  1.0  -0.5715
  O  O107  1  0.662670  0.398060  0.557870  1.0  -0.6254
  O  O108  1  0.886800  0.391370  0.588470  1.0  -0.569
