# generated using pymatgen
data_FeH2(CO2)2
_symmetry_space_group_name_H-M   'P 1'
_cell_length_a   9.75770000
_cell_length_b   11.31900000
_cell_length_c   14.51560000
_cell_angle_alpha   91.06170000
_cell_angle_beta   90.00000000
_cell_angle_gamma   90.00000000
_symmetry_Int_Tables_number   1
_chemical_formula_structural   FeH2(CO2)2
_chemical_formula_sum   'Fe12 H24 C24 O48'
_cell_volume   1602.93513411
_cell_formula_units_Z   12
loop_
 _symmetry_equiv_pos_site_id
 _symmetry_equiv_pos_as_xyz
  1  'x, y, z'
loop_
 _atom_site_type_symbol
 _atom_site_label
 _atom_site_symmetry_multiplicity
 _atom_site_fract_x
 _atom_site_fract_y
 _atom_site_fract_z
 _atom_site_occupancy
 _atom_site_charge
  Fe  Fe1  1  0.915710  0.755870  0.131430  1.0  1.0348
  Fe  Fe2  1  0.900210  0.261340  0.685010  1.0  1.0569
  Fe  Fe3  1  0.415710  0.744130  0.368570  1.0  1.0346
  Fe  Fe4  1  0.400210  0.238660  0.814990  1.0  1.0568
  Fe  Fe5  1  0.084290  0.244130  0.868570  1.0  1.0352
  Fe  Fe6  1  0.099790  0.738660  0.314990  1.0  1.0569
  Fe  Fe7  1  0.584290  0.255870  0.631430  1.0  1.0353
  Fe  Fe8  1  0.599790  0.761340  0.185010  1.0  1.0572
  Fe  Fe9  1  0.000000  0.500000  0.000000  1.0  1.0646
  Fe  Fe10  1  0.500000  0.000000  0.500000  1.0  1.0646
  Fe  Fe11  1  0.000000  0.000000  0.000000  1.0  1.0869
  Fe  Fe12  1  0.500000  0.500000  0.500000  1.0  1.0869
  H  H13  1  0.743400  0.867100  0.365100  1.0  0.0032
  H  H14  1  0.016200  0.471500  0.269800  1.0  0.0113
  H  H15  1  0.611200  0.559500  0.032900  1.0  0.0092
  H  H16  1  0.183800  0.983800  0.238400  1.0  0.0022
  H  H17  1  0.178600  0.697600  0.936900  1.0  0.0192
  H  H18  1  0.695700  0.991800  0.002900  1.0  0.0077
  H  H19  1  0.243400  0.632900  0.134900  1.0  0.0027
  H  H20  1  0.516200  0.028500  0.230200  1.0  0.011
  H  H21  1  0.111200  0.940500  0.467100  1.0  0.0093
  H  H22  1  0.683800  0.516200  0.261600  1.0  0.0027
  H  H23  1  0.678600  0.802400  0.563100  1.0  0.0197
  H  H24  1  0.195700  0.508200  0.497100  1.0  0.0076
  H  H25  1  0.256600  0.132900  0.634900  1.0  0.0039
  H  H26  1  0.983800  0.528500  0.730200  1.0  0.011
  H  H27  1  0.388800  0.440500  0.967100  1.0  0.0096
  H  H28  1  0.816200  0.016200  0.761600  1.0  0.0022
  H  H29  1  0.821400  0.302400  0.063100  1.0  0.0195
  H  H30  1  0.304300  0.008200  0.997100  1.0  0.0076
  H  H31  1  0.756600  0.367100  0.865100  1.0  0.0041
  H  H32  1  0.483800  0.971500  0.769800  1.0  0.0112
  H  H33  1  0.888800  0.059500  0.532900  1.0  0.01
  H  H34  1  0.316200  0.483800  0.738400  1.0  0.0023
  H  H35  1  0.321400  0.197600  0.436900  1.0  0.0192
  H  H36  1  0.804300  0.491800  0.502900  1.0  0.0074
  C  C37  1  0.816200  0.834470  0.329370  1.0  0.6743
  C  C38  1  0.000900  0.513230  0.214530  1.0  0.6543
  C  C39  1  0.705500  0.577090  0.041890  1.0  0.6681
  C  C40  1  0.126400  0.955270  0.190070  1.0  0.6632
  C  C41  1  0.114200  0.742980  0.971680  1.0  0.6822
  C  C42  1  0.711600  0.931310  0.046110  1.0  0.6733
  C  C43  1  0.316200  0.665530  0.170630  1.0  0.675
  C  C44  1  0.500900  0.986770  0.285470  1.0  0.6543
  C  C45  1  0.205500  0.922910  0.458110  1.0  0.6686
  C  C46  1  0.626400  0.544730  0.309930  1.0  0.662
  C  C47  1  0.614200  0.757020  0.528320  1.0  0.6818
  C  C48  1  0.211600  0.568690  0.453890  1.0  0.6734
  C  C49  1  0.183800  0.165530  0.670630  1.0  0.6755
  C  C50  1  0.999100  0.486770  0.785470  1.0  0.6546
  C  C51  1  0.294500  0.422910  0.958110  1.0  0.6682
  C  C52  1  0.873600  0.044730  0.809930  1.0  0.6617
  C  C53  1  0.885800  0.257020  0.028320  1.0  0.6815
  C  C54  1  0.288400  0.068690  0.953890  1.0  0.6737
  C  C55  1  0.683800  0.334470  0.829370  1.0  0.6754
  C  C56  1  0.499100  0.013230  0.714530  1.0  0.6544
  C  C57  1  0.794500  0.077090  0.541890  1.0  0.668
  C  C58  1  0.373600  0.455270  0.690070  1.0  0.6626
  C  C59  1  0.385800  0.242980  0.471680  1.0  0.6823
  C  C60  1  0.788400  0.431310  0.546110  1.0  0.6734
  O  O61  1  0.791490  0.812300  0.244500  1.0  -0.6306
  O  O62  1  0.926000  0.817450  0.369490  1.0  -0.569
  O  O63  1  0.993700  0.625320  0.221090  1.0  -0.6383
  O  O64  1  0.989830  0.453920  0.142550  1.0  -0.5755
  O  O65  1  0.734710  0.652240  0.104380  1.0  -0.64
  O  O66  1  0.788710  0.524160  0.991160  1.0  -0.5656
  O  O67  1  0.079960  0.850410  0.197590  1.0  -0.6474
  O  O68  1  0.104180  0.023060  0.126290  1.0  -0.5601
  O  O69  1  0.031770  0.686330  0.023870  1.0  -0.6417
  O  O70  1  0.117170  0.851120  0.962780  1.0  -0.5676
  O  O71  1  0.835930  0.897970  0.056990  1.0  -0.63
  O  O72  1  0.609850  0.891780  0.086790  1.0  -0.5706
  O  O73  1  0.291490  0.687700  0.255500  1.0  -0.6295
  O  O74  1  0.426000  0.682550  0.130510  1.0  -0.5685
  O  O75  1  0.493700  0.874680  0.278910  1.0  -0.6385
  O  O76  1  0.489830  0.046080  0.357450  1.0  -0.576
  O  O77  1  0.234710  0.847760  0.395620  1.0  -0.6392
  O  O78  1  0.288710  0.975840  0.508840  1.0  -0.5654
  O  O79  1  0.579960  0.649590  0.302410  1.0  -0.6469
  O  O80  1  0.604180  0.476940  0.373710  1.0  -0.5607
  O  O81  1  0.531770  0.813670  0.476130  1.0  -0.6416
  O  O82  1  0.617170  0.648880  0.537220  1.0  -0.5669
  O  O83  1  0.335930  0.602030  0.443010  1.0  -0.6303
  O  O84  1  0.109850  0.608220  0.413210  1.0  -0.571
  O  O85  1  0.208510  0.187700  0.755500  1.0  -0.6295
  O  O86  1  0.074000  0.182550  0.630510  1.0  -0.5696
  O  O87  1  0.006300  0.374680  0.778910  1.0  -0.6385
  O  O88  1  0.010170  0.546080  0.857450  1.0  -0.5766
  O  O89  1  0.265290  0.347760  0.895620  1.0  -0.6397
  O  O90  1  0.211290  0.475840  0.008840  1.0  -0.566
  O  O91  1  0.920040  0.149590  0.802410  1.0  -0.6468
  O  O92  1  0.895820  0.976940  0.873710  1.0  -0.5612
  O  O93  1  0.968230  0.313670  0.976130  1.0  -0.6415
  O  O94  1  0.882830  0.148880  0.037220  1.0  -0.5668
  O  O95  1  0.164070  0.102030  0.943010  1.0  -0.6301
  O  O96  1  0.390150  0.108220  0.913210  1.0  -0.571
  O  O97  1  0.708510  0.312300  0.744500  1.0  -0.6308
  O  O98  1  0.574000  0.317450  0.869490  1.0  -0.5696
  O  O99  1  0.506300  0.125320  0.721090  1.0  -0.6382
  O  O100  1  0.510170  0.953920  0.642550  1.0  -0.5761
  O  O101  1  0.765290  0.152240  0.604380  1.0  -0.6401
  O  O102  1  0.711290  0.024160  0.491160  1.0  -0.5658
  O  O103  1  0.420040  0.350410  0.697590  1.0  -0.6474
  O  O104  1  0.395820  0.523060  0.626290  1.0  -0.5609
  O  O105  1  0.468230  0.186330  0.523870  1.0  -0.6415
  O  O106  1  0.382830  0.351120  0.462780  1.0  -0.5673
  O  O107  1  0.664070  0.397970  0.556990  1.0  -0.6296
  O  O108  1  0.890150  0.391780  0.586790  1.0  -0.5708
