# generated using pymatgen
data_FeH2(CO2)2
_symmetry_space_group_name_H-M   'P 1'
_cell_length_a   9.93690000
_cell_length_b   11.44430000
_cell_length_c   14.81420000
_cell_angle_alpha   91.47470000
_cell_angle_beta   90.00000000
_cell_angle_gamma   90.00000000
_symmetry_Int_Tables_number   1
_chemical_formula_structural   FeH2(CO2)2
_chemical_formula_sum   'Fe12 H24 C24 O48'
_cell_volume   1684.12564331
_cell_formula_units_Z   12
loop_
 _symmetry_equiv_pos_site_id
 _symmetry_equiv_pos_as_xyz
  1  'x, y, z'
loop_
 _atom_site_type_symbol
 _atom_site_label
 _atom_site_symmetry_multiplicity
 _atom_site_fract_x
 _atom_site_fract_y
 _atom_site_fract_z
 _atom_site_occupancy
 _atom_site_charge
  Fe  Fe1  1  0.924450  0.756370  0.132940  1.0  1.0527
  Fe  Fe2  1  0.615300  0.759960  0.192010  1.0  1.0516
  Fe  Fe3  1  0.424450  0.743630  0.367060  1.0  1.0527
  Fe  Fe4  1  0.115300  0.740040  0.307990  1.0  1.0514
  Fe  Fe5  1  0.075550  0.243630  0.867060  1.0  1.0524
  Fe  Fe6  1  0.384700  0.240040  0.807990  1.0  1.0512
  Fe  Fe7  1  0.575550  0.256370  0.632940  1.0  1.0524
  Fe  Fe8  1  0.884700  0.259960  0.692010  1.0  1.0513
  Fe  Fe9  1  0.000000  0.500000  0.000000  1.0  0.8494
  Fe  Fe10  1  0.500000  0.000000  0.500000  1.0  0.8494
  Fe  Fe11  1  0.000000  0.000000  0.000000  1.0  1.0971
  Fe  Fe12  1  0.500000  0.500000  0.500000  1.0  1.0971
  H  H13  1  0.763300  0.854200  0.369400  1.0  -0.0008
  H  H14  1  0.047100  0.477200  0.260800  1.0  0.0165
  H  H15  1  0.620300  0.556300  0.046200  1.0  0.0076
  H  H16  1  0.202700  0.978800  0.225400  1.0  0.002
  H  H17  1  0.158600  0.696500  0.927700  1.0  0.0197
  H  H18  1  0.706600  0.996600  0.019500  1.0  0.0098
  H  H19  1  0.263300  0.645800  0.130600  1.0  -0.0009
  H  H20  1  0.547100  0.022800  0.239200  1.0  0.0159
  H  H21  1  0.120300  0.943700  0.453800  1.0  0.0079
  H  H22  1  0.702700  0.521200  0.274600  1.0  0.0018
  H  H23  1  0.658600  0.803500  0.572300  1.0  0.0203
  H  H24  1  0.206600  0.503400  0.480500  1.0  0.0098
  H  H25  1  0.236700  0.145800  0.630600  1.0  -0.0002
  H  H26  1  0.952900  0.522800  0.739200  1.0  0.0162
  H  H27  1  0.379700  0.443700  0.953800  1.0  0.0078
  H  H28  1  0.797300  0.021200  0.774600  1.0  0.0016
  H  H29  1  0.841400  0.303500  0.072300  1.0  0.02
  H  H30  1  0.293400  0.003400  0.980500  1.0  0.0102
  H  H31  1  0.736700  0.354200  0.869400  1.0  -0.0002
  H  H32  1  0.452900  0.977200  0.760800  1.0  0.0167
  H  H33  1  0.879700  0.056300  0.546200  1.0  0.0078
  H  H34  1  0.297300  0.478800  0.725400  1.0  0.0022
  H  H35  1  0.341400  0.196500  0.427700  1.0  0.0195
  H  H36  1  0.793400  0.496600  0.519500  1.0  0.0103
  C  C37  1  0.833600  0.824200  0.332000  1.0  0.6756
  C  C38  1  0.023200  0.517290  0.207790  1.0  0.6597
  C  C39  1  0.713300  0.574550  0.051450  1.0  0.6627
  C  C40  1  0.139400  0.951260  0.181760  1.0  0.6752
  C  C41  1  0.102200  0.742080  0.966680  1.0  0.678
  C  C42  1  0.724100  0.934600  0.059300  1.0  0.6833
  C  C43  1  0.333600  0.675800  0.168000  1.0  0.6762
  C  C44  1  0.523200  0.982710  0.292210  1.0  0.6603
  C  C45  1  0.213300  0.925450  0.448550  1.0  0.6629
  C  C46  1  0.639400  0.548740  0.318240  1.0  0.6743
  C  C47  1  0.602200  0.757920  0.533320  1.0  0.6782
  C  C48  1  0.224100  0.565400  0.440700  1.0  0.6836
  C  C49  1  0.166400  0.175800  0.668000  1.0  0.677
  C  C50  1  0.976800  0.482710  0.792210  1.0  0.659
  C  C51  1  0.286700  0.425450  0.948550  1.0  0.6624
  C  C52  1  0.860600  0.048740  0.818240  1.0  0.6737
  C  C53  1  0.897800  0.257920  0.033320  1.0  0.6784
  C  C54  1  0.275900  0.065400  0.940700  1.0  0.6837
  C  C55  1  0.666400  0.324200  0.832000  1.0  0.6767
  C  C56  1  0.476800  0.017290  0.707790  1.0  0.6601
  C  C57  1  0.786700  0.074550  0.551450  1.0  0.6623
  C  C58  1  0.360600  0.451260  0.681760  1.0  0.6741
  C  C59  1  0.397800  0.242080  0.466680  1.0  0.6786
  C  C60  1  0.775900  0.434600  0.559300  1.0  0.6831
  O  O61  1  0.805880  0.805930  0.248970  1.0  -0.6312
  O  O62  1  0.443350  0.693390  0.131270  1.0  -0.563
  O  O63  1  0.012390  0.627850  0.214820  1.0  -0.6362
  O  O64  1  0.005500  0.457430  0.138870  1.0  -0.5528
  O  O65  1  0.745350  0.654420  0.108710  1.0  -0.6412
  O  O66  1  0.791260  0.518170  0.001850  1.0  -0.5489
  O  O67  1  0.087220  0.851400  0.194700  1.0  -0.6506
  O  O68  1  0.116010  0.015520  0.118420  1.0  -0.5653
  O  O69  1  0.027940  0.686730  0.022440  1.0  -0.6137
  O  O70  1  0.106590  0.848760  0.959490  1.0  -0.5743
  O  O71  1  0.846230  0.900080  0.064800  1.0  -0.6276
  O  O72  1  0.626810  0.895490  0.100550  1.0  -0.562
  O  O73  1  0.305880  0.694070  0.251030  1.0  -0.6306
  O  O74  1  0.943350  0.806610  0.368730  1.0  -0.5627
  O  O75  1  0.512390  0.872150  0.285180  1.0  -0.6366
  O  O76  1  0.505500  0.042570  0.361130  1.0  -0.5548
  O  O77  1  0.245350  0.845580  0.391290  1.0  -0.6407
  O  O78  1  0.291260  0.981830  0.498150  1.0  -0.5476
  O  O79  1  0.587220  0.648600  0.305300  1.0  -0.6505
  O  O80  1  0.616010  0.484480  0.381580  1.0  -0.5658
  O  O81  1  0.527940  0.813270  0.477560  1.0  -0.6145
  O  O82  1  0.606590  0.651240  0.540510  1.0  -0.5741
  O  O83  1  0.346230  0.599920  0.435200  1.0  -0.6276
  O  O84  1  0.126810  0.604510  0.399450  1.0  -0.5624
  O  O85  1  0.194120  0.194070  0.751030  1.0  -0.6308
  O  O86  1  0.556650  0.306610  0.868730  1.0  -0.563
  O  O87  1  0.987610  0.372150  0.785180  1.0  -0.6365
  O  O88  1  0.994500  0.542570  0.861130  1.0  -0.555
  O  O89  1  0.254650  0.345580  0.891290  1.0  -0.6409
  O  O90  1  0.208740  0.481830  0.998150  1.0  -0.5479
  O  O91  1  0.912780  0.148600  0.805300  1.0  -0.6496
  O  O92  1  0.883990  0.984480  0.881580  1.0  -0.5657
  O  O93  1  0.972060  0.313270  0.977560  1.0  -0.6145
  O  O94  1  0.893410  0.151240  0.040510  1.0  -0.5738
  O  O95  1  0.153770  0.099920  0.935200  1.0  -0.6281
  O  O96  1  0.373190  0.104510  0.899450  1.0  -0.5624
  O  O97  1  0.694120  0.305930  0.748970  1.0  -0.6314
  O  O98  1  0.056650  0.193390  0.631270  1.0  -0.5632
  O  O99  1  0.487610  0.127850  0.714820  1.0  -0.6359
  O  O100  1  0.494500  0.957430  0.638870  1.0  -0.5529
  O  O101  1  0.754650  0.154420  0.608710  1.0  -0.641
  O  O102  1  0.708740  0.018170  0.501850  1.0  -0.5489
  O  O103  1  0.412780  0.351400  0.694700  1.0  -0.6499
  O  O104  1  0.383990  0.515520  0.618420  1.0  -0.5656
  O  O105  1  0.472060  0.186730  0.522440  1.0  -0.6139
  O  O106  1  0.393410  0.348760  0.459490  1.0  -0.5738
  O  O107  1  0.653770  0.400080  0.564800  1.0  -0.6278
  O  O108  1  0.873190  0.395490  0.600550  1.0  -0.5621
