# generated using pymatgen
data_Cu2H32(C9O2)5
_symmetry_space_group_name_H-M   'P 1'
_cell_length_a   20.63900000
_cell_length_b   22.92300000
_cell_length_c   23.24700000
_cell_angle_alpha   82.71800000
_cell_angle_beta   71.06100000
_cell_angle_gamma   80.35200000
_symmetry_Int_Tables_number   1
_chemical_formula_structural   Cu2H32(C9O2)5
_chemical_formula_sum   'Cu8 H128 C180 O40'
_cell_volume   10224.87554379
_cell_formula_units_Z   4
loop_
 _symmetry_equiv_pos_site_id
 _symmetry_equiv_pos_as_xyz
  1  'x, y, z'
loop_
 _atom_site_type_symbol
 _atom_site_label
 _atom_site_symmetry_multiplicity
 _atom_site_fract_x
 _atom_site_fract_y
 _atom_site_fract_z
 _atom_site_occupancy
 _atom_site_charge
  Cu  Cu1  1  0.041790  0.262870  0.277230  1.0  0.9409
  Cu  Cu2  1  0.958210  0.737130  0.722770  1.0  0.9416
  Cu  Cu3  1  0.041410  0.763210  0.777230  1.0  0.9212
  Cu  Cu4  1  0.958590  0.236790  0.222770  1.0  0.921
  Cu  Cu5  1  0.555450  0.225540  0.262670  1.0  0.9087
  Cu  Cu6  1  0.443930  0.274890  0.237290  1.0  0.9254
  Cu  Cu7  1  0.556070  0.725110  0.762710  1.0  0.9246
  Cu  Cu8  1  0.444550  0.774460  0.737330  1.0  0.9084
  H  H9  1  0.678200  0.670500  0.587900  1.0  0.1062
  H  H10  1  0.301600  0.236300  0.735800  1.0  0.1006
  H  H11  1  0.562700  0.680900  0.263600  1.0  0.1025
  H  H12  1  0.647100  0.035200  0.970500  1.0  0.0966
  H  H13  1  0.069500  0.069100  0.156500  1.0  0.104
  H  H14  1  0.856200  0.019200  0.869100  1.0  0.1126
  H  H15  1  0.705900  0.473500  0.494200  1.0  0.1274
  H  H16  1  0.459000  0.957200  0.332900  1.0  0.121
  H  H17  1  0.175400  0.099200  0.266900  1.0  0.1043
  H  H18  1  0.942800  0.195600  0.460600  1.0  0.1042
  H  H19  1  0.140200  0.478800  0.634000  1.0  0.1164
  H  H20  1  0.616600  0.094300  0.732700  1.0  0.112
  H  H21  1  0.323100  0.829300  0.912700  1.0  0.1074
  H  H22  1  0.682000  0.269300  0.692200  1.0  0.083
  H  H23  1  0.302900  0.528600  0.571400  1.0  0.1085
  H  H24  1  0.821500  0.040800  0.518500  1.0  0.0906
  H  H25  1  0.569200  0.235100  0.798300  1.0  0.0872
  H  H26  1  0.294100  0.526500  0.505800  1.0  0.1251
  H  H27  1  0.559200  0.175800  0.774400  1.0  0.0987
  H  H28  1  0.318000  0.730700  0.307800  1.0  0.0823
  H  H29  1  0.749600  0.489900  0.259800  1.0  0.1048
  H  H30  1  0.792800  0.987900  0.499700  1.0  0.127
  H  H31  1  0.246500  0.908400  0.257800  1.0  0.111
  H  H32  1  0.143800  0.980800  0.130900  1.0  0.1121
  H  H33  1  0.493600  0.218700  0.053700  1.0  0.1061
  H  H34  1  0.158400  0.467900  0.989300  1.0  0.1149
  H  H35  1  0.817500  0.478500  0.060300  1.0  0.1219
  H  H36  1  0.822300  0.400700  0.234900  1.0  0.1045
  H  H37  1  0.543100  0.183900  0.956500  1.0  0.1162
  H  H38  1  0.270100  0.544900  0.843100  1.0  0.1072
  H  H39  1  0.697100  0.471400  0.428600  1.0  0.1083
  H  H40  1  0.568000  0.235100  0.729800  1.0  0.0962
  H  H41  1  0.703800  0.768300  0.193600  1.0  0.0973
  H  H42  1  0.359900  0.489300  0.521600  1.0  0.1087
  H  H43  1  0.199200  0.322900  0.120300  1.0  0.1083
  H  H44  1  0.728100  0.636600  0.490300  1.0  0.113
  H  H45  1  0.494500  0.716500  0.554800  1.0  0.1072
  H  H46  1  0.419000  0.260900  0.781000  1.0  0.1113
  H  H47  1  0.505200  0.046900  0.305700  1.0  0.1081
  H  H48  1  0.539600  0.545300  0.171300  1.0  0.1244
  H  H49  1  0.544400  0.682600  0.457200  1.0  0.117
  H  H50  1  0.702700  0.988400  0.992600  1.0  0.1445
  H  H51  1  0.801400  0.178200  0.379200  1.0  0.1074
  H  H52  1  0.681200  0.268800  0.761400  1.0  0.0874
  H  H53  1  0.729900  0.455100  0.156900  1.0  0.1077
  H  H54  1  0.208100  0.010800  0.431400  1.0  0.1054
  H  H55  1  0.131200  0.337400  0.945000  1.0  0.1106
  H  H56  1  0.494800  0.953100  0.694300  1.0  0.1078
  H  H57  1  0.698400  0.763700  0.264200  1.0  0.1015
  H  H58  1  0.753800  0.590400  0.243300  1.0  0.1144
  H  H59  1  0.750400  0.989100  0.758800  1.0  0.1007
  H  H60  1  0.271900  0.363400  0.509700  1.0  0.1133
  H  H61  1  0.432000  0.764900  0.270200  1.0  0.096
  H  H62  1  0.271500  0.856200  0.527000  1.0  0.1125
  H  H63  1  0.246200  0.409600  0.756700  1.0  0.113
  H  H64  1  0.932500  0.432000  0.341100  1.0  0.1057
  H  H65  1  0.684500  0.865400  0.687600  1.0  0.1045
  H  H66  1  0.811000  0.479400  0.993400  1.0  0.1534
  H  H67  1  0.749700  0.703300  0.124400  1.0  0.1089
  H  H68  1  0.272600  0.355800  0.026000  1.0  0.1185
  H  H69  1  0.249600  0.010900  0.241200  1.0  0.1019
  H  H70  1  0.067500  0.568000  0.658900  1.0  0.1057
  H  H71  1  0.383400  0.905700  0.267300  1.0  0.1123
  H  H72  1  0.942200  0.695500  0.960800  1.0  0.1064
  H  H73  1  0.057200  0.804400  0.539400  1.0  0.1045
  H  H74  1  0.250400  0.510100  0.740200  1.0  0.1049
  H  H75  1  0.301900  0.011600  0.074900  1.0  0.1222
  H  H76  1  0.491700  0.456500  0.201200  1.0  0.105
  H  H77  1  0.620600  0.591500  0.234700  1.0  0.1125
  H  H78  1  0.198600  0.821800  0.620800  1.0  0.1073
  H  H79  1  0.508300  0.543500  0.798800  1.0  0.1048
  H  H80  1  0.178500  0.959200  0.481500  1.0  0.0902
  H  H81  1  0.321800  0.329500  0.412100  1.0  0.106
  H  H82  1  0.640100  0.510700  0.478400  1.0  0.11
  H  H83  1  0.791900  0.989200  0.568600  1.0  0.1064
  H  H84  1  0.841600  0.532100  0.010700  1.0  0.1137
  H  H85  1  0.506400  0.781300  0.946300  1.0  0.1066
  H  H86  1  0.352900  0.964800  0.029500  1.0  0.0939
  H  H87  1  0.253200  0.763600  0.287600  1.0  0.0884
  H  H88  1  0.317900  0.633800  0.813200  1.0  0.1069
  H  H89  1  0.698100  0.988400  0.925100  1.0  0.1234
  H  H90  1  0.760000  0.724400  0.217800  1.0  0.1053
  H  H91  1  0.379400  0.408500  0.765300  1.0  0.1132
  H  H92  1  0.296200  0.231700  0.806400  1.0  0.096
  H  H93  1  0.750000  0.203200  0.623300  1.0  0.1049
  H  H94  1  0.824600  0.900800  0.733100  1.0  0.1042
  H  H95  1  0.930500  0.930900  0.843500  1.0  0.1041
  H  H96  1  0.460400  0.454700  0.828700  1.0  0.1235
  H  H97  1  0.620700  0.704500  0.361300  1.0  0.1075
  H  H98  1  0.440800  0.824200  0.225600  1.0  0.0984
  H  H99  1  0.379000  0.794200  0.139600  1.0  0.0975
  H  H100  1  0.753500  0.091600  0.742200  1.0  0.1121
  H  H101  1  0.726300  0.135900  0.990000  1.0  0.1111
  H  H102  1  0.505500  0.283500  0.445200  1.0  0.107
  H  H103  1  0.379300  0.295500  0.638700  1.0  0.108
  H  H104  1  0.130100  0.838800  0.445600  1.0  0.1134
  H  H105  1  0.189000  0.520600  0.006600  1.0  0.1517
  H  H106  1  0.426300  0.261400  0.710300  1.0  0.0984
  H  H107  1  0.273700  0.864100  0.010000  1.0  0.111
  H  H108  1  0.057800  0.304500  0.039200  1.0  0.1065
  H  H109  1  0.868800  0.662600  0.055000  1.0  0.1103
  H  H110  1  0.541000  0.042800  0.667100  1.0  0.1217
  H  H111  1  0.746800  0.236400  0.712400  1.0  0.0895
  H  H112  1  0.250000  0.796800  0.376700  1.0  0.1045
  H  H113  1  0.676900  0.170700  0.087300  1.0  0.1076
  H  H114  1  0.318800  0.731200  0.238600  1.0  0.0842
  H  H115  1  0.297300  0.011600  0.007400  1.0  0.142
  H  H116  1  0.573700  0.738600  0.289700  1.0  0.0988
  H  H117  1  0.728500  0.143800  0.473000  1.0  0.1128
  H  H118  1  0.240000  0.275600  0.782200  1.0  0.1031
  H  H119  1  0.207200  0.012100  0.500300  1.0  0.1284
  H  H120  1  0.269300  0.044800  0.339700  1.0  0.0996
  H  H121  1  0.730700  0.955200  0.660300  1.0  0.0995
  H  H122  1  0.437300  0.319100  0.736400  1.0  0.1024
  H  H123  1  0.177700  0.599300  0.765100  1.0  0.1047
  H  H124  1  0.727400  0.644200  0.974000  1.0  0.1188
  H  H125  1  0.869900  0.161200  0.554400  1.0  0.113
  H  H126  1  0.455600  0.317400  0.542800  1.0  0.117
  H  H127  1  0.859800  0.521200  0.366000  1.0  0.1169
  H  H128  1  0.182500  0.521500  0.939700  1.0  0.1222
  H  H129  1  0.315500  0.134600  0.312400  1.0  0.1048
  H  H130  1  0.800800  0.677100  0.879700  1.0  0.108
  H  H131  1  0.581000  0.739100  0.219000  1.0  0.111
  H  H132  1  0.682100  0.366200  0.186800  1.0  0.1061
  H  H133  1  0.250300  0.296700  0.875600  1.0  0.1079
  H  H134  1  0.430800  0.764900  0.201700  1.0  0.0885
  H  H135  1  0.621000  0.205800  0.860400  1.0  0.0966
  H  H136  1  0.456900  0.816100  0.043500  1.0  0.1162
  C  C137  1  0.649700  0.173400  0.060700  1.0  -0.0356
  C  C138  1  0.929400  0.351700  0.270300  1.0  0.7152
  C  C139  1  0.796300  0.012400  0.816400  1.0  0.0711
  C  C140  1  0.667600  0.065300  0.648300  1.0  0.0059
  C  C141  1  0.457300  0.046500  0.312600  1.0  -0.0474
  C  C142  1  0.542700  0.953500  0.687400  1.0  -0.0482
  C  C143  1  0.541900  0.700300  0.541700  1.0  -0.0402
  C  C144  1  0.580600  0.198000  0.079600  1.0  -0.1356
  C  C145  1  0.334000  0.807600  0.259900  1.0  0.0668
  C  C146  1  0.568500  0.509000  0.174500  1.0  -0.1323
  C  C147  1  0.170100  0.574800  0.738500  1.0  -0.0374
  C  C148  1  0.318400  0.544700  0.834100  1.0  -0.1364
  C  C149  1  0.585300  0.900800  0.693500  1.0  -0.1422
  C  C150  1  0.411100  0.285300  0.745500  1.0  -0.3564
  C  C151  1  0.689600  0.496600  0.461900  1.0  -0.0316
  C  C152  1  0.680500  0.154800  0.685300  1.0  0.0359
  C  C153  1  0.931300  0.851900  0.771100  1.0  0.6931
  C  C154  1  0.640200  0.007400  0.661100  1.0  0.0769
  C  C155  1  0.669600  0.136200  0.901200  1.0  0.0246
  C  C156  1  0.100700  0.814900  0.536900  1.0  -0.0345
  C  C157  1  0.669000  0.564500  0.149000  1.0  0.0207
  C  C158  1  0.428400  0.319900  0.516300  1.0  -0.154
  C  C159  1  0.347500  0.398500  0.803800  1.0  -0.1455
  C  C160  1  0.807800  0.503900  0.026100  1.0  -0.1829
  C  C161  1  0.459900  0.543800  0.807800  1.0  -0.0456
  C  C162  1  0.732600  0.601900  0.283700  1.0  -0.2004
  C  C163  1  0.898600  0.685100  0.963400  1.0  -0.0458
  C  C164  1  0.414700  0.099200  0.306500  1.0  -0.1418
  C  C165  1  0.344700  0.098600  0.316600  1.0  -0.0641
  C  C166  1  0.068700  0.148100  0.228900  1.0  0.6925
  C  C167  1  0.360600  0.843400  0.035900  1.0  0.0711
  C  C168  1  0.856000  0.164600  0.518900  1.0  -0.159
  C  C169  1  0.330400  0.863800  0.098800  1.0  0.0229
  C  C170  1  0.359000  0.343600  0.535400  1.0  0.066
  C  C171  1  0.271000  0.831900  0.370300  1.0  -0.1638
  C  C172  1  0.213100  0.022700  0.224000  1.0  -0.1821
  C  C173  1  0.213400  0.986400  0.467800  1.0  1e-04
  C  C174  1  0.115700  0.592000  0.714300  1.0  -0.1505
  C  C175  1  0.729000  0.168100  0.629700  1.0  -0.1627
  C  C176  1  0.653100  0.402600  0.183600  1.0  -0.0708
  C  C177  1  0.878400  0.689400  0.911400  1.0  -0.1216
  C  C178  1  0.680700  0.652800  0.503400  1.0  -0.1517
  C  C179  1  0.925100  0.212200  0.349700  1.0  0.6629
  C  C180  1  0.283800  0.921400  0.407400  1.0  0.2053
  C  C181  1  0.267900  0.897100  0.217300  1.0  -0.1424
  C  C182  1  0.814600  0.674200  0.915300  1.0  -0.046
  C  C183  1  0.582200  0.211500  0.762900  1.0  -0.3599
  C  C184  1  0.716200  0.078600  0.592600  1.0  0.2045
  C  C185  1  0.349000  0.327000  0.438700  1.0  -0.0442
  C  C186  1  0.786600  0.013600  0.532200  1.0  -0.0008
  C  C187  1  0.588900  0.714700  0.254500  1.0  -0.3563
  C  C188  1  0.317200  0.045300  0.332800  1.0  -0.1499
  C  C189  1  0.666500  0.691800  0.240400  1.0  0.0107
  C  C190  1  0.429800  0.818800  0.017000  1.0  -0.1775
  C  C191  1  0.641000  0.656400  0.464600  1.0  0.0667
  C  C192  1  0.893900  0.942700  0.826300  1.0  -0.0479
  C  C193  1  0.329200  0.364200  0.598000  1.0  -0.0106
  C  C194  1  0.684500  0.652800  0.294600  1.0  0.0103
  C  C195  1  0.732100  0.102900  0.782700  1.0  -0.145
  C  C196  1  0.250200  0.432000  0.668100  1.0  0.044
  C  C197  1  0.070600  0.648300  0.729700  1.0  0.7149
  C  C198  1  0.681600  0.455300  0.165900  1.0  -0.1373
  C  C199  1  0.104600  0.556200  0.675400  1.0  -0.0637
  C  C200  1  0.319300  0.347200  0.496600  1.0  -0.1532
  C  C201  1  0.228000  0.845700  0.529500  1.0  -0.1343
  C  C202  1  0.899300  0.185100  0.463100  1.0  -0.0353
  C  C203  1  0.317500  0.346800  0.813000  1.0  0.0083
  C  C204  1  0.331000  0.435500  0.851000  1.0  0.0239
  C  C205  1  0.791200  0.650300  0.023400  1.0  0.086
  C  C206  1  0.551700  0.843600  0.717500  1.0  0.6857
  C  C207  1  0.169000  0.075200  0.239300  1.0  -0.0525
  C  C208  1  0.207700  0.850700  0.477500  1.0  0.0372
  C  C209  1  0.649800  0.103400  0.694600  1.0  -0.1526
  C  C210  1  0.852200  0.496700  0.339400  1.0  -0.1154
  C  C211  1  0.320900  0.847300  0.997000  1.0  -0.1686
  C  C212  1  0.684700  0.154200  0.793700  1.0  0.0266
  C  C213  1  0.288800  0.258500  0.772100  1.0  -0.3162
  C  C214  1  0.792300  0.149300  0.522500  1.0  0.0371
  C  C215  1  0.655300  0.901400  0.683400  1.0  -0.065
  C  C216  1  0.682800  0.954700  0.667200  1.0  -0.1508
  C  C217  1  0.696400  0.245900  0.725400  1.0  -0.3509
  C  C218  1  0.831000  0.924800  0.760700  1.0  -0.0529
  C  C219  1  0.203700  0.987600  0.183600  1.0  0.0722
  C  C220  1  0.749800  0.568000  0.331900  1.0  0.045
  C  C221  1  0.192200  0.496100  0.973900  1.0  -0.1852
  C  C222  1  0.350300  0.826600  0.939300  1.0  -0.0376
  C  C223  1  0.267400  0.398100  0.716300  1.0  -0.2
  C  C224  1  0.693900  0.013400  0.957800  1.0  -0.0009
  C  C225  1  0.445000  0.658000  0.783200  1.0  0.7049
  C  C226  1  0.666000  0.192400  0.740100  1.0  0.0661
  C  C227  1  0.281100  0.415000  0.608900  1.0  0.2043
  C  C228  1  0.073800  0.287800  0.150000  1.0  0.6648
  C  C229  1  0.786700  0.478100  0.276300  1.0  -0.1788
  C  C230  1  0.449600  0.281400  0.358100  1.0  0.6936
  C  C231  1  0.213300  0.521900  0.723700  1.0  -0.178
  C  C232  1  0.829900  0.425200  0.261500  1.0  -0.0377
  C  C233  1  0.185400  0.325800  0.084700  1.0  -0.0474
  C  C234  1  0.310400  0.503400  0.538100  1.0  -0.0321
  C  C235  1  0.101400  0.314900  0.036600  1.0  -0.0455
  C  C236  1  0.208800  0.349700  0.976600  1.0  0.0872
  C  C237  1  0.251600  0.931700  0.169000  1.0  0.0351
  C  C238  1  0.639200  0.508500  0.161300  1.0  0.0633
  C  C239  1  0.549200  0.218100  0.144700  1.0  0.6933
  C  C240  1  0.282900  0.915100  0.109700  1.0  0.2005
  C  C241  1  0.359800  0.992600  0.338900  1.0  0.0748
  C  C242  1  0.715600  0.579300  0.092700  1.0  0.2215
  C  C243  1  0.284400  0.420700  0.907300  1.0  0.2151
  C  C244  1  0.652500  0.601500  0.196200  1.0  -0.1474
  C  C245  1  0.303600  0.754100  0.274600  1.0  -0.3515
  C  C246  1  0.745700  0.631000  0.083600  1.0  -0.0098
  C  C247  1  0.106100  0.057300  0.173700  1.0  -0.0488
  C  C248  1  0.855000  0.665600  0.019400  1.0  -0.162
  C  C249  1  0.772000  0.154300  0.470500  1.0  -0.1362
  C  C250  1  0.121000  0.809900  0.588900  1.0  -0.1255
  C  C251  1  0.202200  0.486100  0.684700  1.0  0.0181
  C  C252  1  0.315300  0.845800  0.206300  1.0  0.025
  C  C253  1  0.121600  0.310600  0.088600  1.0  -0.1204
  C  C254  1  0.771000  0.654600  0.971300  1.0  -0.1258
  C  C255  1  0.145000  0.334400  0.980600  1.0  -0.1644
  C  C256  1  0.815300  0.174700  0.414700  1.0  -0.0485
  C  C257  1  0.270900  0.332000  0.869300  1.0  -0.1984
  C  C258  1  0.786900  0.977300  0.776000  1.0  -0.1816
  C  C259  1  0.333500  0.308200  0.759600  1.0  0.0115
  C  C260  1  0.555000  0.342000  0.216800  1.0  0.7054
  C  C261  1  0.717100  0.084900  0.890300  1.0  0.2017
  C  C262  1  0.639400  0.156600  0.964100  1.0  0.0726
  C  C263  1  0.448300  0.156400  0.282500  1.0  0.6859
  C  C264  1  0.582400  0.403000  0.196800  1.0  -0.1556
  C  C265  1  0.570200  0.181200  0.983000  1.0  -0.1784
  C  C266  1  0.540900  0.201900  0.040800  1.0  -0.0539
  C  C267  1  0.419400  0.802000  0.920400  1.0  -0.1362
  C  C268  1  0.229000  0.345400  0.028700  1.0  -0.1243
  C  C269  1  0.884500  0.907500  0.785900  1.0  -0.1595
  C  C270  1  0.429800  0.993200  0.328800  1.0  -0.1373
  C  C271  1  0.746900  0.130000  0.583300  1.0  0.0381
  C  C272  1  0.417800  0.788500  0.237100  1.0  -0.3595
  C  C273  1  0.150200  0.004800  0.158500  1.0  -0.1211
  C  C274  1  0.849800  0.995200  0.841500  1.0  -0.121
  C  C275  1  0.550400  0.718600  0.641900  1.0  0.6932
  C  C276  1  0.879000  0.190100  0.411100  1.0  -0.1262
  C  C277  1  0.147800  0.503300  0.660600  1.0  -0.1148
  C  C278  1  0.184700  0.825300  0.585300  1.0  -0.0497
  C  C279  1  0.679100  0.152700  0.003000  1.0  -0.1653
  C  C280  1  0.651000  0.673000  0.561300  1.0  -0.0427
  C  C281  1  0.711200  0.741500  0.227900  1.0  -0.3147
  C  C282  1  0.418400  0.303300  0.419500  1.0  -0.1357
  C  C283  1  0.729100  0.668000  0.130700  1.0  -0.1995
  C  C284  1  0.570200  0.006800  0.671200  1.0  -0.1414
  C  C285  1  0.074900  0.787800  0.650300  1.0  0.663
  C  C286  1  0.346900  0.597400  0.816400  1.0  -0.0693
  C  C287  1  0.653400  0.170800  0.852900  1.0  -0.1658
  C  C288  1  0.459100  0.798100  0.959200  1.0  -0.0535
  C  C289  1  0.346600  0.829200  0.147100  1.0  -0.1633
  C  C290  1  0.254300  0.369000  0.916400  1.0  -0.0103
  C  C291  1  0.319500  0.845200  0.314700  1.0  0.037
  C  C292  1  0.653600  0.669700  0.353800  1.0  -0.1641
  C  C293  1  0.670800  0.635800  0.402000  1.0  -0.0099
  C  C294  1  0.926200  0.712200  0.850000  1.0  0.6647
  C  C295  1  0.682500  0.653200  0.187000  1.0  0.0095
  C  C296  1  0.895400  0.443800  0.324600  1.0  -0.0633
  C  C297  1  0.417600  0.597000  0.803200  1.0  -0.1562
  C  C298  1  0.115500  0.092500  0.214100  1.0  -0.1588
  C  C299  1  0.346400  0.330300  0.646200  1.0  -0.1647
  C  C300  1  0.431500  0.491000  0.825500  1.0  -0.1287
  C  C301  1  0.315500  0.347200  0.705400  1.0  0.0106
  C  C302  1  0.571600  0.680100  0.483700  1.0  -0.1561
  C  C303  1  0.458100  0.299700  0.458300  1.0  -0.04
  C  C304  1  0.718900  0.585000  0.391100  1.0  0.1987
  C  C305  1  0.797800  0.513900  0.315300  1.0  0.0157
  C  C306  1  0.144000  0.835400  0.481100  1.0  -0.1613
  C  C307  1  0.332400  0.934700  0.351700  1.0  0.0073
  C  C308  1  0.360800  0.491500  0.838700  1.0  0.0615
  C  C309  1  0.450800  0.781900  0.855300  1.0  0.6929
  C  C310  1  0.748400  0.068300  0.831000  1.0  0.0361
  C  C311  1  0.306100  0.986600  0.042200  1.0  -0.0027
  C  C312  1  0.581600  0.696700  0.580500  1.0  -0.1352
  C  C313  1  0.540100  0.456200  0.192200  1.0  -0.0458
  C  C314  1  0.253100  0.870000  0.416700  1.0  0.0384
  C  C315  1  0.350200  0.896600  0.305400  1.0  -0.1537
  C  C316  1  0.884300  0.408000  0.285700  1.0  -0.1509
  O  O317  1  0.587600  0.301700  0.236200  1.0  -0.5647
  O  O318  1  0.914100  0.817600  0.741200  1.0  -0.5805
  O  O319  1  0.589900  0.801100  0.733400  1.0  -0.5789
  O  O320  1  0.273500  0.454300  0.560500  1.0  -0.2573
  O  O321  1  0.907600  0.208600  0.304000  1.0  -0.5603
  O  O322  1  0.412400  0.698300  0.763800  1.0  -0.5647
  O  O323  1  0.907500  0.708100  0.803500  1.0  -0.5801
  O  O324  1  0.511100  0.753500  0.842100  1.0  -0.5672
  O  O325  1  0.413500  0.295200  0.322200  1.0  -0.5967
  O  O326  1  0.086900  0.681500  0.758500  1.0  -0.5784
  O  O327  1  0.506200  0.655200  0.783700  1.0  -0.5872
  O  O328  1  0.020200  0.269900  0.149400  1.0  -0.5637
  O  O329  1  0.410100  0.198900  0.266600  1.0  -0.5796
  O  O330  1  0.268500  0.460300  0.951400  1.0  -0.4014
  O  O331  1  0.092400  0.791400  0.696000  1.0  -0.5604
  O  O332  1  0.493800  0.344800  0.216300  1.0  -0.5859
  O  O333  1  0.979800  0.230200  0.350200  1.0  -0.5679
  O  O334  1  0.726500  0.545700  0.439500  1.0  -0.2585
  O  O335  1  0.488900  0.246500  0.157900  1.0  -0.5653
  O  O336  1  0.019000  0.660300  0.711500  1.0  -0.585
  O  O337  1  0.277100  0.955000  0.454300  1.0  -0.353
  O  O338  1  0.509700  0.255300  0.342800  1.0  -0.5754
  O  O339  1  0.018600  0.161000  0.209200  1.0  -0.58
  O  O340  1  0.414000  0.795500  0.822000  1.0  -0.5777
  O  O341  1  0.497600  0.842100  0.709200  1.0  -0.5575
  O  O342  1  0.085900  0.182400  0.258800  1.0  -0.5806
  O  O343  1  0.913100  0.318500  0.241500  1.0  -0.5783
  O  O344  1  0.092500  0.291900  0.196500  1.0  -0.579
  O  O345  1  0.981400  0.839000  0.790800  1.0  -0.5794
  O  O346  1  0.260800  0.948700  0.062400  1.0  -0.3251
  O  O347  1  0.981000  0.339700  0.288500  1.0  -0.5849
  O  O348  1  0.502400  0.157900  0.290800  1.0  -0.5586
  O  O349  1  0.979800  0.730100  0.850600  1.0  -0.5627
  O  O350  1  0.586500  0.704800  0.677800  1.0  -0.5966
  O  O351  1  0.490300  0.744700  0.657200  1.0  -0.5745
  O  O352  1  0.020200  0.769800  0.649800  1.0  -0.5674
  O  O353  1  0.722900  0.045000  0.545700  1.0  -0.3521
  O  O354  1  0.731500  0.539700  0.048600  1.0  -0.4048
  O  O355  1  0.739200  0.051300  0.937600  1.0  -0.3272
  O  O356  1  0.586000  0.204500  0.178000  1.0  -0.577
