# generated using pymatgen
data_Cu2H30(C9O2)5
_symmetry_space_group_name_H-M   'P 1'
_cell_length_a   15.01000000
_cell_length_b   16.62000000
_cell_length_c   19.29000000
_cell_angle_alpha   102.28800000
_cell_angle_beta   91.78600000
_cell_angle_gamma   93.30000000
_symmetry_Int_Tables_number   1
_chemical_formula_structural   Cu2H30(C9O2)5
_chemical_formula_sum   'Cu4 H60 C90 O20'
_cell_volume   4689.50745381
_cell_formula_units_Z   2
loop_
 _symmetry_equiv_pos_site_id
 _symmetry_equiv_pos_as_xyz
  1  'x, y, z'
loop_
 _atom_site_type_symbol
 _atom_site_label
 _atom_site_symmetry_multiplicity
 _atom_site_fract_x
 _atom_site_fract_y
 _atom_site_fract_z
 _atom_site_occupancy
 _atom_site_charge
  Cu  Cu1  1  0.472740  0.457140  0.047160  1.0  0.9136
  Cu  Cu2  1  0.527260  0.542860  0.952840  1.0  0.9156
  Cu  Cu3  1  0.456420  0.493360  0.557710  1.0  0.9404
  Cu  Cu4  1  0.543580  0.506640  0.442290  1.0  0.9449
  H  H5  1  0.984300  0.549200  0.188600  1.0  0.1241
  H  H6  1  0.650600  0.110300  0.890500  1.0  0.1094
  H  H7  1  0.906300  0.820600  0.252200  1.0  0.1034
  H  H8  1  0.145100  0.836600  0.235900  1.0  0.1113
  H  H9  1  0.123800  0.825600  0.383200  1.0  0.1157
  H  H10  1  0.690500  0.532900  0.204800  1.0  0.108
  H  H11  1  0.446000  0.012400  0.330400  1.0  0.156
  H  H12  1  0.093700  0.179400  0.747800  1.0  0.1046
  H  H13  1  0.889900  0.724300  0.134600  1.0  0.1112
  H  H14  1  0.554000  0.987600  0.669600  1.0  0.1567
  H  H15  1  0.188800  0.404700  0.719300  1.0  0.1108
  H  H16  1  0.908000  0.336800  0.529100  1.0  0.1179
  H  H17  1  0.309500  0.467100  0.795200  1.0  0.1085
  H  H18  1  0.019800  0.975400  0.711500  1.0  0.0997
  H  H19  1  0.727800  0.876000  0.565600  1.0  0.1135
  H  H20  1  0.854900  0.163400  0.764100  1.0  0.1099
  H  H21  1  0.571800  0.719700  0.703200  1.0  0.105
  H  H22  1  0.069100  0.942000  0.434500  1.0  0.0971
  H  H23  1  0.587600  0.225900  0.957200  1.0  0.1065
  H  H24  1  0.033100  0.043800  0.582400  1.0  0.1127
  H  H25  1  0.665900  0.359800  0.814400  1.0  0.0984
  H  H26  1  0.343500  0.252000  0.488100  1.0  0.1056
  H  H27  1  0.728800  0.244100  0.747700  1.0  0.1111
  H  H28  1  0.462100  0.925700  0.276900  1.0  0.1423
  H  H29  1  0.043400  0.025600  0.412600  1.0  0.0971
  H  H30  1  0.028600  0.061300  0.768200  1.0  0.0982
  H  H31  1  0.971400  0.938700  0.231800  1.0  0.0967
  H  H32  1  0.783900  0.392900  0.485800  1.0  0.1097
  H  H33  1  0.084800  0.561000  0.224900  1.0  0.1338
  H  H34  1  0.643000  0.847700  0.756900  1.0  0.1123
  H  H35  1  0.092000  0.663200  0.470900  1.0  0.1183
  H  H36  1  0.811200  0.595300  0.280700  1.0  0.1113
  H  H37  1  0.956600  0.974400  0.587400  1.0  0.0985
  H  H38  1  0.230700  0.338200  0.941300  1.0  0.1074
  H  H39  1  0.428200  0.280300  0.296800  1.0  0.1045
  H  H40  1  0.357000  0.152300  0.243100  1.0  0.1113
  H  H41  1  0.537900  0.074300  0.723100  1.0  0.1411
  H  H42  1  0.272200  0.124000  0.434400  1.0  0.1138
  H  H43  1  0.966900  0.956200  0.417600  1.0  0.1105
  H  H44  1  0.149600  0.067000  0.359400  1.0  0.1119
  H  H45  1  0.789500  0.344300  0.716000  1.0  0.112
  H  H46  1  0.334700  0.599700  0.327300  1.0  0.1036
  H  H47  1  0.850400  0.933000  0.640600  1.0  0.1118
  H  H48  1  0.665300  0.400300  0.672700  1.0  0.1038
  H  H49  1  0.093400  0.045800  0.703100  1.0  0.086
  H  H50  1  0.271200  0.755900  0.252300  1.0  0.1107
  H  H51  1  0.980200  0.024600  0.288500  1.0  0.1005
  H  H52  1  0.930900  0.058000  0.565500  1.0  0.0965
  H  H53  1  0.876200  0.174400  0.616800  1.0  0.1153
  H  H54  1  0.216100  0.607100  0.514200  1.0  0.1092
  H  H55  1  0.412400  0.774100  0.042800  1.0  0.1068
  H  H56  1  0.915200  0.439000  0.775100  1.0  0.1339
  H  H57  1  0.769300  0.661800  0.058700  1.0  0.1079
  H  H58  1  0.656500  0.748000  0.511900  1.0  0.1055
  H  H59  1  0.334100  0.640200  0.185600  1.0  0.0978
  H  H60  1  0.210500  0.655700  0.284000  1.0  0.1093
  H  H61  1  0.110100  0.275700  0.865400  1.0  0.1116
  H  H62  1  0.349400  0.889700  0.109500  1.0  0.1085
  H  H63  1  0.906600  0.954200  0.296900  1.0  0.0863
  H  H64  1  0.015700  0.450800  0.811400  1.0  0.1257
  C  C65  1  0.052700  0.207600  0.724800  1.0  -0.1621
  C  C66  1  0.700100  0.240500  0.790200  1.0  -0.1671
  C  C67  1  0.016500  0.836600  0.319300  1.0  0.0046
  C  C68  1  0.932600  0.290100  0.657200  1.0  -0.0403
  C  C69  1  0.738600  0.955600  0.697000  1.0  0.0029
  C  C70  1  0.302000  0.984900  0.254600  1.0  0.2573
  C  C71  1  0.061800  0.293000  0.735100  1.0  0.019
  C  C72  1  0.269000  0.428300  0.809500  1.0  -0.0534
  C  C73  1  0.712900  0.401900  0.575200  1.0  -0.0544
  C  C74  1  0.788300  0.354100  0.669300  1.0  -0.1568
  C  C75  1  0.141200  0.650300  0.441700  1.0  -0.1035
  C  C76  1  0.544800  0.014600  0.719500  1.0  0.2306
  C  C77  1  0.346300  0.839100  0.125000  1.0  -0.1097
  C  C78  1  0.822600  0.973600  0.673700  1.0  -0.1601
  C  C79  1  0.379200  0.696300  0.107900  1.0  -0.0672
  C  C80  1  0.849400  0.685400  0.148900  1.0  -0.1692
  C  C81  1  0.866000  0.051000  0.698700  1.0  0.0186
  C  C82  1  0.696100  0.844300  0.593600  1.0  -0.1921
  C  C83  1  0.923500  0.204600  0.646900  1.0  -0.206
  C  C84  1  0.038500  0.927500  0.329400  1.0  0.0351
  C  C85  1  0.281500  0.408500  0.875400  1.0  -0.1267
  C  C86  1  0.579500  0.373400  0.931400  1.0  0.6519
  C  C87  1  0.698000  0.015100  0.745400  1.0  0.2539
  C  C88  1  0.134000  0.949000  0.301300  1.0  0.0162
  C  C89  1  0.197300  0.391200  0.764400  1.0  -0.1345
  C  C90  1  0.620800  0.303700  0.892100  1.0  -0.0685
  C  C91  1  0.455200  0.985400  0.280500  1.0  0.2288
  C  C92  1  0.177400  0.026400  0.326300  1.0  -0.1605
  C  C93  1  0.640300  0.557700  0.072300  1.0  0.5227
  C  C94  1  0.967100  0.965000  0.282000  1.0  -0.3528
  C  C95  1  0.354200  0.172500  0.292800  1.0  -0.1306
  C  C96  1  0.947300  0.792400  0.275200  1.0  -0.1605
  C  C97  1  0.022100  0.541600  0.229400  1.0  0.2121
  C  C98  1  0.215000  0.617000  0.467400  1.0  -0.0807
  C  C99  1  0.977900  0.458400  0.770600  1.0  0.211
  C  C100  1  0.858800  0.349700  0.558300  1.0  -0.0962
  C  C101  1  0.337300  0.690900  0.170200  1.0  -0.0516
  C  C102  1  0.983500  0.163400  0.680700  1.0  0.0038
  C  C103  1  0.569000  0.637700  0.565200  1.0  0.6763
  C  C104  1  0.287100  0.598100  0.424800  1.0  -0.0544
  C  C105  1  0.662700  0.309100  0.829800  1.0  -0.051
  C  C106  1  0.396600  0.248600  0.324700  1.0  -0.0383
  C  C107  1  0.616300  0.229600  0.914700  1.0  -0.0714
  C  C108  1  0.307900  0.126100  0.333700  1.0  0.0605
  C  C109  1  0.971300  0.033900  0.595100  1.0  -0.3552
  C  C110  1  0.139600  0.664700  0.373400  1.0  0.0556
  C  C111  1  0.261400  0.044400  0.303000  1.0  0.0023
  C  C112  1  0.938200  0.707000  0.264900  1.0  0.0179
  C  C113  1  0.285400  0.612600  0.356400  1.0  -0.0794
  C  C114  1  0.714600  0.387400  0.643600  1.0  -0.081
  C  C115  1  0.785000  0.383000  0.532600  1.0  -0.0811
  C  C116  1  0.431000  0.362300  0.434800  1.0  0.6767
  C  C117  1  0.174700  0.889500  0.253000  1.0  -0.1383
  C  C118  1  0.299900  0.759500  0.209800  1.0  -0.1666
  C  C119  1  0.076500  0.795400  0.353100  1.0  -0.2031
  C  C120  1  0.150600  0.314600  0.851100  1.0  -0.1678
  C  C121  1  0.346200  0.231800  0.438300  1.0  -0.0467
  C  C122  1  0.032900  0.035000  0.718000  1.0  -0.3528
  C  C123  1  0.638800  0.434900  0.548300  1.0  0.5338
  C  C124  1  0.860400  0.335300  0.626600  1.0  0.0557
  C  C125  1  0.861900  0.665600  0.214800  1.0  0.1085
  C  C126  1  0.138100  0.334400  0.785200  1.0  0.1057
  C  C127  1  0.692100  0.873900  0.666300  1.0  0.0603
  C  C128  1  0.420500  0.626600  0.068600  1.0  0.6512
  C  C129  1  0.392500  0.278200  0.397500  1.0  -0.138
  C  C130  1  0.653700  0.160900  0.875000  1.0  -0.109
  C  C131  1  0.303900  0.155700  0.406400  1.0  -0.1917
  C  C132  1  0.653800  0.768200  0.561700  1.0  -0.0475
  C  C133  1  0.361200  0.565100  0.451700  1.0  0.5332
  C  C134  1  0.383700  0.770400  0.085300  1.0  -0.0711
  C  C135  1  0.211700  0.645900  0.330700  1.0  -0.1582
  C  C136  1  0.304400  0.833700  0.187200  1.0  0.0703
  C  C137  1  0.607500  0.721800  0.602500  1.0  -0.1398
  C  C138  1  0.067400  0.709900  0.342800  1.0  -0.0423
  C  C139  1  0.777800  0.648300  0.103800  1.0  -0.0468
  C  C140  1  0.359700  0.442300  0.927700  1.0  0.5242
  C  C141  1  0.645800  0.827500  0.707200  1.0  -0.1297
  C  C142  1  0.718500  0.591500  0.124600  1.0  -0.1274
  C  C143  1  0.695600  0.166300  0.812800  1.0  0.0607
  C  C144  1  0.825300  0.110500  0.747000  1.0  -0.1367
  C  C145  1  0.802700  0.608800  0.235600  1.0  -0.1326
  C  C146  1  0.961500  0.072500  0.670600  1.0  0.0367
  C  C147  1  0.731000  0.571700  0.190500  1.0  -0.0537
  C  C148  1  0.222200  0.351700  0.896200  1.0  -0.0458
  C  C149  1  0.258700  0.907500  0.229600  1.0  -0.0352
  C  C150  1  0.603400  0.751400  0.675300  1.0  -0.0389
  C  C151  1  0.001700  0.334300  0.701300  1.0  0.102
  C  C152  1  0.028700  0.966100  0.404900  1.0  -0.3559
  C  C153  1  0.741300  0.092500  0.770400  1.0  -0.0337
  C  C154  1  0.998300  0.665700  0.298700  1.0  0.1022
  O  O155  1  0.012200  0.423500  0.704300  1.0  -0.3407
  O  O156  1  0.643300  0.457400  0.482900  1.0  -0.5931
  O  O157  1  0.564200  0.444400  0.583500  1.0  -0.5777
  O  O158  1  0.384400  0.000100  0.232300  1.0  -0.3517
  O  O159  1  0.987800  0.576500  0.295700  1.0  -0.342
  O  O160  1  0.462000  0.634900  0.009100  1.0  -0.577
  O  O161  1  0.356700  0.542600  0.517100  1.0  -0.5885
  O  O162  1  0.615600  0.999900  0.767700  1.0  -0.3503
  O  O163  1  0.580400  0.442100  0.909700  1.0  -0.5811
  O  O164  1  0.414900  0.497400  0.896300  1.0  -0.5961
  O  O165  1  0.582500  0.612900  0.504400  1.0  -0.555
  O  O166  1  0.585100  0.502600  0.103700  1.0  -0.596
  O  O167  1  0.538000  0.365100  0.990900  1.0  -0.5763
  O  O168  1  0.369500  0.421300  0.982900  1.0  -0.5418
  O  O169  1  0.630500  0.578700  0.017100  1.0  -0.5407
  O  O170  1  0.512800  0.601200  0.604000  1.0  -0.561
  O  O171  1  0.417500  0.387100  0.495600  1.0  -0.5537
  O  O172  1  0.435800  0.555600  0.416500  1.0  -0.5786
  O  O173  1  0.487200  0.398800  0.396000  1.0  -0.5649
  O  O174  1  0.419600  0.557900  0.090300  1.0  -0.5833
