# generated using pymatgen
data_Cu2H36C47O10
_symmetry_space_group_name_H-M   'P 1'
_cell_length_a   14.60310000
_cell_length_b   14.60310000
_cell_length_c   18.80400000
_cell_angle_alpha   90.66430000
_cell_angle_beta   90.66430000
_cell_angle_gamma   90.67420000
_symmetry_Int_Tables_number   1
_chemical_formula_structural   Cu2H36C47O10
_chemical_formula_sum   'Cu4 H72 C94 O20'
_cell_volume   4009.13991077
_cell_formula_units_Z   2
loop_
 _symmetry_equiv_pos_site_id
 _symmetry_equiv_pos_as_xyz
  1  'x, y, z'
loop_
 _atom_site_type_symbol
 _atom_site_label
 _atom_site_symmetry_multiplicity
 _atom_site_fract_x
 _atom_site_fract_y
 _atom_site_fract_z
 _atom_site_occupancy
 _atom_site_charge
  Cu  Cu1  1  0.525080  0.548060  0.444680  1.0  0.9253
  Cu  Cu2  1  0.548060  0.525080  0.944680  1.0  0.9239
  Cu  Cu3  1  0.451940  0.474920  0.055320  1.0  0.9237
  Cu  Cu4  1  0.474920  0.451940  0.555320  1.0  0.9232
  H  H5  1  0.864800  0.888600  0.193400  1.0  0.0891
  H  H6  1  0.820800  0.430600  0.018500  1.0  0.1001
  H  H7  1  0.179200  0.569400  0.981500  1.0  0.1003
  H  H8  1  0.094800  0.879000  0.835900  1.0  0.1076
  H  H9  1  0.766200  0.675000  0.530700  1.0  0.1151
  H  H10  1  0.966900  0.981100  0.645500  1.0  0.0989
  H  H11  1  0.560600  0.084600  0.239000  1.0  0.0925
  H  H12  1  0.999400  0.583400  0.687400  1.0  0.0818
  H  H13  1  0.084600  0.976000  0.173700  1.0  0.1104
  H  H14  1  0.448400  0.925800  0.211400  1.0  0.1279
  H  H15  1  0.084600  0.560600  0.739000  1.0  0.0912
  H  H16  1  0.351600  0.709800  0.856900  1.0  0.0983
  H  H17  1  0.684800  0.540800  0.704100  1.0  0.1105
  H  H18  1  0.915400  0.024000  0.826300  1.0  0.1091
  H  H19  1  0.416600  0.000600  0.812600  1.0  0.0828
  H  H20  1  0.881300  0.748700  0.598900  1.0  0.0999
  H  H21  1  0.976000  0.084600  0.673700  1.0  0.1106
  H  H22  1  0.583400  0.999400  0.187400  1.0  0.0831
  H  H23  1  0.771600  0.225000  0.203700  1.0  0.1139
  H  H24  1  0.964500  0.446100  0.791300  1.0  0.1314
  H  H25  1  0.121000  0.905200  0.664100  1.0  0.1079
  H  H26  1  0.035500  0.553900  0.208700  1.0  0.1303
  H  H27  1  0.459200  0.315200  0.795900  1.0  0.1107
  H  H28  1  0.233800  0.325000  0.469300  1.0  0.1149
  H  H29  1  0.801100  0.611300  0.770700  1.0  0.1072
  H  H30  1  0.585500  0.972100  0.773100  1.0  0.1215
  H  H31  1  0.611300  0.801100  0.270700  1.0  0.1077
  H  H32  1  0.977500  0.109500  0.803400  1.0  0.1043
  H  H33  1  0.135200  0.111400  0.806600  1.0  0.0902
  H  H34  1  0.945900  0.364900  0.077100  1.0  0.111
  H  H35  1  0.033100  0.018900  0.354500  1.0  0.0997
  H  H36  1  0.888600  0.864800  0.693400  1.0  0.0897
  H  H37  1  0.022500  0.890500  0.196600  1.0  0.105
  H  H38  1  0.364900  0.945900  0.577100  1.0  0.1114
  H  H39  1  0.225000  0.771600  0.703700  1.0  0.1125
  H  H40  1  0.198900  0.388700  0.229300  1.0  0.1061
  H  H41  1  0.972100  0.585500  0.273100  1.0  0.1201
  H  H42  1  0.118700  0.251300  0.401100  1.0  0.0996
  H  H43  1  0.635100  0.054100  0.422900  1.0  0.112
  H  H44  1  0.315200  0.459200  0.295900  1.0  0.1109
  H  H45  1  0.290200  0.648400  0.643100  1.0  0.0988
  H  H46  1  0.648400  0.290200  0.143100  1.0  0.0983
  H  H47  1  0.325000  0.233800  0.969300  1.0  0.1154
  H  H48  1  0.879000  0.094800  0.335900  1.0  0.1074
  H  H49  1  0.775000  0.228400  0.296300  1.0  0.1125
  H  H50  1  0.569400  0.179200  0.481500  1.0  0.1003
  H  H51  1  0.981100  0.966900  0.145500  1.0  0.1012
  H  H52  1  0.915400  0.439400  0.261000  1.0  0.0949
  H  H53  1  0.553900  0.035500  0.708700  1.0  0.1309
  H  H54  1  0.551600  0.074200  0.788600  1.0  0.1275
  H  H55  1  0.675000  0.766200  0.030700  1.0  0.1158
  H  H56  1  0.430600  0.820800  0.518500  1.0  0.1001
  H  H57  1  0.905200  0.121000  0.164100  1.0  0.1077
  H  H58  1  0.027900  0.414500  0.726900  1.0  0.1202
  H  H59  1  0.111400  0.135200  0.306600  1.0  0.0901
  H  H60  1  0.890500  0.022500  0.696600  1.0  0.1057
  H  H61  1  0.388700  0.198900  0.729300  1.0  0.1069
  H  H62  1  0.018900  0.033100  0.854500  1.0  0.1006
  H  H63  1  0.054100  0.635100  0.922900  1.0  0.1113
  H  H64  1  0.228400  0.775000  0.796300  1.0  0.1117
  H  H65  1  0.414500  0.027900  0.226900  1.0  0.1184
  H  H66  1  0.925800  0.448400  0.711400  1.0  0.1273
  H  H67  1  0.024000  0.915400  0.326300  1.0  0.1105
  H  H68  1  0.540800  0.684800  0.204100  1.0  0.1105
  H  H69  1  0.709800  0.351600  0.356900  1.0  0.0988
  H  H70  1  0.109500  0.977500  0.303400  1.0  0.1064
  H  H71  1  0.748700  0.881300  0.098900  1.0  0.1001
  H  H72  1  0.251300  0.118700  0.901100  1.0  0.0996
  H  H73  1  0.439400  0.915400  0.761000  1.0  0.0903
  H  H74  1  0.446100  0.964500  0.291300  1.0  0.1313
  H  H75  1  0.074200  0.551600  0.288600  1.0  0.1264
  H  H76  1  0.000600  0.416600  0.312600  1.0  0.0834
  C  C77  1  0.990500  0.009500  0.250000  1.0  0.0656
  C  C78  1  0.457300  0.980300  0.241700  1.0  -0.3696
  C  C79  1  0.698400  0.982400  0.279200  1.0  0.2116
  C  C80  1  0.360110  0.581190  0.955800  1.0  0.6994
  C  C81  1  0.581190  0.360110  0.455800  1.0  0.6997
  C  C82  1  0.781800  0.267200  0.166500  1.0  -0.2338
  C  C83  1  0.017100  0.558300  0.734200  1.0  0.0728
  C  C84  1  0.416510  0.275310  0.817900  1.0  -0.0551
  C  C85  1  0.078400  0.259000  0.267000  1.0  0.0617
  C  C86  1  0.308350  0.148670  0.808500  1.0  0.0831
  C  C87  1  0.977500  0.043900  0.814200  1.0  -0.3606
  C  C88  1  0.872900  0.292300  0.144900  1.0  0.0502
  C  C89  1  0.809900  0.390100  0.056700  1.0  -0.0479
  C  C90  1  0.190100  0.609900  0.943300  1.0  -0.0484
  C  C91  1  0.275310  0.416510  0.317900  1.0  -0.0581
  C  C92  1  0.293200  0.159080  0.878700  1.0  -0.1535
  C  C93  1  0.290900  0.692700  0.869500  1.0  -0.0786
  C  C94  1  0.279350  0.627950  0.923800  1.0  -0.0932
  C  C95  1  0.164900  0.070500  0.774900  1.0  -0.1757
  C  C96  1  0.227780  0.337320  0.420000  1.0  -0.0817
  C  C97  1  0.156300  0.947700  0.691700  1.0  -0.1386
  C  C98  1  0.052300  0.843700  0.808300  1.0  -0.1371
  C  C99  1  0.732800  0.218200  0.333500  1.0  -0.2334
  C  C100  1  0.772220  0.662680  0.580000  1.0  -0.0808
  C  C101  1  0.218200  0.732800  0.833500  1.0  -0.2342
  C  C102  1  0.724690  0.583490  0.682100  1.0  -0.0529
  C  C103  1  0.542700  0.019700  0.758300  1.0  -0.3696
  C  C104  1  0.350100  0.885500  0.591700  1.0  -0.1741
  C  C105  1  0.440990  0.362490  0.931880  1.0  0.7121
  C  C106  1  0.929500  0.835100  0.725100  1.0  -0.1795
  C  C107  1  0.980300  0.457300  0.741700  1.0  -0.3738
  C  C108  1  0.114500  0.649900  0.908300  1.0  -0.1675
  C  C109  1  0.982900  0.441700  0.265800  1.0  0.0728
  C  C110  1  0.337320  0.227780  0.920000  1.0  -0.0824
  C  C111  1  0.112500  0.005900  0.738700  1.0  0.0228
  C  C112  1  0.649900  0.114500  0.408300  1.0  -0.1706
  C  C113  1  0.885500  0.350100  0.091700  1.0  -0.1702
  C  C114  1  0.741000  0.921600  0.233000  1.0  0.0622
  C  C115  1  0.292300  0.872900  0.644900  1.0  0.0503
  C  C116  1  0.994100  0.887500  0.761300  1.0  0.0232
  C  C117  1  0.017600  0.301600  0.220800  1.0  0.2125
  C  C118  1  0.259000  0.078400  0.767000  1.0  0.0617
  C  C119  1  0.609900  0.190100  0.443300  1.0  -0.0456
  C  C120  1  0.418810  0.639890  0.544200  1.0  0.6995
  C  C121  1  0.583490  0.724690  0.182100  1.0  -0.055
  C  C122  1  0.070500  0.164900  0.274900  1.0  -0.1754
  C  C123  1  0.840920  0.706800  0.621300  1.0  -0.1545
  C  C124  1  0.720650  0.372050  0.076200  1.0  -0.0925
  C  C125  1  0.285840  0.398140  0.388280  1.0  -0.1133
  C  C126  1  0.947700  0.156300  0.191700  1.0  -0.1395
  C  C127  1  0.843700  0.052300  0.308300  1.0  -0.1364
  C  C128  1  0.373700  0.206700  0.778000  1.0  -0.1687
  C  C129  1  0.127100  0.707700  0.855100  1.0  0.0512
  C  C130  1  0.159080  0.293200  0.378700  1.0  -0.1535
  C  C131  1  0.206700  0.373700  0.278000  1.0  -0.1658
  C  C132  1  0.307300  0.709100  0.630500  1.0  -0.0872
  C  C133  1  0.559010  0.637510  0.068120  1.0  0.7119
  C  C134  1  0.009500  0.990500  0.750000  1.0  0.0647
  C  C135  1  0.691650  0.851330  0.191500  1.0  0.0819
  C  C136  1  0.627950  0.279350  0.423800  1.0  -0.092
  C  C137  1  0.372050  0.720650  0.576200  1.0  -0.0918
  C  C138  1  0.049800  0.749600  0.816000  1.0  0.001
  C  C139  1  0.005900  0.112500  0.238700  1.0  0.0243
  C  C140  1  0.662680  0.772220  0.080000  1.0  -0.0806
  C  C141  1  0.950200  0.250400  0.184000  1.0  -0.0008
  C  C142  1  0.956100  0.022500  0.685800  1.0  -0.3561
  C  C143  1  0.887500  0.994100  0.261300  1.0  0.0215
  C  C144  1  0.626300  0.793300  0.222000  1.0  -0.1688
  C  C145  1  0.793300  0.626300  0.722000  1.0  -0.1656
  C  C146  1  0.714160  0.601860  0.611720  1.0  -0.1121
  C  C147  1  0.043900  0.977500  0.314200  1.0  -0.3569
  C  C148  1  0.707700  0.127100  0.355100  1.0  0.05
  C  C149  1  0.982400  0.698400  0.779200  1.0  0.2114
  C  C150  1  0.148670  0.308350  0.308500  1.0  0.0829
  C  C151  1  0.601860  0.714160  0.111720  1.0  -0.1108
  C  C152  1  0.639890  0.418810  0.044200  1.0  0.699
  C  C153  1  0.692700  0.290900  0.369500  1.0  -0.0854
  C  C154  1  0.250400  0.950200  0.684000  1.0  -0.0011
  C  C155  1  0.851330  0.691650  0.691500  1.0  0.0824
  C  C156  1  0.921600  0.741000  0.733000  1.0  0.0618
  C  C157  1  0.441700  0.982900  0.765800  1.0  0.0727
  C  C158  1  0.362490  0.440990  0.431880  1.0  0.7096
  C  C159  1  0.398140  0.285840  0.888280  1.0  -0.1103
  C  C160  1  0.390100  0.809900  0.556700  1.0  -0.047
  C  C161  1  0.835100  0.929500  0.225100  1.0  -0.1756
  C  C162  1  0.022500  0.956100  0.185800  1.0  -0.3595
  C  C163  1  0.019700  0.542700  0.258300  1.0  -0.373
  C  C164  1  0.301600  0.017600  0.720800  1.0  0.2134
  C  C165  1  0.749600  0.049800  0.316000  1.0  0.001
  C  C166  1  0.706800  0.840920  0.121300  1.0  -0.1554
  C  C167  1  0.637510  0.559010  0.568120  1.0  0.709
  C  C168  1  0.558300  0.017100  0.234200  1.0  0.0703
  C  C169  1  0.709100  0.307300  0.130500  1.0  -0.0787
  C  C170  1  0.267200  0.781800  0.666500  1.0  -0.2309
  O  O171  1  0.501020  0.587280  0.098850  1.0  -0.5652
  O  O172  1  0.432530  0.584810  0.920640  1.0  -0.5781
  O  O173  1  0.498980  0.412720  0.901150  1.0  -0.565
  O  O174  1  0.022020  0.393260  0.212540  1.0  -0.2777
  O  O175  1  0.544240  0.350440  0.514180  1.0  -0.5701
  O  O176  1  0.583460  0.628280  0.005930  1.0  -0.5558
  O  O177  1  0.584810  0.432530  0.420640  1.0  -0.5797
  O  O178  1  0.350440  0.544240  0.014180  1.0  -0.5709
  O  O179  1  0.393260  0.022020  0.712540  1.0  -0.2796
  O  O180  1  0.412720  0.498980  0.401150  1.0  -0.565
  O  O181  1  0.416540  0.371720  0.994070  1.0  -0.555
  O  O182  1  0.415190  0.567470  0.579360  1.0  -0.5799
  O  O183  1  0.649560  0.455760  0.985820  1.0  -0.5702
  O  O184  1  0.371720  0.416540  0.494070  1.0  -0.5547
  O  O185  1  0.567470  0.415190  0.079360  1.0  -0.579
  O  O186  1  0.455760  0.649560  0.485820  1.0  -0.5711
  O  O187  1  0.977980  0.606740  0.787460  1.0  -0.2829
  O  O188  1  0.628280  0.583460  0.505930  1.0  -0.5548
  O  O189  1  0.606740  0.977980  0.287460  1.0  -0.2831
  O  O190  1  0.587280  0.501020  0.598850  1.0  -0.5657
