# generated using pymatgen
data_CeCuH8C14(NO4)2
_symmetry_space_group_name_H-M   'P 1'
_cell_length_a   9.34100000
_cell_length_b   11.57260000
_cell_length_c   17.39540000
_cell_angle_alpha   105.01900000
_cell_angle_beta   90.00000000
_cell_angle_gamma   113.80200000
_symmetry_Int_Tables_number   1
_chemical_formula_structural   CeCuH8C14(NO4)2
_chemical_formula_sum   'Ce4 Cu4 H32 C56 N8 O32'
_cell_volume   1650.04679602
_cell_formula_units_Z   4
loop_
 _symmetry_equiv_pos_site_id
 _symmetry_equiv_pos_as_xyz
  1  'x, y, z'
loop_
 _atom_site_type_symbol
 _atom_site_label
 _atom_site_symmetry_multiplicity
 _atom_site_fract_x
 _atom_site_fract_y
 _atom_site_fract_z
 _atom_site_occupancy
 _atom_site_charge
  Ce  Ce1  1  0.669870  0.972400  0.926950  1.0  2.2649
  Ce  Ce2  1  0.697470  0.027600  0.573050  1.0  2.2643
  Ce  Ce3  1  0.330130  0.027600  0.073050  1.0  2.2645
  Ce  Ce4  1  0.302530  0.972400  0.426950  1.0  2.2651
  Cu  Cu5  1  0.094560  0.329920  0.135900  1.0  0.45
  Cu  Cu6  1  0.764640  0.670080  0.364100  1.0  0.4493
  Cu  Cu7  1  0.905440  0.670080  0.864100  1.0  0.4479
  Cu  Cu8  1  0.235360  0.329920  0.635900  1.0  0.449
  H  H9  1  0.559800  0.197200  0.779600  1.0  0.1095
  H  H10  1  0.500500  0.297600  0.691600  1.0  0.0851
  H  H11  1  0.091300  0.230800  0.768300  1.0  0.0923
  H  H12  1  0.140800  0.134600  0.856600  1.0  0.0985
  H  H13  1  0.184900  0.719600  0.054900  1.0  0.111
  H  H14  1  0.082400  0.563800  0.121200  1.0  0.0764
  H  H15  1  0.289400  0.358000  0.002300  1.0  0.0719
  H  H16  1  0.389800  0.502800  0.928400  1.0  0.1261
  H  H17  1  0.362600  0.802800  0.720400  1.0  0.1096
  H  H18  1  0.202900  0.702400  0.808400  1.0  0.085
  H  H19  1  0.860500  0.769200  0.731700  1.0  0.0923
  H  H20  1  0.006200  0.865400  0.643400  1.0  0.0987
  H  H21  1  0.465300  0.280400  0.445100  1.0  0.1086
  H  H22  1  0.518600  0.436200  0.378800  1.0  0.0767
  H  H23  1  0.931400  0.642000  0.497700  1.0  0.0716
  H  H24  1  0.887000  0.497200  0.571600  1.0  0.1254
  H  H25  1  0.440200  0.802800  0.220400  1.0  0.1097
  H  H26  1  0.499500  0.702400  0.308400  1.0  0.0851
  H  H27  1  0.908700  0.769200  0.231700  1.0  0.0916
  H  H28  1  0.859200  0.865400  0.143400  1.0  0.0984
  H  H29  1  0.815100  0.280400  0.945100  1.0  0.1111
  H  H30  1  0.917600  0.436200  0.878800  1.0  0.0767
  H  H31  1  0.710600  0.642000  0.997700  1.0  0.0716
  H  H32  1  0.610200  0.497200  0.071600  1.0  0.1254
  H  H33  1  0.637400  0.197200  0.279600  1.0  0.1097
  H  H34  1  0.797100  0.297600  0.191600  1.0  0.085
  H  H35  1  0.139500  0.230800  0.268300  1.0  0.0914
  H  H36  1  0.993800  0.134600  0.356600  1.0  0.0984
  H  H37  1  0.534700  0.719600  0.554900  1.0  0.1082
  H  H38  1  0.481400  0.563800  0.621200  1.0  0.0763
  H  H39  1  0.068600  0.358000  0.502300  1.0  0.0715
  H  H40  1  0.113000  0.502800  0.428400  1.0  0.1257
  C  C41  1  0.396900  0.081800  0.881400  1.0  0.6509
  C  C42  1  0.351100  0.148600  0.826300  1.0  -0.0835
  C  C43  1  0.462700  0.201400  0.777200  1.0  -0.0471
  C  C44  1  0.426700  0.261400  0.724100  1.0  0.1564
  C  C45  1  0.186000  0.222000  0.769700  1.0  0.1588
  C  C46  1  0.215100  0.164200  0.822400  1.0  -0.1109
  C  C47  1  0.391900  0.743800  0.950000  1.0  0.672
  C  C48  1  0.304400  0.630800  0.986000  1.0  -0.0752
  C  C49  1  0.208400  0.646800  0.043100  1.0  -0.1746
  C  C50  1  0.148200  0.552400  0.082700  1.0  0.1563
  C  C51  1  0.266700  0.431400  0.013400  1.0  0.1945
  C  C52  1  0.330600  0.519200  0.969200  1.0  -0.2078
  C  C53  1  0.980200  0.928600  0.976200  1.0  0.5659
  C  C54  1  0.701800  0.919800  0.730600  1.0  0.616
  C  C55  1  0.315100  0.918200  0.618600  1.0  0.6512
  C  C56  1  0.202500  0.851400  0.673700  1.0  -0.0847
  C  C57  1  0.261300  0.798600  0.722800  1.0  -0.048
  C  C58  1  0.165300  0.738600  0.775900  1.0  0.1545
  C  C59  1  0.964000  0.778000  0.730300  1.0  0.1594
  C  C60  1  0.050900  0.835800  0.677600  1.0  -0.1103
  C  C61  1  0.648100  0.256200  0.550000  1.0  0.6713
  C  C62  1  0.673600  0.369200  0.514000  1.0  -0.0752
  C  C63  1  0.561600  0.353200  0.456900  1.0  -0.175
  C  C64  1  0.595800  0.447600  0.417300  1.0  0.1572
  C  C65  1  0.835300  0.568600  0.486600  1.0  0.1945
  C  C66  1  0.811400  0.480800  0.530800  1.0  -0.2079
  C  C67  1  0.051600  0.071400  0.523800  1.0  0.566
  C  C68  1  0.782000  0.080200  0.769400  1.0  0.6158
  C  C69  1  0.603100  0.918200  0.118600  1.0  0.6502
  C  C70  1  0.648900  0.851400  0.173700  1.0  -0.0842
  C  C71  1  0.537300  0.798600  0.222800  1.0  -0.0461
  C  C72  1  0.573300  0.738600  0.275900  1.0  0.1545
  C  C73  1  0.814000  0.778000  0.230300  1.0  0.1599
  C  C74  1  0.784900  0.835800  0.177600  1.0  -0.111
  C  C75  1  0.608100  0.256200  0.050000  1.0  0.6702
  C  C76  1  0.695600  0.369200  0.014000  1.0  -0.0751
  C  C77  1  0.791600  0.353200  0.956900  1.0  -0.1754
  C  C78  1  0.851800  0.447600  0.917300  1.0  0.1575
  C  C79  1  0.733300  0.568600  0.986600  1.0  0.1946
  C  C80  1  0.669400  0.480800  0.030800  1.0  -0.2082
  C  C81  1  0.019800  0.071400  0.023800  1.0  0.5664
  C  C82  1  0.298200  0.080200  0.269400  1.0  0.6151
  C  C83  1  0.684900  0.081800  0.381400  1.0  0.6499
  C  C84  1  0.797500  0.148600  0.326300  1.0  -0.0831
  C  C85  1  0.738700  0.201400  0.277200  1.0  -0.0462
  C  C86  1  0.834700  0.261400  0.224100  1.0  0.1553
  C  C87  1  0.036000  0.222000  0.269700  1.0  0.1596
  C  C88  1  0.949100  0.164200  0.322400  1.0  -0.1115
  C  C89  1  0.351900  0.743800  0.450000  1.0  0.6717
  C  C90  1  0.326400  0.630800  0.486000  1.0  -0.0751
  C  C91  1  0.438400  0.646800  0.543100  1.0  -0.175
  C  C92  1  0.404200  0.552400  0.582700  1.0  0.1566
  C  C93  1  0.164700  0.431400  0.513400  1.0  0.1948
  C  C94  1  0.188600  0.519200  0.469200  1.0  -0.2077
  C  C95  1  0.948400  0.928600  0.476200  1.0  0.5662
  C  C96  1  0.218000  0.919800  0.230600  1.0  0.6153
  N  N97  1  0.288400  0.266800  0.719800  1.0  -0.2982
  N  N98  1  0.177000  0.444000  0.069800  1.0  -0.3055
  N  N99  1  0.021600  0.733200  0.780200  1.0  -0.296
  N  N100  1  0.733000  0.556000  0.430200  1.0  -0.3074
  N  N101  1  0.711600  0.733200  0.280200  1.0  -0.2951
  N  N102  1  0.823000  0.556000  0.930200  1.0  -0.3072
  N  N103  1  0.978400  0.266800  0.219800  1.0  -0.2983
  N  N104  1  0.267000  0.444000  0.569800  1.0  -0.3058
  O  O105  1  0.490900  0.036800  0.864900  1.0  -0.6335
  O  O106  1  0.316900  0.078600  0.943100  1.0  -0.7059
  O  O107  1  0.487000  0.728000  0.900500  1.0  -0.6929
  O  O108  1  0.373800  0.849000  0.972200  1.0  -0.737
  O  O109  1  0.862400  0.871800  0.923700  1.0  -0.6559
  O  O110  1  0.067500  0.877200  0.996000  1.0  -0.6791
  O  O111  1  0.652600  0.855800  0.779700  1.0  -0.6332
  O  O112  1  0.707600  0.882400  0.657400  1.0  -0.6128
  O  O113  1  0.454100  0.963200  0.635100  1.0  -0.6341
  O  O114  1  0.238300  0.921400  0.556900  1.0  -0.7043
  O  O115  1  0.759000  0.272000  0.599500  1.0  -0.6912
  O  O116  1  0.524800  0.151000  0.527800  1.0  -0.7368
  O  O117  1  0.990600  0.128200  0.576300  1.0  -0.654
  O  O118  1  0.190300  0.122800  0.504000  1.0  -0.6786
  O  O119  1  0.796800  0.144200  0.720300  1.0  -0.635
  O  O120  1  0.825200  0.117600  0.842600  1.0  -0.612
  O  O121  1  0.509100  0.963200  0.135100  1.0  -0.6352
  O  O122  1  0.683100  0.921400  0.056900  1.0  -0.704
  O  O123  1  0.513000  0.272000  0.099500  1.0  -0.6909
  O  O124  1  0.626200  0.151000  0.027800  1.0  -0.7375
  O  O125  1  0.137600  0.128200  0.076300  1.0  -0.654
  O  O126  1  0.932500  0.122800  0.004000  1.0  -0.6781
  O  O127  1  0.347400  0.144200  0.220300  1.0  -0.6347
  O  O128  1  0.292400  0.117600  0.342600  1.0  -0.6129
  O  O129  1  0.545900  0.036800  0.364900  1.0  -0.6353
  O  O130  1  0.761700  0.078600  0.443100  1.0  -0.7067
  O  O131  1  0.241000  0.728000  0.400500  1.0  -0.6905
  O  O132  1  0.475200  0.849000  0.472200  1.0  -0.7376
  O  O133  1  0.009400  0.871800  0.423700  1.0  -0.6561
  O  O134  1  0.809700  0.877200  0.496000  1.0  -0.6784
  O  O135  1  0.203200  0.855800  0.279700  1.0  -0.6341
  O  O136  1  0.174800  0.882400  0.157400  1.0  -0.6134
