# generated using pymatgen
data_PrCuH8C14(NO4)2
_symmetry_space_group_name_H-M   'P 1'
_cell_length_a   9.30600000
_cell_length_b   11.53650000
_cell_length_c   17.34800000
_cell_angle_alpha   104.95000000
_cell_angle_beta   90.00000000
_cell_angle_gamma   113.78700000
_symmetry_Int_Tables_number   1
_chemical_formula_structural   PrCuH8C14(NO4)2
_chemical_formula_sum   'Pr4 Cu4 H32 C56 N8 O32'
_cell_volume   1635.11428160
_cell_formula_units_Z   4
loop_
 _symmetry_equiv_pos_site_id
 _symmetry_equiv_pos_as_xyz
  1  'x, y, z'
loop_
 _atom_site_type_symbol
 _atom_site_label
 _atom_site_symmetry_multiplicity
 _atom_site_fract_x
 _atom_site_fract_y
 _atom_site_fract_z
 _atom_site_occupancy
 _atom_site_charge
  Pr  Pr1  1  0.670040  0.972530  0.926860  1.0  2.2477
  Pr  Pr2  1  0.697510  0.027470  0.573140  1.0  2.2465
  Pr  Pr3  1  0.329960  0.027470  0.073140  1.0  2.2531
  Pr  Pr4  1  0.302490  0.972530  0.426860  1.0  2.2567
  Cu  Cu5  1  0.094350  0.329260  0.135740  1.0  0.4117
  Cu  Cu6  1  0.765090  0.670740  0.364260  1.0  0.411
  Cu  Cu7  1  0.905650  0.670740  0.864260  1.0  0.4104
  Cu  Cu8  1  0.234910  0.329260  0.635740  1.0  0.4112
  H  H9  1  0.561400  0.196400  0.779100  1.0  0.1342
  H  H10  1  0.501600  0.296200  0.692800  1.0  0.0796
  H  H11  1  0.091600  0.230400  0.767200  1.0  0.087
  H  H12  1  0.140000  0.131800  0.857100  1.0  0.1225
  H  H13  1  0.181500  0.717800  0.053800  1.0  0.1016
  H  H14  1  0.082200  0.563800  0.123000  1.0  0.0828
  H  H15  1  0.278400  0.350200  0.997700  1.0  0.0822
  H  H16  1  0.390300  0.503600  0.927300  1.0  0.1236
  H  H17  1  0.365000  0.803600  0.720900  1.0  0.134
  H  H18  1  0.205400  0.703800  0.807200  1.0  0.0787
  H  H19  1  0.861200  0.769600  0.732800  1.0  0.0874
  H  H20  1  0.008200  0.868200  0.642900  1.0  0.1227
  H  H21  1  0.463700  0.282200  0.446200  1.0  0.1018
  H  H22  1  0.518400  0.436200  0.377000  1.0  0.083
  H  H23  1  0.928200  0.649800  0.502300  1.0  0.0817
  H  H24  1  0.886700  0.496400  0.572700  1.0  0.123
  H  H25  1  0.438600  0.803600  0.220900  1.0  0.1353
  H  H26  1  0.498400  0.703800  0.307200  1.0  0.0793
  H  H27  1  0.908400  0.769600  0.232800  1.0  0.0858
  H  H28  1  0.860000  0.868200  0.142900  1.0  0.1227
  H  H29  1  0.818500  0.282200  0.946200  1.0  0.1013
  H  H30  1  0.917800  0.436200  0.877000  1.0  0.0829
  H  H31  1  0.721600  0.649800  0.002300  1.0  0.082
  H  H32  1  0.609700  0.496400  0.072700  1.0  0.1232
  H  H33  1  0.635000  0.196400  0.279100  1.0  0.1353
  H  H34  1  0.794600  0.296200  0.192800  1.0  0.0795
  H  H35  1  0.138800  0.230400  0.267200  1.0  0.0855
  H  H36  1  0.991800  0.131800  0.357100  1.0  0.1225
  H  H37  1  0.536300  0.717800  0.553800  1.0  0.1014
  H  H38  1  0.481600  0.563800  0.623000  1.0  0.0827
  H  H39  1  0.071800  0.350200  0.497700  1.0  0.0824
  H  H40  1  0.113300  0.503600  0.427300  1.0  0.1233
  C  C41  1  0.388750  0.081500  0.883050  1.0  0.7375
  C  C42  1  0.355050  0.150700  0.827150  1.0  -0.0755
  C  C43  1  0.464200  0.201400  0.777500  1.0  -0.1524
  C  C44  1  0.426500  0.260200  0.725300  1.0  0.1795
  C  C45  1  0.186800  0.222200  0.769000  1.0  0.165
  C  C46  1  0.215100  0.163000  0.823400  1.0  -0.1477
  C  C47  1  0.393150  0.742700  0.949230  1.0  0.686
  C  C48  1  0.304940  0.631880  0.985800  1.0  -0.0511
  C  C49  1  0.207100  0.645600  0.042700  1.0  -0.1569
  C  C50  1  0.146800  0.551800  0.083700  1.0  0.1641
  C  C51  1  0.262200  0.427200  0.010800  1.0  0.1764
  C  C52  1  0.329400  0.519000  0.967800  1.0  -0.1293
  C  C53  1  0.980420  0.928240  0.976570  1.0  0.5665
  C  C54  1  0.706850  0.925100  0.731890  1.0  0.5988
  C  C55  1  0.307250  0.918500  0.616950  1.0  0.7374
  C  C56  1  0.204350  0.849300  0.672850  1.0  -0.0756
  C  C57  1  0.262800  0.798600  0.722500  1.0  -0.1526
  C  C58  1  0.166300  0.739800  0.774700  1.0  0.1783
  C  C59  1  0.964600  0.777800  0.731000  1.0  0.165
  C  C60  1  0.052100  0.837000  0.676600  1.0  -0.1478
  C  C61  1  0.650450  0.257300  0.550770  1.0  0.6849
  C  C62  1  0.673060  0.368120  0.514200  1.0  -0.0494
  C  C63  1  0.561500  0.354400  0.457300  1.0  -0.1561
  C  C64  1  0.595000  0.448200  0.416300  1.0  0.1653
  C  C65  1  0.835000  0.572800  0.489200  1.0  0.1769
  C  C66  1  0.810400  0.481000  0.532200  1.0  -0.1298
  C  C67  1  0.052180  0.071760  0.523430  1.0  0.5664
  C  C68  1  0.781750  0.074900  0.768110  1.0  0.5973
  C  C69  1  0.611250  0.918500  0.116950  1.0  0.7304
  C  C70  1  0.644950  0.849300  0.172850  1.0  -0.0753
  C  C71  1  0.535800  0.798600  0.222500  1.0  -0.1506
  C  C72  1  0.573500  0.739800  0.274700  1.0  0.1786
  C  C73  1  0.813200  0.777800  0.231000  1.0  0.1653
  C  C74  1  0.784900  0.837000  0.176600  1.0  -0.1492
  C  C75  1  0.606850  0.257300  0.050770  1.0  0.6843
  C  C76  1  0.695060  0.368120  0.014200  1.0  -0.0498
  C  C77  1  0.792900  0.354400  0.957300  1.0  -0.1578
  C  C78  1  0.853200  0.448200  0.916300  1.0  0.1652
  C  C79  1  0.737800  0.572800  0.989200  1.0  0.1767
  C  C80  1  0.670600  0.481000  0.032200  1.0  -0.1297
  C  C81  1  0.019580  0.071760  0.023430  1.0  0.5668
  C  C82  1  0.293150  0.074900  0.268110  1.0  0.5971
  C  C83  1  0.692750  0.081500  0.383050  1.0  0.7303
  C  C84  1  0.795650  0.150700  0.327150  1.0  -0.0755
  C  C85  1  0.737200  0.201400  0.277500  1.0  -0.151
  C  C86  1  0.833700  0.260200  0.225300  1.0  0.1789
  C  C87  1  0.035400  0.222200  0.269000  1.0  0.1659
  C  C88  1  0.947900  0.163000  0.323400  1.0  -0.1495
  C  C89  1  0.349550  0.742700  0.449230  1.0  0.6861
  C  C90  1  0.326940  0.631880  0.485800  1.0  -0.0508
  C  C91  1  0.438500  0.645600  0.542700  1.0  -0.1586
  C  C92  1  0.405000  0.551800  0.583700  1.0  0.164
  C  C93  1  0.165000  0.427200  0.510800  1.0  0.1764
  C  C94  1  0.189600  0.519000  0.467800  1.0  -0.1291
  C  C95  1  0.947820  0.928240  0.476570  1.0  0.567
  C  C96  1  0.218250  0.925100  0.231890  1.0  0.5986
  N  N97  1  0.288530  0.267660  0.719200  1.0  -0.2937
  N  N98  1  0.176110  0.445420  0.069800  1.0  -0.2891
  N  N99  1  0.020870  0.732340  0.780800  1.0  -0.2933
  N  N100  1  0.730690  0.554580  0.430200  1.0  -0.2891
  N  N101  1  0.711470  0.732340  0.280800  1.0  -0.2918
  N  N102  1  0.823890  0.554580  0.930200  1.0  -0.289
  N  N103  1  0.979130  0.267660  0.219200  1.0  -0.2938
  N  N104  1  0.269310  0.445420  0.569800  1.0  -0.2889
  O  O105  1  0.490050  0.036500  0.864930  1.0  -0.7067
  O  O106  1  0.316410  0.078420  0.943610  1.0  -0.6996
  O  O107  1  0.487440  0.728680  0.900780  1.0  -0.659
  O  O108  1  0.375520  0.849040  0.972290  1.0  -0.8066
  O  O109  1  0.863870  0.870740  0.923190  1.0  -0.6486
  O  O110  1  0.066260  0.877320  0.995610  1.0  -0.6359
  O  O111  1  0.654700  0.856800  0.780300  1.0  -0.6547
  O  O112  1  0.706420  0.882840  0.657940  1.0  -0.6374
  O  O113  1  0.453550  0.963500  0.635070  1.0  -0.7065
  O  O114  1  0.237990  0.921580  0.556390  1.0  -0.6992
  O  O115  1  0.758760  0.271320  0.599220  1.0  -0.6576
  O  O116  1  0.526480  0.150960  0.527710  1.0  -0.8072
  O  O117  1  0.993130  0.129260  0.576810  1.0  -0.6468
  O  O118  1  0.188940  0.122680  0.504390  1.0  -0.6352
  O  O119  1  0.797900  0.143200  0.719700  1.0  -0.6568
  O  O120  1  0.823580  0.117160  0.842060  1.0  -0.6374
  O  O121  1  0.509950  0.963500  0.135070  1.0  -0.7073
  O  O122  1  0.683590  0.921580  0.056390  1.0  -0.6998
  O  O123  1  0.512560  0.271320  0.099220  1.0  -0.6584
  O  O124  1  0.624480  0.150960  0.027710  1.0  -0.8072
  O  O125  1  0.136130  0.129260  0.076810  1.0  -0.6471
  O  O126  1  0.933740  0.122680  0.004390  1.0  -0.6348
  O  O127  1  0.345300  0.143200  0.219700  1.0  -0.6565
  O  O128  1  0.293580  0.117160  0.342060  1.0  -0.6371
  O  O129  1  0.546450  0.036500  0.364930  1.0  -0.7079
  O  O130  1  0.762010  0.078420  0.443610  1.0  -0.7006
  O  O131  1  0.241240  0.728680  0.400780  1.0  -0.6583
  O  O132  1  0.473520  0.849040  0.472290  1.0  -0.8065
  O  O133  1  0.006870  0.870740  0.423190  1.0  -0.6491
  O  O134  1  0.811060  0.877320  0.495610  1.0  -0.6356
  O  O135  1  0.202100  0.856800  0.280300  1.0  -0.6572
  O  O136  1  0.176420  0.882840  0.157940  1.0  -0.6371
