# generated using pymatgen
data_LaCuH8C14(NO4)2
_symmetry_space_group_name_H-M   'P 1'
_cell_length_a   9.39390000
_cell_length_b   11.51860000
_cell_length_c   17.55350000
_cell_angle_alpha   105.28900000
_cell_angle_beta   90.00000000
_cell_angle_gamma   114.06500000
_symmetry_Int_Tables_number   1
_chemical_formula_structural   LaCuH8C14(NO4)2
_chemical_formula_sum   'La4 Cu4 H32 C56 N8 O32'
_cell_volume   1660.38978141
_cell_formula_units_Z   4
loop_
 _symmetry_equiv_pos_site_id
 _symmetry_equiv_pos_as_xyz
  1  'x, y, z'
loop_
 _atom_site_type_symbol
 _atom_site_label
 _atom_site_symmetry_multiplicity
 _atom_site_fract_x
 _atom_site_fract_y
 _atom_site_fract_z
 _atom_site_occupancy
 _atom_site_charge
  La  La1  1  0.668580  0.971340  0.926680  1.0  2.1772
  La  La2  1  0.697240  0.028660  0.573320  1.0  2.1765
  La  La3  1  0.331420  0.028660  0.073320  1.0  2.1771
  La  La4  1  0.302760  0.971340  0.426680  1.0  2.1777
  Cu  Cu5  1  0.095120  0.330060  0.137840  1.0  0.4091
  Cu  Cu6  1  0.765060  0.669940  0.362160  1.0  0.4078
  Cu  Cu7  1  0.904880  0.669940  0.862160  1.0  0.4074
  Cu  Cu8  1  0.234940  0.330060  0.637840  1.0  0.409
  H  H9  1  0.557100  0.195200  0.778500  1.0  0.1294
  H  H10  1  0.498100  0.293000  0.692300  1.0  0.0838
  H  H11  1  0.092900  0.231600  0.768200  1.0  0.0954
  H  H12  1  0.143000  0.136600  0.858900  1.0  0.1275
  H  H13  1  0.178200  0.715200  0.051500  1.0  0.111
  H  H14  1  0.082700  0.565200  0.123000  1.0  0.0905
  H  H15  1  0.279300  0.349600  0.002300  1.0  0.0809
  H  H16  1  0.387100  0.498000  0.929900  1.0  0.1161
  H  H17  1  0.361900  0.804800  0.721500  1.0  0.1295
  H  H18  1  0.205100  0.707000  0.807700  1.0  0.0836
  H  H19  1  0.861300  0.768400  0.731800  1.0  0.096
  H  H20  1  0.006400  0.863400  0.641100  1.0  0.1273
  H  H21  1  0.463000  0.284800  0.448500  1.0  0.1108
  H  H22  1  0.517500  0.434800  0.377000  1.0  0.0904
  H  H23  1  0.929700  0.650400  0.497700  1.0  0.0807
  H  H24  1  0.889100  0.502000  0.570100  1.0  0.1157
  H  H25  1  0.442900  0.804800  0.221500  1.0  0.1294
  H  H26  1  0.501900  0.707000  0.307700  1.0  0.084
  H  H27  1  0.907100  0.768400  0.231800  1.0  0.0951
  H  H28  1  0.857000  0.863400  0.141100  1.0  0.1271
  H  H29  1  0.821800  0.284800  0.948500  1.0  0.1108
  H  H30  1  0.917300  0.434800  0.877000  1.0  0.0906
  H  H31  1  0.720700  0.650400  0.997700  1.0  0.0808
  H  H32  1  0.612900  0.502000  0.070100  1.0  0.1154
  H  H33  1  0.638100  0.195200  0.278500  1.0  0.1294
  H  H34  1  0.794900  0.293000  0.192300  1.0  0.0843
  H  H35  1  0.138700  0.231600  0.268200  1.0  0.0947
  H  H36  1  0.993600  0.136600  0.358900  1.0  0.1274
  H  H37  1  0.537000  0.715200  0.551500  1.0  0.1107
  H  H38  1  0.482500  0.565200  0.623000  1.0  0.0906
  H  H39  1  0.070300  0.349600  0.502300  1.0  0.0806
  H  H40  1  0.110900  0.498000  0.429900  1.0  0.1155
  C  C41  1  0.389390  0.085580  0.883680  1.0  0.725
  C  C42  1  0.354560  0.152120  0.827390  1.0  -0.067
  C  C43  1  0.461200  0.201000  0.777300  1.0  -0.1371
  C  C44  1  0.424300  0.258600  0.725200  1.0  0.1787
  C  C45  1  0.187200  0.223400  0.769900  1.0  0.1716
  C  C46  1  0.216100  0.165600  0.824600  1.0  -0.1445
  C  C47  1  0.390090  0.737780  0.948540  1.0  0.6756
  C  C48  1  0.303680  0.628960  0.986390  1.0  -0.0617
  C  C49  1  0.205110  0.643820  0.042200  1.0  -0.1817
  C  C50  1  0.146300  0.552000  0.084100  1.0  0.1581
  C  C51  1  0.262100  0.426000  0.013900  1.0  0.1779
  C  C52  1  0.327590  0.515180  0.970100  1.0  -0.135
  C  C53  1  0.980290  0.926980  0.976210  1.0  0.5868
  C  C54  1  0.706000  0.924000  0.731770  1.0  0.6049
  C  C55  1  0.303810  0.914420  0.616320  1.0  0.7251
  C  C56  1  0.202440  0.847880  0.672610  1.0  -0.067
  C  C57  1  0.260200  0.799000  0.722700  1.0  -0.1376
  C  C58  1  0.165700  0.741400  0.774800  1.0  0.1768
  C  C59  1  0.963800  0.776600  0.730100  1.0  0.1723
  C  C60  1  0.050500  0.834400  0.675400  1.0  -0.1452
  C  C61  1  0.652310  0.262220  0.551460  1.0  0.6754
  C  C62  1  0.674720  0.371040  0.513610  1.0  -0.061
  C  C63  1  0.561290  0.356180  0.457800  1.0  -0.1812
  C  C64  1  0.594300  0.448000  0.415900  1.0  0.1591
  C  C65  1  0.836100  0.574000  0.486100  1.0  0.1777
  C  C66  1  0.812410  0.484820  0.529900  1.0  -0.1347
  C  C67  1  0.053310  0.073020  0.523790  1.0  0.5875
  C  C68  1  0.782000  0.076000  0.768230  1.0  0.6039
  C  C69  1  0.610610  0.914420  0.116320  1.0  0.7165
  C  C70  1  0.645440  0.847880  0.172610  1.0  -0.0666
  C  C71  1  0.538800  0.799000  0.222700  1.0  -0.1367
  C  C72  1  0.575700  0.741400  0.274800  1.0  0.1769
  C  C73  1  0.812800  0.776600  0.230100  1.0  0.1728
  C  C74  1  0.783900  0.834400  0.175400  1.0  -0.146
  C  C75  1  0.609910  0.262220  0.051460  1.0  0.6747
  C  C76  1  0.696320  0.371040  0.013610  1.0  -0.0611
  C  C77  1  0.794890  0.356180  0.957800  1.0  -0.1828
  C  C78  1  0.853700  0.448000  0.915900  1.0  0.159
  C  C79  1  0.737900  0.574000  0.986100  1.0  0.1778
  C  C80  1  0.672410  0.484820  0.029900  1.0  -0.1343
  C  C81  1  0.019710  0.073020  0.023790  1.0  0.5879
  C  C82  1  0.294000  0.076000  0.268230  1.0  0.6039
  C  C83  1  0.696190  0.085580  0.383680  1.0  0.716
  C  C84  1  0.797560  0.152120  0.327390  1.0  -0.0667
  C  C85  1  0.739800  0.201000  0.277300  1.0  -0.1371
  C  C86  1  0.834300  0.258600  0.225200  1.0  0.178
  C  C87  1  0.036200  0.223400  0.269900  1.0  0.173
  C  C88  1  0.949500  0.165600  0.324600  1.0  -0.1451
  C  C89  1  0.347690  0.737780  0.448540  1.0  0.6757
  C  C90  1  0.325280  0.628960  0.486390  1.0  -0.0617
  C  C91  1  0.438710  0.643820  0.542200  1.0  -0.183
  C  C92  1  0.405700  0.552000  0.584100  1.0  0.1581
  C  C93  1  0.163900  0.426000  0.513900  1.0  0.1778
  C  C94  1  0.187590  0.515180  0.470100  1.0  -0.1347
  C  C95  1  0.946690  0.926980  0.476210  1.0  0.5873
  C  C96  1  0.218000  0.924000  0.231770  1.0  0.6047
  N  N97  1  0.287730  0.267460  0.719820  1.0  -0.2959
  N  N98  1  0.175920  0.445240  0.071850  1.0  -0.2893
  N  N99  1  0.020270  0.732540  0.780180  1.0  -0.2963
  N  N100  1  0.730680  0.554760  0.428150  1.0  -0.2914
  N  N101  1  0.712270  0.732540  0.280180  1.0  -0.2953
  N  N102  1  0.824080  0.554760  0.928150  1.0  -0.2912
  N  N103  1  0.979730  0.267460  0.219820  1.0  -0.2963
  N  N104  1  0.269320  0.445240  0.571850  1.0  -0.2893
  O  O105  1  0.489250  0.039700  0.865980  1.0  -0.6586
  O  O106  1  0.317720  0.082640  0.943660  1.0  -0.71
  O  O107  1  0.482190  0.721580  0.899990  1.0  -0.6593
  O  O108  1  0.374240  0.845480  0.970920  1.0  -0.799
  O  O109  1  0.865300  0.869600  0.922990  1.0  -0.636
  O  O110  1  0.065560  0.876920  0.995120  1.0  -0.6297
  O  O111  1  0.653770  0.855740  0.779140  1.0  -0.6261
  O  O112  1  0.706070  0.881740  0.658470  1.0  -0.6603
  O  O113  1  0.449550  0.960300  0.634020  1.0  -0.6588
  O  O114  1  0.235080  0.917360  0.556340  1.0  -0.7082
  O  O115  1  0.760610  0.278420  0.600010  1.0  -0.6575
  O  O116  1  0.528760  0.154520  0.529080  1.0  -0.7992
  O  O117  1  0.995700  0.130400  0.577010  1.0  -0.6368
  O  O118  1  0.188640  0.123080  0.504880  1.0  -0.6294
  O  O119  1  0.798030  0.144260  0.720860  1.0  -0.6286
  O  O120  1  0.824330  0.118260  0.841530  1.0  -0.66
  O  O121  1  0.510750  0.960300  0.134020  1.0  -0.6589
  O  O122  1  0.682280  0.917360  0.056340  1.0  -0.7091
  O  O123  1  0.517810  0.278420  0.100010  1.0  -0.6576
  O  O124  1  0.625760  0.154520  0.029080  1.0  -0.8001
  O  O125  1  0.134700  0.130400  0.077010  1.0  -0.6369
  O  O126  1  0.934440  0.123080  0.004880  1.0  -0.6293
  O  O127  1  0.346230  0.144260  0.220860  1.0  -0.6271
  O  O128  1  0.293930  0.118260  0.341530  1.0  -0.6596
  O  O129  1  0.550450  0.039700  0.365980  1.0  -0.659
  O  O130  1  0.764920  0.082640  0.443660  1.0  -0.7113
  O  O131  1  0.239390  0.721580  0.399990  1.0  -0.6583
  O  O132  1  0.471240  0.845480  0.470920  1.0  -0.8001
  O  O133  1  0.004300  0.869600  0.422990  1.0  -0.6364
  O  O134  1  0.811360  0.876920  0.495120  1.0  -0.6297
  O  O135  1  0.201970  0.855740  0.279140  1.0  -0.628
  O  O136  1  0.175670  0.881740  0.158470  1.0  -0.6601
