# generated using pymatgen
data_Cd2H14C24N4Cl4O9
_symmetry_space_group_name_H-M   'P 1'
_cell_length_a   11.45450000
_cell_length_b   11.45450000
_cell_length_c   15.07770000
_cell_angle_alpha   109.62100000
_cell_angle_beta   109.62100000
_cell_angle_gamma   96.58340000
_symmetry_Int_Tables_number   1
_chemical_formula_structural   Cd2H14C24N4Cl4O9
_chemical_formula_sum   'Cd4 H28 C48 N8 Cl8 O18'
_cell_volume   1696.57502902
_cell_formula_units_Z   2
loop_
 _symmetry_equiv_pos_site_id
 _symmetry_equiv_pos_as_xyz
  1  'x, y, z'
loop_
 _atom_site_type_symbol
 _atom_site_label
 _atom_site_symmetry_multiplicity
 _atom_site_fract_x
 _atom_site_fract_y
 _atom_site_fract_z
 _atom_site_occupancy
 _atom_site_charge
  Cd  Cd1  1  0.266840  0.003980  0.286200  1.0  1.02
  Cd  Cd2  1  0.733160  0.996020  0.713800  1.0  1.0199
  Cd  Cd3  1  0.003980  0.266840  0.786200  1.0  1.02
  Cd  Cd4  1  0.996020  0.733160  0.213800  1.0  1.0205
  H  H5  1  0.116200  0.839000  0.920700  1.0  0.1208
  H  H6  1  0.754800  0.558400  0.856700  1.0  0.1205
  H  H7  1  0.984300  0.487500  0.696000  1.0  0.0847
  H  H8  1  0.839000  0.116200  0.420700  1.0  0.1221
  H  H9  1  0.558400  0.754800  0.356700  1.0  0.1192
  H  H10  1  0.677800  0.662800  0.127000  1.0  0.0886
  H  H11  1  0.883800  0.161000  0.079300  1.0  0.1211
  H  H12  1  0.245200  0.441600  0.143300  1.0  0.1209
  H  H13  1  0.931600  0.816400  0.409400  1.0  0.0806
  H  H14  1  0.183600  0.068400  0.090600  1.0  0.0822
  H  H15  1  0.337200  0.322200  0.373000  1.0  0.0892
  H  H16  1  0.816400  0.931600  0.909400  1.0  0.0813
  H  H17  1  0.015700  0.512500  0.304000  1.0  0.0854
  H  H18  1  0.476700  0.894900  0.519100  1.0  0.0907
  H  H19  1  0.161000  0.883800  0.579300  1.0  0.1227
  H  H20  1  0.487500  0.984300  0.196000  1.0  0.0855
  H  H21  1  0.105100  0.523300  0.980900  1.0  0.0921
  H  H22  1  0.441600  0.245200  0.643300  1.0  0.1201
  H  H23  1  0.322200  0.337200  0.873000  1.0  0.0889
  H  H24  1  0.002200  0.948600  0.193100  1.0  0.4154
  H  H25  1  0.523300  0.105100  0.480900  1.0  0.0914
  H  H26  1  0.068400  0.183600  0.590600  1.0  0.0802
  H  H27  1  0.512500  0.015700  0.804000  1.0  0.0859
  H  H28  1  0.662800  0.677800  0.627000  1.0  0.0891
  H  H29  1  0.894900  0.476700  0.019100  1.0  0.0918
  H  H30  1  0.051400  0.997800  0.306900  1.0  0.4155
  H  H31  1  0.997800  0.051400  0.806900  1.0  0.417
  H  H32  1  0.948600  0.002200  0.693100  1.0  0.4136
  C  C33  1  0.786100  0.846100  0.863300  1.0  0.2103
  C  C34  1  0.164800  0.770000  0.084000  1.0  0.6999
  C  C35  1  0.700900  0.598700  0.730500  1.0  0.0228
  C  C36  1  0.846100  0.786100  0.363300  1.0  0.2091
  C  C37  1  0.147900  0.207500  0.982300  1.0  0.6706
  C  C38  1  0.561200  0.090200  0.433700  1.0  0.1787
  C  C39  1  0.956200  0.328600  0.203600  1.0  -0.0179
  C  C40  1  0.598700  0.700900  0.230500  1.0  0.0156
  C  C41  1  0.539600  0.018600  0.265800  1.0  0.1689
  C  C42  1  0.328600  0.956200  0.703600  1.0  -0.013
  C  C43  1  0.299100  0.401300  0.269500  1.0  0.0161
  C  C44  1  0.096100  0.750300  0.899000  1.0  -0.0347
  C  C45  1  0.909800  0.438800  0.066300  1.0  0.1779
  C  C46  1  0.248300  0.206900  0.597600  1.0  -0.1568
  C  C47  1  0.213900  0.153900  0.136700  1.0  0.2076
  C  C48  1  0.460400  0.981400  0.734200  1.0  0.1678
  C  C49  1  0.697300  0.696100  0.197200  1.0  0.1525
  C  C50  1  0.249600  0.375600  0.166300  1.0  -0.0017
  C  C51  1  0.903900  0.249700  0.101000  1.0  -0.0272
  C  C52  1  0.206900  0.248300  0.097600  1.0  -0.1587
  C  C53  1  0.306400  0.881600  0.530300  1.0  -0.1429
  C  C54  1  0.302700  0.303900  0.802800  1.0  0.1496
  C  C55  1  0.881600  0.306400  0.030300  1.0  -0.1456
  C  C56  1  0.770000  0.164800  0.584000  1.0  0.699
  C  C57  1  0.249700  0.903900  0.601000  1.0  -0.0333
  C  C58  1  0.751700  0.793100  0.402400  1.0  -0.1581
  C  C59  1  0.401300  0.299100  0.769500  1.0  0.0121
  C  C60  1  0.118400  0.693600  0.969700  1.0  -0.1455
  C  C61  1  0.693600  0.118400  0.469700  1.0  -0.1408
  C  C62  1  0.207500  0.147900  0.482300  1.0  0.6735
  C  C63  1  0.153900  0.213900  0.636700  1.0  0.2093
  C  C64  1  0.852100  0.792500  0.017700  1.0  0.6723
  C  C65  1  0.624400  0.750400  0.333700  1.0  -0.0109
  C  C66  1  0.230000  0.835200  0.416000  1.0  0.6979
  C  C67  1  0.750300  0.096100  0.399000  1.0  -0.0349
  C  C68  1  0.793100  0.751700  0.902400  1.0  -0.1586
  C  C69  1  0.671400  0.043800  0.296400  1.0  -0.0183
  C  C70  1  0.018600  0.539600  0.765800  1.0  0.1649
  C  C71  1  0.792500  0.852100  0.517700  1.0  0.6717
  C  C72  1  0.981400  0.460400  0.234200  1.0  0.1653
  C  C73  1  0.090200  0.561200  0.933700  1.0  0.1786
  C  C74  1  0.835200  0.230000  0.916000  1.0  0.699
  C  C75  1  0.043800  0.671400  0.796400  1.0  -0.0208
  C  C76  1  0.696100  0.697300  0.697200  1.0  0.1536
  C  C77  1  0.438800  0.909800  0.566300  1.0  0.1791
  C  C78  1  0.375600  0.249600  0.666300  1.0  -0.0025
  C  C79  1  0.303900  0.302700  0.302800  1.0  0.1511
  C  C80  1  0.750400  0.624400  0.833700  1.0  -0.0087
  N  N81  1  0.485200  0.042000  0.332800  1.0  -0.3249
  N  N82  1  0.958000  0.514800  0.167200  1.0  -0.329
  N  N83  1  0.820000  0.738400  0.263400  1.0  -0.3344
  N  N84  1  0.261600  0.180000  0.236600  1.0  -0.3351
  N  N85  1  0.738400  0.820000  0.763400  1.0  -0.332
  N  N86  1  0.514800  0.958000  0.667200  1.0  -0.3237
  N  N87  1  0.180000  0.261600  0.736600  1.0  -0.3329
  N  N88  1  0.042000  0.485200  0.832800  1.0  -0.326
  Cl  Cl89  1  0.732810  0.004150  0.202840  1.0  -0.1071
  Cl  Cl90  1  0.647020  0.441420  0.639800  1.0  -0.0854
  Cl  Cl91  1  0.004150  0.732810  0.702840  1.0  -0.1047
  Cl  Cl92  1  0.267190  0.995850  0.797160  1.0  -0.1071
  Cl  Cl93  1  0.352980  0.558580  0.360200  1.0  -0.0856
  Cl  Cl94  1  0.558580  0.352980  0.860200  1.0  -0.0854
  Cl  Cl95  1  0.995850  0.267190  0.297160  1.0  -0.1062
  Cl  Cl96  1  0.441420  0.647020  0.139800  1.0  -0.085
  O  O97  1  0.711810  0.137790  0.634000  1.0  -0.6775
  O  O98  1  0.893200  0.911000  0.070600  1.0  -0.5892
  O  O99  1  0.884400  0.225600  0.619200  1.0  -0.6213
  O  O100  1  0.911000  0.893200  0.570600  1.0  -0.5869
  O  O101  1  0.288190  0.862210  0.366000  1.0  -0.6797
  O  O102  1  0.705310  0.855490  0.550400  1.0  -0.6028
  O  O103  1  0.051000  0.949000  0.250000  1.0  -0.8278
  O  O104  1  0.115600  0.774400  0.380800  1.0  -0.6212
  O  O105  1  0.137790  0.711810  0.134000  1.0  -0.6786
  O  O106  1  0.144510  0.294690  0.949600  1.0  -0.6051
  O  O107  1  0.089000  0.106800  0.429400  1.0  -0.5871
  O  O108  1  0.106800  0.089000  0.929400  1.0  -0.5911
  O  O109  1  0.225600  0.884400  0.119200  1.0  -0.6251
  O  O110  1  0.774400  0.115600  0.880800  1.0  -0.6254
  O  O111  1  0.855490  0.705310  0.050400  1.0  -0.6047
  O  O112  1  0.294690  0.144510  0.449600  1.0  -0.6031
  O  O113  1  0.949000  0.051000  0.750000  1.0  -0.8295
  O  O114  1  0.862210  0.288190  0.866000  1.0  -0.6799
