# generated using pymatgen
data_Zn7H16C40(N2O15)2
_symmetry_space_group_name_H-M   'P 1'
_cell_length_a   12.93760000
_cell_length_b   12.93760000
_cell_length_c   14.16210000
_cell_angle_alpha   85.05810000
_cell_angle_beta   85.05810000
_cell_angle_gamma   89.59630000
_symmetry_Int_Tables_number   1
_chemical_formula_structural   Zn7H16C40(N2O15)2
_chemical_formula_sum   'Zn7 H16 C40 N4 O30'
_cell_volume   2352.88188097
_cell_formula_units_Z   1
loop_
 _symmetry_equiv_pos_site_id
 _symmetry_equiv_pos_as_xyz
  1  'x, y, z'
loop_
 _atom_site_type_symbol
 _atom_site_label
 _atom_site_symmetry_multiplicity
 _atom_site_fract_x
 _atom_site_fract_y
 _atom_site_fract_z
 _atom_site_occupancy
 _atom_site_charge
  Zn  Zn1  1  0.017240  0.187360  0.335170  1.0  1.0577
  Zn  Zn2  1  0.165840  0.165840  0.505140  1.0  0.9376
  Zn  Zn3  1  0.982760  0.812640  0.664830  1.0  1.0543
  Zn  Zn4  1  0.187360  0.017240  0.335170  1.0  1.0552
  Zn  Zn5  1  0.834160  0.834160  0.494860  1.0  0.9458
  Zn  Zn6  1  0.000000  0.000000  0.500000  1.0  1.0203
  Zn  Zn7  1  0.812640  0.982760  0.664830  1.0  1.054
  H  H8  1  0.503410  0.037400  0.259640  1.0  0.12
  H  H9  1  0.037400  0.503410  0.259640  1.0  0.1251
  H  H10  1  0.683940  0.168780  0.527140  1.0  0.114
  H  H11  1  0.847220  0.087120  0.926440  1.0  0.1302
  H  H12  1  0.489080  0.175030  0.533360  1.0  0.1397
  H  H13  1  0.175030  0.489080  0.533360  1.0  0.138
  H  H14  1  0.825020  0.511180  0.466750  1.0  0.1364
  H  H15  1  0.168780  0.683940  0.527140  1.0  0.1152
  H  H16  1  0.316060  0.831220  0.472860  1.0  0.1158
  H  H17  1  0.510920  0.824970  0.466640  1.0  0.1382
  H  H18  1  0.830490  0.319150  0.471400  1.0  0.1162
  H  H19  1  0.962420  0.497470  0.739930  1.0  0.1346
  H  H20  1  0.912880  0.152780  0.073560  1.0  0.1318
  H  H21  1  0.496590  0.962600  0.740360  1.0  0.1205
  H  H22  1  0.087520  0.847190  0.926840  1.0  0.1289
  H  H23  1  0.152810  0.912480  0.073160  1.0  0.1289
  C  C24  1  0.542900  0.067900  0.320600  1.0  -0.0718
  C  C25  1  0.067900  0.542900  0.320600  1.0  -0.0824
  C  C26  1  0.897400  0.297800  0.608400  1.0  -0.023
  C  C27  1  0.642200  0.139600  0.466900  1.0  -0.1094
  C  C28  1  0.915900  0.047500  0.959800  1.0  -0.0896
  C  C29  1  0.631100  0.900100  0.596900  1.0  0.7118
  C  C30  1  0.099900  0.368900  0.403100  1.0  0.7099
  C  C31  1  0.535600  0.142000  0.470800  1.0  -0.0811
  C  C32  1  0.896200  0.515400  0.602200  1.0  -0.0977
  C  C33  1  0.142000  0.535600  0.470800  1.0  -0.072
  C  C34  1  0.818200  0.101800  0.392400  1.0  0.7111
  C  C35  1  0.930700  0.351700  0.682000  1.0  0.0325
  C  C36  1  0.702200  0.102600  0.391600  1.0  -0.0222
  C  C37  1  0.858000  0.464400  0.529200  1.0  -0.0774
  C  C38  1  0.069800  0.069800  0.171000  1.0  0.7044
  C  C39  1  0.139600  0.642200  0.466900  1.0  -0.0942
  C  C40  1  0.069300  0.648300  0.318000  1.0  0.0285
  C  C41  1  0.181800  0.898200  0.607600  1.0  0.7117
  C  C42  1  0.357800  0.860400  0.533100  1.0  -0.1035
  C  C43  1  0.102600  0.702200  0.391600  1.0  -0.0232
  C  C44  1  0.464400  0.858000  0.529200  1.0  -0.0824
  C  C45  1  0.860400  0.357800  0.533100  1.0  -0.0921
  C  C46  1  0.932100  0.457100  0.679400  1.0  -0.0736
  C  C47  1  0.037400  0.037400  0.080400  1.0  -0.0811
  C  C48  1  0.103800  0.484600  0.397800  1.0  -0.1004
  C  C49  1  0.515400  0.896200  0.602200  1.0  -0.0973
  C  C50  1  0.648300  0.069300  0.318000  1.0  0.0373
  C  C51  1  0.351700  0.930700  0.682000  1.0  0.0364
  C  C52  1  0.952500  0.084100  0.040200  1.0  -0.0976
  C  C53  1  0.900100  0.631100  0.596900  1.0  0.7149
  C  C54  1  0.930200  0.930200  0.829000  1.0  0.7004
  C  C55  1  0.898200  0.181800  0.607600  1.0  0.7152
  C  C56  1  0.368900  0.099900  0.403100  1.0  0.7106
  C  C57  1  0.457100  0.932100  0.679400  1.0  -0.0752
  C  C58  1  0.484600  0.103800  0.397800  1.0  -0.1
  C  C59  1  0.101800  0.818200  0.392400  1.0  0.7132
  C  C60  1  0.962600  0.962600  0.919600  1.0  -0.0813
  C  C61  1  0.047500  0.915900  0.959800  1.0  -0.1046
  C  C62  1  0.084100  0.952500  0.040200  1.0  -0.0976
  C  C63  1  0.297800  0.897400  0.608400  1.0  -0.0226
  N  N64  1  0.706800  0.035000  0.234400  1.0  0.6037
  N  N65  1  0.293200  0.965000  0.765600  1.0  0.6068
  N  N66  1  0.965000  0.293200  0.765600  1.0  0.6078
  N  N67  1  0.035000  0.706800  0.234400  1.0  0.6026
  O  O68  1  0.859130  0.020930  0.423800  1.0  -0.5872
  O  O69  1  0.136030  0.813510  0.634200  1.0  -0.5668
  O  O70  1  0.979600  0.854600  0.793700  1.0  -0.5778
  O  O71  1  0.092760  0.092760  0.416300  1.0  -1.1618
  O  O72  1  0.186490  0.863970  0.365800  1.0  -0.5639
  O  O73  1  0.852970  0.681010  0.534800  1.0  -0.6092
  O  O74  1  0.318990  0.147030  0.465200  1.0  -0.6021
  O  O75  1  0.813510  0.136030  0.634200  1.0  -0.5674
  O  O76  1  0.201900  0.962900  0.774300  1.0  -0.3635
  O  O77  1  0.979070  0.140870  0.576200  1.0  -0.5874
  O  O78  1  0.020400  0.145400  0.206300  1.0  -0.5801
  O  O79  1  0.952940  0.667920  0.658800  1.0  -0.5838
  O  O80  1  0.660000  0.009600  0.171000  1.0  -0.3334
  O  O81  1  0.681010  0.852970  0.534800  1.0  -0.6047
  O  O82  1  0.332080  0.047060  0.341200  1.0  -0.5738
  O  O83  1  0.667920  0.952940  0.658800  1.0  -0.5834
  O  O84  1  0.047060  0.332080  0.341200  1.0  -0.577
  O  O85  1  0.854600  0.979600  0.793700  1.0  -0.5771
  O  O86  1  0.009600  0.660000  0.171000  1.0  -0.3325
  O  O87  1  0.140870  0.979070  0.576200  1.0  -0.5868
  O  O88  1  0.145400  0.020400  0.206300  1.0  -0.5801
  O  O89  1  0.340000  0.990400  0.829000  1.0  -0.3315
  O  O90  1  0.962900  0.201900  0.774300  1.0  -0.3597
  O  O91  1  0.863970  0.186490  0.365800  1.0  -0.5674
  O  O92  1  0.798100  0.037100  0.225700  1.0  -0.3626
  O  O93  1  0.020930  0.859130  0.423800  1.0  -0.5857
  O  O94  1  0.907240  0.907240  0.583700  1.0  -1.1609
  O  O95  1  0.147030  0.318990  0.465200  1.0  -0.6072
  O  O96  1  0.037100  0.798100  0.225700  1.0  -0.3589
  O  O97  1  0.990400  0.340000  0.829000  1.0  -0.3309
