# generated using pymatgen
data_Ti2H6C12(N2O3)3
_symmetry_space_group_name_H-M   'P 1'
_cell_length_a   18.70280000
_cell_length_b   18.70280000
_cell_length_c   18.20280000
_cell_angle_alpha   90.00000000
_cell_angle_beta   90.00000000
_cell_angle_gamma   90.00000000
_symmetry_Int_Tables_number   1
_chemical_formula_structural   Ti2H6C12(N2O3)3
_chemical_formula_sum   'Ti16 H48 C96 N48 O72'
_cell_volume   6367.24347193
_cell_formula_units_Z   8
loop_
 _symmetry_equiv_pos_site_id
 _symmetry_equiv_pos_as_xyz
  1  'x, y, z'
loop_
 _atom_site_type_symbol
 _atom_site_label
 _atom_site_symmetry_multiplicity
 _atom_site_fract_x
 _atom_site_fract_y
 _atom_site_fract_z
 _atom_site_occupancy
 _atom_site_charge
  Ti  Ti1  1  0.208300  0.074000  0.500000  1.0  1.9444
  Ti  Ti2  1  0.708300  0.574000  0.000000  1.0  1.9444
  Ti  Ti3  1  0.791700  0.926000  0.500000  1.0  1.9437
  Ti  Ti4  1  0.291700  0.426000  0.000000  1.0  1.9437
  Ti  Ti5  1  0.926000  0.208300  0.500000  1.0  1.9432
  Ti  Ti6  1  0.426000  0.708300  0.000000  1.0  1.9432
  Ti  Ti7  1  0.074000  0.791700  0.500000  1.0  1.9459
  Ti  Ti8  1  0.574000  0.291700  0.000000  1.0  1.9459
  Ti  Ti9  1  0.791700  0.074000  0.500000  1.0  1.9426
  Ti  Ti10  1  0.291700  0.574000  0.000000  1.0  1.9426
  Ti  Ti11  1  0.208300  0.926000  0.500000  1.0  1.9457
  Ti  Ti12  1  0.708300  0.426000  0.000000  1.0  1.9457
  Ti  Ti13  1  0.074000  0.208300  0.500000  1.0  1.9455
  Ti  Ti14  1  0.574000  0.708300  0.000000  1.0  1.9455
  Ti  Ti15  1  0.926000  0.791700  0.500000  1.0  1.9436
  Ti  Ti16  1  0.426000  0.291700  0.000000  1.0  1.9436
  H  H17  1  0.153080  0.306090  0.309270  1.0  0.2651
  H  H18  1  0.653080  0.806090  0.809270  1.0  0.2651
  H  H19  1  0.846920  0.693910  0.309270  1.0  0.2694
  H  H20  1  0.346920  0.193910  0.809270  1.0  0.2694
  H  H21  1  0.693910  0.153080  0.309270  1.0  0.2699
  H  H22  1  0.193910  0.653080  0.809270  1.0  0.2699
  H  H23  1  0.306090  0.846920  0.309270  1.0  0.2654
  H  H24  1  0.806090  0.346920  0.809270  1.0  0.2654
  H  H25  1  0.846920  0.306090  0.690730  1.0  0.2654
  H  H26  1  0.346920  0.806090  0.190730  1.0  0.2654
  H  H27  1  0.153080  0.693910  0.690730  1.0  0.2693
  H  H28  1  0.653080  0.193910  0.190730  1.0  0.2693
  H  H29  1  0.306090  0.153080  0.690730  1.0  0.2695
  H  H30  1  0.806090  0.653080  0.190730  1.0  0.2695
  H  H31  1  0.693910  0.846920  0.690730  1.0  0.2662
  H  H32  1  0.193910  0.346920  0.190730  1.0  0.2662
  H  H33  1  0.846920  0.693910  0.690730  1.0  0.2685
  H  H34  1  0.346920  0.193910  0.190730  1.0  0.2685
  H  H35  1  0.153080  0.306090  0.690730  1.0  0.2656
  H  H36  1  0.653080  0.806090  0.190730  1.0  0.2656
  H  H37  1  0.306090  0.846920  0.690730  1.0  0.2659
  H  H38  1  0.806090  0.346920  0.190730  1.0  0.2659
  H  H39  1  0.693910  0.153080  0.690730  1.0  0.2692
  H  H40  1  0.193910  0.653080  0.190730  1.0  0.2692
  H  H41  1  0.153080  0.693910  0.309270  1.0  0.2698
  H  H42  1  0.653080  0.193910  0.809270  1.0  0.2698
  H  H43  1  0.846920  0.306090  0.309270  1.0  0.2647
  H  H44  1  0.346920  0.806090  0.809270  1.0  0.2647
  H  H45  1  0.693910  0.846920  0.309270  1.0  0.2658
  H  H46  1  0.193910  0.346920  0.809270  1.0  0.2658
  H  H47  1  0.306090  0.153080  0.309270  1.0  0.2708
  H  H48  1  0.806090  0.653080  0.809270  1.0  0.2708
  H  H49  1  0.434300  0.107250  0.500000  1.0  0.221
  H  H50  1  0.934300  0.607250  0.000000  1.0  0.221
  H  H51  1  0.565700  0.892750  0.500000  1.0  0.2248
  H  H52  1  0.065700  0.392750  0.000000  1.0  0.2248
  H  H53  1  0.892750  0.434300  0.500000  1.0  0.2246
  H  H54  1  0.392750  0.934300  0.000000  1.0  0.2246
  H  H55  1  0.107250  0.565700  0.500000  1.0  0.2224
  H  H56  1  0.607250  0.065700  0.000000  1.0  0.2224
  H  H57  1  0.565700  0.107250  0.500000  1.0  0.2198
  H  H58  1  0.065700  0.607250  0.000000  1.0  0.2198
  H  H59  1  0.434300  0.892750  0.500000  1.0  0.2262
  H  H60  1  0.934300  0.392750  0.000000  1.0  0.2262
  H  H61  1  0.107250  0.434300  0.500000  1.0  0.2262
  H  H62  1  0.607250  0.934300  0.000000  1.0  0.2262
  H  H63  1  0.892750  0.565700  0.500000  1.0  0.2236
  H  H64  1  0.392750  0.065700  0.000000  1.0  0.2236
  C  C65  1  0.192910  0.281220  0.284260  1.0  -0.0321
  C  C66  1  0.692910  0.781220  0.784260  1.0  -0.0321
  C  C67  1  0.807090  0.718780  0.284260  1.0  -0.0311
  C  C68  1  0.307090  0.218780  0.784260  1.0  -0.0311
  C  C69  1  0.718780  0.192910  0.284260  1.0  -0.035
  C  C70  1  0.218780  0.692910  0.784260  1.0  -0.035
  C  C71  1  0.281220  0.807090  0.284260  1.0  -0.032
  C  C72  1  0.781220  0.307090  0.784260  1.0  -0.032
  C  C73  1  0.807090  0.281220  0.715740  1.0  -0.0321
  C  C74  1  0.307090  0.781220  0.215740  1.0  -0.0321
  C  C75  1  0.192910  0.718780  0.715740  1.0  -0.0294
  C  C76  1  0.692910  0.218780  0.215740  1.0  -0.0294
  C  C77  1  0.281220  0.192910  0.715740  1.0  -0.0314
  C  C78  1  0.781220  0.692910  0.215740  1.0  -0.0314
  C  C79  1  0.718780  0.807090  0.715740  1.0  -0.0324
  C  C80  1  0.218780  0.307090  0.215740  1.0  -0.0324
  C  C81  1  0.807090  0.718780  0.715740  1.0  -0.0302
  C  C82  1  0.307090  0.218780  0.215740  1.0  -0.0302
  C  C83  1  0.192910  0.281220  0.715740  1.0  -0.0312
  C  C84  1  0.692910  0.781220  0.215740  1.0  -0.0312
  C  C85  1  0.281220  0.807090  0.715740  1.0  -0.0317
  C  C86  1  0.781220  0.307090  0.215740  1.0  -0.0317
  C  C87  1  0.718780  0.192910  0.715740  1.0  -0.0332
  C  C88  1  0.218780  0.692910  0.215740  1.0  -0.0332
  C  C89  1  0.192910  0.718780  0.284260  1.0  -0.0308
  C  C90  1  0.692910  0.218780  0.784260  1.0  -0.0308
  C  C91  1  0.807090  0.281220  0.284260  1.0  -0.0322
  C  C92  1  0.307090  0.781220  0.784260  1.0  -0.0322
  C  C93  1  0.718780  0.807090  0.284260  1.0  -0.0333
  C  C94  1  0.218780  0.307090  0.784260  1.0  -0.0333
  C  C95  1  0.281220  0.192910  0.284260  1.0  -0.0329
  C  C96  1  0.781220  0.692910  0.784260  1.0  -0.0329
  C  C97  1  0.463330  0.065140  0.500000  1.0  -0.0866
  C  C98  1  0.963330  0.565140  0.000000  1.0  -0.0866
  C  C99  1  0.536670  0.934860  0.500000  1.0  -0.0839
  C  C100  1  0.036670  0.434860  0.000000  1.0  -0.0839
  C  C101  1  0.934860  0.463330  0.500000  1.0  -0.0847
  C  C102  1  0.434860  0.963330  0.000000  1.0  -0.0847
  C  C103  1  0.065140  0.536670  0.500000  1.0  -0.083
  C  C104  1  0.565140  0.036670  0.000000  1.0  -0.083
  C  C105  1  0.536670  0.065140  0.500000  1.0  -0.0851
  C  C106  1  0.036670  0.565140  0.000000  1.0  -0.0851
  C  C107  1  0.463330  0.934860  0.500000  1.0  -0.0856
  C  C108  1  0.963330  0.434860  0.000000  1.0  -0.0856
  C  C109  1  0.065140  0.463330  0.500000  1.0  -0.0827
  C  C110  1  0.565140  0.963330  0.000000  1.0  -0.0827
  C  C111  1  0.934860  0.536670  0.500000  1.0  -0.0852
  C  C112  1  0.434860  0.036670  0.000000  1.0  -0.0852
  C  C113  1  0.194000  0.194000  0.402300  1.0  0.7531
  C  C114  1  0.222500  0.222500  0.320900  1.0  0.0013
  C  C115  1  0.694000  0.694000  0.902300  1.0  0.7531
  C  C116  1  0.722500  0.722500  0.820900  1.0  0.0013
  C  C117  1  0.806000  0.806000  0.402300  1.0  0.7533
  C  C118  1  0.777500  0.777500  0.320900  1.0  0.0027
  C  C119  1  0.306000  0.306000  0.902300  1.0  0.7533
  C  C120  1  0.277500  0.277500  0.820900  1.0  0.0027
  C  C121  1  0.806000  0.194000  0.402300  1.0  0.7532
  C  C122  1  0.777500  0.222500  0.320900  1.0  0.0028
  C  C123  1  0.306000  0.694000  0.902300  1.0  0.7532
  C  C124  1  0.277500  0.722500  0.820900  1.0  0.0028
  C  C125  1  0.194000  0.806000  0.402300  1.0  0.7532
  C  C126  1  0.222500  0.777500  0.320900  1.0  0.001
  C  C127  1  0.694000  0.306000  0.902300  1.0  0.7532
  C  C128  1  0.722500  0.277500  0.820900  1.0  0.001
  C  C129  1  0.806000  0.194000  0.597700  1.0  0.7534
  C  C130  1  0.777500  0.222500  0.679100  1.0  0.0045
  C  C131  1  0.306000  0.694000  0.097700  1.0  0.7534
  C  C132  1  0.277500  0.722500  0.179100  1.0  0.0045
  C  C133  1  0.194000  0.806000  0.597700  1.0  0.7537
  C  C134  1  0.222500  0.777500  0.679100  1.0  0.0036
  C  C135  1  0.694000  0.306000  0.097700  1.0  0.7537
  C  C136  1  0.722500  0.277500  0.179100  1.0  0.0036
  C  C137  1  0.194000  0.194000  0.597700  1.0  0.7535
  C  C138  1  0.222500  0.222500  0.679100  1.0  0.0027
  C  C139  1  0.694000  0.694000  0.097700  1.0  0.7535
  C  C140  1  0.722500  0.722500  0.179100  1.0  0.0027
  C  C141  1  0.806000  0.806000  0.597700  1.0  0.7536
  C  C142  1  0.777500  0.777500  0.679100  1.0  0.0055
  C  C143  1  0.306000  0.306000  0.097700  1.0  0.7536
  C  C144  1  0.277500  0.277500  0.179100  1.0  0.0055
  C  C145  1  0.426500  0.000000  0.500000  1.0  0.0388
  C  C146  1  0.350700  0.000000  0.500000  1.0  0.5315
  C  C147  1  0.926500  0.500000  0.000000  1.0  0.0388
  C  C148  1  0.850700  0.500000  0.000000  1.0  0.5315
  C  C149  1  0.573500  0.000000  0.500000  1.0  0.0395
  C  C150  1  0.649300  0.000000  0.500000  1.0  0.5332
  C  C151  1  0.073500  0.500000  0.000000  1.0  0.0395
  C  C152  1  0.149300  0.500000  0.000000  1.0  0.5332
  C  C153  1  0.000000  0.426500  0.500000  1.0  0.0384
  C  C154  1  0.000000  0.350700  0.500000  1.0  0.531
  C  C155  1  0.500000  0.926500  0.000000  1.0  0.0384
  C  C156  1  0.500000  0.850700  0.000000  1.0  0.531
  C  C157  1  0.000000  0.573500  0.500000  1.0  0.0371
  C  C158  1  0.000000  0.649300  0.500000  1.0  0.5307
  C  C159  1  0.500000  0.073500  0.000000  1.0  0.0371
  C  C160  1  0.500000  0.149300  0.000000  1.0  0.5307
  N  N161  1  0.137420  0.315870  0.319100  1.0  -0.3089
  N  N162  1  0.637420  0.815870  0.819100  1.0  -0.3089
  N  N163  1  0.862580  0.684130  0.319100  1.0  -0.3081
  N  N164  1  0.362580  0.184130  0.819100  1.0  -0.3081
  N  N165  1  0.684130  0.137420  0.319100  1.0  -0.3049
  N  N166  1  0.184130  0.637420  0.819100  1.0  -0.3049
  N  N167  1  0.315870  0.862580  0.319100  1.0  -0.3069
  N  N168  1  0.815870  0.362580  0.819100  1.0  -0.3069
  N  N169  1  0.862580  0.315870  0.680900  1.0  -0.3095
  N  N170  1  0.362580  0.815870  0.180900  1.0  -0.3095
  N  N171  1  0.137420  0.684130  0.680900  1.0  -0.3103
  N  N172  1  0.637420  0.184130  0.180900  1.0  -0.3103
  N  N173  1  0.315870  0.137420  0.680900  1.0  -0.3066
  N  N174  1  0.815870  0.637420  0.180900  1.0  -0.3066
  N  N175  1  0.684130  0.862580  0.680900  1.0  -0.3067
  N  N176  1  0.184130  0.362580  0.180900  1.0  -0.3067
  N  N177  1  0.862580  0.684130  0.680900  1.0  -0.3092
  N  N178  1  0.362580  0.184130  0.180900  1.0  -0.3092
  N  N179  1  0.137420  0.315870  0.680900  1.0  -0.3109
  N  N180  1  0.637420  0.815870  0.180900  1.0  -0.3109
  N  N181  1  0.315870  0.862580  0.680900  1.0  -0.3066
  N  N182  1  0.815870  0.362580  0.180900  1.0  -0.3066
  N  N183  1  0.684130  0.137420  0.680900  1.0  -0.3059
  N  N184  1  0.184130  0.637420  0.180900  1.0  -0.3059
  N  N185  1  0.137420  0.684130  0.319100  1.0  -0.3071
  N  N186  1  0.637420  0.184130  0.819100  1.0  -0.3071
  N  N187  1  0.862580  0.315870  0.319100  1.0  -0.31
  N  N188  1  0.362580  0.815870  0.819100  1.0  -0.31
  N  N189  1  0.684130  0.862580  0.319100  1.0  -0.3073
  N  N190  1  0.184130  0.362580  0.819100  1.0  -0.3073
  N  N191  1  0.315870  0.137420  0.319100  1.0  -0.3054
  N  N192  1  0.815870  0.637420  0.819100  1.0  -0.3054
  N  N193  1  0.423480  0.122940  0.500000  1.0  -0.3151
  N  N194  1  0.923480  0.622940  0.000000  1.0  -0.3151
  N  N195  1  0.576520  0.877060  0.500000  1.0  -0.3205
  N  N196  1  0.076520  0.377060  0.000000  1.0  -0.3205
  N  N197  1  0.877060  0.423480  0.500000  1.0  -0.3157
  N  N198  1  0.377060  0.923480  0.000000  1.0  -0.3157
  N  N199  1  0.122940  0.576520  0.500000  1.0  -0.3213
  N  N200  1  0.622940  0.076520  0.000000  1.0  -0.3213
  N  N201  1  0.576520  0.122940  0.500000  1.0  -0.319
  N  N202  1  0.076520  0.622940  0.000000  1.0  -0.319
  N  N203  1  0.423480  0.877060  0.500000  1.0  -0.316
  N  N204  1  0.923480  0.377060  0.000000  1.0  -0.316
  N  N205  1  0.122940  0.423480  0.500000  1.0  -0.3211
  N  N206  1  0.622940  0.923480  0.000000  1.0  -0.3211
  N  N207  1  0.877060  0.576520  0.500000  1.0  -0.3169
  N  N208  1  0.377060  0.076520  0.000000  1.0  -0.3169
  O  O209  1  0.225900  0.144200  0.426800  1.0  -0.5723
  O  O210  1  0.725900  0.644200  0.926800  1.0  -0.5723
  O  O211  1  0.774100  0.855800  0.426800  1.0  -0.5732
  O  O212  1  0.274100  0.355800  0.926800  1.0  -0.5732
  O  O213  1  0.855800  0.225900  0.426800  1.0  -0.5718
  O  O214  1  0.355800  0.725900  0.926800  1.0  -0.5718
  O  O215  1  0.144200  0.774100  0.426800  1.0  -0.5736
  O  O216  1  0.644200  0.274100  0.926800  1.0  -0.5736
  O  O217  1  0.774100  0.144200  0.573200  1.0  -0.5734
  O  O218  1  0.274100  0.644200  0.073200  1.0  -0.5734
  O  O219  1  0.225900  0.855800  0.573200  1.0  -0.5727
  O  O220  1  0.725900  0.355800  0.073200  1.0  -0.5727
  O  O221  1  0.144200  0.225900  0.573200  1.0  -0.5731
  O  O222  1  0.644200  0.725900  0.073200  1.0  -0.5731
  O  O223  1  0.855800  0.774100  0.573200  1.0  -0.5729
  O  O224  1  0.355800  0.274100  0.073200  1.0  -0.5729
  O  O225  1  0.774100  0.855800  0.573200  1.0  -0.5735
  O  O226  1  0.274100  0.355800  0.073200  1.0  -0.5735
  O  O227  1  0.225900  0.144200  0.573200  1.0  -0.5726
  O  O228  1  0.725900  0.644200  0.073200  1.0  -0.5726
  O  O229  1  0.144200  0.774100  0.573200  1.0  -0.5738
  O  O230  1  0.644200  0.274100  0.073200  1.0  -0.5738
  O  O231  1  0.855800  0.225900  0.573200  1.0  -0.572
  O  O232  1  0.355800  0.725900  0.073200  1.0  -0.572
  O  O233  1  0.225900  0.855800  0.426800  1.0  -0.5724
  O  O234  1  0.725900  0.355800  0.926800  1.0  -0.5724
  O  O235  1  0.774100  0.144200  0.426800  1.0  -0.5731
  O  O236  1  0.274100  0.644200  0.926800  1.0  -0.5731
  O  O237  1  0.855800  0.774100  0.426800  1.0  -0.5727
  O  O238  1  0.355800  0.274100  0.926800  1.0  -0.5727
  O  O239  1  0.144200  0.225900  0.426800  1.0  -0.573
  O  O240  1  0.644200  0.725900  0.926800  1.0  -0.573
  O  O241  1  0.311100  0.058000  0.500000  1.0  -0.6077
  O  O242  1  0.811100  0.558000  0.000000  1.0  -0.6077
  O  O243  1  0.688900  0.942000  0.500000  1.0  -0.6088
  O  O244  1  0.188900  0.442000  0.000000  1.0  -0.6088
  O  O245  1  0.942000  0.311100  0.500000  1.0  -0.6051
  O  O246  1  0.442000  0.811100  0.000000  1.0  -0.6051
  O  O247  1  0.058000  0.688900  0.500000  1.0  -0.6035
  O  O248  1  0.558000  0.188900  0.000000  1.0  -0.6035
  O  O249  1  0.688900  0.058000  0.500000  1.0  -0.6083
  O  O250  1  0.188900  0.558000  0.000000  1.0  -0.6083
  O  O251  1  0.311100  0.942000  0.500000  1.0  -0.608
  O  O252  1  0.811100  0.442000  0.000000  1.0  -0.608
  O  O253  1  0.058000  0.311100  0.500000  1.0  -0.6052
  O  O254  1  0.558000  0.811100  0.000000  1.0  -0.6052
  O  O255  1  0.942000  0.688900  0.500000  1.0  -0.6036
  O  O256  1  0.442000  0.188900  0.000000  1.0  -0.6036
  O  O257  1  0.181900  0.000000  0.426500  1.0  -0.5836
  O  O258  1  0.681900  0.500000  0.926500  1.0  -0.5836
  O  O259  1  0.818100  0.000000  0.426500  1.0  -0.5842
  O  O260  1  0.318100  0.500000  0.926500  1.0  -0.5842
  O  O261  1  0.000000  0.181900  0.426500  1.0  -0.5839
  O  O262  1  0.500000  0.681900  0.926500  1.0  -0.5839
  O  O263  1  0.000000  0.818100  0.426500  1.0  -0.5866
  O  O264  1  0.500000  0.318100  0.926500  1.0  -0.5866
  O  O265  1  0.818100  0.000000  0.573500  1.0  -0.5823
  O  O266  1  0.318100  0.500000  0.073500  1.0  -0.5823
  O  O267  1  0.181900  0.000000  0.573500  1.0  -0.5829
  O  O268  1  0.681900  0.500000  0.073500  1.0  -0.5829
  O  O269  1  0.000000  0.181900  0.573500  1.0  -0.5848
  O  O270  1  0.500000  0.681900  0.073500  1.0  -0.5848
  O  O271  1  0.000000  0.818100  0.573500  1.0  -0.583
  O  O272  1  0.500000  0.318100  0.073500  1.0  -0.583
  O  O273  1  0.107400  0.107400  0.500000  1.0  -0.6531
  O  O274  1  0.607400  0.607400  0.000000  1.0  -0.6531
  O  O275  1  0.892600  0.892600  0.500000  1.0  -0.6517
  O  O276  1  0.392600  0.392600  0.000000  1.0  -0.6517
  O  O277  1  0.892600  0.107400  0.500000  1.0  -0.6543
  O  O278  1  0.392600  0.607400  0.000000  1.0  -0.6543
  O  O279  1  0.107400  0.892600  0.500000  1.0  -0.651
  O  O280  1  0.607400  0.392600  0.000000  1.0  -0.651
