# generated using pymatgen
data_Cd(CN)2
_symmetry_space_group_name_H-M   'P 1'
_cell_length_a   8.27280000
_cell_length_b   8.27280000
_cell_length_c   15.24900000
_cell_angle_alpha   88.81990000
_cell_angle_beta   88.81990000
_cell_angle_gamma   86.47340000
_symmetry_Int_Tables_number   1
_chemical_formula_structural   Cd(CN)2
_chemical_formula_sum   'Cd4 C8 N8'
_cell_volume   1041.23708330
_cell_formula_units_Z   4
loop_
 _symmetry_equiv_pos_site_id
 _symmetry_equiv_pos_as_xyz
  1  'x, y, z'
loop_
 _atom_site_type_symbol
 _atom_site_label
 _atom_site_symmetry_multiplicity
 _atom_site_fract_x
 _atom_site_fract_y
 _atom_site_fract_z
 _atom_site_occupancy
 _atom_site_charge
  Cd  Cd1  1  0.500000  0.000000  0.500000  1.0  1.128
  Cd  Cd2  1  0.000000  0.500000  0.000000  1.0  1.128
  Cd  Cd3  1  0.488950  0.511050  0.250000  1.0  0.4747
  Cd  Cd4  1  0.511050  0.488950  0.750000  1.0  0.4756
  C  C5  1  0.480000  0.718200  0.339000  1.0  -0.0161
  C  C6  1  0.494800  0.299200  0.341200  1.0  0.0094
  C  C7  1  0.281800  0.520000  0.161000  1.0  -0.0137
  C  C8  1  0.700800  0.505200  0.158800  1.0  0.0129
  C  C9  1  0.520000  0.281800  0.661000  1.0  -0.0162
  C  C10  1  0.505200  0.700800  0.658800  1.0  0.0119
  C  C11  1  0.718200  0.480000  0.839000  1.0  -0.0125
  C  C12  1  0.299200  0.494800  0.841200  1.0  0.0159
  N  N13  1  0.475700  0.812100  0.392000  1.0  -0.409
  N  N14  1  0.500300  0.199900  0.392600  1.0  -0.3937
  N  N15  1  0.187900  0.524300  0.108000  1.0  -0.4048
  N  N16  1  0.800100  0.499700  0.107400  1.0  -0.3919
  N  N17  1  0.524300  0.187900  0.608000  1.0  -0.4068
  N  N18  1  0.499700  0.800100  0.607400  1.0  -0.3936
  N  N19  1  0.812100  0.475700  0.892000  1.0  -0.4063
  N  N20  1  0.199900  0.500300  0.892600  1.0  -0.3918
