# generated using pymatgen
data_FeH2(C3O2)2
_symmetry_space_group_name_H-M   'P 1'
_cell_length_a   18.83220000
_cell_length_b   18.83220000
_cell_length_c   18.83220000
_cell_angle_alpha   60.00000000
_cell_angle_beta   60.00000000
_cell_angle_gamma   60.00000000
_symmetry_Int_Tables_number   1
_chemical_formula_structural   FeH2(C3O2)2
_chemical_formula_sum   'Fe12 H24 C72 O48'
_cell_volume   4722.67625828
_cell_formula_units_Z   12
loop_
 _symmetry_equiv_pos_site_id
 _symmetry_equiv_pos_as_xyz
  1  'x, y, z'
loop_
 _atom_site_type_symbol
 _atom_site_label
 _atom_site_symmetry_multiplicity
 _atom_site_fract_x
 _atom_site_fract_y
 _atom_site_fract_z
 _atom_site_occupancy
 _atom_site_charge
  Fe  Fe1  1  0.579360  0.420640  0.000000  1.0  0.9787
  Fe  Fe2  1  0.420640  0.579360  0.000000  1.0  0.9803
  Fe  Fe3  1  0.000000  0.000000  0.579360  1.0  0.9806
  Fe  Fe4  1  0.000000  0.000000  0.420640  1.0  0.9796
  Fe  Fe5  1  0.579360  0.000000  0.000000  1.0  0.9825
  Fe  Fe6  1  0.420640  0.000000  0.000000  1.0  0.9825
  Fe  Fe7  1  0.000000  0.579360  0.420640  1.0  0.9796
  Fe  Fe8  1  0.000000  0.420640  0.579360  1.0  0.9794
  Fe  Fe9  1  0.579360  0.000000  0.420640  1.0  0.9826
  Fe  Fe10  1  0.420640  0.000000  0.579360  1.0  0.9833
  Fe  Fe11  1  0.000000  0.420640  0.000000  1.0  0.9792
  Fe  Fe12  1  0.000000  0.579360  0.000000  1.0  0.9801
  H  H13  1  0.268000  0.504000  0.960000  1.0  0.0669
  H  H14  1  0.504000  0.268000  0.268000  1.0  0.0642
  H  H15  1  0.960000  0.268000  0.268000  1.0  0.0627
  H  H16  1  0.268000  0.960000  0.504000  1.0  0.0602
  H  H17  1  0.268000  0.960000  0.268000  1.0  0.062
  H  H18  1  0.504000  0.268000  0.960000  1.0  0.0636
  H  H19  1  0.960000  0.268000  0.504000  1.0  0.0608
  H  H20  1  0.268000  0.504000  0.268000  1.0  0.0672
  H  H21  1  0.268000  0.268000  0.504000  1.0  0.0601
  H  H22  1  0.504000  0.960000  0.268000  1.0  0.0631
  H  H23  1  0.960000  0.504000  0.268000  1.0  0.0663
  H  H24  1  0.268000  0.268000  0.960000  1.0  0.0619
  H  H25  1  0.496000  0.732000  0.040000  1.0  0.061
  H  H26  1  0.732000  0.496000  0.732000  1.0  0.0686
  H  H27  1  0.732000  0.040000  0.732000  1.0  0.0608
  H  H28  1  0.040000  0.732000  0.496000  1.0  0.061
  H  H29  1  0.040000  0.732000  0.732000  1.0  0.0609
  H  H30  1  0.732000  0.496000  0.040000  1.0  0.0688
  H  H31  1  0.732000  0.040000  0.496000  1.0  0.0624
  H  H32  1  0.496000  0.732000  0.732000  1.0  0.0604
  H  H33  1  0.732000  0.732000  0.496000  1.0  0.0609
  H  H34  1  0.040000  0.496000  0.732000  1.0  0.0679
  H  H35  1  0.496000  0.040000  0.732000  1.0  0.0609
  H  H36  1  0.732000  0.732000  0.040000  1.0  0.0596
  C  C37  1  0.430700  0.430700  0.973500  1.0  0.7236
  C  C38  1  0.386300  0.386300  0.968980  1.0  -0.124
  C  C39  1  0.430700  0.430700  0.165100  1.0  0.7236
  C  C40  1  0.386300  0.386300  0.258420  1.0  -0.1239
  C  C41  1  0.973500  0.165100  0.430700  1.0  0.7257
  C  C42  1  0.968980  0.258420  0.386300  1.0  -0.1244
  C  C43  1  0.165100  0.973500  0.430700  1.0  0.7239
  C  C44  1  0.258420  0.968980  0.386300  1.0  -0.1248
  C  C45  1  0.430700  0.973500  0.165100  1.0  0.7252
  C  C46  1  0.386300  0.968980  0.258420  1.0  -0.124
  C  C47  1  0.430700  0.165100  0.973500  1.0  0.7246
  C  C48  1  0.386300  0.258420  0.968980  1.0  -0.124
  C  C49  1  0.973500  0.430700  0.430700  1.0  0.7258
  C  C50  1  0.968980  0.386300  0.386300  1.0  -0.1243
  C  C51  1  0.165100  0.430700  0.430700  1.0  0.7231
  C  C52  1  0.258420  0.386300  0.386300  1.0  -0.1237
  C  C53  1  0.430700  0.165100  0.430700  1.0  0.7245
  C  C54  1  0.386300  0.258420  0.386300  1.0  -0.1237
  C  C55  1  0.430700  0.973500  0.430700  1.0  0.7255
  C  C56  1  0.386300  0.968980  0.386300  1.0  -0.1241
  C  C57  1  0.973500  0.430700  0.165100  1.0  0.7258
  C  C58  1  0.968980  0.386300  0.258420  1.0  -0.1245
  C  C59  1  0.165100  0.430700  0.973500  1.0  0.7232
  C  C60  1  0.258420  0.386300  0.968980  1.0  -0.1237
  C  C61  1  0.569300  0.569300  0.026500  1.0  0.7236
  C  C62  1  0.613700  0.613700  0.031020  1.0  -0.1244
  C  C63  1  0.569300  0.569300  0.834900  1.0  0.7237
  C  C64  1  0.613700  0.613700  0.741580  1.0  -0.1245
  C  C65  1  0.834900  0.026500  0.569300  1.0  0.7229
  C  C66  1  0.741580  0.031020  0.613700  1.0  -0.1245
  C  C67  1  0.026500  0.834900  0.569300  1.0  0.7254
  C  C68  1  0.031020  0.741580  0.613700  1.0  -0.124
  C  C69  1  0.026500  0.569300  0.834900  1.0  0.7256
  C  C70  1  0.031020  0.613700  0.741580  1.0  -0.1243
  C  C71  1  0.834900  0.569300  0.026500  1.0  0.7237
  C  C72  1  0.741580  0.613700  0.031020  1.0  -0.1236
  C  C73  1  0.569300  0.026500  0.569300  1.0  0.7247
  C  C74  1  0.613700  0.031020  0.613700  1.0  -0.1242
  C  C75  1  0.569300  0.834900  0.569300  1.0  0.7248
  C  C76  1  0.613700  0.741580  0.613700  1.0  -0.1237
  C  C77  1  0.834900  0.569300  0.569300  1.0  0.7237
  C  C78  1  0.741580  0.613700  0.613700  1.0  -0.1236
  C  C79  1  0.026500  0.569300  0.569300  1.0  0.7254
  C  C80  1  0.031020  0.613700  0.613700  1.0  -0.1243
  C  C81  1  0.569300  0.026500  0.834900  1.0  0.7249
  C  C82  1  0.613700  0.031020  0.741580  1.0  -0.1242
  C  C83  1  0.569300  0.834900  0.026500  1.0  0.7248
  C  C84  1  0.613700  0.741580  0.031020  1.0  -0.1236
  C  C85  1  0.301300  0.428740  0.968660  1.0  0.1328
  C  C86  1  0.428740  0.301300  0.301300  1.0  0.1314
  C  C87  1  0.968660  0.301300  0.301300  1.0  0.1353
  C  C88  1  0.301300  0.968660  0.428740  1.0  0.1355
  C  C89  1  0.301300  0.968660  0.301300  1.0  0.135
  C  C90  1  0.428740  0.301300  0.968660  1.0  0.132
  C  C91  1  0.968660  0.301300  0.428740  1.0  0.1359
  C  C92  1  0.301300  0.428740  0.301300  1.0  0.1326
  C  C93  1  0.301300  0.301300  0.428740  1.0  0.1347
  C  C94  1  0.428740  0.968660  0.301300  1.0  0.1317
  C  C95  1  0.968660  0.428740  0.301300  1.0  0.133
  C  C96  1  0.301300  0.301300  0.968660  1.0  0.1338
  C  C97  1  0.571260  0.698700  0.031340  1.0  0.1339
  C  C98  1  0.698700  0.571260  0.698700  1.0  0.1346
  C  C99  1  0.698700  0.031340  0.698700  1.0  0.1354
  C  C100  1  0.031340  0.698700  0.571260  1.0  0.1338
  C  C101  1  0.031340  0.698700  0.698700  1.0  0.1348
  C  C102  1  0.698700  0.571260  0.031340  1.0  0.1343
  C  C103  1  0.698700  0.031340  0.571260  1.0  0.1336
  C  C104  1  0.571260  0.698700  0.698700  1.0  0.1343
  C  C105  1  0.698700  0.698700  0.571260  1.0  0.1316
  C  C106  1  0.031340  0.571260  0.698700  1.0  0.1338
  C  C107  1  0.571260  0.031340  0.698700  1.0  0.1355
  C  C108  1  0.698700  0.698700  0.031340  1.0  0.1325
  O  O109  1  0.504580  0.388300  0.978520  1.0  -0.6459
  O  O110  1  0.388300  0.504580  0.128600  1.0  -0.6447
  O  O111  1  0.978520  0.128600  0.504580  1.0  -0.6425
  O  O112  1  0.128600  0.978520  0.388300  1.0  -0.6438
  O  O113  1  0.504580  0.978520  0.128600  1.0  -0.6443
  O  O114  1  0.388300  0.128600  0.978520  1.0  -0.6428
  O  O115  1  0.978520  0.504580  0.388300  1.0  -0.6432
  O  O116  1  0.128600  0.388300  0.504580  1.0  -0.6435
  O  O117  1  0.504580  0.128600  0.388300  1.0  -0.6445
  O  O118  1  0.388300  0.978520  0.504580  1.0  -0.6422
  O  O119  1  0.978520  0.388300  0.128600  1.0  -0.6451
  O  O120  1  0.128600  0.504580  0.978520  1.0  -0.6438
  O  O121  1  0.611700  0.495420  0.021480  1.0  -0.6452
  O  O122  1  0.495420  0.611700  0.871400  1.0  -0.6442
  O  O123  1  0.871400  0.021480  0.495420  1.0  -0.6441
  O  O124  1  0.021480  0.871400  0.611700  1.0  -0.642
  O  O125  1  0.021480  0.495420  0.871400  1.0  -0.6445
  O  O126  1  0.871400  0.611700  0.021480  1.0  -0.6435
  O  O127  1  0.495420  0.021480  0.611700  1.0  -0.6426
  O  O128  1  0.611700  0.871400  0.495420  1.0  -0.6431
  O  O129  1  0.871400  0.495420  0.611700  1.0  -0.6444
  O  O130  1  0.021480  0.611700  0.495420  1.0  -0.6444
  O  O131  1  0.611700  0.021480  0.871400  1.0  -0.6441
  O  O132  1  0.495420  0.871400  0.021480  1.0  -0.6436
  O  O133  1  0.495420  0.611700  0.021480  1.0  -0.6443
  O  O134  1  0.611700  0.495420  0.871400  1.0  -0.6452
  O  O135  1  0.021480  0.871400  0.495420  1.0  -0.6434
  O  O136  1  0.871400  0.021480  0.611700  1.0  -0.6424
  O  O137  1  0.495420  0.021480  0.871400  1.0  -0.6434
  O  O138  1  0.611700  0.871400  0.021480  1.0  -0.6436
  O  O139  1  0.021480  0.495420  0.611700  1.0  -0.6437
  O  O140  1  0.871400  0.611700  0.495420  1.0  -0.6436
  O  O141  1  0.495420  0.871400  0.611700  1.0  -0.6425
  O  O142  1  0.611700  0.021480  0.495420  1.0  -0.6436
  O  O143  1  0.021480  0.611700  0.871400  1.0  -0.6437
  O  O144  1  0.871400  0.495420  0.021480  1.0  -0.6457
  O  O145  1  0.388300  0.504580  0.978520  1.0  -0.6448
  O  O146  1  0.504580  0.388300  0.128600  1.0  -0.6454
  O  O147  1  0.128600  0.978520  0.504580  1.0  -0.642
  O  O148  1  0.978520  0.128600  0.388300  1.0  -0.6438
  O  O149  1  0.978520  0.504580  0.128600  1.0  -0.6427
  O  O150  1  0.128600  0.388300  0.978520  1.0  -0.644
  O  O151  1  0.504580  0.978520  0.388300  1.0  -0.6443
  O  O152  1  0.388300  0.128600  0.504580  1.0  -0.6427
  O  O153  1  0.128600  0.504580  0.388300  1.0  -0.6441
  O  O154  1  0.978520  0.388300  0.504580  1.0  -0.644
  O  O155  1  0.388300  0.978520  0.128600  1.0  -0.6429
  O  O156  1  0.504580  0.128600  0.978520  1.0  -0.644
