# generated using pymatgen
data_ZrCd2(CO2)8
_symmetry_space_group_name_H-M   'P 1'
_cell_length_a   8.47470000
_cell_length_b   8.98730000
_cell_length_c   8.98730000
_cell_angle_alpha   77.15370000
_cell_angle_beta   61.86950000
_cell_angle_gamma   61.86950000
_symmetry_Int_Tables_number   1
_chemical_formula_structural   ZrCd2(CO2)8
_chemical_formula_sum   'Zr1 Cd2 C8 O16'
_cell_volume   532.35074589
_cell_formula_units_Z   1
loop_
 _symmetry_equiv_pos_site_id
 _symmetry_equiv_pos_as_xyz
  1  'x, y, z'
loop_
 _atom_site_type_symbol
 _atom_site_label
 _atom_site_symmetry_multiplicity
 _atom_site_fract_x
 _atom_site_fract_y
 _atom_site_fract_z
 _atom_site_occupancy
 _atom_site_charge
  Zr  Zr1  1  0.327700  0.500000  0.500000  1.0  2.053
  Cd  Cd2  1  0.576640  0.000000  0.000000  1.0  1.0524
  Cd  Cd3  1  0.075200  0.000000  0.000000  1.0  0.8426
  C  C4  1  0.582200  0.228800  0.228800  1.0  0.6717
  C  C5  1  0.364300  0.270700  0.270700  1.0  0.5839
  C  C6  1  0.039800  0.771200  0.771200  1.0  0.6691
  C  C7  1  0.905700  0.729300  0.729300  1.0  0.5842
  C  C8  1  0.346000  0.771300  0.228700  1.0  0.6626
  C  C9  1  0.523000  0.729800  0.270200  1.0  0.4596
  C  C10  1  0.346000  0.228700  0.771300  1.0  0.6641
  C  C11  1  0.523000  0.270200  0.729800  1.0  0.4583
  O  O12  1  0.721200  0.121800  0.121800  1.0  -0.6632
  O  O13  1  0.315800  0.198200  0.198200  1.0  -0.5182
  O  O14  1  0.234400  0.384800  0.384800  1.0  -0.5063
  O  O15  1  0.592700  0.313900  0.313900  1.0  -0.5202
  O  O16  1  0.964800  0.878200  0.878200  1.0  -0.6624
  O  O17  1  0.712200  0.801800  0.801800  1.0  -0.5144
  O  O18  1  0.004000  0.615200  0.615200  1.0  -0.5062
  O  O19  1  0.220500  0.686100  0.686100  1.0  -0.5199
  O  O20  1  0.321000  0.878500  0.121500  1.0  -0.6243
  O  O21  1  0.648000  0.803300  0.196700  1.0  -0.5264
  O  O22  1  0.254000  0.686400  0.313600  1.0  -0.4976
  O  O23  1  0.538400  0.613600  0.386400  1.0  -0.4951
  O  O24  1  0.321000  0.121500  0.878500  1.0  -0.6241
  O  O25  1  0.648000  0.196700  0.803300  1.0  -0.5295
  O  O26  1  0.254000  0.313600  0.686400  1.0  -0.4981
  O  O27  1  0.538400  0.386400  0.613600  1.0  -0.4954
