# generated using pymatgen
data_Ga3P2O12F
_symmetry_space_group_name_H-M   'P 1'
_cell_length_a   10.04300000
_cell_length_b   10.04300000
_cell_length_c   13.82800000
_cell_angle_alpha   90.00000000
_cell_angle_beta   90.00000000
_cell_angle_gamma   90.00000000
_symmetry_Int_Tables_number   1
_chemical_formula_structural   Ga3P2O12F
_chemical_formula_sum   'Ga12 P8 O48 F4'
_cell_volume   1394.71764797
_cell_formula_units_Z   4
loop_
 _symmetry_equiv_pos_site_id
 _symmetry_equiv_pos_as_xyz
  1  'x, y, z'
loop_
 _atom_site_type_symbol
 _atom_site_label
 _atom_site_symmetry_multiplicity
 _atom_site_fract_x
 _atom_site_fract_y
 _atom_site_fract_z
 _atom_site_occupancy
 _atom_site_charge
  Ga  Ga1  1  0.000000  0.000000  0.000000  1.0  1.6426
  Ga  Ga2  1  0.500000  0.500000  0.000000  1.0  1.6426
  Ga  Ga3  1  0.500000  0.000000  0.500000  1.0  1.6426
  Ga  Ga4  1  0.000000  0.500000  0.500000  1.0  1.6426
  Ga  Ga5  1  0.876400  0.876400  0.822080  1.0  1.7184
  Ga  Ga6  1  0.623600  0.623600  0.822080  1.0  1.7189
  Ga  Ga7  1  0.623600  0.876400  0.322080  1.0  1.7185
  Ga  Ga8  1  0.876400  0.623600  0.322080  1.0  1.7186
  Ga  Ga9  1  0.123600  0.376400  0.677920  1.0  1.7186
  Ga  Ga10  1  0.376400  0.123600  0.677920  1.0  1.7187
  Ga  Ga11  1  0.376400  0.376400  0.177920  1.0  1.7185
  Ga  Ga12  1  0.123600  0.123600  0.177920  1.0  1.719
  P  P13  1  0.097600  0.097600  0.791700  1.0  1.9243
  P  P14  1  0.402400  0.402400  0.791700  1.0  1.9234
  P  P15  1  0.402400  0.097600  0.291700  1.0  1.9236
  P  P16  1  0.097600  0.402400  0.291700  1.0  1.9241
  P  P17  1  0.902400  0.597600  0.708300  1.0  1.9235
  P  P18  1  0.597600  0.902400  0.708300  1.0  1.924
  P  P19  1  0.597600  0.597600  0.208300  1.0  1.9241
  P  P20  1  0.902400  0.902400  0.208300  1.0  1.9233
  O  O21  1  0.060100  0.236600  0.757000  1.0  -0.7881
  O  O22  1  0.163600  0.989300  0.076100  1.0  -0.6353
  O  O23  1  0.439900  0.263400  0.757000  1.0  -0.7871
  O  O24  1  0.336400  0.510700  0.076100  1.0  -0.6369
  O  O25  1  0.263400  0.060100  0.257000  1.0  -0.7904
  O  O26  1  0.510700  0.163600  0.576100  1.0  -0.6332
  O  O27  1  0.236600  0.439900  0.257000  1.0  -0.7904
  O  O28  1  0.989300  0.336400  0.576100  1.0  -0.6361
  O  O29  1  0.939900  0.736600  0.743000  1.0  -0.7876
  O  O30  1  0.836400  0.489300  0.423900  1.0  -0.6366
  O  O31  1  0.560100  0.763400  0.743000  1.0  -0.7881
  O  O32  1  0.663600  0.010700  0.423900  1.0  -0.6343
  O  O33  1  0.736600  0.560100  0.243000  1.0  -0.7904
  O  O34  1  0.489300  0.663600  0.923900  1.0  -0.6344
  O  O35  1  0.763400  0.939900  0.243000  1.0  -0.7911
  O  O36  1  0.010700  0.836400  0.923900  1.0  -0.6338
  O  O37  1  0.939900  0.763400  0.243000  1.0  -0.7869
  O  O38  1  0.836400  0.010700  0.923900  1.0  -0.6357
  O  O39  1  0.560100  0.736600  0.243000  1.0  -0.7884
  O  O40  1  0.663600  0.489300  0.923900  1.0  -0.6352
  O  O41  1  0.736600  0.939900  0.743000  1.0  -0.7904
  O  O42  1  0.489300  0.836400  0.423900  1.0  -0.6359
  O  O43  1  0.763400  0.560100  0.743000  1.0  -0.7904
  O  O44  1  0.010700  0.663600  0.423900  1.0  -0.6323
  O  O45  1  0.060100  0.263400  0.257000  1.0  -0.7878
  O  O46  1  0.163600  0.510700  0.576100  1.0  -0.6348
  O  O47  1  0.439900  0.236600  0.257000  1.0  -0.7875
  O  O48  1  0.336400  0.989300  0.576100  1.0  -0.6375
  O  O49  1  0.263400  0.439900  0.757000  1.0  -0.7909
  O  O50  1  0.510700  0.336400  0.076100  1.0  -0.6333
  O  O51  1  0.236600  0.060100  0.757000  1.0  -0.7901
  O  O52  1  0.989300  0.163600  0.076100  1.0  -0.6357
  O  O53  1  0.099900  0.099900  0.904300  1.0  -0.7085
  O  O54  1  0.996700  0.996700  0.755500  1.0  -0.6674
  O  O55  1  0.400100  0.400100  0.904300  1.0  -0.7075
  O  O56  1  0.503300  0.503300  0.755500  1.0  -0.6655
  O  O57  1  0.400100  0.099900  0.404300  1.0  -0.7078
  O  O58  1  0.503300  0.996700  0.255500  1.0  -0.6665
  O  O59  1  0.099900  0.400100  0.404300  1.0  -0.7082
  O  O60  1  0.996700  0.503300  0.255500  1.0  -0.6666
  O  O61  1  0.900100  0.599900  0.595700  1.0  -0.7079
  O  O62  1  0.003300  0.496700  0.744500  1.0  -0.6664
  O  O63  1  0.599900  0.900100  0.595700  1.0  -0.7084
  O  O64  1  0.496700  0.003300  0.744500  1.0  -0.6673
  O  O65  1  0.599900  0.599900  0.095700  1.0  -0.7086
  O  O66  1  0.496700  0.496700  0.244500  1.0  -0.6677
  O  O67  1  0.900100  0.900100  0.095700  1.0  -0.7076
  O  O68  1  0.003300  0.003300  0.244500  1.0  -0.6659
  F  F69  1  0.750000  0.750000  0.887200  1.0  -0.4812
  F  F70  1  0.750000  0.750000  0.387200  1.0  -0.4812
  F  F71  1  0.250000  0.250000  0.612800  1.0  -0.4815
  F  F72  1  0.250000  0.250000  0.112800  1.0  -0.4815
