# generated using pymatgen
data_MnH18(C11O3)2
_symmetry_space_group_name_H-M   'P 1'
_cell_length_a   16.17960000
_cell_length_b   19.15050000
_cell_length_c   19.58480000
_cell_angle_alpha   112.45100000
_cell_angle_beta   93.54800000
_cell_angle_gamma   104.21500000
_symmetry_Int_Tables_number   1
_chemical_formula_structural   MnH18(C11O3)2
_chemical_formula_sum   'Mn6 H108 C132 O36'
_cell_volume   5353.94904229
_cell_formula_units_Z   6
loop_
 _symmetry_equiv_pos_site_id
 _symmetry_equiv_pos_as_xyz
  1  'x, y, z'
loop_
 _atom_site_type_symbol
 _atom_site_label
 _atom_site_symmetry_multiplicity
 _atom_site_fract_x
 _atom_site_fract_y
 _atom_site_fract_z
 _atom_site_occupancy
 _atom_site_charge
  Mn  Mn1  1  0.426870  0.177090  0.826010  1.0  1.1236
  Mn  Mn2  1  0.785850  0.118550  0.906550  1.0  1.1207
  Mn  Mn3  1  0.614040  0.112890  0.783110  1.0  1.164
  Mn  Mn4  1  0.573130  0.822910  0.173990  1.0  1.125
  Mn  Mn5  1  0.385960  0.887110  0.216890  1.0  1.1622
  Mn  Mn6  1  0.214150  0.881450  0.093450  1.0  1.1183
  H  H7  1  0.688300  0.512800  0.597800  1.0  0.1155
  H  H8  1  0.691900  0.641000  0.368900  1.0  0.1122
  H  H9  1  0.981100  0.287200  0.435400  1.0  0.11
  H  H10  1  0.510900  0.308000  0.307600  1.0  0.1101
  H  H11  1  0.770500  0.665300  0.459500  1.0  0.0863
  H  H12  1  0.166300  0.514400  0.403600  1.0  0.112
  H  H13  1  0.054600  0.169800  0.120100  1.0  0.1196
  H  H14  1  0.730900  0.598800  0.605100  1.0  0.1198
  H  H15  1  0.918400  0.335200  0.275900  1.0  0.1247
  H  H16  1  0.943400  0.305800  0.510100  1.0  0.1192
  H  H17  1  0.484800  0.311200  0.384200  1.0  0.1141
  H  H18  1  0.121000  0.249800  0.239900  1.0  0.111
  H  H19  1  0.073900  0.335800  0.627900  1.0  0.084
  H  H20  1  0.048100  0.330200  0.748100  1.0  0.1258
  H  H21  1  0.279600  0.626400  0.649300  1.0  0.0789
  H  H22  1  0.865800  0.270500  0.148900  1.0  0.0854
  H  H23  1  0.256400  0.943000  0.712200  1.0  0.1106
  H  H24  1  0.619500  0.920900  0.648000  1.0  0.1082
  H  H25  1  0.485400  0.385000  0.498900  1.0  0.0679
  H  H26  1  0.517200  0.282900  0.995600  1.0  0.1083
  H  H27  1  0.277100  0.621100  0.567100  1.0  0.0768
  H  H28  1  0.463200  0.864000  0.691300  1.0  0.0988
  H  H29  1  0.223500  0.532900  0.723900  1.0  0.118
  H  H30  1  0.461000  0.286400  0.679200  1.0  0.0902
  H  H31  1  0.820400  0.780200  0.620300  1.0  0.1215
  H  H32  1  0.635100  0.574000  0.617400  1.0  0.1148
  H  H33  1  0.725600  0.572400  0.316900  1.0  0.1149
  H  H34  1  0.965200  0.364800  0.393000  1.0  0.0793
  H  H35  1  0.649800  0.193900  0.605800  1.0  0.1081
  H  H36  1  0.204500  0.607900  0.720300  1.0  0.1127
  H  H37  1  0.681400  0.257000  0.180400  1.0  0.1004
  H  H38  1  0.630800  0.573400  0.296600  1.0  0.1103
  H  H39  1  0.203100  0.595000  0.473800  1.0  0.124
  H  H40  1  0.478200  0.357100  0.604900  1.0  0.122
  H  H41  1  0.497700  0.397300  0.248200  1.0  0.0857
  H  H42  1  0.024400  0.274000  0.501500  1.0  0.119
  H  H43  1  0.166300  0.811300  0.661500  1.0  0.1154
  H  H44  1  0.683300  0.183500  0.057500  1.0  0.1181
  H  H45  1  0.592600  0.799200  0.547700  1.0  0.1158
  H  H46  1  0.110500  0.417800  0.697300  1.0  0.0581
  H  H47  1  0.105100  0.566000  0.437300  1.0  0.1239
  H  H48  1  0.668200  0.261500  0.524500  1.0  0.1213
  H  H49  1  0.847300  0.901900  0.720700  1.0  0.1088
  H  H50  1  0.020900  0.435800  0.378200  1.0  0.067
  H  H51  1  0.826700  0.356400  0.672900  1.0  0.1098
  H  H52  1  0.775000  0.663100  0.539400  1.0  0.0807
  H  H53  1  0.514200  0.355000  0.120800  1.0  0.1151
  H  H54  1  0.434400  0.341600  0.335900  1.0  0.116
  H  H55  1  0.133000  0.546700  0.735900  1.0  0.1136
  H  H56  1  0.972600  0.267200  0.815100  1.0  0.1018
  H  H57  1  0.374700  0.734100  0.641800  1.0  0.12
  H  H58  1  0.578600  0.457700  0.240300  1.0  0.0912
  H  H59  1  0.753200  0.293100  0.739900  1.0  0.1053
  H  H60  1  0.551700  0.451800  0.569300  1.0  0.0627
  H  H61  1  0.945400  0.830200  0.879900  1.0  0.1195
  H  H62  1  0.502300  0.602700  0.751800  1.0  0.0854
  H  H63  1  0.743600  0.057000  0.287800  1.0  0.1099
  H  H64  1  0.364900  0.426000  0.382600  1.0  0.1126
  H  H65  1  0.894900  0.434000  0.562700  1.0  0.1244
  H  H66  1  0.975600  0.726000  0.498500  1.0  0.1189
  H  H67  1  0.318600  0.743000  0.819600  1.0  0.0995
  H  H68  1  0.274400  0.427600  0.683100  1.0  0.1141
  H  H69  1  0.369200  0.426600  0.703400  1.0  0.1115
  H  H70  1  0.482800  0.717100  0.004400  1.0  0.1084
  H  H71  1  0.536800  0.136000  0.308700  1.0  0.0995
  H  H72  1  0.027400  0.732800  0.184900  1.0  0.1012
  H  H73  1  0.152700  0.098100  0.279300  1.0  0.1087
  H  H74  1  0.421400  0.542300  0.759700  1.0  0.0905
  H  H75  1  0.018900  0.712800  0.564600  1.0  0.1096
  H  H76  1  0.485800  0.645000  0.879200  1.0  0.1158
  H  H77  1  0.056600  0.694200  0.489900  1.0  0.1184
  H  H78  1  0.926100  0.664200  0.372100  1.0  0.0831
  H  H79  1  0.879000  0.750200  0.760100  1.0  0.1127
  H  H80  1  0.979100  0.564200  0.621800  1.0  0.0666
  H  H81  1  0.269100  0.401200  0.394900  1.0  0.1207
  H  H82  1  0.776500  0.467100  0.276100  1.0  0.1168
  H  H83  1  0.833700  0.485600  0.596400  1.0  0.1122
  H  H84  1  0.448300  0.548200  0.430700  1.0  0.0614
  H  H85  1  0.539000  0.713600  0.320800  1.0  0.0902
  H  H86  1  0.134200  0.729500  0.851100  1.0  0.0852
  H  H87  1  0.521800  0.642900  0.395100  1.0  0.1233
  H  H88  1  0.796900  0.405000  0.526200  1.0  0.1236
  H  H89  1  0.565600  0.658400  0.664100  1.0  0.1152
  H  H90  1  0.720400  0.373600  0.350700  1.0  0.0802
  H  H91  1  0.350200  0.806100  0.394200  1.0  0.1084
  H  H92  1  0.225000  0.336900  0.460600  1.0  0.0801
  H  H93  1  0.407400  0.200800  0.452300  1.0  0.1147
  H  H94  1  0.179600  0.219800  0.379700  1.0  0.1214
  H  H95  1  0.380500  0.079100  0.352000  1.0  0.1086
  H  H96  1  0.229500  0.334700  0.540500  1.0  0.0862
  H  H97  1  0.515200  0.688800  0.615800  1.0  0.1132
  H  H98  1  0.308100  0.359000  0.631100  1.0  0.1185
  H  H99  1  0.625300  0.265900  0.358200  1.0  0.1189
  H  H100  1  0.867000  0.453300  0.264100  1.0  0.1137
  H  H101  1  0.489100  0.692000  0.692400  1.0  0.1092
  H  H102  1  0.311700  0.487200  0.402200  1.0  0.1152
  H  H103  1  0.722900  0.378900  0.432900  1.0  0.0765
  H  H104  1  0.514600  0.615000  0.501100  1.0  0.0676
  H  H105  1  0.173300  0.643600  0.327100  1.0  0.1082
  H  H106  1  0.889500  0.582200  0.302700  1.0  0.0596
  H  H107  1  0.034800  0.635200  0.607000  1.0  0.0789
  H  H108  1  0.081600  0.664800  0.724100  1.0  0.1278
  H  H109  1  0.316700  0.816500  0.942500  1.0  0.119
  H  H110  1  0.331800  0.738500  0.475500  1.0  0.1206
  H  H111  1  0.246800  0.706900  0.260100  1.0  0.1041
  H  H112  1  0.951900  0.669800  0.251900  1.0  0.1273
  H  H113  1  0.833700  0.188700  0.338500  1.0  0.1148
  H  H114  1  0.795500  0.392100  0.279700  1.0  0.1132
  C  C115  1  0.913300  0.170300  0.036700  1.0  0.7098
  C  C116  1  0.703850  0.777610  0.574050  1.0  0.266
  C  C117  1  0.226200  0.821780  0.669200  1.0  -0.1423
  C  C118  1  0.131900  0.507040  0.500600  1.0  0.0315
  C  C119  1  0.659750  0.892700  0.642450  1.0  -0.0229
  C  C120  1  0.560000  0.420420  0.262620  1.0  0.0234
  C  C121  1  0.029800  0.207100  0.150000  1.0  -0.0613
  C  C122  1  0.586900  0.460930  0.348760  1.0  -0.0835
  C  C123  1  0.604300  0.180180  0.932760  1.0  0.6876
  C  C124  1  0.643650  0.819760  0.582340  1.0  -0.1866
  C  C125  1  0.553100  0.419810  0.391340  1.0  0.0451
  C  C126  1  0.995400  0.306770  0.488940  1.0  -0.3483
  C  C127  1  0.645100  0.529100  0.503490  1.0  0.0494
  C  C128  1  0.988900  0.323300  0.746210  1.0  -0.2305
  C  C129  1  0.615200  0.225800  0.604800  1.0  -0.0333
  C  C130  1  0.550500  0.233200  0.650340  1.0  -0.1192
  C  C131  1  0.070300  0.389500  0.650140  1.0  0.0086
  C  C132  1  0.675400  0.570700  0.460580  1.0  -0.0737
  C  C133  1  0.856700  0.338500  0.701740  1.0  -0.176
  C  C134  1  0.599800  0.316000  0.163440  1.0  0.2997
  C  C135  1  0.780150  0.808400  0.625870  1.0  -0.2166
  C  C136  1  0.736050  0.923480  0.694270  1.0  -0.1333
  C  C137  1  0.093100  0.430610  0.596690  1.0  -0.1253
  C  C138  1  0.403500  0.854000  0.686900  1.0  -0.0116
  C  C139  1  0.916400  0.264200  0.167560  1.0  -0.022
  C  C140  1  0.582900  0.455140  0.469290  1.0  -0.1186
  C  C141  1  0.549400  0.321800  0.108140  1.0  -0.1831
  C  C142  1  0.262400  0.760900  0.651760  1.0  0.3043
  C  C143  1  0.242300  0.620700  0.605610  1.0  0.0639
  C  C144  1  0.676100  0.585600  0.336990  1.0  -0.3492
  C  C145  1  0.855600  0.273170  0.785380  1.0  -0.0989
  C  C146  1  0.643800  0.536980  0.383200  1.0  0.0321
  C  C147  1  0.812400  0.300500  0.741990  1.0  -0.0426
  C  C148  1  0.949100  0.305500  0.243980  1.0  -0.3198
  C  C149  1  0.627900  0.268000  0.556500  1.0  -0.1299
  C  C150  1  0.171800  0.544220  0.577550  1.0  -0.0904
  C  C151  1  0.648900  0.262600  0.142990  1.0  -0.173
  C  C152  1  0.153600  0.549550  0.449030  1.0  -0.3532
  C  C153  1  0.146900  0.507800  0.625920  1.0  0.0756
  C  C154  1  0.804900  0.227940  0.826040  1.0  0.7411
  C  C155  1  0.513100  0.325000  0.604620  1.0  -0.2941
  C  C156  1  0.578300  0.317900  0.559700  1.0  0.2489
  C  C157  1  0.550700  0.278000  0.032930  1.0  -0.0496
  C  C158  1  0.027400  0.301900  0.271670  1.0  0.3015
  C  C159  1  0.054800  0.391320  0.520460  1.0  0.0204
  C  C160  1  0.546100  0.413700  0.518150  1.0  0.0909
  C  C161  1  0.736300  0.654690  0.495300  1.0  0.018
  C  C162  1  0.350400  0.775650  0.657390  1.0  -0.2513
  C  C163  1  0.067300  0.252200  0.222600  1.0  -0.1654
  C  C164  1  0.540200  0.191000  0.701600  1.0  0.7205
  C  C165  1  0.369200  0.916100  0.709270  1.0  -0.106
  C  C166  1  0.602000  0.226900  0.013200  1.0  -0.1311
  C  C167  1  0.023800  0.394500  0.394720  1.0  0.0104
  C  C168  1  0.180000  0.552900  0.709060  1.0  -0.3421
  C  C169  1  0.678100  0.556300  0.589270  1.0  -0.3579
  C  C170  1  0.490000  0.337600  0.351100  1.0  -0.3515
  C  C171  1  0.954100  0.215500  0.119050  1.0  -0.1335
  C  C172  1  0.748900  0.000700  0.760830  1.0  0.7039
  C  C173  1  0.650300  0.218700  0.069780  1.0  -0.0709
  C  C174  1  0.280600  0.901400  0.699400  1.0  -0.039
  C  C175  1  0.427600  0.999410  0.742440  1.0  0.7423
  C  C176  1  0.073300  0.430560  0.473390  1.0  -0.1489
  C  C177  1  0.945500  0.350400  0.703770  1.0  0.3262
  C  C178  1  0.796250  0.881340  0.685980  1.0  -0.0588
  C  C179  1  0.503100  0.281500  0.648890  1.0  -0.0223
  C  C180  1  0.942800  0.285200  0.786400  1.0  -0.0295
  C  C181  1  0.510000  0.662400  0.648900  1.0  -0.3539
  C  C182  1  0.395700  0.819820  0.067240  1.0  0.6883
  C  C183  1  0.057200  0.714800  0.213600  1.0  -0.0318
  C  C184  1  0.737600  0.239100  0.348240  1.0  0.3043
  C  C185  1  0.453900  0.586300  0.481850  1.0  0.0915
  C  C186  1  0.596500  0.146000  0.313100  1.0  -0.0126
  C  C187  1  0.349700  0.781300  0.930220  1.0  -0.0714
  C  C188  1  0.004600  0.693230  0.511060  1.0  -0.35
  C  C189  1  0.932700  0.747800  0.777400  1.0  -0.1716
  C  C190  1  0.321900  0.443700  0.410730  1.0  -0.3549
  C  C191  1  0.853100  0.492200  0.374080  1.0  0.0764
  C  C192  1  0.045900  0.784500  0.880950  1.0  -0.1321
  C  C193  1  0.486900  0.675000  0.395380  1.0  -0.293
  C  C194  1  0.398000  0.773100  0.986800  1.0  -0.1311
  C  C195  1  0.400200  0.684000  0.836560  1.0  0.2998
  C  C196  1  0.496900  0.718500  0.351110  1.0  -0.0243
  C  C197  1  0.083600  0.735800  0.832440  1.0  -0.0218
  C  C198  1  0.820000  0.447100  0.290940  1.0  -0.3422
  C  C199  1  0.719400  0.098600  0.300600  1.0  -0.0374
  C  C200  1  0.449500  0.766800  0.349660  1.0  -0.1201
  C  C201  1  0.757700  0.379300  0.394390  1.0  0.0583
  C  C202  1  0.846400  0.450450  0.550970  1.0  -0.3554
  C  C203  1  0.251100  0.999300  0.239170  1.0  0.7026
  C  C204  1  0.324600  0.429300  0.539420  1.0  -0.0756
  C  C205  1  0.384800  0.774200  0.395200  1.0  -0.0342
  C  C206  1  0.219850  0.191600  0.374130  1.0  -0.2161
  C  C207  1  0.649600  0.224350  0.342610  1.0  -0.254
  C  C208  1  0.054500  0.649600  0.296230  1.0  0.3269
  C  C209  1  0.050900  0.694500  0.756020  1.0  -0.3241
  C  C210  1  0.263700  0.345310  0.504700  1.0  0.0144
  C  C211  1  0.195100  0.772060  0.173960  1.0  0.7379
  C  C212  1  0.263950  0.076520  0.305730  1.0  -0.133
  C  C213  1  0.323900  0.414400  0.663010  1.0  -0.348
  C  C214  1  0.413100  0.539070  0.651240  1.0  -0.0849
  C  C215  1  0.356200  0.463020  0.616800  1.0  0.0317
  C  C216  1  0.972600  0.698100  0.728330  1.0  0.3013
  C  C217  1  0.187600  0.699500  0.258010  1.0  -0.0423
  C  C218  1  0.970200  0.792900  0.850000  1.0  -0.0616
  C  C219  1  0.086700  0.829700  0.963300  1.0  0.7098
  C  C220  1  0.356350  0.180240  0.417660  1.0  -0.1893
  C  C221  1  0.572400  0.000590  0.257560  1.0  0.745
  C  C222  1  0.351100  0.737400  0.857010  1.0  -0.1735
  C  C223  1  0.296150  0.222390  0.425950  1.0  0.258
  C  C224  1  0.440000  0.579580  0.737380  1.0  0.0228
  C  C225  1  0.828200  0.455780  0.422450  1.0  -0.0905
  C  C226  1  0.449300  0.722000  0.967070  1.0  -0.0516
  C  C227  1  0.976200  0.605500  0.605280  1.0  0.0123
  C  C228  1  0.868100  0.492960  0.499400  1.0  0.0336
  C  C229  1  0.203750  0.118660  0.314020  1.0  -0.0596
  C  C230  1  0.929700  0.610500  0.349860  1.0  0.0088
  C  C231  1  0.945200  0.608680  0.479540  1.0  0.0207
  C  C232  1  0.011100  0.676700  0.253790  1.0  -0.2328
  C  C233  1  0.354900  0.470900  0.496510  1.0  0.0468
  C  C234  1  0.459800  0.809000  0.298400  1.0  0.7232
  C  C235  1  0.906900  0.569390  0.403310  1.0  -0.1242
  C  C236  1  0.417100  0.544860  0.530710  1.0  -0.1198
  C  C237  1  0.446900  0.580190  0.608660  1.0  0.0454
  C  C238  1  0.372100  0.732000  0.443500  1.0  -0.1292
  C  C239  1  0.340250  0.107300  0.357550  1.0  -0.0207
  C  C240  1  0.773800  0.178220  0.330800  1.0  -0.1388
  C  C241  1  0.450600  0.678200  0.891860  1.0  -0.1814
  C  C242  1  0.144400  0.726830  0.214620  1.0  -0.0998
  C  C243  1  0.630800  0.083900  0.290730  1.0  -0.106
  C  C244  1  0.926700  0.569440  0.526610  1.0  -0.1489
  C  C245  1  0.143300  0.661500  0.298260  1.0  -0.1715
  C  C246  1  0.421700  0.682100  0.440300  1.0  0.2382
  O  O247  1  0.204810  0.686560  0.625410  1.0  -0.2788
  O  O248  1  0.945400  0.123680  0.993360  1.0  -0.4961
  O  O249  1  0.604840  0.358760  0.239600  1.0  -0.2796
  O  O250  1  0.068020  0.342050  0.345390  1.0  -0.2897
  O  O251  1  0.596650  0.359130  0.515670  1.0  -0.2873
  O  O252  1  0.698710  0.040520  0.762800  1.0  -0.7148
  O  O253  1  0.679420  0.704680  0.515290  1.0  -0.2745
  O  O254  1  0.508740  0.009860  0.750410  1.0  -0.6123
  O  O255  1  0.655840  0.138710  0.915740  1.0  -0.7177
  O  O256  1  0.579930  0.142880  0.693960  1.0  -0.5655
  O  O257  1  0.812640  0.023750  0.812220  1.0  -0.5982
  O  O258  1  0.723570  0.218100  0.818170  1.0  -0.6511
  O  O259  1  0.392990  0.053830  0.760610  1.0  -0.6552
  O  O260  1  0.982720  0.389180  0.662820  1.0  -0.2681
  O  O261  1  0.847710  0.183350  0.017270  1.0  -0.5647
  O  O262  1  0.489370  0.209990  0.749030  1.0  -0.6917
  O  O263  1  0.845620  0.202540  0.863050  1.0  -0.5831
  O  O264  1  0.555360  0.182750  0.882220  1.0  -0.6485
  O  O265  1  0.017280  0.610820  0.337180  1.0  -0.2702
  O  O266  1  0.491260  0.990140  0.249590  1.0  -0.6102
  O  O267  1  0.403350  0.640870  0.484330  1.0  -0.2868
  O  O268  1  0.420070  0.857120  0.306040  1.0  -0.5641
  O  O269  1  0.054600  0.876320  0.006640  1.0  -0.4947
  O  O270  1  0.444640  0.817250  0.117780  1.0  -0.649
  O  O271  1  0.931980  0.657950  0.654610  1.0  -0.2936
  O  O272  1  0.607010  0.946170  0.239390  1.0  -0.6538
  O  O273  1  0.795190  0.313440  0.374590  1.0  -0.2771
  O  O274  1  0.154380  0.797460  0.136950  1.0  -0.5832
  O  O275  1  0.344160  0.861290  0.084260  1.0  -0.7175
  O  O276  1  0.320580  0.295320  0.484710  1.0  -0.2729
  O  O277  1  0.187360  0.976250  0.187780  1.0  -0.6007
  O  O278  1  0.510630  0.790010  0.250970  1.0  -0.6902
  O  O279  1  0.395160  0.641240  0.760400  1.0  -0.2772
  O  O280  1  0.152290  0.816650  0.982730  1.0  -0.5657
  O  O281  1  0.276430  0.781900  0.181830  1.0  -0.6514
  O  O282  1  0.301290  0.959480  0.237200  1.0  -0.7147
