# generated using pymatgen
data_Al2SiPO8
_symmetry_space_group_name_H-M   'P 1'
_cell_length_a   13.73600000
_cell_length_b   13.73600000
_cell_length_c   15.17000000
_cell_angle_alpha   90.00000000
_cell_angle_beta   90.00000000
_cell_angle_gamma   120.00000000
_symmetry_Int_Tables_number   1
_chemical_formula_structural   Al2SiPO8
_chemical_formula_sum   'Al18 Si9 P9 O72'
_cell_volume   2478.77311319
_cell_formula_units_Z   9
loop_
 _symmetry_equiv_pos_site_id
 _symmetry_equiv_pos_as_xyz
  1  'x, y, z'
loop_
 _atom_site_type_symbol
 _atom_site_label
 _atom_site_symmetry_multiplicity
 _atom_site_fract_x
 _atom_site_fract_y
 _atom_site_fract_z
 _atom_site_occupancy
 _atom_site_charge
  Al  Al1  1  0.996870  0.228680  0.100290  1.0  2.0292
  Al  Al2  1  0.663540  0.562010  0.433620  1.0  2.0292
  Al  Al3  1  0.330200  0.895350  0.766960  1.0  2.0292
  Al  Al4  1  0.771320  0.768190  0.100290  1.0  2.0283
  Al  Al5  1  0.437990  0.101520  0.433620  1.0  2.0283
  Al  Al6  1  0.104650  0.434860  0.766960  1.0  2.0283
  Al  Al7  1  0.231810  0.003130  0.100290  1.0  2.0278
  Al  Al8  1  0.898480  0.336460  0.433620  1.0  2.0278
  Al  Al9  1  0.565140  0.669800  0.766960  1.0  2.0278
  Al  Al10  1  0.003130  0.771320  0.899710  1.0  2.0286
  Al  Al11  1  0.669800  0.104650  0.233040  1.0  2.0286
  Al  Al12  1  0.336460  0.437990  0.566380  1.0  2.0285
  Al  Al13  1  0.228680  0.231810  0.899710  1.0  2.0278
  Al  Al14  1  0.895350  0.565140  0.233040  1.0  2.0278
  Al  Al15  1  0.562010  0.898480  0.566380  1.0  2.0278
  Al  Al16  1  0.768190  0.996870  0.899710  1.0  2.0275
  Al  Al17  1  0.434860  0.330200  0.233040  1.0  2.0275
  Al  Al18  1  0.101520  0.663540  0.566380  1.0  2.0275
  Si  Si19  1  0.228620  0.231970  0.105200  1.0  1.9452
  Si  Si20  1  0.895290  0.565300  0.438530  1.0  1.9452
  Si  Si21  1  0.561950  0.898640  0.771870  1.0  1.9452
  Si  Si22  1  0.768030  0.996650  0.105200  1.0  1.9437
  Si  Si23  1  0.434700  0.329980  0.438530  1.0  1.9437
  Si  Si24  1  0.101360  0.663320  0.771870  1.0  1.9437
  Si  Si25  1  0.003350  0.771380  0.105200  1.0  1.945
  Si  Si26  1  0.670020  0.104710  0.438530  1.0  1.9451
  Si  Si27  1  0.336680  0.438050  0.771870  1.0  1.9451
  P  P28  1  0.898640  0.336680  0.228130  1.0  1.8847
  P  P29  1  0.565300  0.670020  0.561470  1.0  1.8847
  P  P30  1  0.231970  0.003350  0.894800  1.0  1.8847
  P  P31  1  0.663320  0.561950  0.228130  1.0  1.8851
  P  P32  1  0.329980  0.895290  0.561470  1.0  1.8851
  P  P33  1  0.996650  0.228620  0.894800  1.0  1.885
  P  P34  1  0.438050  0.101360  0.228130  1.0  1.8867
  P  P35  1  0.104710  0.434700  0.561470  1.0  1.8867
  P  P36  1  0.771380  0.768030  0.894800  1.0  1.8867
  O  O37  1  0.123400  0.240000  0.128200  1.0  -0.9674
  O  O38  1  0.325100  0.313700  0.167200  1.0  -0.9577
  O  O39  1  0.202000  0.109600  0.119500  1.0  -1.0457
  O  O40  1  0.265200  0.269200  0.008700  1.0  -0.9909
  O  O41  1  0.790070  0.573330  0.461530  1.0  -0.9674
  O  O42  1  0.991770  0.647030  0.500530  1.0  -0.9572
  O  O43  1  0.868670  0.442930  0.452830  1.0  -1.0457
  O  O44  1  0.931870  0.602530  0.342030  1.0  -0.9909
  O  O45  1  0.456730  0.906670  0.794870  1.0  -0.9673
  O  O46  1  0.658430  0.980370  0.833870  1.0  -0.9583
  O  O47  1  0.535330  0.776270  0.786170  1.0  -1.0454
  O  O48  1  0.598530  0.935870  0.675370  1.0  -0.9909
  O  O49  1  0.760000  0.883400  0.128200  1.0  -0.9685
  O  O50  1  0.686300  0.011400  0.167200  1.0  -0.9536
  O  O51  1  0.890400  0.092400  0.119500  1.0  -1.0411
  O  O52  1  0.730800  0.996000  0.008700  1.0  -0.9893
  O  O53  1  0.426670  0.216730  0.461530  1.0  -0.9685
  O  O54  1  0.352970  0.344730  0.500530  1.0  -0.9593
  O  O55  1  0.557070  0.425730  0.452830  1.0  -1.0411
  O  O56  1  0.397470  0.329330  0.342030  1.0  -0.9891
  O  O57  1  0.093330  0.550070  0.794870  1.0  -0.9685
  O  O58  1  0.019630  0.678070  0.833870  1.0  -0.9563
  O  O59  1  0.223730  0.759070  0.786170  1.0  -1.0439
  O  O60  1  0.064130  0.662670  0.675370  1.0  -0.9892
  O  O61  1  0.116600  0.876600  0.128200  1.0  -0.9659
  O  O62  1  0.988600  0.674900  0.167200  1.0  -0.9543
  O  O63  1  0.907600  0.798000  0.119500  1.0  -1.0473
  O  O64  1  0.004000  0.734800  0.008700  1.0  -0.9892
  O  O65  1  0.783270  0.209930  0.461530  1.0  -0.9659
  O  O66  1  0.655270  0.008230  0.500530  1.0  -0.9559
  O  O67  1  0.574270  0.131330  0.452830  1.0  -1.0474
  O  O68  1  0.670670  0.068130  0.342030  1.0  -0.9892
  O  O69  1  0.449930  0.543270  0.794870  1.0  -0.9659
  O  O70  1  0.321930  0.341570  0.833870  1.0  -0.9602
  O  O71  1  0.240930  0.464670  0.786170  1.0  -1.0465
  O  O72  1  0.337330  0.401470  0.675370  1.0  -0.9892
  O  O73  1  0.876600  0.760000  0.871800  1.0  -0.9588
  O  O74  1  0.674900  0.686300  0.832800  1.0  -0.9511
  O  O75  1  0.798000  0.890400  0.880500  1.0  -1.0379
  O  O76  1  0.734800  0.730800  0.991300  1.0  -0.9836
  O  O77  1  0.543270  0.093330  0.205130  1.0  -0.9587
  O  O78  1  0.341570  0.019630  0.166130  1.0  -0.9502
  O  O79  1  0.464670  0.223730  0.213830  1.0  -1.0378
  O  O80  1  0.401470  0.064130  0.324630  1.0  -0.9836
  O  O81  1  0.209930  0.426670  0.538470  1.0  -0.9588
  O  O82  1  0.008230  0.352970  0.499470  1.0  -0.9503
  O  O83  1  0.131330  0.557070  0.547170  1.0  -1.0379
  O  O84  1  0.068130  0.397470  0.657970  1.0  -0.9837
  O  O85  1  0.240000  0.116600  0.871800  1.0  -0.9615
  O  O86  1  0.313700  0.988600  0.832800  1.0  -0.945
  O  O87  1  0.109600  0.907600  0.880500  1.0  -1.0317
  O  O88  1  0.269200  0.004000  0.991300  1.0  -0.9826
  O  O89  1  0.906670  0.449930  0.205130  1.0  -0.9615
  O  O90  1  0.980370  0.321930  0.166130  1.0  -0.9473
  O  O91  1  0.776270  0.240930  0.213830  1.0  -1.0361
  O  O92  1  0.935870  0.337330  0.324630  1.0  -0.9826
  O  O93  1  0.573330  0.783270  0.538470  1.0  -0.9615
  O  O94  1  0.647030  0.655270  0.499470  1.0  -0.9503
  O  O95  1  0.442930  0.574270  0.547170  1.0  -1.0317
  O  O96  1  0.602530  0.670670  0.657970  1.0  -0.9825
  O  O97  1  0.883400  0.123400  0.871800  1.0  -0.9599
  O  O98  1  0.011400  0.325100  0.832800  1.0  -0.9457
  O  O99  1  0.092400  0.202000  0.880500  1.0  -1.0373
  O  O100  1  0.996000  0.265200  0.991300  1.0  -0.9831
  O  O101  1  0.550070  0.456730  0.205130  1.0  -0.9598
  O  O102  1  0.678070  0.658430  0.166130  1.0  -0.9512
  O  O103  1  0.759070  0.535330  0.213830  1.0  -1.0349
  O  O104  1  0.662670  0.598530  0.324630  1.0  -0.9831
  O  O105  1  0.216730  0.790070  0.538470  1.0  -0.9599
  O  O106  1  0.344730  0.991770  0.499470  1.0  -0.9466
  O  O107  1  0.425730  0.868670  0.547170  1.0  -1.0373
  O  O108  1  0.329330  0.931870  0.657970  1.0  -0.9832
