# generated using pymatgen
data_BaH4(C3O2)3
_symmetry_space_group_name_H-M   'P 1'
_cell_length_a   7.48100000
_cell_length_b   8.33600000
_cell_length_c   10.42000000
_cell_angle_alpha   93.56000000
_cell_angle_beta   105.39000000
_cell_angle_gamma   109.35000000
_symmetry_Int_Tables_number   1
_chemical_formula_structural   BaH4(C3O2)3
_chemical_formula_sum   'Ba2 H8 C18 O12'
_cell_volume   583.02255976
_cell_formula_units_Z   2
loop_
 _symmetry_equiv_pos_site_id
 _symmetry_equiv_pos_as_xyz
  1  'x, y, z'
loop_
 _atom_site_type_symbol
 _atom_site_label
 _atom_site_symmetry_multiplicity
 _atom_site_fract_x
 _atom_site_fract_y
 _atom_site_fract_z
 _atom_site_occupancy
 _atom_site_charge
  Ba  Ba1  1  0.312650  0.559410  0.627450  1.0  1.6402
  Ba  Ba2  1  0.687350  0.440590  0.372550  1.0  1.6402
  H  H3  1  0.814100  0.059600  0.196500  1.0  0.1068
  H  H4  1  0.812100  0.103500  0.813600  1.0  0.105
  H  H5  1  0.238500  0.452300  0.119900  1.0  0.0965
  H  H6  1  0.468900  0.706600  0.991900  1.0  0.4205
  H  H7  1  0.185900  0.940400  0.803500  1.0  0.1078
  H  H8  1  0.187900  0.896500  0.186400  1.0  0.104
  H  H9  1  0.761500  0.547700  0.880100  1.0  0.0968
  H  H10  1  0.531100  0.293400  0.008100  1.0  0.4201
  C  C11  1  0.037600  0.268900  0.180700  1.0  -0.1622
  C  C12  1  0.870500  0.117400  0.135200  1.0  0.0122
  C  C13  1  0.788500  0.053200  0.997400  1.0  -0.2038
  C  C14  1  0.869900  0.144200  0.905700  1.0  0.0098
  C  C15  1  0.036700  0.295400  0.951000  1.0  -0.1538
  C  C16  1  0.123100  0.354800  0.088800  1.0  0.0175
  C  C17  1  0.124100  0.339100  0.330200  1.0  0.7462
  C  C18  1  0.617700  0.889200  0.941300  1.0  0.6834
  C  C19  1  0.120900  0.388900  0.849000  1.0  0.6915
  C  C20  1  0.962400  0.731100  0.819300  1.0  -0.1613
  C  C21  1  0.129500  0.882600  0.864800  1.0  0.0124
  C  C22  1  0.211500  0.946800  0.002600  1.0  -0.2029
  C  C23  1  0.130100  0.855800  0.094300  1.0  0.0068
  C  C24  1  0.963300  0.704600  0.049000  1.0  -0.1544
  C  C25  1  0.876900  0.645200  0.911200  1.0  0.0175
  C  C26  1  0.875900  0.660900  0.669800  1.0  0.7476
  C  C27  1  0.382300  0.110800  0.058700  1.0  0.6827
  C  C28  1  0.879100  0.611100  0.151000  1.0  0.69
  O  O29  1  0.311000  0.407200  0.377000  1.0  -0.7805
  O  O30  1  0.007400  0.325900  0.399400  1.0  -0.7262
  O  O31  1  0.558400  0.798000  0.030900  1.0  -0.5137
  O  O32  1  0.537900  0.842900  0.819300  1.0  -0.6135
  O  O33  1  0.023800  0.340200  0.727200  1.0  -0.6679
  O  O34  1  0.286700  0.511100  0.890100  1.0  -0.7089
  O  O35  1  0.689000  0.592800  0.623000  1.0  -0.7784
  O  O36  1  0.992600  0.674100  0.600600  1.0  -0.7254
  O  O37  1  0.441600  0.202000  0.969100  1.0  -0.514
  O  O38  1  0.462100  0.157100  0.180700  1.0  -0.6139
  O  O39  1  0.976200  0.659800  0.272800  1.0  -0.6661
  O  O40  1  0.713300  0.488900  0.109900  1.0  -0.7087
