# generated using pymatgen
data_BaH4(C3O2)3
_symmetry_space_group_name_H-M   'P 1'
_cell_length_a   9.16250000
_cell_length_b   11.08900000
_cell_length_c   12.90650000
_cell_angle_alpha   115.37100000
_cell_angle_beta   96.59300000
_cell_angle_gamma   95.17700000
_symmetry_Int_Tables_number   1
_chemical_formula_structural   BaH4(C3O2)3
_chemical_formula_sum   'Ba4 H16 C36 O24'
_cell_volume   1162.73958197
_cell_formula_units_Z   4
loop_
 _symmetry_equiv_pos_site_id
 _symmetry_equiv_pos_as_xyz
  1  'x, y, z'
loop_
 _atom_site_type_symbol
 _atom_site_label
 _atom_site_symmetry_multiplicity
 _atom_site_fract_x
 _atom_site_fract_y
 _atom_site_fract_z
 _atom_site_occupancy
 _atom_site_charge
  Ba  Ba1  1  0.372110  0.372480  0.812970  1.0  1.6412
  Ba  Ba2  1  0.127860  0.627500  0.687130  1.0  1.6409
  Ba  Ba3  1  0.872140  0.372500  0.312870  1.0  1.6411
  Ba  Ba4  1  0.627890  0.627520  0.187030  1.0  1.6404
  H  H5  1  0.587800  0.801200  0.528100  1.0  0.1168
  H  H6  1  0.800600  0.189600  0.699600  1.0  0.1159
  H  H7  1  0.914800  0.198800  0.974100  1.0  0.1207
  H  H8  1  0.460100  0.121900  0.917200  1.0  0.1163
  H  H9  1  0.412200  0.198800  0.471900  1.0  0.1161
  H  H10  1  0.832700  0.021000  0.139200  1.0  0.42
  H  H11  1  0.085200  0.801200  0.025900  1.0  0.1211
  H  H12  1  0.167300  0.979000  0.860800  1.0  0.4195
  H  H13  1  0.698800  0.811700  0.802100  1.0  0.1131
  H  H14  1  0.962900  0.121200  0.417000  1.0  0.1144
  H  H15  1  0.334200  0.016800  0.639600  1.0  0.3002
  H  H16  1  0.539900  0.878100  0.082800  1.0  0.1163
  H  H17  1  0.301200  0.188300  0.197900  1.0  0.1134
  H  H18  1  0.665800  0.983200  0.360400  1.0  0.3007
  H  H19  1  0.199400  0.810400  0.300400  1.0  0.1164
  H  H20  1  0.037100  0.878800  0.583000  1.0  0.1141
  C  C21  1  0.535400  0.059700  0.643400  1.0  0.6394
  C  C22  1  0.446200  0.910800  0.089400  1.0  -0.0283
  C  C23  1  0.080500  0.150900  0.691400  1.0  0.6989
  C  C24  1  0.823700  0.136000  0.942100  1.0  -0.0397
  C  C25  1  0.803300  0.094300  0.661300  1.0  -0.1123
  C  C26  1  0.967300  0.942300  0.857400  1.0  0.666
  C  C27  1  0.943600  0.911700  0.590100  1.0  -0.0139
  C  C28  1  0.441800  0.048200  0.144100  1.0  -0.1419
  C  C29  1  0.919500  0.849100  0.308600  1.0  0.6981
  C  C30  1  0.322200  0.134600  0.440900  1.0  -0.0754
  C  C31  1  0.188600  0.180000  0.455400  1.0  -0.1116
  C  C32  1  0.061700  0.950700  0.355300  1.0  -0.1439
  C  C33  1  0.695200  0.906600  0.842700  1.0  -0.0739
  C  C34  1  0.464600  0.940300  0.356600  1.0  0.6388
  C  C35  1  0.417700  0.848600  0.808800  1.0  0.716
  C  C36  1  0.327000  0.996900  0.381300  1.0  -0.1479
  C  C37  1  0.304800  0.093400  0.157300  1.0  -0.0731
  C  C38  1  0.032700  0.057700  0.142600  1.0  0.6667
  C  C39  1  0.172500  0.002100  0.118500  1.0  -0.1426
  C  C40  1  0.315700  0.669200  0.977500  1.0  0.73
  C  C41  1  0.312700  0.819200  0.043500  1.0  -0.122
  C  C42  1  0.687300  0.180800  0.956500  1.0  -0.1222
  C  C43  1  0.558200  0.951800  0.855900  1.0  -0.1421
  C  C44  1  0.553800  0.089200  0.910600  1.0  -0.0284
  C  C45  1  0.811400  0.820000  0.544600  1.0  -0.1143
  C  C46  1  0.827500  0.997900  0.881500  1.0  -0.143
  C  C47  1  0.176300  0.864000  0.057900  1.0  -0.0382
  C  C48  1  0.582300  0.151400  0.191200  1.0  0.7166
  C  C49  1  0.196700  0.905700  0.338700  1.0  -0.1137
  C  C50  1  0.677800  0.865400  0.559100  1.0  -0.0718
  C  C51  1  0.684300  0.330800  0.022500  1.0  0.7335
  C  C52  1  0.181800  0.329200  0.521900  1.0  0.7231
  C  C53  1  0.673000  0.003100  0.618700  1.0  -0.1484
  C  C54  1  0.938300  0.049300  0.644700  1.0  -0.1438
  C  C55  1  0.818200  0.670800  0.478100  1.0  0.7207
  C  C56  1  0.056400  0.088300  0.409900  1.0  -0.0133
  O  O57  1  0.587400  0.031000  0.385900  1.0  -0.4921
  O  O58  1  0.913000  0.970000  0.114400  1.0  -0.4992
  O  O59  1  0.431300  0.727100  0.772500  1.0  -0.6376
  O  O60  1  0.568700  0.272900  0.227500  1.0  -0.6393
  O  O61  1  0.467600  0.819200  0.312000  1.0  -0.5994
  O  O62  1  0.030400  0.179800  0.187000  1.0  -0.6004
  O  O63  1  0.921300  0.623400  0.513200  1.0  -0.7111
  O  O64  1  0.705400  0.110100  0.193300  1.0  -0.6872
  O  O65  1  0.420300  0.623300  0.012900  1.0  -0.729
  O  O66  1  0.412600  0.969000  0.614100  1.0  -0.4906
  O  O67  1  0.203800  0.110000  0.691900  1.0  -0.695
  O  O68  1  0.796200  0.890000  0.308100  1.0  -0.6988
  O  O69  1  0.969600  0.820200  0.813000  1.0  -0.603
  O  O70  1  0.282300  0.399200  0.609300  1.0  -0.7226
  O  O71  1  0.294600  0.889900  0.806700  1.0  -0.6885
  O  O72  1  0.087000  0.030000  0.885600  1.0  -0.4999
  O  O73  1  0.931400  0.726800  0.271400  1.0  -0.6455
  O  O74  1  0.579700  0.376700  0.987100  1.0  -0.7304
  O  O75  1  0.078700  0.376600  0.486800  1.0  -0.7143
  O  O76  1  0.068600  0.273200  0.728600  1.0  -0.6453
  O  O77  1  0.217200  0.600900  0.890600  1.0  -0.6952
  O  O78  1  0.532400  0.180800  0.688000  1.0  -0.5984
  O  O79  1  0.782800  0.399100  0.109400  1.0  -0.696
  O  O80  1  0.717700  0.600800  0.390700  1.0  -0.7219
