# generated using pymatgen
data_SrH4(C3O2)3
_symmetry_space_group_name_H-M   'P 1'
_cell_length_a   7.26600000
_cell_length_b   8.36800000
_cell_length_c   10.16300000
_cell_angle_alpha   94.81000000
_cell_angle_beta   105.18000000
_cell_angle_gamma   109.18000000
_symmetry_Int_Tables_number   1
_chemical_formula_structural   SrH4(C3O2)3
_chemical_formula_sum   'Sr2 H8 C18 O12'
_cell_volume   553.39673539
_cell_formula_units_Z   2
loop_
 _symmetry_equiv_pos_site_id
 _symmetry_equiv_pos_as_xyz
  1  'x, y, z'
loop_
 _atom_site_type_symbol
 _atom_site_label
 _atom_site_symmetry_multiplicity
 _atom_site_fract_x
 _atom_site_fract_y
 _atom_site_fract_z
 _atom_site_occupancy
 _atom_site_charge
  Sr  Sr1  1  0.310400  0.552350  0.624820  1.0  1.6414
  Sr  Sr2  1  0.689600  0.447650  0.375180  1.0  1.64
  H  H3  1  0.808800  0.062500  0.194900  1.0  0.1094
  H  H4  1  0.801500  0.093100  0.802200  1.0  0.1052
  H  H5  1  0.235400  0.455000  0.114400  1.0  0.1001
  H  H6  1  0.542000  0.692000  0.005000  1.0  0.412
  H  H7  1  0.191200  0.937500  0.805100  1.0  0.1104
  H  H8  1  0.198500  0.906900  0.197800  1.0  0.1042
  H  H9  1  0.764600  0.545000  0.885600  1.0  0.1003
  H  H10  1  0.458000  0.308000  0.995000  1.0  0.4143
  C  C11  1  0.036700  0.272800  0.178700  1.0  -0.152
  C  C12  1  0.866600  0.118100  0.131900  1.0  0.0153
  C  C13  1  0.784700  0.048300  0.990700  1.0  -0.2063
  C  C14  1  0.863200  0.136900  0.896700  1.0  0.0077
  C  C15  1  0.034500  0.292100  0.940900  1.0  -0.1508
  C  C16  1  0.119400  0.354800  0.082600  1.0  0.001
  C  C17  1  0.126000  0.347100  0.331700  1.0  0.7601
  C  C18  1  0.612700  0.881400  0.933700  1.0  0.6954
  C  C19  1  0.120600  0.381900  0.836600  1.0  0.6751
  C  C20  1  0.963300  0.727200  0.821300  1.0  -0.1503
  C  C21  1  0.133400  0.881900  0.868100  1.0  0.0163
  C  C22  1  0.215300  0.951700  0.009300  1.0  -0.2068
  C  C23  1  0.136800  0.863100  0.103300  1.0  0.0049
  C  C24  1  0.965500  0.707900  0.059100  1.0  -0.1511
  C  C25  1  0.880600  0.645200  0.917400  1.0  0.0026
  C  C26  1  0.874000  0.652900  0.668300  1.0  0.7631
  C  C27  1  0.387300  0.118600  0.066300  1.0  0.694
  C  C28  1  0.879400  0.618100  0.163400  1.0  0.6763
  O  O29  1  0.316500  0.409200  0.378500  1.0  -0.7914
  O  O30  1  0.004100  0.342900  0.400400  1.0  -0.7318
  O  O31  1  0.554400  0.792000  0.027000  1.0  -0.5376
  O  O32  1  0.532200  0.827700  0.809200  1.0  -0.6107
  O  O33  1  0.022700  0.333800  0.711600  1.0  -0.6485
  O  O34  1  0.294200  0.507200  0.879000  1.0  -0.7062
  O  O35  1  0.683500  0.590800  0.621500  1.0  -0.7893
  O  O36  1  0.995900  0.657100  0.599600  1.0  -0.7306
  O  O37  1  0.445600  0.208000  0.973000  1.0  -0.5376
  O  O38  1  0.467800  0.172300  0.190800  1.0  -0.6109
  O  O39  1  0.977300  0.666200  0.288400  1.0  -0.6359
  O  O40  1  0.705800  0.492800  0.121000  1.0  -0.7014
