# generated using pymatgen
data_LaH12C18(N3O2)3
_symmetry_space_group_name_H-M   'P 1'
_cell_length_a   8.77940000
_cell_length_b   12.40110000
_cell_length_c   24.89710000
_cell_angle_alpha   90.00000000
_cell_angle_beta   90.00000000
_cell_angle_gamma   92.26200000
_symmetry_Int_Tables_number   1
_chemical_formula_structural   LaH12C18(N3O2)3
_chemical_formula_sum   'La4 H48 C72 N36 O24'
_cell_volume   2708.54011397
_cell_formula_units_Z   4
loop_
 _symmetry_equiv_pos_site_id
 _symmetry_equiv_pos_as_xyz
  1  'x, y, z'
loop_
 _atom_site_type_symbol
 _atom_site_label
 _atom_site_symmetry_multiplicity
 _atom_site_fract_x
 _atom_site_fract_y
 _atom_site_fract_z
 _atom_site_occupancy
 _atom_site_charge
  La  La1  1  0.245250  0.997960  0.991540  1.0  2.1571
  La  La2  1  0.254750  0.002040  0.491540  1.0  2.157
  La  La3  1  0.754750  0.002040  0.008460  1.0  2.1574
  La  La4  1  0.745250  0.997960  0.508460  1.0  2.1575
  H  H5  1  0.410500  0.845600  0.823400  1.0  0.1459
  H  H6  1  0.331100  0.945500  0.797900  1.0  0.1579
  H  H7  1  0.097200  0.714500  0.853300  1.0  0.1518
  H  H8  1  0.902900  0.566800  0.694000  1.0  0.1129
  H  H9  1  0.548100  0.275200  0.705600  1.0  0.1439
  H  H10  1  0.627200  0.369900  0.783700  1.0  0.1027
  H  H11  1  0.897500  0.597900  0.855600  1.0  0.1124
  H  H12  1  0.518100  0.327500  0.868200  1.0  0.1416
  H  H13  1  0.375000  0.277900  0.961400  1.0  0.1384
  H  H14  1  0.445200  0.335300  0.013200  1.0  0.1615
  H  H15  1  0.397400  0.273100  0.568400  1.0  0.1634
  H  H16  1  0.383000  0.200800  0.620800  1.0  0.1527
  H  H17  1  0.089500  0.154400  0.323400  1.0  0.1459
  H  H18  1  0.168900  0.054500  0.297900  1.0  0.1582
  H  H19  1  0.402800  0.285500  0.353300  1.0  0.1519
  H  H20  1  0.597100  0.433200  0.194000  1.0  0.1126
  H  H21  1  0.951900  0.724800  0.205600  1.0  0.1434
  H  H22  1  0.872800  0.630100  0.283700  1.0  0.1027
  H  H23  1  0.602500  0.402100  0.355600  1.0  0.1123
  H  H24  1  0.981900  0.672500  0.368200  1.0  0.1416
  H  H25  1  0.125000  0.722100  0.461400  1.0  0.1375
  H  H26  1  0.054800  0.664700  0.513200  1.0  0.1619
  H  H27  1  0.102600  0.726900  0.068400  1.0  0.1636
  H  H28  1  0.117000  0.799200  0.120800  1.0  0.152
  H  H29  1  0.589500  0.154400  0.176600  1.0  0.1459
  H  H30  1  0.668900  0.054500  0.202100  1.0  0.1589
  H  H31  1  0.902800  0.285500  0.146700  1.0  0.1512
  H  H32  1  0.097100  0.433200  0.306000  1.0  0.1119
  H  H33  1  0.451900  0.724800  0.294400  1.0  0.1434
  H  H34  1  0.372800  0.630100  0.216300  1.0  0.103
  H  H35  1  0.102500  0.402100  0.144400  1.0  0.1123
  H  H36  1  0.481900  0.672500  0.131800  1.0  0.1414
  H  H37  1  0.625000  0.722100  0.038600  1.0  0.1364
  H  H38  1  0.554800  0.664700  0.986800  1.0  0.1614
  H  H39  1  0.602600  0.726900  0.431600  1.0  0.1627
  H  H40  1  0.617000  0.799200  0.379200  1.0  0.1517
  H  H41  1  0.910500  0.845600  0.676600  1.0  0.1467
  H  H42  1  0.831100  0.945500  0.702100  1.0  0.1585
  H  H43  1  0.597200  0.714500  0.646700  1.0  0.1515
  H  H44  1  0.402900  0.566800  0.806000  1.0  0.1122
  H  H45  1  0.048100  0.275200  0.794400  1.0  0.1426
  H  H46  1  0.127200  0.369900  0.716300  1.0  0.1031
  H  H47  1  0.397500  0.597900  0.644400  1.0  0.1125
  H  H48  1  0.018100  0.327500  0.631800  1.0  0.1417
  H  H49  1  0.875000  0.277900  0.538600  1.0  0.137
  H  H50  1  0.945200  0.335300  0.486800  1.0  0.1616
  H  H51  1  0.897400  0.273100  0.931600  1.0  0.1626
  H  H52  1  0.883000  0.200800  0.879200  1.0  0.1524
  C  C53  1  0.272800  0.920900  0.876420  1.0  0.7307
  C  C54  1  0.313900  0.882300  0.821000  1.0  -0.2538
  C  C55  1  0.035100  0.682900  0.773600  1.0  0.1333
  C  C56  1  0.109000  0.731700  0.816700  1.0  -0.1499
  C  C57  1  0.918700  0.594600  0.774800  1.0  0.0234
  C  C58  1  0.864600  0.544500  0.727600  1.0  -0.1019
  C  C59  1  0.752100  0.460500  0.731200  1.0  0.0098
  C  C60  1  0.683600  0.410600  0.682600  1.0  0.1188
  C  C61  1  0.583700  0.321600  0.678000  1.0  -0.1961
  C  C62  1  0.699400  0.427700  0.781400  1.0  -0.1594
  C  C63  1  0.751000  0.478600  0.828500  1.0  0.0168
  C  C64  1  0.861600  0.562700  0.824400  1.0  -0.1102
  C  C65  1  0.689600  0.446000  0.880500  1.0  0.1295
  C  C66  1  0.575000  0.370800  0.892500  1.0  -0.1762
  C  C67  1  0.559600  0.199100  0.991850  1.0  0.7604
  C  C68  1  0.470500  0.299000  0.979600  1.0  -0.2658
  C  C69  1  0.552300  0.152900  0.570000  1.0  0.7756
  C  C70  1  0.455700  0.236600  0.596100  1.0  -0.266
  C  C71  1  0.227200  0.079100  0.376420  1.0  0.7316
  C  C72  1  0.186100  0.117700  0.321000  1.0  -0.2532
  C  C73  1  0.464900  0.317100  0.273600  1.0  0.1338
  C  C74  1  0.391000  0.268300  0.316700  1.0  -0.1494
  C  C75  1  0.581300  0.405400  0.274800  1.0  0.0238
  C  C76  1  0.635400  0.455500  0.227600  1.0  -0.1033
  C  C77  1  0.747900  0.539500  0.231200  1.0  0.0096
  C  C78  1  0.816400  0.589400  0.182600  1.0  0.1165
  C  C79  1  0.916300  0.678400  0.178000  1.0  -0.1961
  C  C80  1  0.800600  0.572300  0.281400  1.0  -0.1609
  C  C81  1  0.749000  0.521400  0.328500  1.0  0.0158
  C  C82  1  0.638400  0.437300  0.324400  1.0  -0.1099
  C  C83  1  0.810400  0.554000  0.380500  1.0  0.1297
  C  C84  1  0.925000  0.629200  0.392500  1.0  -0.1762
  C  C85  1  0.940400  0.800900  0.491850  1.0  0.7596
  C  C86  1  0.029500  0.701000  0.479600  1.0  -0.2664
  C  C87  1  0.947700  0.847100  0.070000  1.0  0.7761
  C  C88  1  0.044300  0.763400  0.096100  1.0  -0.266
  C  C89  1  0.727200  0.079100  0.123580  1.0  0.7335
  C  C90  1  0.686100  0.117700  0.179000  1.0  -0.2532
  C  C91  1  0.964900  0.317100  0.226400  1.0  0.1339
  C  C92  1  0.891000  0.268300  0.183300  1.0  -0.1499
  C  C93  1  0.081300  0.405400  0.225200  1.0  0.0241
  C  C94  1  0.135400  0.455500  0.272400  1.0  -0.1045
  C  C95  1  0.247900  0.539500  0.268800  1.0  0.0083
  C  C96  1  0.316400  0.589400  0.317400  1.0  0.1151
  C  C97  1  0.416300  0.678400  0.322000  1.0  -0.1963
  C  C98  1  0.300600  0.572300  0.218600  1.0  -0.1613
  C  C99  1  0.249000  0.521400  0.171500  1.0  0.0151
  C  C100  1  0.138400  0.437300  0.175600  1.0  -0.1101
  C  C101  1  0.310400  0.554000  0.119500  1.0  0.1287
  C  C102  1  0.425000  0.629200  0.107500  1.0  -0.1766
  C  C103  1  0.440400  0.800900  0.008150  1.0  0.7595
  C  C104  1  0.529500  0.701000  0.020400  1.0  -0.2677
  C  C105  1  0.447700  0.847100  0.430000  1.0  0.7759
  C  C106  1  0.544300  0.763400  0.403900  1.0  -0.2666
  C  C107  1  0.772800  0.920900  0.623580  1.0  0.7325
  C  C108  1  0.813900  0.882300  0.679000  1.0  -0.254
  C  C109  1  0.535100  0.682900  0.726400  1.0  0.1334
  C  C110  1  0.609000  0.731700  0.683300  1.0  -0.1501
  C  C111  1  0.418700  0.594600  0.725200  1.0  0.0237
  C  C112  1  0.364600  0.544500  0.772400  1.0  -0.1026
  C  C113  1  0.252100  0.460500  0.768800  1.0  0.0094
  C  C114  1  0.183600  0.410600  0.817400  1.0  0.118
  C  C115  1  0.083700  0.321600  0.822000  1.0  -0.1964
  C  C116  1  0.199400  0.427700  0.718600  1.0  -0.1599
  C  C117  1  0.251000  0.478600  0.671500  1.0  0.0159
  C  C118  1  0.361600  0.562700  0.675600  1.0  -0.1098
  C  C119  1  0.189600  0.446000  0.619500  1.0  0.1288
  C  C120  1  0.075000  0.370800  0.607500  1.0  -0.1771
  C  C121  1  0.059600  0.199100  0.508150  1.0  0.7586
  C  C122  1  0.970500  0.299000  0.520400  1.0  -0.2668
  C  C123  1  0.052300  0.152900  0.930000  1.0  0.7764
  C  C124  1  0.955700  0.236600  0.903900  1.0  -0.2656
  N  N125  1  0.201900  0.809400  0.795000  1.0  0.2412
  N  N126  1  0.190300  0.808800  0.741450  1.0  -0.2321
  N  N127  1  0.088900  0.732300  0.728370  1.0  -0.2438
  N  N128  1  0.704900  0.453000  0.632930  1.0  -0.2354
  N  N129  1  0.622700  0.394800  0.598020  1.0  -0.1691
  N  N130  1  0.549400  0.316600  0.625630  1.0  0.2402
  N  N131  1  0.561400  0.372400  0.945560  1.0  0.2399
  N  N132  1  0.661900  0.444400  0.968050  1.0  -0.1802
  N  N133  1  0.739100  0.489900  0.927940  1.0  -0.2519
  N  N134  1  0.298100  0.190600  0.295000  1.0  0.242
  N  N135  1  0.309700  0.191200  0.241450  1.0  -0.2313
  N  N136  1  0.411100  0.267700  0.228370  1.0  -0.2415
  N  N137  1  0.795100  0.547000  0.132930  1.0  -0.2346
  N  N138  1  0.877300  0.605200  0.098020  1.0  -0.1701
  N  N139  1  0.950600  0.683400  0.125630  1.0  0.2396
  N  N140  1  0.938600  0.627600  0.445560  1.0  0.2395
  N  N141  1  0.838100  0.555600  0.468050  1.0  -0.1793
  N  N142  1  0.760900  0.510100  0.427940  1.0  -0.2518
  N  N143  1  0.798100  0.190600  0.205000  1.0  0.2426
  N  N144  1  0.809700  0.191200  0.258550  1.0  -0.2307
  N  N145  1  0.911100  0.267700  0.271630  1.0  -0.2414
  N  N146  1  0.295100  0.547000  0.367070  1.0  -0.2359
  N  N147  1  0.377300  0.605200  0.401980  1.0  -0.1691
  N  N148  1  0.450600  0.683400  0.374370  1.0  0.2395
  N  N149  1  0.438600  0.627600  0.054440  1.0  0.2392
  N  N150  1  0.338100  0.555600  0.031950  1.0  -0.1784
  N  N151  1  0.260900  0.510100  0.072060  1.0  -0.2531
  N  N152  1  0.701900  0.809400  0.705000  1.0  0.2418
  N  N153  1  0.690300  0.808800  0.758550  1.0  -0.2323
  N  N154  1  0.588900  0.732300  0.771630  1.0  -0.2415
  N  N155  1  0.204900  0.453000  0.867070  1.0  -0.2367
  N  N156  1  0.122700  0.394800  0.901980  1.0  -0.1688
  N  N157  1  0.049400  0.316600  0.874370  1.0  0.2403
  N  N158  1  0.061400  0.372400  0.554440  1.0  0.2396
  N  N159  1  0.161900  0.444400  0.531950  1.0  -0.1783
  N  N160  1  0.239100  0.489900  0.572060  1.0  -0.2539
  O  O161  1  0.381000  0.968900  0.901380  1.0  -0.6963
  O  O162  1  0.142700  0.908200  0.896500  1.0  -0.6538
  O  O163  1  0.701100  0.206200  0.997580  1.0  -0.6356
  O  O164  1  0.486300  0.109100  0.996360  1.0  -0.8082
  O  O165  1  0.691700  0.151600  0.577940  1.0  -0.6166
  O  O166  1  0.483600  0.083800  0.538840  1.0  -0.8555
  O  O167  1  0.119000  0.031100  0.401380  1.0  -0.6954
  O  O168  1  0.357300  0.091800  0.396500  1.0  -0.6556
  O  O169  1  0.798900  0.793800  0.497580  1.0  -0.6357
  O  O170  1  0.013700  0.890900  0.496360  1.0  -0.8074
  O  O171  1  0.808300  0.848400  0.077940  1.0  -0.614
  O  O172  1  0.016400  0.916200  0.038840  1.0  -0.8547
  O  O173  1  0.619000  0.031100  0.098620  1.0  -0.6961
  O  O174  1  0.857300  0.091800  0.103500  1.0  -0.6548
  O  O175  1  0.298900  0.793800  0.002420  1.0  -0.6351
  O  O176  1  0.513700  0.890900  0.003640  1.0  -0.807
  O  O177  1  0.308300  0.848400  0.422060  1.0  -0.6135
  O  O178  1  0.516400  0.916200  0.461160  1.0  -0.8574
  O  O179  1  0.881000  0.968900  0.598620  1.0  -0.6972
  O  O180  1  0.642700  0.908200  0.603500  1.0  -0.6536
  O  O181  1  0.201100  0.206200  0.502420  1.0  -0.6358
  O  O182  1  0.986300  0.109100  0.503640  1.0  -0.8086
  O  O183  1  0.191700  0.151600  0.922060  1.0  -0.6159
  O  O184  1  0.983600  0.083800  0.961160  1.0  -0.857
