# generated using pymatgen
data_ZnH20C22(N3O2)2
_symmetry_space_group_name_H-M   'P 1'
_cell_length_a   7.84630000
_cell_length_b   18.31390000
_cell_length_c   19.37600000
_cell_angle_alpha   90.00000000
_cell_angle_beta   90.00000000
_cell_angle_gamma   90.00000000
_symmetry_Int_Tables_number   1
_chemical_formula_structural   ZnH20C22(N3O2)2
_chemical_formula_sum   'Zn4 H80 C88 N24 O16'
_cell_volume   2784.26054677
_cell_formula_units_Z   4
loop_
 _symmetry_equiv_pos_site_id
 _symmetry_equiv_pos_as_xyz
  1  'x, y, z'
loop_
 _atom_site_type_symbol
 _atom_site_label
 _atom_site_symmetry_multiplicity
 _atom_site_fract_x
 _atom_site_fract_y
 _atom_site_fract_z
 _atom_site_occupancy
 _atom_site_charge
  Zn  Zn1  1  0.525380  0.508140  0.499990  1.0  0.8737
  Zn  Zn2  1  0.474620  0.491860  0.999990  1.0  0.8739
  Zn  Zn3  1  0.474620  0.008140  0.499990  1.0  0.8737
  Zn  Zn4  1  0.525380  0.991860  0.999990  1.0  0.8739
  H  H5  1  0.635400  0.725300  0.480800  1.0  0.094
  H  H6  1  0.864400  0.648000  0.458600  1.0  0.123
  H  H7  1  0.186600  0.819500  0.475200  1.0  0.1242
  H  H8  1  0.954900  0.897400  0.490600  1.0  0.0992
  H  H9  1  0.043700  0.561200  0.534200  1.0  0.1399
  H  H10  1  0.095100  0.629500  0.579900  1.0  0.1428
  H  H11  1  0.212100  0.559000  0.579300  1.0  0.1442
  H  H12  1  0.359200  0.792500  0.372800  1.0  0.1385
  H  H13  1  0.206700  0.753700  0.333700  1.0  0.1364
  H  H14  1  0.397500  0.733100  0.315400  1.0  0.1489
  H  H15  1  0.273700  0.565100  0.771100  1.0  0.1024
  H  H16  1  0.055400  0.576500  0.689900  1.0  0.1165
  H  H17  1  0.718800  0.493700  0.825700  1.0  0.1263
  H  H18  1  0.937500  0.485000  0.907900  1.0  0.0931
  H  H19  1  0.753600  0.406400  0.587500  1.0  0.1596
  H  H20  1  0.826000  0.404900  0.663800  1.0  0.148
  H  H21  1  0.927100  0.446600  0.605100  1.0  0.1402
  H  H22  1  0.527900  0.693300  0.730100  1.0  0.1437
  H  H23  1  0.719800  0.680700  0.752500  1.0  0.1468
  H  H24  1  0.572100  0.635100  0.787900  1.0  0.1458
  H  H25  1  0.364600  0.274700  0.980800  1.0  0.0937
  H  H26  1  0.135600  0.352000  0.958600  1.0  0.1227
  H  H27  1  0.813400  0.180500  0.975200  1.0  0.1243
  H  H28  1  0.045100  0.102600  0.990600  1.0  0.0992
  H  H29  1  0.956300  0.438800  0.034200  1.0  0.1374
  H  H30  1  0.904900  0.370500  0.079900  1.0  0.1444
  H  H31  1  0.787900  0.441000  0.079300  1.0  0.1442
  H  H32  1  0.640800  0.207500  0.872800  1.0  0.1399
  H  H33  1  0.793300  0.246300  0.833700  1.0  0.1368
  H  H34  1  0.602500  0.266900  0.815400  1.0  0.1485
  H  H35  1  0.726300  0.434900  0.271100  1.0  0.1025
  H  H36  1  0.944600  0.423500  0.189900  1.0  0.1166
  H  H37  1  0.281200  0.506300  0.325700  1.0  0.1264
  H  H38  1  0.062500  0.515000  0.407900  1.0  0.0924
  H  H39  1  0.246400  0.593600  0.087500  1.0  0.1591
  H  H40  1  0.174000  0.595100  0.163800  1.0  0.1481
  H  H41  1  0.072900  0.553400  0.105100  1.0  0.1406
  H  H42  1  0.472100  0.306700  0.230100  1.0  0.1456
  H  H43  1  0.280200  0.319300  0.252500  1.0  0.1492
  H  H44  1  0.427900  0.364900  0.287900  1.0  0.1474
  H  H45  1  0.364600  0.225300  0.480800  1.0  0.0939
  H  H46  1  0.135600  0.148000  0.458600  1.0  0.1228
  H  H47  1  0.813400  0.319500  0.475200  1.0  0.1242
  H  H48  1  0.045100  0.397400  0.490600  1.0  0.0996
  H  H49  1  0.956300  0.061200  0.534200  1.0  0.1403
  H  H50  1  0.904900  0.129500  0.579900  1.0  0.1427
  H  H51  1  0.787900  0.059000  0.579300  1.0  0.1452
  H  H52  1  0.640800  0.292500  0.372800  1.0  0.1389
  H  H53  1  0.793300  0.253700  0.333700  1.0  0.1366
  H  H54  1  0.602500  0.233100  0.315400  1.0  0.1483
  H  H55  1  0.726300  0.065100  0.771100  1.0  0.1022
  H  H56  1  0.944600  0.076500  0.689900  1.0  0.1166
  H  H57  1  0.281200  0.993700  0.825700  1.0  0.1265
  H  H58  1  0.062500  0.985000  0.907900  1.0  0.0931
  H  H59  1  0.246400  0.906400  0.587500  1.0  0.1599
  H  H60  1  0.174000  0.904900  0.663800  1.0  0.148
  H  H61  1  0.072900  0.946600  0.605100  1.0  0.1406
  H  H62  1  0.472100  0.193300  0.730100  1.0  0.1439
  H  H63  1  0.280200  0.180700  0.752500  1.0  0.1485
  H  H64  1  0.427900  0.135100  0.787900  1.0  0.1459
  H  H65  1  0.635400  0.774700  0.980800  1.0  0.0939
  H  H66  1  0.864400  0.852000  0.958600  1.0  0.1231
  H  H67  1  0.186600  0.680500  0.975200  1.0  0.1243
  H  H68  1  0.954900  0.602600  0.990600  1.0  0.0988
  H  H69  1  0.043700  0.938800  0.034200  1.0  0.137
  H  H70  1  0.095100  0.870500  0.079900  1.0  0.1444
  H  H71  1  0.212100  0.941000  0.079300  1.0  0.1431
  H  H72  1  0.359200  0.707500  0.872800  1.0  0.1388
  H  H73  1  0.206700  0.746300  0.833700  1.0  0.1368
  H  H74  1  0.397500  0.766900  0.815400  1.0  0.149
  H  H75  1  0.273700  0.934900  0.271100  1.0  0.1028
  H  H76  1  0.055400  0.923500  0.189900  1.0  0.1163
  H  H77  1  0.718800  0.006300  0.325700  1.0  0.1261
  H  H78  1  0.937500  0.015000  0.407900  1.0  0.0923
  H  H79  1  0.753600  0.093600  0.087500  1.0  0.1596
  H  H80  1  0.826000  0.095100  0.163800  1.0  0.1481
  H  H81  1  0.927100  0.053400  0.105100  1.0  0.1406
  H  H82  1  0.527900  0.806700  0.230100  1.0  0.1444
  H  H83  1  0.719800  0.819300  0.252500  1.0  0.1475
  H  H84  1  0.572100  0.864900  0.287900  1.0  0.1471
  C  C85  1  0.622700  0.869430  0.501100  1.0  0.6718
  C  C86  1  0.772000  0.819000  0.487830  1.0  -0.1363
  C  C87  1  0.746500  0.744460  0.478620  1.0  -0.0053
  C  C88  1  0.882600  0.698020  0.466320  1.0  -0.1934
  C  C89  1  0.046800  0.726890  0.465670  1.0  0.1476
  C  C90  1  0.075000  0.800740  0.475370  1.0  -0.1866
  C  C91  1  0.937000  0.846900  0.485390  1.0  -0.0014
  C  C92  1  0.138300  0.589860  0.551660  1.0  -0.431
  C  C93  1  0.237100  0.620550  0.492440  1.0  0.3611
  C  C94  1  0.317800  0.688620  0.406000  1.0  0.3808
  C  C95  1  0.320600  0.747110  0.352300  1.0  -0.424
  C  C96  1  0.273400  0.517220  0.897650  1.0  0.6493
  C  C97  1  0.126500  0.523380  0.846990  1.0  -0.1333
  C  C98  1  0.162100  0.550600  0.782340  1.0  -0.0093
  C  C99  1  0.032100  0.556800  0.733630  1.0  -0.1772
  C  C100  1  0.869600  0.533880  0.749590  1.0  0.1591
  C  C101  1  0.830700  0.507790  0.814510  1.0  -0.1808
  C  C102  1  0.961800  0.502710  0.863400  1.0  -0.0044
  C  C103  1  0.814700  0.434060  0.622330  1.0  -0.4419
  C  C104  1  0.719100  0.502090  0.638430  1.0  0.3649
  C  C105  1  0.628400  0.600070  0.691550  1.0  0.375
  C  C106  1  0.610500  0.657200  0.745100  1.0  -0.4379
  C  C107  1  0.377300  0.130570  0.001100  1.0  0.6729
  C  C108  1  0.228000  0.181000  0.987830  1.0  -0.1349
  C  C109  1  0.253500  0.255540  0.978620  1.0  -0.0067
  C  C110  1  0.117400  0.301980  0.966320  1.0  -0.1936
  C  C111  1  0.953200  0.273110  0.965670  1.0  0.1476
  C  C112  1  0.925000  0.199260  0.975370  1.0  -0.1851
  C  C113  1  0.063000  0.153100  0.985390  1.0  -0.001
  C  C114  1  0.861700  0.410140  0.051660  1.0  -0.429
  C  C115  1  0.762900  0.379450  0.992440  1.0  0.3606
  C  C116  1  0.682200  0.311380  0.906000  1.0  0.381
  C  C117  1  0.679400  0.252890  0.852300  1.0  -0.4238
  C  C118  1  0.726600  0.482780  0.397650  1.0  0.6482
  C  C119  1  0.873500  0.476620  0.346990  1.0  -0.134
  C  C120  1  0.837900  0.449400  0.282340  1.0  -0.0099
  C  C121  1  0.967900  0.443200  0.233630  1.0  -0.1789
  C  C122  1  0.130400  0.466120  0.249590  1.0  0.1588
  C  C123  1  0.169300  0.492210  0.314510  1.0  -0.1816
  C  C124  1  0.038200  0.497290  0.363400  1.0  -0.0036
  C  C125  1  0.185300  0.565940  0.122330  1.0  -0.4417
  C  C126  1  0.280900  0.497910  0.138430  1.0  0.3642
  C  C127  1  0.371600  0.399930  0.191550  1.0  0.3747
  C  C128  1  0.389500  0.342800  0.245100  1.0  -0.4374
  C  C129  1  0.377300  0.369430  0.501100  1.0  0.6728
  C  C130  1  0.228000  0.319000  0.487830  1.0  -0.1352
  C  C131  1  0.253500  0.244460  0.478620  1.0  -0.0063
  C  C132  1  0.117400  0.198020  0.466320  1.0  -0.1938
  C  C133  1  0.953200  0.226890  0.465670  1.0  0.1477
  C  C134  1  0.925000  0.300740  0.475370  1.0  -0.1857
  C  C135  1  0.063000  0.346900  0.485390  1.0  -0.002
  C  C136  1  0.861700  0.089860  0.551660  1.0  -0.4296
  C  C137  1  0.762900  0.120550  0.492440  1.0  0.3607
  C  C138  1  0.682200  0.188620  0.406000  1.0  0.3802
  C  C139  1  0.679400  0.247110  0.352300  1.0  -0.424
  C  C140  1  0.726600  0.017220  0.897650  1.0  0.649
  C  C141  1  0.873500  0.023380  0.846990  1.0  -0.1346
  C  C142  1  0.837900  0.050600  0.782340  1.0  -0.0096
  C  C143  1  0.967900  0.056800  0.733630  1.0  -0.178
  C  C144  1  0.130400  0.033880  0.749590  1.0  0.1595
  C  C145  1  0.169300  0.007790  0.814510  1.0  -0.1824
  C  C146  1  0.038200  0.002710  0.863400  1.0  -0.0037
  C  C147  1  0.185300  0.934060  0.622330  1.0  -0.4419
  C  C148  1  0.280900  0.002090  0.638430  1.0  0.3644
  C  C149  1  0.371600  0.100070  0.691550  1.0  0.3745
  C  C150  1  0.389500  0.157200  0.745100  1.0  -0.4376
  C  C151  1  0.622700  0.630570  0.001100  1.0  0.6719
  C  C152  1  0.772000  0.681000  0.987830  1.0  -0.1358
  C  C153  1  0.746500  0.755540  0.978620  1.0  -0.0056
  C  C154  1  0.882600  0.801980  0.966320  1.0  -0.193
  C  C155  1  0.046800  0.773110  0.965670  1.0  0.1475
  C  C156  1  0.075000  0.699260  0.975370  1.0  -0.186
  C  C157  1  0.937000  0.653100  0.985390  1.0  -0.0014
  C  C158  1  0.138300  0.910140  0.051660  1.0  -0.4303
  C  C159  1  0.237100  0.879450  0.992440  1.0  0.3611
  C  C160  1  0.317800  0.811380  0.906000  1.0  0.3815
  C  C161  1  0.320600  0.752890  0.852300  1.0  -0.4235
  C  C162  1  0.273400  0.982780  0.397650  1.0  0.6492
  C  C163  1  0.126500  0.976620  0.346990  1.0  -0.1327
  C  C164  1  0.162100  0.949400  0.282340  1.0  -0.0096
  C  C165  1  0.032100  0.943200  0.233630  1.0  -0.1778
  C  C166  1  0.869600  0.966120  0.249590  1.0  0.1586
  C  C167  1  0.830700  0.992210  0.314510  1.0  -0.1804
  C  C168  1  0.961800  0.997290  0.363400  1.0  -0.0044
  C  C169  1  0.814700  0.065940  0.122330  1.0  -0.4416
  C  C170  1  0.719100  0.997910  0.138430  1.0  0.3647
  C  C171  1  0.628400  0.899930  0.191550  1.0  0.375
  C  C172  1  0.610500  0.842800  0.245100  1.0  -0.4375
  N  N173  1  0.383400  0.595310  0.468980  1.0  -0.2456
  N  N174  1  0.434000  0.638250  0.413220  1.0  -0.3342
  N  N175  1  0.191100  0.679550  0.454070  1.0  -0.1168
  N  N176  1  0.602100  0.532600  0.600120  1.0  -0.2798
  N  N177  1  0.543700  0.595360  0.633880  1.0  -0.3386
  N  N178  1  0.739700  0.542430  0.697630  1.0  -0.1275
  N  N179  1  0.616600  0.404690  0.968980  1.0  -0.2459
  N  N180  1  0.566000  0.361750  0.913220  1.0  -0.334
  N  N181  1  0.808900  0.320450  0.954070  1.0  -0.1174
  N  N182  1  0.397900  0.467400  0.100120  1.0  -0.2791
  N  N183  1  0.456300  0.404640  0.133880  1.0  -0.3381
  N  N184  1  0.260300  0.457570  0.197630  1.0  -0.1281
  N  N185  1  0.616600  0.095310  0.468980  1.0  -0.246
  N  N186  1  0.566000  0.138250  0.413220  1.0  -0.3339
  N  N187  1  0.808900  0.179550  0.454070  1.0  -0.117
  N  N188  1  0.397900  0.032600  0.600120  1.0  -0.2789
  N  N189  1  0.456300  0.095360  0.633880  1.0  -0.3391
  N  N190  1  0.260300  0.042430  0.697630  1.0  -0.1274
  N  N191  1  0.383400  0.904690  0.968980  1.0  -0.2465
  N  N192  1  0.434000  0.861750  0.913220  1.0  -0.3349
  N  N193  1  0.191100  0.820450  0.954070  1.0  -0.1173
  N  N194  1  0.602100  0.967400  0.100120  1.0  -0.2799
  N  N195  1  0.543700  0.904640  0.133880  1.0  -0.3382
  N  N196  1  0.739700  0.957570  0.197630  1.0  -0.1281
  O  O197  1  0.659280  0.937210  0.505960  1.0  -0.6145
  O  O198  1  0.476800  0.843940  0.507200  1.0  -0.6017
  O  O199  1  0.240000  0.493790  0.958150  1.0  -0.5925
  O  O200  1  0.419700  0.533420  0.879390  1.0  -0.584
  O  O201  1  0.340720  0.062790  0.005960  1.0  -0.6145
  O  O202  1  0.523200  0.156060  0.007200  1.0  -0.6023
  O  O203  1  0.760000  0.506210  0.458150  1.0  -0.5934
  O  O204  1  0.580300  0.466580  0.379390  1.0  -0.5844
  O  O205  1  0.340720  0.437210  0.505960  1.0  -0.6147
  O  O206  1  0.523200  0.343940  0.507200  1.0  -0.6022
  O  O207  1  0.760000  0.993790  0.958150  1.0  -0.5922
  O  O208  1  0.580300  0.033420  0.879390  1.0  -0.5848
  O  O209  1  0.659280  0.562790  0.005960  1.0  -0.6149
  O  O210  1  0.476800  0.656060  0.007200  1.0  -0.6017
  O  O211  1  0.240000  0.006210  0.458150  1.0  -0.5934
  O  O212  1  0.419700  0.966580  0.379390  1.0  -0.5838
