# generated using pymatgen
data_Zn9P6H24(C21O16)2
_symmetry_space_group_name_H-M   'P 1'
_cell_length_a   10.14300000
_cell_length_b   10.25700000
_cell_length_c   15.50000000
_cell_angle_alpha   86.98200000
_cell_angle_beta   73.52000000
_cell_angle_gamma   81.22900000
_symmetry_Int_Tables_number   1
_chemical_formula_structural   Zn9P6H24(C21O16)2
_chemical_formula_sum   'Zn9 P6 H24 C42 O32'
_cell_volume   1528.16512726
_cell_formula_units_Z   1
loop_
 _symmetry_equiv_pos_site_id
 _symmetry_equiv_pos_as_xyz
  1  'x, y, z'
loop_
 _atom_site_type_symbol
 _atom_site_label
 _atom_site_symmetry_multiplicity
 _atom_site_fract_x
 _atom_site_fract_y
 _atom_site_fract_z
 _atom_site_occupancy
 _atom_site_charge
  Zn  Zn1  1  0.486450  0.247570  0.157290  1.0  1.0658
  Zn  Zn2  1  0.455320  0.239120  0.934050  1.0  1.0907
  Zn  Zn3  1  0.457580  0.777610  0.300370  1.0  1.0284
  Zn  Zn4  1  0.458640  0.078370  0.393440  1.0  1.0798
  Zn  Zn5  1  0.513550  0.752430  0.842710  1.0  1.0676
  Zn  Zn6  1  0.544680  0.760880  0.065950  1.0  1.0944
  Zn  Zn7  1  0.542420  0.222390  0.699630  1.0  1.0296
  Zn  Zn8  1  0.541360  0.921630  0.606560  1.0  1.0807
  Zn  Zn9  1  0.500000  0.500000  0.000000  1.0  1.0619
  P  P10  1  0.585100  0.507950  0.198150  1.0  1.4769
  P  P11  1  0.640200  0.954200  0.202620  1.0  1.495
  P  P12  1  0.648000  0.163400  0.486380  1.0  1.5201
  P  P13  1  0.414900  0.492050  0.801850  1.0  1.477
  P  P14  1  0.359800  0.045800  0.797380  1.0  1.4967
  P  P15  1  0.352000  0.836600  0.513620  1.0  1.5213
  H  H16  1  0.786500  0.301600  0.098900  1.0  0.1186
  H  H17  1  0.025100  0.264300  0.044400  1.0  0.1106
  H  H18  1  0.052800  0.597600  0.154500  1.0  0.1117
  H  H19  1  0.813900  0.637800  0.209100  1.0  0.1071
  H  H20  1  0.900400  0.972800  0.075100  1.0  0.116
  H  H21  1  0.131800  0.933200  0.074100  1.0  0.1183
  H  H22  1  0.018900  0.837100  0.334700  1.0  0.1365
  H  H23  1  0.788500  0.875800  0.334600  1.0  0.1085
  H  H24  1  0.032200  0.238200  0.229900  1.0  0.106
  H  H25  1  0.797500  0.232100  0.304200  1.0  0.1183
  H  H26  1  0.898900  0.137400  0.534100  1.0  0.1148
  H  H27  1  0.129600  0.151200  0.461000  1.0  0.1248
  H  H28  1  0.213500  0.698400  0.901100  1.0  0.1187
  H  H29  1  0.974900  0.735700  0.955600  1.0  0.1107
  H  H30  1  0.947200  0.402400  0.845500  1.0  0.1112
  H  H31  1  0.186100  0.362200  0.790900  1.0  0.1065
  H  H32  1  0.099600  0.027200  0.924900  1.0  0.116
  H  H33  1  0.868200  0.066800  0.925900  1.0  0.1183
  H  H34  1  0.981100  0.162900  0.665300  1.0  0.1361
  H  H35  1  0.211500  0.124200  0.665400  1.0  0.1092
  H  H36  1  0.967800  0.761800  0.770100  1.0  0.1063
  H  H37  1  0.202500  0.767900  0.695800  1.0  0.1181
  H  H38  1  0.101100  0.862600  0.465900  1.0  0.1144
  H  H39  1  0.870400  0.848800  0.539000  1.0  0.1244
  C  C40  1  0.773000  0.475300  0.159300  1.0  -0.3137
  C  C41  1  0.839000  0.362300  0.109900  1.0  -0.0224
  C  C42  1  0.982500  0.340000  0.077300  1.0  -0.0555
  C  C43  1  0.063600  0.428000  0.092900  1.0  -0.1095
  C  C44  1  0.999400  0.538300  0.142700  1.0  -0.0095
  C  C45  1  0.855600  0.562400  0.175600  1.0  -0.0224
  C  C46  1  0.219700  0.401400  0.055100  1.0  0.6814
  C  C47  1  0.818900  0.928500  0.206000  1.0  -0.2294
  C  C48  1  0.923600  0.945100  0.127700  1.0  -0.0098
  C  C49  1  0.063100  0.920900  0.127000  1.0  -0.0019
  C  C50  1  0.099100  0.879900  0.202200  1.0  -0.1398
  C  C51  1  0.995400  0.863700  0.282000  1.0  -0.039
  C  C52  1  0.857100  0.887800  0.281600  1.0  -0.0289
  C  C53  1  0.251000  0.846100  0.201200  1.0  0.7147
  C  C54  1  0.253300  0.203400  0.291900  1.0  0.7109
  C  C55  1  0.101700  0.195900  0.338600  1.0  -0.1118
  C  C56  1  0.004800  0.219200  0.291200  1.0  0.0259
  C  C57  1  0.864100  0.214300  0.335600  1.0  -0.0067
  C  C58  1  0.825400  0.182600  0.426600  1.0  -0.2382
  C  C59  1  0.925000  0.158600  0.473100  1.0  -0.0304
  C  C60  1  0.063200  0.166100  0.429400  1.0  -0.003
  C  C61  1  0.227000  0.524700  0.840700  1.0  -0.311
  C  C62  1  0.161000  0.637700  0.890100  1.0  -0.027
  C  C63  1  0.017500  0.660000  0.922700  1.0  -0.0564
  C  C64  1  0.936400  0.572000  0.907100  1.0  -0.1122
  C  C65  1  0.000600  0.461700  0.857300  1.0  -0.0085
  C  C66  1  0.144400  0.437600  0.824400  1.0  -0.0239
  C  C67  1  0.780300  0.598600  0.944900  1.0  0.6827
  C  C68  1  0.181100  0.071500  0.794000  1.0  -0.2291
  C  C69  1  0.076400  0.054900  0.872300  1.0  -0.0096
  C  C70  1  0.936900  0.079100  0.873000  1.0  -0.0014
  C  C71  1  0.900900  0.120100  0.797800  1.0  -0.1393
  C  C72  1  0.004600  0.136300  0.718000  1.0  -0.0406
  C  C73  1  0.142900  0.112200  0.718400  1.0  -0.029
  C  C74  1  0.749000  0.153900  0.798800  1.0  0.7154
  C  C75  1  0.746700  0.796600  0.708100  1.0  0.7101
  C  C76  1  0.898300  0.804100  0.661400  1.0  -0.1143
  C  C77  1  0.995200  0.780800  0.708800  1.0  0.0259
  C  C78  1  0.135900  0.785700  0.664400  1.0  -0.0072
  C  C79  1  0.174600  0.817400  0.573400  1.0  -0.2388
  C  C80  1  0.075000  0.841400  0.526900  1.0  -0.0281
  C  C81  1  0.936800  0.833900  0.570600  1.0  0.0005
  O  O82  1  0.547200  0.300000  0.028700  1.0  -0.6959
  O  O83  1  0.530300  0.573900  0.122200  1.0  -0.8608
  O  O84  1  0.530600  0.378300  0.226600  1.0  -0.7681
  O  O85  1  0.547800  0.597000  0.279500  1.0  -0.7425
  O  O86  1  0.267300  0.290500  0.016600  1.0  -0.577
  O  O87  1  0.288800  0.488000  0.064200  1.0  -0.5643
  O  O88  1  0.613700  0.837100  0.159300  1.0  -0.8651
  O  O89  1  0.613600  0.083900  0.156700  1.0  -0.8442
  O  O90  1  0.549900  0.946200  0.301100  1.0  -0.8714
  O  O91  1  0.337000  0.845100  0.125700  1.0  -0.5897
  O  O92  1  0.276800  0.826100  0.276200  1.0  -0.595
  O  O93  1  0.333500  0.202100  0.341000  1.0  -0.6343
  O  O94  1  0.291700  0.216600  0.208100  1.0  -0.5726
  O  O95  1  0.651700  0.017300  0.510200  1.0  -0.7866
  O  O96  1  0.558600  0.206000  0.423400  1.0  -0.7269
  O  O97  1  0.606600  0.251900  0.567800  1.0  -0.7469
  O  O98  1  0.452800  0.700000  0.971300  1.0  -0.6947
  O  O99  1  0.469700  0.426100  0.877800  1.0  -0.8614
  O  O100  1  0.469400  0.621700  0.773400  1.0  -0.7679
  O  O101  1  0.452200  0.403000  0.720500  1.0  -0.7434
  O  O102  1  0.732700  0.709500  0.983400  1.0  -0.5791
  O  O103  1  0.711200  0.512000  0.935800  1.0  -0.5641
  O  O104  1  0.386300  0.162900  0.840700  1.0  -0.8664
  O  O105  1  0.386400  0.916100  0.843300  1.0  -0.8435
  O  O106  1  0.450100  0.053800  0.698900  1.0  -0.8722
  O  O107  1  0.663000  0.154900  0.874300  1.0  -0.591
  O  O108  1  0.723200  0.173900  0.723800  1.0  -0.596
  O  O109  1  0.666500  0.797900  0.659000  1.0  -0.6329
  O  O110  1  0.708300  0.783400  0.791900  1.0  -0.5716
  O  O111  1  0.348300  0.982700  0.489800  1.0  -0.7868
  O  O112  1  0.441400  0.794000  0.576600  1.0  -0.7273
  O  O113  1  0.393400  0.748100  0.432200  1.0  -0.7465
