# generated using pymatgen
data_Zn2P2H16C16NO10
_symmetry_space_group_name_H-M   'P 1'
_cell_length_a   8.57700000
_cell_length_b   13.68770000
_cell_length_c   25.82200000
_cell_angle_alpha   92.30190000
_cell_angle_beta   90.00000000
_cell_angle_gamma   108.25900000
_symmetry_Int_Tables_number   1
_chemical_formula_structural   Zn2P2H16C16NO10
_chemical_formula_sum   'Zn8 P8 H64 C64 N4 O40'
_cell_volume   2876.27573027
_cell_formula_units_Z   4
loop_
 _symmetry_equiv_pos_site_id
 _symmetry_equiv_pos_as_xyz
  1  'x, y, z'
loop_
 _atom_site_type_symbol
 _atom_site_label
 _atom_site_symmetry_multiplicity
 _atom_site_fract_x
 _atom_site_fract_y
 _atom_site_fract_z
 _atom_site_occupancy
 _atom_site_charge
  Zn  Zn1  1  0.315730  0.717560  0.891720  1.0  1.0532
  Zn  Zn2  1  0.763620  0.541180  0.001620  1.0  1.0897
  Zn  Zn3  1  0.598170  0.282440  0.608280  1.0  1.0526
  Zn  Zn4  1  0.222440  0.458820  0.498380  1.0  1.0879
  Zn  Zn5  1  0.684270  0.282440  0.108280  1.0  1.0524
  Zn  Zn6  1  0.236380  0.458820  0.998380  1.0  1.0881
  Zn  Zn7  1  0.401830  0.717560  0.391720  1.0  1.0532
  Zn  Zn8  1  0.777560  0.541180  0.501620  1.0  1.0898
  P  P9  1  0.132710  0.665680  0.000850  1.0  1.5274
  P  P10  1  0.511600  0.549480  0.912030  1.0  1.5521
  P  P11  1  0.467030  0.334320  0.499150  1.0  1.5259
  P  P12  1  0.962120  0.450520  0.587970  1.0  1.5518
  P  P13  1  0.867290  0.334320  0.999150  1.0  1.5252
  P  P14  1  0.488400  0.450520  0.087970  1.0  1.5536
  P  P15  1  0.532970  0.665680  0.500850  1.0  1.5265
  P  P16  1  0.037880  0.549480  0.412030  1.0  1.554
  H  H17  1  0.110400  0.857000  0.044400  1.0  0.1162
  H  H18  1  0.291500  0.007200  0.078700  1.0  0.1001
  H  H19  1  0.659400  0.894000  0.054000  1.0  0.1031
  H  H20  1  0.473600  0.738800  0.024700  1.0  0.0965
  H  H21  1  0.633700  0.385400  0.884800  1.0  0.0963
  H  H22  1  0.639600  0.287000  0.810300  1.0  0.1018
  H  H23  1  0.455800  0.462000  0.729700  1.0  0.1031
  H  H24  1  0.449900  0.562000  0.804300  1.0  0.0867
  H  H25  1  0.253400  0.143000  0.455600  1.0  0.1167
  H  H26  1  0.284300  0.992800  0.421300  1.0  0.1002
  H  H27  1  0.765400  0.106000  0.446000  1.0  0.1029
  H  H28  1  0.734800  0.261200  0.475300  1.0  0.0963
  H  H29  1  0.248300  0.614600  0.615200  1.0  0.0959
  H  H30  1  0.352600  0.713000  0.689700  1.0  0.102
  H  H31  1  0.993800  0.538000  0.770300  1.0  0.1032
  H  H32  1  0.887900  0.438000  0.695700  1.0  0.0868
  H  H33  1  0.889600  0.143000  0.955600  1.0  0.1161
  H  H34  1  0.708500  0.992800  0.921300  1.0  0.1003
  H  H35  1  0.340600  0.106000  0.946000  1.0  0.1015
  H  H36  1  0.526400  0.261200  0.975300  1.0  0.096
  H  H37  1  0.366300  0.614600  0.115200  1.0  0.0959
  H  H38  1  0.360400  0.713000  0.189700  1.0  0.1022
  H  H39  1  0.544200  0.538000  0.270300  1.0  0.1037
  H  H40  1  0.550100  0.438000  0.195700  1.0  0.0871
  H  H41  1  0.746600  0.857000  0.544400  1.0  0.1157
  H  H42  1  0.715700  0.007200  0.578700  1.0  0.1003
  H  H43  1  0.234600  0.894000  0.554000  1.0  0.1031
  H  H44  1  0.265200  0.738800  0.524700  1.0  0.0963
  H  H45  1  0.751700  0.385400  0.384800  1.0  0.0963
  H  H46  1  0.647400  0.287000  0.310300  1.0  0.1019
  H  H47  1  0.006200  0.462000  0.229700  1.0  0.1035
  H  H48  1  0.112100  0.562000  0.304300  1.0  0.0866
  H  H49  1  0.152400  0.297600  0.080600  1.0  0.1991
  H  H50  1  0.992500  0.221400  0.085900  1.0  0.1869
  H  H51  1  0.092000  0.281400  0.164600  1.0  0.1112
  H  H52  1  0.075800  0.164200  0.158300  1.0  0.1078
  H  H53  1  0.247500  0.247800  0.152700  1.0  0.1141
  H  H54  1  0.125200  0.169000  0.022300  1.0  0.1071
  H  H55  1  0.268400  0.175200  0.061300  1.0  0.1101
  H  H56  1  0.096200  0.092400  0.067500  1.0  0.1134
  H  H57  1  0.854800  0.702400  0.419400  1.0  0.1997
  H  H58  1  0.771100  0.778600  0.414100  1.0  0.1864
  H  H59  1  0.810600  0.718600  0.335400  1.0  0.1104
  H  H60  1  0.911600  0.835800  0.341700  1.0  0.1087
  H  H61  1  0.999700  0.752200  0.347300  1.0  0.1147
  H  H62  1  0.956200  0.831000  0.477700  1.0  0.1101
  H  H63  1  0.093200  0.824800  0.438700  1.0  0.1093
  H  H64  1  0.003800  0.907600  0.432500  1.0  0.1116
  H  H65  1  0.847600  0.702400  0.919400  1.0  0.1996
  H  H66  1  0.007500  0.778600  0.914100  1.0  0.1784
  H  H67  1  0.908000  0.718600  0.835400  1.0  0.1101
  H  H68  1  0.924200  0.835800  0.841700  1.0  0.1086
  H  H69  1  0.752500  0.752200  0.847300  1.0  0.1139
  H  H70  1  0.874800  0.831000  0.977700  1.0  0.1109
  H  H71  1  0.731600  0.824800  0.938700  1.0  0.1085
  H  H72  1  0.903800  0.907600  0.932500  1.0  0.1121
  H  H73  1  0.145200  0.297600  0.580600  1.0  0.1993
  H  H74  1  0.228900  0.221400  0.585900  1.0  0.1798
  H  H75  1  0.189400  0.281400  0.664600  1.0  0.1098
  H  H76  1  0.088400  0.164200  0.658300  1.0  0.108
  H  H77  1  0.000300  0.247800  0.652700  1.0  0.1167
  H  H78  1  0.043800  0.169000  0.522300  1.0  0.1079
  H  H79  1  0.906800  0.175200  0.561300  1.0  0.1086
  H  H80  1  0.996200  0.092400  0.567500  1.0  0.113
  C  C81  1  0.272230  0.782460  0.029580  1.0  -0.1963
  C  C82  1  0.221400  0.863400  0.046500  1.0  -0.0397
  C  C83  1  0.330600  0.954400  0.066500  1.0  -0.0576
  C  C84  1  0.495350  0.967900  0.068700  1.0  -0.1341
  C  C85  1  0.548000  0.887000  0.052600  1.0  -0.0369
  C  C86  1  0.436100  0.793800  0.034100  1.0  -0.0402
  C  C87  1  0.612120  0.069840  0.087500  1.0  0.6955
  C  C88  1  0.531870  0.480740  0.852630  1.0  -0.0987
  C  C89  1  0.594800  0.401400  0.853700  1.0  -0.0549
  C  C90  1  0.601700  0.343400  0.808500  1.0  -0.0473
  C  C91  1  0.554700  0.367400  0.762660  1.0  -0.1071
  C  C92  1  0.493800  0.446200  0.761100  1.0  -0.0617
  C  C93  1  0.486600  0.505200  0.806400  1.0  -0.0392
  C  C94  1  0.575700  0.308600  0.714000  1.0  0.7364
  C  C95  1  0.489770  0.217540  0.470420  1.0  -0.1964
  C  C96  1  0.358000  0.136600  0.453500  1.0  -0.0393
  C  C97  1  0.376200  0.045600  0.433500  1.0  -0.0576
  C  C98  1  0.527450  0.032100  0.431300  1.0  -0.1399
  C  C99  1  0.661000  0.113000  0.447400  1.0  -0.0352
  C  C100  1  0.642300  0.206200  0.465900  1.0  -0.041
  C  C101  1  0.542280  0.930160  0.412500  1.0  0.6922
  C  C102  1  0.051130  0.519260  0.647370  1.0  -0.0983
  C  C103  1  0.193400  0.598600  0.646300  1.0  -0.0556
  C  C104  1  0.258300  0.656600  0.691500  1.0  -0.0456
  C  C105  1  0.187300  0.632600  0.737340  1.0  -0.1073
  C  C106  1  0.047600  0.553800  0.738900  1.0  -0.0599
  C  C107  1  0.981400  0.494800  0.693600  1.0  -0.0388
  C  C108  1  0.267100  0.691400  0.786000  1.0  0.7361
  C  C109  1  0.727770  0.217540  0.970420  1.0  -0.1961
  C  C110  1  0.778600  0.136600  0.953500  1.0  -0.0388
  C  C111  1  0.669400  0.045600  0.933500  1.0  -0.0565
  C  C112  1  0.504650  0.032100  0.931300  1.0  -0.14
  C  C113  1  0.452000  0.113000  0.947400  1.0  -0.0362
  C  C114  1  0.563900  0.206200  0.965900  1.0  -0.0405
  C  C115  1  0.387880  0.930160  0.912500  1.0  0.6939
  C  C116  1  0.468130  0.519260  0.147370  1.0  -0.0982
  C  C117  1  0.405200  0.598600  0.146300  1.0  -0.0554
  C  C118  1  0.398300  0.656600  0.191500  1.0  -0.0446
  C  C119  1  0.445300  0.632600  0.237340  1.0  -0.1069
  C  C120  1  0.506200  0.553800  0.238900  1.0  -0.0604
  C  C121  1  0.513400  0.494800  0.193600  1.0  -0.0401
  C  C122  1  0.424300  0.691400  0.286000  1.0  0.7363
  C  C123  1  0.510230  0.782460  0.529580  1.0  -0.196
  C  C124  1  0.642000  0.863400  0.546500  1.0  -0.0384
  C  C125  1  0.623800  0.954400  0.566500  1.0  -0.0557
  C  C126  1  0.472550  0.967900  0.568700  1.0  -0.1359
  C  C127  1  0.339000  0.887000  0.552600  1.0  -0.0371
  C  C128  1  0.357700  0.793800  0.534100  1.0  -0.0398
  C  C129  1  0.457720  0.069840  0.587500  1.0  0.6945
  C  C130  1  0.948870  0.480740  0.352630  1.0  -0.0982
  C  C131  1  0.806600  0.401400  0.353700  1.0  -0.0547
  C  C132  1  0.741700  0.343400  0.308500  1.0  -0.0446
  C  C133  1  0.812700  0.367400  0.262660  1.0  -0.1067
  C  C134  1  0.952400  0.446200  0.261100  1.0  -0.0628
  C  C135  1  0.018600  0.505200  0.306400  1.0  -0.0399
  C  C136  1  0.732900  0.308600  0.214000  1.0  0.7366
  C  C137  1  0.131700  0.231600  0.146400  1.0  -0.186
  C  C138  1  0.152000  0.161400  0.057700  1.0  -0.188
  C  C139  1  0.900100  0.768400  0.353600  1.0  -0.1885
  C  C140  1  0.990600  0.838600  0.442300  1.0  -0.1863
  C  C141  1  0.868300  0.768400  0.853600  1.0  -0.1894
  C  C142  1  0.848000  0.838600  0.942300  1.0  -0.1863
  C  C143  1  0.099900  0.231600  0.646400  1.0  -0.1878
  C  C144  1  0.009400  0.161400  0.557700  1.0  -0.1867
  N  N145  1  0.100900  0.233600  0.090900  1.0  -0.0195
  N  N146  1  0.867300  0.766400  0.409100  1.0  -0.0213
  N  N147  1  0.899100  0.766400  0.909100  1.0  -0.0217
  N  N148  1  0.132700  0.233600  0.590900  1.0  -0.0199
  O  O149  1  0.142310  0.673020  0.942610  1.0  -0.8002
  O  O150  1  0.959750  0.659100  0.018540  1.0  -0.7765
  O  O151  1  0.187570  0.579740  0.021180  1.0  -0.8434
  O  O152  1  0.549730  0.140660  0.095030  1.0  -0.582
  O  O153  1  0.762250  0.080300  0.093450  1.0  -0.6
  O  O154  1  0.677960  0.581920  0.939710  1.0  -0.7835
  O  O155  1  0.381310  0.472420  0.940980  1.0  -0.8639
  O  O156  1  0.470680  0.643560  0.897350  1.0  -0.841
  O  O157  1  0.648500  0.244000  0.716300  1.0  -0.5244
  O  O158  1  0.523680  0.332760  0.672310  1.0  -0.5758
  O  O159  1  0.469290  0.326980  0.557390  1.0  -0.8007
  O  O160  1  0.300650  0.340900  0.481460  1.0  -0.7772
  O  O161  1  0.607830  0.420260  0.478820  1.0  -0.8438
  O  O162  1  0.409070  0.859340  0.404970  1.0  -0.5829
  O  O163  1  0.681950  0.919700  0.406550  1.0  -0.5994
  O  O164  1  0.096040  0.418080  0.560290  1.0  -0.7827
  O  O165  1  0.908890  0.527580  0.559020  1.0  -0.8628
  O  O166  1  0.827120  0.356440  0.602650  1.0  -0.8416
  O  O167  1  0.404500  0.756000  0.783700  1.0  -0.5266
  O  O168  1  0.190920  0.667240  0.827690  1.0  -0.5752
  O  O169  1  0.857690  0.326980  0.057390  1.0  -0.8007
  O  O170  1  0.040250  0.340900  0.981460  1.0  -0.7785
  O  O171  1  0.812430  0.420260  0.978820  1.0  -0.8448
  O  O172  1  0.450270  0.859340  0.904970  1.0  -0.5824
  O  O173  1  0.237750  0.919700  0.906550  1.0  -0.5991
  O  O174  1  0.322040  0.418080  0.060290  1.0  -0.7827
  O  O175  1  0.618690  0.527580  0.059020  1.0  -0.8615
  O  O176  1  0.529320  0.356440  0.102650  1.0  -0.8427
  O  O177  1  0.351500  0.756000  0.283700  1.0  -0.5266
  O  O178  1  0.476320  0.667240  0.327690  1.0  -0.5758
  O  O179  1  0.530710  0.673020  0.442610  1.0  -0.8005
  O  O180  1  0.699350  0.659100  0.518540  1.0  -0.7767
  O  O181  1  0.392170  0.579740  0.521180  1.0  -0.8442
  O  O182  1  0.590930  0.140660  0.595030  1.0  -0.5818
  O  O183  1  0.318050  0.080300  0.593450  1.0  -0.5997
  O  O184  1  0.903960  0.581920  0.439710  1.0  -0.7835
  O  O185  1  0.091110  0.472420  0.440980  1.0  -0.8632
  O  O186  1  0.172880  0.643560  0.397350  1.0  -0.8417
  O  O187  1  0.595500  0.244000  0.216300  1.0  -0.5251
  O  O188  1  0.809080  0.332760  0.172310  1.0  -0.5768
