# generated using pymatgen
data_DyC6NO6
_symmetry_space_group_name_H-M   'P 1'
_cell_length_a   21.53500000
_cell_length_b   9.02800000
_cell_length_c   12.18600000
_cell_angle_alpha   90.00000000
_cell_angle_beta   90.00000000
_cell_angle_gamma   90.00000000
_symmetry_Int_Tables_number   1
_chemical_formula_structural   DyC6NO6
_chemical_formula_sum   'Dy8 C48 N8 O48'
_cell_volume   2369.17750428
_cell_formula_units_Z   8
loop_
 _symmetry_equiv_pos_site_id
 _symmetry_equiv_pos_as_xyz
  1  'x, y, z'
loop_
 _atom_site_type_symbol
 _atom_site_label
 _atom_site_symmetry_multiplicity
 _atom_site_fract_x
 _atom_site_fract_y
 _atom_site_fract_z
 _atom_site_occupancy
 _atom_site_charge
  Dy  Dy1  1  0.061200  0.998700  0.000000  1.0  2.2065
  Dy  Dy2  1  0.195500  0.499400  0.186600  1.0  2.2237
  Dy  Dy3  1  0.938800  0.001300  0.500000  1.0  2.207
  Dy  Dy4  1  0.804500  0.500600  0.686600  1.0  2.2244
  Dy  Dy5  1  0.561200  0.001300  0.000000  1.0  2.2064
  Dy  Dy6  1  0.695500  0.500600  0.186600  1.0  2.2251
  Dy  Dy7  1  0.438800  0.998700  0.500000  1.0  2.207
  Dy  Dy8  1  0.304500  0.499400  0.686600  1.0  2.2239
  C  C9  1  0.995700  0.794900  0.796700  1.0  -0.048
  C  C10  1  0.006800  0.956000  0.754600  1.0  0.6694
  C  C11  1  0.036300  0.632700  0.937200  1.0  -0.0911
  C  C12  1  0.081000  0.646000  0.036300  1.0  0.6664
  C  C13  1  0.942600  0.775900  0.967500  1.0  -0.0968
  C  C14  1  0.915300  0.936400  0.981900  1.0  0.6075
  C  C15  1  0.254700  0.260300  0.361600  1.0  -0.0606
  C  C16  1  0.250000  0.412800  0.424400  1.0  0.6553
  C  C17  1  0.240200  0.141500  0.190500  1.0  -0.0633
  C  C18  1  0.171900  0.161100  0.156800  1.0  0.6584
  C  C19  1  0.329400  0.305600  0.218400  1.0  -0.0693
  C  C20  1  0.344400  0.465900  0.194100  1.0  0.676
  C  C21  1  0.004300  0.205100  0.296700  1.0  -0.0503
  C  C22  1  0.993200  0.044000  0.254600  1.0  0.6708
  C  C23  1  0.963700  0.367300  0.437200  1.0  -0.0896
  C  C24  1  0.919000  0.354000  0.536300  1.0  0.6649
  C  C25  1  0.057400  0.224100  0.467500  1.0  -0.098
  C  C26  1  0.084700  0.063600  0.481900  1.0  0.6079
  C  C27  1  0.745300  0.739700  0.861600  1.0  -0.063
  C  C28  1  0.750000  0.587200  0.924400  1.0  0.656
  C  C29  1  0.759800  0.858500  0.690500  1.0  -0.0643
  C  C30  1  0.828100  0.838900  0.656800  1.0  0.6578
  C  C31  1  0.670600  0.694400  0.718400  1.0  -0.0688
  C  C32  1  0.655600  0.534100  0.694100  1.0  0.6765
  C  C33  1  0.495700  0.205100  0.796700  1.0  -0.0495
  C  C34  1  0.506800  0.044000  0.754600  1.0  0.6711
  C  C35  1  0.536300  0.367300  0.937200  1.0  -0.0903
  C  C36  1  0.581000  0.354000  0.036300  1.0  0.6665
  C  C37  1  0.442600  0.224100  0.967500  1.0  -0.0988
  C  C38  1  0.415300  0.063600  0.981900  1.0  0.6075
  C  C39  1  0.754700  0.739700  0.361600  1.0  -0.062
  C  C40  1  0.750000  0.587200  0.424400  1.0  0.6568
  C  C41  1  0.740200  0.858500  0.190500  1.0  -0.0652
  C  C42  1  0.671900  0.838900  0.156800  1.0  0.6576
  C  C43  1  0.829400  0.694400  0.218400  1.0  -0.0694
  C  C44  1  0.844400  0.534100  0.194100  1.0  0.6767
  C  C45  1  0.504300  0.794900  0.296700  1.0  -0.0483
  C  C46  1  0.493200  0.956000  0.254600  1.0  0.669
  C  C47  1  0.463700  0.632700  0.437200  1.0  -0.0904
  C  C48  1  0.419000  0.646000  0.536300  1.0  0.6649
  C  C49  1  0.557400  0.775900  0.467500  1.0  -0.0954
  C  C50  1  0.584700  0.936400  0.481900  1.0  0.6074
  C  C51  1  0.245300  0.260300  0.861600  1.0  -0.061
  C  C52  1  0.250000  0.412800  0.924400  1.0  0.6544
  C  C53  1  0.259800  0.141500  0.690500  1.0  -0.0627
  C  C54  1  0.328100  0.161100  0.656800  1.0  0.6585
  C  C55  1  0.170600  0.305600  0.718400  1.0  -0.0697
  C  C56  1  0.155600  0.465900  0.694100  1.0  0.6758
  N  N57  1  0.004100  0.777200  0.912900  1.0  -0.1881
  N  N58  1  0.262500  0.276400  0.246000  1.0  -0.1367
  N  N59  1  0.995900  0.222800  0.412900  1.0  -0.1891
  N  N60  1  0.737500  0.723600  0.746000  1.0  -0.1365
  N  N61  1  0.504100  0.222800  0.912900  1.0  -0.1885
  N  N62  1  0.762500  0.723600  0.246000  1.0  -0.1369
  N  N63  1  0.495900  0.777200  0.412900  1.0  -0.1889
  N  N64  1  0.237500  0.276400  0.746000  1.0  -0.1362
  O  O65  1  0.041500  0.037400  0.813200  1.0  -0.7059
  O  O66  1  0.983400  0.994800  0.670000  1.0  -0.7234
  O  O67  1  0.088900  0.774100  0.074800  1.0  -0.6472
  O  O68  1  0.108000  0.531000  0.062500  1.0  -0.6329
  O  O69  1  0.953000  0.045600  0.979700  1.0  -0.6653
  O  O70  1  0.858400  0.945500  0.991200  1.0  -0.4579
  O  O71  1  0.226900  0.515800  0.374800  1.0  -0.6032
  O  O72  1  0.270200  0.410600  0.519800  1.0  -0.7513
  O  O73  1  0.145000  0.272300  0.179600  1.0  -0.5663
  O  O74  1  0.149100  0.049600  0.106700  1.0  -0.7483
  O  O75  1  0.301900  0.557000  0.185000  1.0  -0.6306
  O  O76  1  0.399700  0.498800  0.181100  1.0  -0.4778
  O  O77  1  0.958500  0.962600  0.313200  1.0  -0.7059
  O  O78  1  0.016600  0.005200  0.170000  1.0  -0.7211
  O  O79  1  0.911100  0.225900  0.574800  1.0  -0.6486
  O  O80  1  0.892000  0.469000  0.562500  1.0  -0.6296
  O  O81  1  0.047000  0.954400  0.479700  1.0  -0.662
  O  O82  1  0.141600  0.054500  0.491200  1.0  -0.4569
  O  O83  1  0.773100  0.484200  0.874800  1.0  -0.6058
  O  O84  1  0.729800  0.589400  0.019800  1.0  -0.7519
  O  O85  1  0.855000  0.727700  0.679600  1.0  -0.5657
  O  O86  1  0.850900  0.950400  0.606700  1.0  -0.7507
  O  O87  1  0.698100  0.443000  0.685000  1.0  -0.6285
  O  O88  1  0.600300  0.501200  0.681100  1.0  -0.4774
  O  O89  1  0.541500  0.962600  0.813200  1.0  -0.7053
  O  O90  1  0.483400  0.005200  0.670000  1.0  -0.7236
  O  O91  1  0.588900  0.225900  0.074800  1.0  -0.6472
  O  O92  1  0.608000  0.469000  0.062500  1.0  -0.6308
  O  O93  1  0.453000  0.954400  0.979700  1.0  -0.6629
  O  O94  1  0.358400  0.054500  0.991200  1.0  -0.4564
  O  O95  1  0.726900  0.484200  0.374800  1.0  -0.6054
  O  O96  1  0.770200  0.589400  0.519800  1.0  -0.7507
  O  O97  1  0.645000  0.727700  0.179600  1.0  -0.5658
  O  O98  1  0.649100  0.950400  0.106700  1.0  -0.7502
  O  O99  1  0.801900  0.443000  0.185000  1.0  -0.6299
  O  O100  1  0.899700  0.501200  0.181100  1.0  -0.4792
  O  O101  1  0.458500  0.037400  0.313200  1.0  -0.707
  O  O102  1  0.516600  0.994800  0.170000  1.0  -0.721
  O  O103  1  0.411100  0.774100  0.574800  1.0  -0.6489
  O  O104  1  0.392000  0.531000  0.562500  1.0  -0.6319
  O  O105  1  0.547000  0.045600  0.479700  1.0  -0.664
  O  O106  1  0.641600  0.945500  0.491200  1.0  -0.4566
  O  O107  1  0.273100  0.515800  0.874800  1.0  -0.6042
  O  O108  1  0.229800  0.410600  0.019800  1.0  -0.7523
  O  O109  1  0.355000  0.272300  0.679600  1.0  -0.5665
  O  O110  1  0.350900  0.049600  0.606700  1.0  -0.7482
  O  O111  1  0.198100  0.557000  0.685000  1.0  -0.6308
  O  O112  1  0.100300  0.498800  0.681100  1.0  -0.4772
