# generated using pymatgen
data_Cu3H8W2(C6N5)4
_symmetry_space_group_name_H-M   'P 1'
_cell_length_a   11.51600000
_cell_length_b   14.77760000
_cell_length_c   15.27490000
_cell_angle_alpha   118.92900000
_cell_angle_beta   106.29200000
_cell_angle_gamma   90.00000000
_symmetry_Int_Tables_number   1
_chemical_formula_structural   Cu3H8W2(C6N5)4
_chemical_formula_sum   'Cu6 H16 W4 C48 N40'
_cell_volume   2155.06623211
_cell_formula_units_Z   2
loop_
 _symmetry_equiv_pos_site_id
 _symmetry_equiv_pos_as_xyz
  1  'x, y, z'
loop_
 _atom_site_type_symbol
 _atom_site_label
 _atom_site_symmetry_multiplicity
 _atom_site_fract_x
 _atom_site_fract_y
 _atom_site_fract_z
 _atom_site_occupancy
 _atom_site_charge
  Cu  Cu1  1  0.500000  0.500000  0.500000  1.0  0.8472
  Cu  Cu2  1  0.500000  0.000000  0.500000  1.0  0.8472
  Cu  Cu3  1  0.000000  0.500000  0.500000  1.0  0.7176
  Cu  Cu4  1  0.000000  0.000000  0.500000  1.0  0.7176
  Cu  Cu5  1  0.000000  0.264240  0.000000  1.0  0.7647
  Cu  Cu6  1  0.000000  0.735760  0.000000  1.0  0.7647
  H  H7  1  0.506000  0.657400  0.725400  1.0  0.1072
  H  H8  1  0.366900  0.718600  0.817400  1.0  0.1398
  H  H9  1  0.160900  0.653900  0.726200  1.0  0.1106
  H  H10  1  0.237300  0.485400  0.468000  1.0  0.074
  H  H11  1  0.494000  0.932000  0.274600  1.0  0.1085
  H  H12  1  0.633100  0.901200  0.182600  1.0  0.1367
  H  H13  1  0.839100  0.927700  0.273800  1.0  0.1105
  H  H14  1  0.762700  0.017400  0.532000  1.0  0.0749
  H  H15  1  0.494000  0.342600  0.274600  1.0  0.1085
  H  H16  1  0.633100  0.281400  0.182600  1.0  0.1387
  H  H17  1  0.839100  0.346100  0.273800  1.0  0.1105
  H  H18  1  0.762700  0.514600  0.532000  1.0  0.0743
  H  H19  1  0.506000  0.068000  0.725400  1.0  0.1081
  H  H20  1  0.366900  0.098800  0.817400  1.0  0.1376
  H  H21  1  0.160900  0.072300  0.726200  1.0  0.1115
  H  H22  1  0.237300  0.982600  0.468000  1.0  0.0743
  W  W23  1  0.198480  0.650510  0.301020  1.0  0.0985
  W  W24  1  0.801520  0.349490  0.698980  1.0  0.0971
  W  W25  1  0.140180  0.138420  0.276840  1.0  0.0856
  W  W26  1  0.859820  0.861580  0.723160  1.0  0.091
  C  C27  1  0.330200  0.570580  0.356960  1.0  0.1737
  C  C28  1  0.114200  0.494960  0.172920  1.0  0.219
  C  C29  1  0.080700  0.579750  0.347100  1.0  0.1748
  C  C30  1  0.089600  0.196550  0.168100  1.0  0.1653
  C  C31  1  0.288800  0.268310  0.359020  1.0  0.1825
  C  C32  1  0.078000  0.280450  0.374100  1.0  0.1949
  C  C33  1  0.422600  0.633160  0.690120  1.0  0.1982
  C  C34  1  0.340300  0.669740  0.745480  1.0  -0.1309
  C  C35  1  0.218000  0.631370  0.690740  1.0  0.2102
  C  C36  1  0.264300  0.532480  0.540360  1.0  0.3348
  C  C37  1  0.669800  0.213620  0.643040  1.0  0.1676
  C  C38  1  0.885800  0.322040  0.827080  1.0  0.2208
  C  C39  1  0.919300  0.232650  0.652900  1.0  0.1719
  C  C40  1  0.910400  0.028450  0.831900  1.0  0.1718
  C  C41  1  0.711200  0.909290  0.640980  1.0  0.186
  C  C42  1  0.922000  0.906350  0.625900  1.0  0.1998
  C  C43  1  0.577400  0.943040  0.309880  1.0  0.1986
  C  C44  1  0.659700  0.924260  0.254520  1.0  -0.1314
  C  C45  1  0.782000  0.940630  0.309260  1.0  0.2122
  C  C46  1  0.735700  0.992120  0.459640  1.0  0.3339
  C  C47  1  0.669800  0.429420  0.643040  1.0  0.1717
  C  C48  1  0.885800  0.505040  0.827080  1.0  0.2169
  C  C49  1  0.919300  0.420250  0.652900  1.0  0.1755
  C  C50  1  0.910400  0.803450  0.831900  1.0  0.1667
  C  C51  1  0.711200  0.731690  0.640980  1.0  0.1931
  C  C52  1  0.922000  0.719550  0.625900  1.0  0.1944
  C  C53  1  0.577400  0.366840  0.309880  1.0  0.1994
  C  C54  1  0.659700  0.330260  0.254520  1.0  -0.1317
  C  C55  1  0.782000  0.368630  0.309260  1.0  0.2114
  C  C56  1  0.735700  0.467520  0.459640  1.0  0.3347
  C  C57  1  0.330200  0.786380  0.356960  1.0  0.1689
  C  C58  1  0.114200  0.677960  0.172920  1.0  0.2204
  C  C59  1  0.080700  0.767350  0.347100  1.0  0.1728
  C  C60  1  0.089600  0.971550  0.168100  1.0  0.1734
  C  C61  1  0.288800  0.090710  0.359020  1.0  0.1867
  C  C62  1  0.078000  0.093650  0.374100  1.0  0.1993
  C  C63  1  0.422600  0.056960  0.690120  1.0  0.1992
  C  C64  1  0.340300  0.075740  0.745480  1.0  -0.1315
  C  C65  1  0.218000  0.059370  0.690740  1.0  0.2124
  C  C66  1  0.264300  0.007880  0.540360  1.0  0.3332
  C  C67  1  0.311400  0.599800  0.199600  1.0  0.1397
  C  C68  1  0.256000  0.736000  0.472000  1.0  0.1343
  C  C69  1  0.688600  0.400200  0.800400  1.0  0.1448
  C  C70  1  0.744000  0.264000  0.528000  1.0  0.1328
  C  C71  1  0.264700  0.092800  0.185600  1.0  0.1383
  C  C72  1  0.942100  0.105700  0.211400  1.0  0.1246
  C  C73  1  0.735300  0.907200  0.814400  1.0  0.1373
  C  C74  1  0.057900  0.894300  0.788600  1.0  0.1246
  N  N75  1  0.399800  0.534190  0.393720  1.0  -0.3767
  N  N76  1  0.071000  0.411790  0.106980  1.0  -0.3615
  N  N77  1  0.025300  0.539460  0.373320  1.0  -0.4111
  N  N78  1  0.061500  0.223960  0.108720  1.0  -0.3531
  N  N79  1  0.367700  0.337390  0.402380  1.0  -0.3948
  N  N80  1  0.047500  0.357980  0.422300  1.0  -0.376
  N  N81  1  0.384600  0.563870  0.587540  1.0  -0.3107
  N  N82  1  0.180000  0.562590  0.587800  1.0  -0.313
  N  N83  1  0.600200  0.140470  0.606280  1.0  -0.3798
  N  N84  1  0.929000  0.304810  0.893020  1.0  -0.362
  N  N85  1  0.974700  0.166140  0.626680  1.0  -0.41
  N  N86  1  0.938500  0.115240  0.891280  1.0  -0.3547
  N  N87  1  0.632300  0.935010  0.597620  1.0  -0.3983
  N  N88  1  0.952500  0.935680  0.577700  1.0  -0.367
  N  N89  1  0.615400  0.976330  0.412460  1.0  -0.3082
  N  N90  1  0.820000  0.974790  0.412200  1.0  -0.3136
  N  N91  1  0.600200  0.465810  0.606280  1.0  -0.378
  N  N92  1  0.929000  0.588210  0.893020  1.0  -0.3634
  N  N93  1  0.974700  0.460540  0.626680  1.0  -0.408
  N  N94  1  0.938500  0.776040  0.891280  1.0  -0.3526
  N  N95  1  0.632300  0.662610  0.597620  1.0  -0.396
  N  N96  1  0.952500  0.642020  0.577700  1.0  -0.376
  N  N97  1  0.615400  0.436130  0.412460  1.0  -0.3096
  N  N98  1  0.820000  0.437410  0.412200  1.0  -0.3136
  N  N99  1  0.399800  0.859530  0.393720  1.0  -0.3784
  N  N100  1  0.071000  0.695190  0.106980  1.0  -0.3606
  N  N101  1  0.025300  0.833860  0.373320  1.0  -0.4092
  N  N102  1  0.061500  0.884760  0.108720  1.0  -0.3535
  N  N103  1  0.367700  0.064990  0.402380  1.0  -0.4052
  N  N104  1  0.047500  0.064320  0.422300  1.0  -0.3675
  N  N105  1  0.384600  0.023670  0.587540  1.0  -0.3107
  N  N106  1  0.180000  0.025210  0.587800  1.0  -0.3128
  N  N107  1  0.369300  0.572500  0.145000  1.0  -0.4024
  N  N108  1  0.287100  0.781180  0.562360  1.0  -0.4156
  N  N109  1  0.630700  0.427500  0.855000  1.0  -0.4015
  N  N110  1  0.712900  0.218820  0.437640  1.0  -0.413
  N  N111  1  0.332400  0.069700  0.139400  1.0  -0.3904
  N  N112  1  0.837300  0.088900  0.177800  1.0  -0.378
  N  N113  1  0.667600  0.930300  0.860600  1.0  -0.3903
  N  N114  1  0.162700  0.911100  0.822200  1.0  -0.3771
