# generated using pymatgen
data_Cu3H8W2(C6N5)4
_symmetry_space_group_name_H-M   'P 1'
_cell_length_a   11.51200000
_cell_length_b   14.78000000
_cell_length_c   15.17460000
_cell_angle_alpha   119.14400000
_cell_angle_beta   105.96800000
_cell_angle_gamma   90.00000000
_symmetry_Int_Tables_number   1
_chemical_formula_structural   Cu3H8W2(C6N5)4
_chemical_formula_sum   'Cu6 H16 W4 C48 N40'
_cell_volume   2140.26010267
_cell_formula_units_Z   2
loop_
 _symmetry_equiv_pos_site_id
 _symmetry_equiv_pos_as_xyz
  1  'x, y, z'
loop_
 _atom_site_type_symbol
 _atom_site_label
 _atom_site_symmetry_multiplicity
 _atom_site_fract_x
 _atom_site_fract_y
 _atom_site_fract_z
 _atom_site_occupancy
 _atom_site_charge
  Cu  Cu1  1  0.500000  0.000000  0.500000  1.0  0.8522
  Cu  Cu2  1  0.500000  0.500000  0.500000  1.0  0.8522
  Cu  Cu3  1  0.000000  0.000000  0.500000  1.0  0.7848
  Cu  Cu4  1  0.000000  0.500000  0.500000  1.0  0.7848
  Cu  Cu5  1  0.000000  0.764500  0.000000  1.0  0.7445
  Cu  Cu6  1  0.000000  0.235500  0.000000  1.0  0.7444
  H  H7  1  0.504000  0.156800  0.726800  1.0  0.1109
  H  H8  1  0.364500  0.221700  0.818000  1.0  0.1463
  H  H9  1  0.160000  0.155700  0.727400  1.0  0.1072
  H  H10  1  0.238100  0.983100  0.467200  1.0  0.075
  H  H11  1  0.496000  0.430000  0.273200  1.0  0.1104
  H  H12  1  0.635500  0.403700  0.182000  1.0  0.1425
  H  H13  1  0.840000  0.428300  0.272600  1.0  0.1073
  H  H14  1  0.761900  0.515900  0.532800  1.0  0.0762
  H  H15  1  0.496000  0.843200  0.273200  1.0  0.1108
  H  H16  1  0.635500  0.778300  0.182000  1.0  0.1451
  H  H17  1  0.840000  0.844300  0.272600  1.0  0.1069
  H  H18  1  0.761900  0.016900  0.532800  1.0  0.0747
  H  H19  1  0.504000  0.570000  0.726800  1.0  0.1105
  H  H20  1  0.364500  0.596300  0.818000  1.0  0.1438
  H  H21  1  0.160000  0.571700  0.727400  1.0  0.1077
  H  H22  1  0.238100  0.484100  0.467200  1.0  0.0756
  W  W23  1  0.200640  0.150350  0.300700  1.0  0.1059
  W  W24  1  0.799360  0.849650  0.699300  1.0  0.1088
  W  W25  1  0.141860  0.638320  0.276640  1.0  0.0762
  W  W26  1  0.858140  0.361680  0.723360  1.0  0.0802
  C  C27  1  0.331600  0.070600  0.356200  1.0  0.1743
  C  C28  1  0.116300  0.994820  0.172640  1.0  0.2188
  C  C29  1  0.082700  0.080190  0.347380  1.0  0.1708
  C  C30  1  0.093000  0.697550  0.168900  1.0  0.1711
  C  C31  1  0.290300  0.768320  0.359640  1.0  0.1763
  C  C32  1  0.079200  0.780490  0.374980  1.0  0.1739
  C  C33  1  0.420700  0.133100  0.691000  1.0  0.1998
  C  C34  1  0.338500  0.171300  0.746200  1.0  -0.1328
  C  C35  1  0.217100  0.132500  0.691400  1.0  0.2019
  C  C36  1  0.264300  0.031110  0.539820  1.0  0.3328
  C  C37  1  0.668400  0.714400  0.643800  1.0  0.1649
  C  C38  1  0.883700  0.822180  0.827360  1.0  0.2144
  C  C39  1  0.917300  0.732810  0.652620  1.0  0.1699
  C  C40  1  0.907000  0.528650  0.831100  1.0  0.1674
  C  C41  1  0.709700  0.408680  0.640360  1.0  0.174
  C  C42  1  0.920800  0.405510  0.625020  1.0  0.1762
  C  C43  1  0.579300  0.442100  0.309000  1.0  0.1992
  C  C44  1  0.661500  0.425100  0.253800  1.0  -0.1316
  C  C45  1  0.782900  0.441100  0.308600  1.0  0.2038
  C  C46  1  0.735700  0.491290  0.460180  1.0  0.3318
  C  C47  1  0.668400  0.929400  0.643800  1.0  0.1738
  C  C48  1  0.883700  0.005180  0.827360  1.0  0.2145
  C  C49  1  0.917300  0.919810  0.652620  1.0  0.1711
  C  C50  1  0.907000  0.302450  0.831100  1.0  0.1716
  C  C51  1  0.709700  0.231680  0.640360  1.0  0.1765
  C  C52  1  0.920800  0.219510  0.625020  1.0  0.175
  C  C53  1  0.579300  0.866900  0.309000  1.0  0.2012
  C  C54  1  0.661500  0.828700  0.253800  1.0  -0.1311
  C  C55  1  0.782900  0.867500  0.308600  1.0  0.203
  C  C56  1  0.735700  0.968890  0.460180  1.0  0.3323
  C  C57  1  0.331600  0.285600  0.356200  1.0  0.1653
  C  C58  1  0.116300  0.177820  0.172640  1.0  0.2136
  C  C59  1  0.082700  0.267190  0.347380  1.0  0.1703
  C  C60  1  0.093000  0.471350  0.168900  1.0  0.1682
  C  C61  1  0.290300  0.591320  0.359640  1.0  0.1731
  C  C62  1  0.079200  0.594490  0.374980  1.0  0.1758
  C  C63  1  0.420700  0.557900  0.691000  1.0  0.2004
  C  C64  1  0.338500  0.574900  0.746200  1.0  -0.1324
  C  C65  1  0.217100  0.558900  0.691400  1.0  0.2043
  C  C66  1  0.264300  0.508710  0.539820  1.0  0.3308
  C  C67  1  0.315800  0.099000  0.198000  1.0  0.141
  C  C68  1  0.257300  0.236300  0.472600  1.0  0.1297
  C  C69  1  0.684200  0.901000  0.802000  1.0  0.1422
  C  C70  1  0.742700  0.763700  0.527400  1.0  0.1306
  C  C71  1  0.266500  0.592800  0.185600  1.0  0.15
  C  C72  1  0.942700  0.605500  0.211000  1.0  0.1158
  C  C73  1  0.733500  0.407200  0.814400  1.0  0.1491
  C  C74  1  0.057300  0.394500  0.789000  1.0  0.1166
  N  N75  1  0.400000  0.033780  0.393360  1.0  -0.3804
  N  N76  1  0.073000  0.911680  0.105760  1.0  -0.3566
  N  N77  1  0.027500  0.040180  0.374160  1.0  -0.4046
  N  N78  1  0.064800  0.725060  0.109520  1.0  -0.362
  N  N79  1  0.368500  0.836640  0.402680  1.0  -0.3857
  N  N80  1  0.047400  0.857650  0.422100  1.0  -0.3682
  N  N81  1  0.383300  0.063060  0.587520  1.0  -0.3134
  N  N82  1  0.178900  0.062260  0.587720  1.0  -0.2981
  N  N83  1  0.600000  0.640420  0.606640  1.0  -0.3816
  N  N84  1  0.927000  0.805920  0.894240  1.0  -0.3583
  N  N85  1  0.972500  0.666020  0.625840  1.0  -0.4046
  N  N86  1  0.935200  0.615540  0.890480  1.0  -0.3635
  N  N87  1  0.631500  0.433960  0.597320  1.0  -0.387
  N  N88  1  0.952600  0.435550  0.577900  1.0  -0.3663
  N  N89  1  0.616700  0.475540  0.412480  1.0  -0.3098
  N  N90  1  0.821100  0.474540  0.412280  1.0  -0.2971
  N  N91  1  0.600000  0.966220  0.606640  1.0  -0.3823
  N  N92  1  0.927000  0.088320  0.894240  1.0  -0.3598
  N  N93  1  0.972500  0.959820  0.625840  1.0  -0.4021
  N  N94  1  0.935200  0.274940  0.890480  1.0  -0.3615
  N  N95  1  0.631500  0.163360  0.597320  1.0  -0.3856
  N  N96  1  0.952600  0.142350  0.577900  1.0  -0.369
  N  N97  1  0.616700  0.936940  0.412480  1.0  -0.3117
  N  N98  1  0.821100  0.937740  0.412280  1.0  -0.2972
  N  N99  1  0.400000  0.359580  0.393360  1.0  -0.3791
  N  N100  1  0.073000  0.194080  0.105760  1.0  -0.3559
  N  N101  1  0.027500  0.333980  0.374160  1.0  -0.4035
  N  N102  1  0.064800  0.384460  0.109520  1.0  -0.3617
  N  N103  1  0.368500  0.566040  0.402680  1.0  -0.3888
  N  N104  1  0.047400  0.564450  0.422100  1.0  -0.3656
  N  N105  1  0.383300  0.524460  0.587520  1.0  -0.3122
  N  N106  1  0.178900  0.525460  0.587720  1.0  -0.297
  N  N107  1  0.376100  0.073400  0.146800  1.0  -0.4089
  N  N108  1  0.287700  0.282000  0.564000  1.0  -0.4191
  N  N109  1  0.623900  0.926600  0.853200  1.0  -0.4077
  N  N110  1  0.712300  0.718000  0.436000  1.0  -0.4162
  N  N111  1  0.332500  0.568400  0.136800  1.0  -0.4078
  N  N112  1  0.839800  0.587800  0.175600  1.0  -0.3682
  N  N113  1  0.667500  0.431600  0.863200  1.0  -0.4079
  N  N114  1  0.160200  0.412200  0.824400  1.0  -0.368
