# generated using pymatgen
data_GdC2O5
_symmetry_space_group_name_H-M   'P 1'
_cell_length_a   4.79310000
_cell_length_b   7.89410000
_cell_length_c   8.53150000
_cell_angle_alpha   117.55800000
_cell_angle_beta   90.00000000
_cell_angle_gamma   90.00000000
_symmetry_Int_Tables_number   1
_chemical_formula_structural   GdC2O5
_chemical_formula_sum   'Gd2 C4 O10'
_cell_volume   286.18330282
_cell_formula_units_Z   2
loop_
 _symmetry_equiv_pos_site_id
 _symmetry_equiv_pos_as_xyz
  1  'x, y, z'
loop_
 _atom_site_type_symbol
 _atom_site_label
 _atom_site_symmetry_multiplicity
 _atom_site_fract_x
 _atom_site_fract_y
 _atom_site_fract_z
 _atom_site_occupancy
 _atom_site_charge
  Gd  Gd1  1  0.500000  0.792820  0.585640  1.0  2.2229
  Gd  Gd2  1  0.500000  0.207180  0.414360  1.0  2.2247
  C  C3  1  0.000000  0.417100  0.449800  1.0  1.0494
  C  C4  1  0.000000  0.967300  0.550200  1.0  1.0497
  C  C5  1  0.500000  0.896600  0.000000  1.0  0.5681
  C  C6  1  0.500000  0.091700  0.000000  1.0  0.5411
  O  O7  1  0.764400  0.499500  0.491600  1.0  -0.8765
  O  O8  1  0.235600  0.007900  0.508400  1.0  -0.878
  O  O9  1  0.764400  0.007900  0.508400  1.0  -0.8765
  O  O10  1  0.235600  0.499500  0.491600  1.0  -0.8778
  O  O11  1  0.500000  0.902400  0.149000  1.0  -0.6235
  O  O12  1  0.500000  0.239500  0.146600  1.0  -0.6167
  O  O13  1  0.500000  0.753400  0.851000  1.0  -0.6166
  O  O14  1  0.500000  0.092900  0.853400  1.0  -0.6269
  O  O15  1  0.000000  0.232700  0.361200  1.0  -0.8329
  O  O16  1  0.000000  0.871500  0.638800  1.0  -0.8304
