# generated using pymatgen
data_Ag5H42(C4N3)7
_symmetry_space_group_name_H-M   'P 1'
_cell_length_a   14.50560000
_cell_length_b   14.89810000
_cell_length_c   22.99340000
_cell_angle_alpha   90.53400000
_cell_angle_beta   92.84400000
_cell_angle_gamma   104.15300000
_symmetry_Int_Tables_number   1
_chemical_formula_structural   Ag5H42(C4N3)7
_chemical_formula_sum   'Ag10 H84 C56 N42'
_cell_volume   4811.06574953
_cell_formula_units_Z   2
loop_
 _symmetry_equiv_pos_site_id
 _symmetry_equiv_pos_as_xyz
  1  'x, y, z'
loop_
 _atom_site_type_symbol
 _atom_site_label
 _atom_site_symmetry_multiplicity
 _atom_site_fract_x
 _atom_site_fract_y
 _atom_site_fract_z
 _atom_site_occupancy
 _atom_site_charge
  Ag  Ag1  1  0.260300  0.887300  0.235020  1.0  0.2195
  Ag  Ag2  1  0.929560  0.590660  0.928290  1.0  0.3136
  Ag  Ag3  1  0.517260  0.378140  0.997700  1.0  0.1859
  Ag  Ag4  1  0.037600  0.966800  0.008600  1.0  0.8658
  Ag  Ag5  1  0.739700  0.112700  0.764980  1.0  0.2195
  Ag  Ag6  1  0.070440  0.409340  0.071710  1.0  0.3133
  Ag  Ag7  1  0.482740  0.621860  0.002300  1.0  0.1905
  Ag  Ag8  1  0.962400  0.033200  0.991400  1.0  0.8708
  Ag  Ag9  1  0.000000  0.000000  0.000000  1.0  1.0508
  Ag  Ag10  1  0.000000  0.500000  0.500000  1.0  0.3248
  H  H11  1  0.950300  0.496600  0.643200  1.0  0.0892
  H  H12  1  0.798500  0.543500  0.510500  1.0  0.0432
  H  H13  1  0.700400  0.441000  0.686100  1.0  0.0661
  H  H14  1  0.780100  0.386400  0.690300  1.0  0.0614
  H  H15  1  0.878400  0.496900  0.742000  1.0  0.0361
  H  H16  1  0.821600  0.569700  0.725400  1.0  0.0472
  H  H17  1  0.711000  0.492400  0.784300  1.0  0.0388
  H  H18  1  0.804800  0.558800  0.809800  1.0  0.0419
  H  H19  1  0.768700  0.364600  0.812900  1.0  0.0494
  H  H20  1  0.861900  0.432500  0.839700  1.0  0.0467
  H  H21  1  0.721200  0.532300  0.996400  1.0  0.0586
  H  H22  1  0.624600  0.336200  0.880900  1.0  0.0443
  H  H23  1  0.344300  0.197500  0.009000  1.0  0.0397
  H  H24  1  0.466500  0.357100  0.134100  1.0  0.0486
  H  H25  1  0.397100  0.262500  0.222700  1.0  0.0424
  H  H26  1  0.399700  0.160200  0.208000  1.0  0.0657
  H  H27  1  0.230100  0.128000  0.184400  1.0  0.0451
  H  H28  1  0.258400  0.147600  0.250900  1.0  0.031
  H  H29  1  0.227300  0.285100  0.249600  1.0  0.0296
  H  H30  1  0.241700  0.296300  0.182800  1.0  0.0336
  H  H31  1  0.082700  0.173400  0.225500  1.0  0.0381
  H  H32  1  0.082000  0.275100  0.208900  1.0  0.0408
  H  H33  1  0.085200  0.223300  0.012000  1.0  0.0449
  H  H34  1  0.026100  0.062000  0.140400  1.0  0.0472
  H  H35  1  0.089000  0.838900  0.133800  1.0  0.0888
  H  H36  1  0.359000  0.954700  0.112100  1.0  0.0523
  H  H37  1  0.250300  0.023800  0.988700  1.0  0.0454
  H  H38  1  0.351000  0.018500  0.013500  1.0  0.0474
  H  H39  1  0.311500  0.957700  0.924900  1.0  0.0438
  H  H40  1  0.229200  0.882800  0.950400  1.0  0.0262
  H  H41  1  0.367200  0.848600  0.011700  1.0  0.0401
  H  H42  1  0.423000  0.889000  0.957000  1.0  0.0401
  H  H43  1  0.316400  0.777200  0.895200  1.0  0.0547
  H  H44  1  0.363300  0.726000  0.943100  1.0  0.0743
  H  H45  1  0.139300  0.695600  0.881400  1.0  0.0524
  H  H46  1  0.091300  0.624500  0.040700  1.0  0.0325
  H  H47  1  0.415500  0.936000  0.350600  1.0  0.0786
  H  H48  1  0.143200  0.880300  0.344100  1.0  0.0785
  H  H49  1  0.349100  0.989300  0.495900  1.0  0.0299
  H  H50  1  0.371700  0.892300  0.491200  1.0  0.035
  H  H51  1  0.484100  0.054300  0.453000  1.0  0.0108
  H  H52  1  0.506500  0.957000  0.446500  1.0  0.0085
  H  H53  1  0.049700  0.503400  0.356800  1.0  0.0889
  H  H54  1  0.201500  0.456500  0.489500  1.0  0.0445
  H  H55  1  0.299600  0.559000  0.313900  1.0  0.0642
  H  H56  1  0.219900  0.613600  0.309700  1.0  0.066
  H  H57  1  0.121600  0.503100  0.258000  1.0  0.0365
  H  H58  1  0.178400  0.430300  0.274600  1.0  0.047
  H  H59  1  0.289000  0.507600  0.215700  1.0  0.0414
  H  H60  1  0.195200  0.441200  0.190200  1.0  0.0428
  H  H61  1  0.231300  0.635400  0.187100  1.0  0.0501
  H  H62  1  0.138100  0.567500  0.160300  1.0  0.0474
  H  H63  1  0.278800  0.467700  0.003600  1.0  0.0577
  H  H64  1  0.375400  0.663800  0.119100  1.0  0.0441
  H  H65  1  0.655700  0.802500  0.991000  1.0  0.0393
  H  H66  1  0.533500  0.642900  0.865900  1.0  0.0491
  H  H67  1  0.602900  0.737500  0.777300  1.0  0.044
  H  H68  1  0.600300  0.839800  0.792000  1.0  0.0648
  H  H69  1  0.769900  0.872000  0.815600  1.0  0.0455
  H  H70  1  0.741600  0.852400  0.749100  1.0  0.0302
  H  H71  1  0.772700  0.714900  0.750400  1.0  0.0302
  H  H72  1  0.758300  0.703700  0.817200  1.0  0.0331
  H  H73  1  0.917300  0.826600  0.774500  1.0  0.0371
  H  H74  1  0.918000  0.724900  0.791100  1.0  0.0398
  H  H75  1  0.914800  0.776700  0.988000  1.0  0.0447
  H  H76  1  0.973900  0.938000  0.859600  1.0  0.0465
  H  H77  1  0.911000  0.161100  0.866200  1.0  0.088
  H  H78  1  0.641000  0.045300  0.887900  1.0  0.0536
  H  H79  1  0.749700  0.976200  0.011300  1.0  0.0453
  H  H80  1  0.649000  0.981500  0.986500  1.0  0.044
  H  H81  1  0.688500  0.042300  0.075100  1.0  0.0438
  H  H82  1  0.770800  0.117200  0.049600  1.0  0.0256
  H  H83  1  0.632800  0.151400  0.988300  1.0  0.0398
  H  H84  1  0.577000  0.111000  0.043000  1.0  0.0424
  H  H85  1  0.683600  0.222800  0.104800  1.0  0.0541
  H  H86  1  0.636700  0.274000  0.056900  1.0  0.0747
  H  H87  1  0.860700  0.304400  0.118600  1.0  0.0536
  H  H88  1  0.908700  0.375500  0.959300  1.0  0.0306
  H  H89  1  0.584500  0.064000  0.649400  1.0  0.0788
  H  H90  1  0.856800  0.119700  0.655900  1.0  0.0788
  H  H91  1  0.650900  0.010700  0.504100  1.0  0.0321
  H  H92  1  0.628300  0.107700  0.508800  1.0  0.0361
  H  H93  1  0.515900  0.945700  0.547000  1.0  0.0103
  H  H94  1  0.493500  0.043000  0.553500  1.0  0.0111
  C  C95  1  0.899000  0.496000  0.617000  1.0  -0.0089
  C  C96  1  0.818000  0.529000  0.547700  1.0  0.1602
  C  C97  1  0.769000  0.448000  0.686400  1.0  -0.119
  C  C98  1  0.815000  0.506000  0.736900  1.0  -0.1753
  C  C99  1  0.779100  0.499600  0.789900  1.0  -0.1576
  C  C100  1  0.794200  0.425100  0.831200  1.0  -0.0217
  C  C101  1  0.718100  0.493400  0.964100  1.0  0.1349
  C  C102  1  0.664400  0.386700  0.900800  1.0  0.0999
  C  C103  1  0.363000  0.220000  0.046600  1.0  0.2162
  C  C104  1  0.428200  0.306800  0.113100  1.0  0.084
  C  C105  1  0.367200  0.208300  0.198700  1.0  -0.053
  C  C106  1  0.262500  0.175200  0.212800  1.0  -0.1591
  C  C107  1  0.214400  0.252900  0.212200  1.0  -0.1587
  C  C108  1  0.109500  0.223700  0.200100  1.0  -0.0041
  C  C109  1  0.080600  0.201000  0.049700  1.0  0.2098
  C  C110  1  0.049000  0.114000  0.118200  1.0  0.109
  C  C111  1  0.144800  0.870000  0.117200  1.0  0.0844
  C  C112  1  0.293000  0.934000  0.106700  1.0  0.086
  C  C113  1  0.287000  0.982000  0.003300  1.0  -0.0477
  C  C114  1  0.292000  0.922000  0.959200  1.0  -0.1818
  C  C115  1  0.360700  0.859000  0.970300  1.0  -0.1675
  C  C116  1  0.319800  0.765400  0.936500  1.0  -0.0611
  C  C117  1  0.145500  0.689000  0.921500  1.0  0.0467
  C  C118  1  0.121100  0.653000  0.008400  1.0  0.2271
  C  C119  1  0.353300  0.929200  0.361500  1.0  0.0171
  C  C120  1  0.206000  0.901000  0.358200  1.0  0.1767
  C  C121  1  0.378000  0.951000  0.471800  1.0  0.015
  C  C122  1  0.476300  0.994000  0.470500  1.0  -0.1285
  C  C123  1  0.101000  0.504000  0.383000  1.0  -0.0143
  C  C124  1  0.182000  0.471000  0.452300  1.0  0.1617
  C  C125  1  0.231000  0.552000  0.313600  1.0  -0.1193
  C  C126  1  0.185000  0.494000  0.263100  1.0  -0.1759
  C  C127  1  0.220900  0.500400  0.210100  1.0  -0.1563
  C  C128  1  0.205800  0.574900  0.168800  1.0  -0.0222
  C  C129  1  0.281900  0.506600  0.035900  1.0  0.1333
  C  C130  1  0.335600  0.613300  0.099200  1.0  0.1056
  C  C131  1  0.637000  0.780000  0.953400  1.0  0.2182
  C  C132  1  0.571800  0.693200  0.886900  1.0  0.0826
  C  C133  1  0.632800  0.791700  0.801300  1.0  -0.0474
  C  C134  1  0.737500  0.824800  0.787200  1.0  -0.1589
  C  C135  1  0.785600  0.747100  0.787800  1.0  -0.1604
  C  C136  1  0.890500  0.776300  0.799900  1.0  -0.0022
  C  C137  1  0.919400  0.799000  0.950300  1.0  0.21
  C  C138  1  0.951000  0.886000  0.881800  1.0  0.1097
  C  C139  1  0.855200  0.130000  0.882800  1.0  0.0863
  C  C140  1  0.707000  0.066000  0.893300  1.0  0.0861
  C  C141  1  0.713000  0.018000  0.996700  1.0  -0.0434
  C  C142  1  0.708000  0.078000  0.040800  1.0  -0.1822
  C  C143  1  0.639300  0.141000  0.029700  1.0  -0.1615
  C  C144  1  0.680200  0.234600  0.063500  1.0  -0.0648
  C  C145  1  0.854500  0.311000  0.078500  1.0  0.046
  C  C146  1  0.878900  0.347000  0.991600  1.0  0.2277
  C  C147  1  0.646700  0.070800  0.638500  1.0  0.0143
  C  C148  1  0.794000  0.099000  0.641800  1.0  0.1808
  C  C149  1  0.622000  0.049000  0.528200  1.0  0.0137
  C  C150  1  0.523700  0.006000  0.529500  1.0  -0.1286
  N  N151  1  0.894700  0.504100  0.556400  1.0  -0.444
  N  N152  1  0.806000  0.488000  0.627500  1.0  0.0542
  N  N153  1  0.766000  0.532000  0.591500  1.0  -0.3524
  N  N154  1  0.645200  0.422800  0.948800  1.0  -0.2863
  N  N155  1  0.789400  0.500700  0.924500  1.0  -0.4464
  N  N156  1  0.747700  0.431300  0.884500  1.0  0.125
  N  N157  1  0.417200  0.300700  0.057300  1.0  -0.2189
  N  N158  1  0.334700  0.170600  0.095600  1.0  -0.4158
  N  N159  1  0.377400  0.231700  0.136300  1.0  0.1348
  N  N160  1  0.084600  0.194300  0.141100  1.0  0.084
  N  N161  1  0.104000  0.255100  0.095100  1.0  -0.409
  N  N162  1  0.048200  0.109000  0.060900  1.0  -0.4261
  N  N163  1  0.153400  0.899000  0.060700  1.0  -0.3986
  N  N164  1  0.244000  0.940300  0.058200  1.0  0.1238
  N  N165  1  0.237200  0.896800  0.145700  1.0  -0.3867
  N  N166  1  0.224800  0.716000  0.953900  1.0  0.0882
  N  N167  1  0.211000  0.697000  0.009400  1.0  -0.4003
  N  N168  1  0.076100  0.652500  0.955500  1.0  -0.4368
  N  N169  1  0.275000  0.913800  0.326600  1.0  -0.1763
  N  N170  1  0.232600  0.921000  0.417100  1.0  -0.402
  N  N171  1  0.323400  0.933000  0.417800  1.0  0.1092
  N  N172  1  0.105300  0.495900  0.443600  1.0  -0.4404
  N  N173  1  0.194000  0.512000  0.372500  1.0  0.0564
  N  N174  1  0.234000  0.468000  0.408500  1.0  -0.3502
  N  N175  1  0.354800  0.577200  0.051200  1.0  -0.2851
  N  N176  1  0.210600  0.499300  0.075500  1.0  -0.4462
  N  N177  1  0.252300  0.568700  0.115500  1.0  0.1244
  N  N178  1  0.582800  0.699300  0.942700  1.0  -0.2208
  N  N179  1  0.665300  0.829400  0.904400  1.0  -0.4162
  N  N180  1  0.622600  0.768300  0.863700  1.0  0.1352
  N  N181  1  0.915400  0.805700  0.858900  1.0  0.0831
  N  N182  1  0.896000  0.744900  0.904900  1.0  -0.4103
  N  N183  1  0.951800  0.891000  0.939100  1.0  -0.426
  N  N184  1  0.846600  0.101000  0.939300  1.0  -0.3959
  N  N185  1  0.756000  0.059700  0.941800  1.0  0.1237
  N  N186  1  0.762800  0.103200  0.854300  1.0  -0.3885
  N  N187  1  0.775200  0.284000  0.046100  1.0  0.0879
  N  N188  1  0.789000  0.303000  0.990600  1.0  -0.3994
  N  N189  1  0.923900  0.347500  0.044500  1.0  -0.4412
  N  N190  1  0.725000  0.086200  0.673400  1.0  -0.1734
  N  N191  1  0.767400  0.079000  0.582900  1.0  -0.4056
  N  N192  1  0.676600  0.067000  0.582200  1.0  0.1062
