# generated using pymatgen
data_MgH3(CO2)3
_symmetry_space_group_name_H-M   'P 1'
_cell_length_a   7.28300000
_cell_length_b   7.28300000
_cell_length_c   8.22400000
_cell_angle_alpha   90.00000000
_cell_angle_beta   90.00000000
_cell_angle_gamma   120.00000000
_symmetry_Int_Tables_number   1
_chemical_formula_structural   MgH3(CO2)3
_chemical_formula_sum   'Mg2 H6 C6 O12'
_cell_volume   377.77599078
_cell_formula_units_Z   2
loop_
 _symmetry_equiv_pos_site_id
 _symmetry_equiv_pos_as_xyz
  1  'x, y, z'
loop_
 _atom_site_type_symbol
 _atom_site_label
 _atom_site_symmetry_multiplicity
 _atom_site_fract_x
 _atom_site_fract_y
 _atom_site_fract_z
 _atom_site_occupancy
 _atom_site_charge
  Mg  Mg1  1  0.666667  0.333333  0.750000  1.0  1.4916
  Mg  Mg2  1  0.333333  0.666667  0.250000  1.0  1.4916
  H  H3  1  0.000000  0.587000  0.000000  1.0  0.0671
  H  H4  1  0.413000  0.413000  0.000000  1.0  0.0677
  H  H5  1  0.587000  0.000000  0.000000  1.0  0.0662
  H  H6  1  0.000000  0.413000  0.500000  1.0  0.0678
  H  H7  1  0.587000  0.587000  0.500000  1.0  0.0674
  H  H8  1  0.413000  0.000000  0.500000  1.0  0.0659
  C  C9  1  0.000000  0.439830  0.000000  1.0  0.597
  C  C10  1  0.560170  0.560170  0.000000  1.0  0.5973
  C  C11  1  0.439830  0.000000  0.000000  1.0  0.5992
  C  C12  1  0.000000  0.560170  0.500000  1.0  0.5972
  C  C13  1  0.439830  0.439830  0.500000  1.0  0.5968
  C  C14  1  0.560170  0.000000  0.500000  1.0  0.5994
  O  O15  1  0.890480  0.310010  0.894300  1.0  -0.581
  O  O16  1  0.689990  0.580470  0.894300  1.0  -0.5813
  O  O17  1  0.419530  0.109520  0.894300  1.0  -0.5804
  O  O18  1  0.109520  0.689990  0.394300  1.0  -0.5821
  O  O19  1  0.310010  0.419530  0.394300  1.0  -0.5815
  O  O20  1  0.580470  0.890480  0.394300  1.0  -0.5806
  O  O21  1  0.310010  0.890480  0.105700  1.0  -0.5802
  O  O22  1  0.580470  0.689990  0.105700  1.0  -0.581
  O  O23  1  0.109520  0.419530  0.105700  1.0  -0.5805
  O  O24  1  0.689990  0.109520  0.605700  1.0  -0.5806
  O  O25  1  0.419530  0.310010  0.605700  1.0  -0.5815
  O  O26  1  0.890480  0.580470  0.605700  1.0  -0.5814
