# generated using pymatgen
data_MgH3(CO2)3
_symmetry_space_group_name_H-M   'P 1'
_cell_length_a   7.28350000
_cell_length_b   7.28350000
_cell_length_c   8.21720000
_cell_angle_alpha   90.00000000
_cell_angle_beta   90.00000000
_cell_angle_gamma   120.00000000
_symmetry_Int_Tables_number   1
_chemical_formula_structural   MgH3(CO2)3
_chemical_formula_sum   'Mg2 H6 C6 O12'
_cell_volume   377.51545718
_cell_formula_units_Z   2
loop_
 _symmetry_equiv_pos_site_id
 _symmetry_equiv_pos_as_xyz
  1  'x, y, z'
loop_
 _atom_site_type_symbol
 _atom_site_label
 _atom_site_symmetry_multiplicity
 _atom_site_fract_x
 _atom_site_fract_y
 _atom_site_fract_z
 _atom_site_occupancy
 _atom_site_charge
  Mg  Mg1  1  0.666667  0.333333  0.750000  1.0  1.5042
  Mg  Mg2  1  0.333333  0.666667  0.250000  1.0  1.5042
  H  H3  1  0.000000  0.566700  0.000000  1.0  0.0208
  H  H4  1  0.433300  0.433300  0.000000  1.0  0.0211
  H  H5  1  0.566700  0.000000  0.000000  1.0  0.0211
  H  H6  1  0.000000  0.433300  0.500000  1.0  0.0215
  H  H7  1  0.566700  0.566700  0.500000  1.0  0.021
  H  H8  1  0.433300  0.000000  0.500000  1.0  0.0221
  C  C9  1  0.000000  0.439000  0.000000  1.0  0.69
  C  C10  1  0.561000  0.561000  0.000000  1.0  0.6912
  C  C11  1  0.439000  0.000000  0.000000  1.0  0.693
  C  C12  1  0.000000  0.561000  0.500000  1.0  0.6917
  C  C13  1  0.439000  0.439000  0.500000  1.0  0.6902
  C  C14  1  0.561000  0.000000  0.500000  1.0  0.6925
  O  O15  1  0.890710  0.310480  0.894250  1.0  -0.6066
  O  O16  1  0.689520  0.580230  0.894250  1.0  -0.6075
  O  O17  1  0.419770  0.109290  0.894250  1.0  -0.607
  O  O18  1  0.109290  0.689520  0.394250  1.0  -0.6082
  O  O19  1  0.310480  0.419770  0.394250  1.0  -0.6085
  O  O20  1  0.580230  0.890710  0.394250  1.0  -0.6063
  O  O21  1  0.310480  0.890710  0.105750  1.0  -0.606
  O  O22  1  0.580230  0.689520  0.105750  1.0  -0.6058
  O  O23  1  0.109290  0.419770  0.105750  1.0  -0.6072
  O  O24  1  0.689520  0.109290  0.605750  1.0  -0.6063
  O  O25  1  0.419770  0.310480  0.605750  1.0  -0.6076
  O  O26  1  0.890710  0.580230  0.605750  1.0  -0.6075
