# generated using pymatgen
data_MgH3(CO2)3
_symmetry_space_group_name_H-M   'P 1'
_cell_length_a   7.26050000
_cell_length_b   7.26050000
_cell_length_c   8.21560000
_cell_angle_alpha   90.00000000
_cell_angle_beta   90.00000000
_cell_angle_gamma   120.00000000
_symmetry_Int_Tables_number   1
_chemical_formula_structural   MgH3(CO2)3
_chemical_formula_sum   'Mg2 H6 C6 O12'
_cell_volume   375.06192426
_cell_formula_units_Z   2
loop_
 _symmetry_equiv_pos_site_id
 _symmetry_equiv_pos_as_xyz
  1  'x, y, z'
loop_
 _atom_site_type_symbol
 _atom_site_label
 _atom_site_symmetry_multiplicity
 _atom_site_fract_x
 _atom_site_fract_y
 _atom_site_fract_z
 _atom_site_occupancy
 _atom_site_charge
  Mg  Mg1  1  0.666667  0.333333  0.750000  1.0  1.5029
  Mg  Mg2  1  0.333333  0.666667  0.250000  1.0  1.5029
  H  H3  1  0.000000  0.568300  0.000000  1.0  0.019
  H  H4  1  0.431700  0.431700  0.000000  1.0  0.0193
  H  H5  1  0.568300  0.000000  0.000000  1.0  0.0195
  H  H6  1  0.000000  0.431700  0.500000  1.0  0.0202
  H  H7  1  0.568300  0.568300  0.500000  1.0  0.0197
  H  H8  1  0.431700  0.000000  0.500000  1.0  0.0204
  C  C9  1  0.000000  0.440200  0.000000  1.0  0.6917
  C  C10  1  0.559800  0.559800  0.000000  1.0  0.6927
  C  C11  1  0.440200  0.000000  0.000000  1.0  0.6946
  C  C12  1  0.000000  0.559800  0.500000  1.0  0.6931
  C  C13  1  0.440200  0.440200  0.500000  1.0  0.6917
  C  C14  1  0.559800  0.000000  0.500000  1.0  0.6943
  O  O15  1  0.890730  0.310090  0.893980  1.0  -0.6063
  O  O16  1  0.689910  0.580640  0.893980  1.0  -0.6073
  O  O17  1  0.419360  0.109270  0.893980  1.0  -0.6062
  O  O18  1  0.109270  0.689910  0.393980  1.0  -0.6077
  O  O19  1  0.310090  0.419360  0.393980  1.0  -0.6082
  O  O20  1  0.580640  0.890730  0.393980  1.0  -0.6065
  O  O21  1  0.310090  0.890730  0.106020  1.0  -0.6057
  O  O22  1  0.580640  0.689910  0.106020  1.0  -0.6067
  O  O23  1  0.109270  0.419360  0.106020  1.0  -0.6067
  O  O24  1  0.689910  0.109270  0.606020  1.0  -0.6066
  O  O25  1  0.419360  0.310090  0.606020  1.0  -0.6067
  O  O26  1  0.890730  0.580640  0.606020  1.0  -0.6076
