# generated using pymatgen
data_MgH3(CO2)3
_symmetry_space_group_name_H-M   'P 1'
_cell_length_a   12.56930000
_cell_length_b   12.56930000
_cell_length_c   8.22160000
_cell_angle_alpha   90.00000000
_cell_angle_beta   90.00000000
_cell_angle_gamma   120.00000000
_symmetry_Int_Tables_number   1
_chemical_formula_structural   MgH3(CO2)3
_chemical_formula_sum   'Mg6 H18 C18 O36'
_cell_volume   1124.88767692
_cell_formula_units_Z   6
loop_
 _symmetry_equiv_pos_site_id
 _symmetry_equiv_pos_as_xyz
  1  'x, y, z'
loop_
 _atom_site_type_symbol
 _atom_site_label
 _atom_site_symmetry_multiplicity
 _atom_site_fract_x
 _atom_site_fract_y
 _atom_site_fract_z
 _atom_site_occupancy
 _atom_site_charge
  Mg  Mg1  1  0.334310  0.332300  0.587470  1.0  1.4835
  Mg  Mg2  1  0.667700  0.002010  0.587470  1.0  1.4835
  Mg  Mg3  1  0.997990  0.665690  0.587470  1.0  1.4832
  Mg  Mg4  1  0.665690  0.667700  0.087470  1.0  1.4837
  Mg  Mg5  1  0.332300  0.997990  0.087470  1.0  1.4832
  Mg  Mg6  1  0.002010  0.334310  0.087470  1.0  1.4837
  H  H7  1  0.286800  0.146500  0.329800  1.0  0.0273
  H  H8  1  0.514400  0.468100  0.321500  1.0  0.0229
  H  H9  1  0.178200  0.378600  0.359600  1.0  0.0223
  H  H10  1  0.853500  0.140300  0.329800  1.0  0.0277
  H  H11  1  0.531900  0.046300  0.321500  1.0  0.0223
  H  H12  1  0.621400  0.799600  0.359600  1.0  0.0228
  H  H13  1  0.859700  0.713200  0.329800  1.0  0.0273
  H  H14  1  0.953700  0.485600  0.321500  1.0  0.0226
  H  H15  1  0.200400  0.821800  0.359600  1.0  0.023
  H  H16  1  0.713200  0.853500  0.829800  1.0  0.0274
  H  H17  1  0.485600  0.531900  0.821500  1.0  0.022
  H  H18  1  0.821800  0.621400  0.859600  1.0  0.0223
  H  H19  1  0.146500  0.859700  0.829800  1.0  0.0271
  H  H20  1  0.468100  0.953700  0.821500  1.0  0.0222
  H  H21  1  0.378600  0.200400  0.859600  1.0  0.0225
  H  H22  1  0.140300  0.286800  0.829800  1.0  0.0264
  H  H23  1  0.046300  0.514400  0.821500  1.0  0.023
  H  H24  1  0.799600  0.178200  0.859600  1.0  0.0229
  C  C25  1  0.373030  0.186610  0.333900  1.0  0.6928
  C  C26  1  0.476450  0.516040  0.329900  1.0  0.7005
  C  C27  1  0.143380  0.293320  0.346600  1.0  0.691
  C  C28  1  0.813390  0.186420  0.333900  1.0  0.6927
  C  C29  1  0.483960  0.960410  0.329900  1.0  0.6999
  C  C30  1  0.706680  0.850060  0.346600  1.0  0.6895
  C  C31  1  0.813580  0.626970  0.333900  1.0  0.6942
  C  C32  1  0.039590  0.523550  0.329900  1.0  0.6988
  C  C33  1  0.149940  0.856620  0.346600  1.0  0.6894
  C  C34  1  0.626970  0.813390  0.833900  1.0  0.6924
  C  C35  1  0.523550  0.483960  0.829900  1.0  0.6993
  C  C36  1  0.856620  0.706680  0.846600  1.0  0.6911
  C  C37  1  0.186610  0.813580  0.833900  1.0  0.693
  C  C38  1  0.516040  0.039590  0.829900  1.0  0.7013
  C  C39  1  0.293320  0.149940  0.846600  1.0  0.6887
  C  C40  1  0.186420  0.373030  0.833900  1.0  0.6945
  C  C41  1  0.960410  0.476450  0.829900  1.0  0.6988
  C  C42  1  0.850060  0.143380  0.846600  1.0  0.6895
  O  O43  1  0.423310  0.264520  0.442070  1.0  -0.6058
  O  O44  1  0.424200  0.155670  0.229980  1.0  -0.6021
  O  O45  1  0.400280  0.489030  0.440950  1.0  -0.6068
  O  O46  1  0.507660  0.599670  0.228880  1.0  -0.609
  O  O47  1  0.176060  0.240590  0.444630  1.0  -0.61
  O  O48  1  0.069230  0.245350  0.232410  1.0  -0.6041
  O  O49  1  0.735480  0.158790  0.442070  1.0  -0.6068
  O  O50  1  0.844330  0.268530  0.229980  1.0  -0.6014
  O  O51  1  0.510970  0.911250  0.440950  1.0  -0.6061
  O  O52  1  0.400330  0.907990  0.228880  1.0  -0.6095
  O  O53  1  0.759410  0.935470  0.444630  1.0  -0.6098
  O  O54  1  0.754650  0.823880  0.232410  1.0  -0.6042
  O  O55  1  0.841210  0.576690  0.442070  1.0  -0.6055
  O  O56  1  0.731470  0.575800  0.229980  1.0  -0.604
  O  O57  1  0.088750  0.599720  0.440950  1.0  -0.6055
  O  O58  1  0.092010  0.492340  0.228880  1.0  -0.6089
  O  O59  1  0.064530  0.823940  0.444630  1.0  -0.61
  O  O60  1  0.176120  0.930770  0.232410  1.0  -0.6043
  O  O61  1  0.576690  0.735480  0.942070  1.0  -0.6072
  O  O62  1  0.575800  0.844330  0.729980  1.0  -0.6028
  O  O63  1  0.599720  0.510970  0.940950  1.0  -0.6049
  O  O64  1  0.492340  0.400330  0.728880  1.0  -0.6103
  O  O65  1  0.823940  0.759410  0.944630  1.0  -0.6103
  O  O66  1  0.930770  0.754650  0.732410  1.0  -0.6051
  O  O67  1  0.264520  0.841210  0.942070  1.0  -0.6042
  O  O68  1  0.155670  0.731470  0.729980  1.0  -0.6025
  O  O69  1  0.489030  0.088750  0.940950  1.0  -0.6062
  O  O70  1  0.599670  0.092010  0.728880  1.0  -0.6096
  O  O71  1  0.240590  0.064530  0.944630  1.0  -0.6105
  O  O72  1  0.245350  0.176120  0.732410  1.0  -0.6051
  O  O73  1  0.158790  0.423310  0.942070  1.0  -0.6061
  O  O74  1  0.268530  0.424200  0.729980  1.0  -0.6027
  O  O75  1  0.911250  0.400280  0.940950  1.0  -0.6063
  O  O76  1  0.907990  0.507660  0.728880  1.0  -0.6093
  O  O77  1  0.935470  0.176060  0.944630  1.0  -0.61
  O  O78  1  0.823880  0.069230  0.732410  1.0  -0.6046
