# generated using pymatgen
data_MgH3(CO2)3
_symmetry_space_group_name_H-M   'P 1'
_cell_length_a   7.26420000
_cell_length_b   7.26420000
_cell_length_c   8.21230000
_cell_angle_alpha   90.00000000
_cell_angle_beta   90.00000000
_cell_angle_gamma   120.00000000
_symmetry_Int_Tables_number   1
_chemical_formula_structural   MgH3(CO2)3
_chemical_formula_sum   'Mg2 H6 C6 O12'
_cell_volume   375.29348333
_cell_formula_units_Z   2
loop_
 _symmetry_equiv_pos_site_id
 _symmetry_equiv_pos_as_xyz
  1  'x, y, z'
loop_
 _atom_site_type_symbol
 _atom_site_label
 _atom_site_symmetry_multiplicity
 _atom_site_fract_x
 _atom_site_fract_y
 _atom_site_fract_z
 _atom_site_occupancy
 _atom_site_charge
  Mg  Mg1  1  0.666667  0.333333  0.750000  1.0  1.5038
  Mg  Mg2  1  0.333333  0.666667  0.250000  1.0  1.5038
  H  H3  1  0.000000  0.568300  0.000000  1.0  0.0213
  H  H4  1  0.431700  0.431700  0.000000  1.0  0.0215
  H  H5  1  0.568300  0.000000  0.000000  1.0  0.0218
  H  H6  1  0.000000  0.431700  0.500000  1.0  0.0224
  H  H7  1  0.568300  0.568300  0.500000  1.0  0.022
  H  H8  1  0.431700  0.000000  0.500000  1.0  0.0226
  C  C9  1  0.000000  0.440300  0.000000  1.0  0.6891
  C  C10  1  0.559700  0.559700  0.000000  1.0  0.6901
  C  C11  1  0.440300  0.000000  0.000000  1.0  0.6919
  C  C12  1  0.000000  0.559700  0.500000  1.0  0.6904
  C  C13  1  0.440300  0.440300  0.500000  1.0  0.6891
  C  C14  1  0.559700  0.000000  0.500000  1.0  0.6916
  O  O15  1  0.890600  0.310070  0.894000  1.0  -0.6062
  O  O16  1  0.689930  0.580530  0.894000  1.0  -0.6073
  O  O17  1  0.419470  0.109400  0.894000  1.0  -0.606
  O  O18  1  0.109400  0.689930  0.394000  1.0  -0.6076
  O  O19  1  0.310070  0.419470  0.394000  1.0  -0.6082
  O  O20  1  0.580530  0.890600  0.394000  1.0  -0.6066
  O  O21  1  0.310070  0.890600  0.106000  1.0  -0.6055
  O  O22  1  0.580530  0.689930  0.106000  1.0  -0.6067
  O  O23  1  0.109400  0.419470  0.106000  1.0  -0.6065
  O  O24  1  0.689930  0.109400  0.606000  1.0  -0.6067
  O  O25  1  0.419470  0.310070  0.606000  1.0  -0.6065
  O  O26  1  0.890600  0.580530  0.606000  1.0  -0.6076
