# generated using pymatgen
data_MgH3(CO2)3
_symmetry_space_group_name_H-M   'P 1'
_cell_length_a   12.57200000
_cell_length_b   12.57200000
_cell_length_c   8.21840000
_cell_angle_alpha   90.00000000
_cell_angle_beta   90.00000000
_cell_angle_gamma   120.00000000
_symmetry_Int_Tables_number   1
_chemical_formula_structural   MgH3(CO2)3
_chemical_formula_sum   'Mg6 H18 C18 O36'
_cell_volume   1124.93298566
_cell_formula_units_Z   6
loop_
 _symmetry_equiv_pos_site_id
 _symmetry_equiv_pos_as_xyz
  1  'x, y, z'
loop_
 _atom_site_type_symbol
 _atom_site_label
 _atom_site_symmetry_multiplicity
 _atom_site_fract_x
 _atom_site_fract_y
 _atom_site_fract_z
 _atom_site_occupancy
 _atom_site_charge
  Mg  Mg1  1  0.334020  0.332740  0.586660  1.0  1.501
  Mg  Mg2  1  0.667260  0.001280  0.586660  1.0  1.5009
  Mg  Mg3  1  0.998720  0.665980  0.586660  1.0  1.5011
  Mg  Mg4  1  0.665980  0.667260  0.086660  1.0  1.501
  Mg  Mg5  1  0.332740  0.998720  0.086660  1.0  1.501
  Mg  Mg6  1  0.001280  0.334020  0.086660  1.0  1.5009
  H  H7  1  0.287800  0.146000  0.332100  1.0  0.0161
  H  H8  1  0.517100  0.471600  0.326800  1.0  0.0144
  H  H9  1  0.182500  0.378400  0.349600  1.0  0.012
  H  H10  1  0.854000  0.141800  0.332100  1.0  0.0162
  H  H11  1  0.528400  0.045500  0.326800  1.0  0.0139
  H  H12  1  0.621600  0.804100  0.349600  1.0  0.0136
  H  H13  1  0.858200  0.712200  0.332100  1.0  0.0139
  H  H14  1  0.954500  0.482900  0.326800  1.0  0.0146
  H  H15  1  0.195900  0.817500  0.349600  1.0  0.014
  H  H16  1  0.712200  0.854000  0.832100  1.0  0.0156
  H  H17  1  0.482900  0.528400  0.826800  1.0  0.0143
  H  H18  1  0.817500  0.621600  0.849600  1.0  0.011
  H  H19  1  0.146000  0.858200  0.832100  1.0  0.0159
  H  H20  1  0.471600  0.954500  0.826800  1.0  0.0128
  H  H21  1  0.378400  0.195900  0.849600  1.0  0.013
  H  H22  1  0.141800  0.287800  0.832100  1.0  0.0135
  H  H23  1  0.045500  0.517100  0.826800  1.0  0.0141
  H  H24  1  0.804100  0.182500  0.849600  1.0  0.0138
  C  C25  1  0.373180  0.186780  0.334700  1.0  0.6914
  C  C26  1  0.477620  0.517400  0.332100  1.0  0.6971
  C  C27  1  0.144610  0.293390  0.341900  1.0  0.7078
  C  C28  1  0.813220  0.186400  0.334700  1.0  0.6918
  C  C29  1  0.482600  0.960220  0.332100  1.0  0.6975
  C  C30  1  0.706610  0.851220  0.341900  1.0  0.7073
  C  C31  1  0.813600  0.626820  0.334700  1.0  0.6921
  C  C32  1  0.039780  0.522380  0.332100  1.0  0.6965
  C  C33  1  0.148780  0.855390  0.341900  1.0  0.7061
  C  C34  1  0.626820  0.813220  0.834700  1.0  0.692
  C  C35  1  0.522380  0.482600  0.832100  1.0  0.6963
  C  C36  1  0.855390  0.706610  0.841900  1.0  0.7084
  C  C37  1  0.186780  0.813600  0.834700  1.0  0.6909
  C  C38  1  0.517400  0.039780  0.832100  1.0  0.6986
  C  C39  1  0.293390  0.148780  0.841900  1.0  0.7061
  C  C40  1  0.186400  0.373180  0.834700  1.0  0.693
  C  C41  1  0.960220  0.477620  0.832100  1.0  0.6969
  C  C42  1  0.851220  0.144610  0.841900  1.0  0.7071
  O  O43  1  0.423310  0.265190  0.441910  1.0  -0.6017
  O  O44  1  0.423950  0.156180  0.229780  1.0  -0.6023
  O  O45  1  0.400220  0.489460  0.441210  1.0  -0.6078
  O  O46  1  0.508320  0.599610  0.229190  1.0  -0.6093
  O  O47  1  0.175990  0.241360  0.443380  1.0  -0.6108
  O  O48  1  0.068140  0.244380  0.231180  1.0  -0.6065
  O  O49  1  0.734810  0.158120  0.441910  1.0  -0.6015
  O  O50  1  0.843820  0.267770  0.229780  1.0  -0.6025
  O  O51  1  0.510540  0.910760  0.441210  1.0  -0.6063
  O  O52  1  0.400390  0.908710  0.229190  1.0  -0.6098
  O  O53  1  0.758640  0.934630  0.443380  1.0  -0.6116
  O  O54  1  0.755620  0.823760  0.231180  1.0  -0.6067
  O  O55  1  0.841880  0.576690  0.441910  1.0  -0.6015
  O  O56  1  0.732230  0.576050  0.229780  1.0  -0.6037
  O  O57  1  0.089240  0.599780  0.441210  1.0  -0.6065
  O  O58  1  0.091290  0.491680  0.229190  1.0  -0.6094
  O  O59  1  0.065370  0.824010  0.443380  1.0  -0.6114
  O  O60  1  0.176240  0.931860  0.231180  1.0  -0.6069
  O  O61  1  0.576690  0.734810  0.941910  1.0  -0.6021
  O  O62  1  0.576050  0.843820  0.729780  1.0  -0.6033
  O  O63  1  0.599780  0.510540  0.941210  1.0  -0.6058
  O  O64  1  0.491680  0.400390  0.729190  1.0  -0.6101
  O  O65  1  0.824010  0.758640  0.943380  1.0  -0.6111
  O  O66  1  0.931860  0.755620  0.731180  1.0  -0.6079
  O  O67  1  0.265190  0.841880  0.941910  1.0  -0.6002
  O  O68  1  0.156180  0.732230  0.729780  1.0  -0.6028
  O  O69  1  0.489460  0.089240  0.941210  1.0  -0.6069
  O  O70  1  0.599610  0.091290  0.729190  1.0  -0.6102
  O  O71  1  0.241360  0.065370  0.943380  1.0  -0.6119
  O  O72  1  0.244380  0.176240  0.731180  1.0  -0.6074
  O  O73  1  0.158120  0.423310  0.941910  1.0  -0.6017
  O  O74  1  0.267770  0.423950  0.729780  1.0  -0.6028
  O  O75  1  0.910760  0.400220  0.941210  1.0  -0.6072
  O  O76  1  0.908710  0.508320  0.729190  1.0  -0.6093
  O  O77  1  0.934630  0.175990  0.943380  1.0  -0.6107
  O  O78  1  0.823760  0.068140  0.731180  1.0  -0.6079
