# generated using pymatgen
data_MgH3(CO2)3
_symmetry_space_group_name_H-M   'P 1'
_cell_length_a   7.26800000
_cell_length_b   7.26800000
_cell_length_c   8.21040000
_cell_angle_alpha   90.00000000
_cell_angle_beta   90.00000000
_cell_angle_gamma   120.00000000
_symmetry_Int_Tables_number   1
_chemical_formula_structural   MgH3(CO2)3
_chemical_formula_sum   'Mg2 H6 C6 O12'
_cell_volume   375.59930922
_cell_formula_units_Z   2
loop_
 _symmetry_equiv_pos_site_id
 _symmetry_equiv_pos_as_xyz
  1  'x, y, z'
loop_
 _atom_site_type_symbol
 _atom_site_label
 _atom_site_symmetry_multiplicity
 _atom_site_fract_x
 _atom_site_fract_y
 _atom_site_fract_z
 _atom_site_occupancy
 _atom_site_charge
  Mg  Mg1  1  0.666667  0.333333  0.750000  1.0  1.5024
  Mg  Mg2  1  0.333333  0.666667  0.250000  1.0  1.5024
  H  H3  1  0.000000  0.567900  0.000000  1.0  0.0182
  H  H4  1  0.432100  0.432100  0.000000  1.0  0.0185
  H  H5  1  0.567900  0.000000  0.000000  1.0  0.0188
  H  H6  1  0.000000  0.432100  0.500000  1.0  0.0193
  H  H7  1  0.567900  0.567900  0.500000  1.0  0.0187
  H  H8  1  0.432100  0.000000  0.500000  1.0  0.0196
  C  C9  1  0.000000  0.439900  0.000000  1.0  0.6903
  C  C10  1  0.560100  0.560100  0.000000  1.0  0.6914
  C  C11  1  0.439900  0.000000  0.000000  1.0  0.6935
  C  C12  1  0.000000  0.560100  0.500000  1.0  0.6918
  C  C13  1  0.439900  0.439900  0.500000  1.0  0.6904
  C  C14  1  0.560100  0.000000  0.500000  1.0  0.6931
  O  O15  1  0.890650  0.310220  0.894050  1.0  -0.6054
  O  O16  1  0.689780  0.580430  0.894050  1.0  -0.606
  O  O17  1  0.419570  0.109350  0.894050  1.0  -0.6052
  O  O18  1  0.109350  0.689780  0.394050  1.0  -0.6069
  O  O19  1  0.310220  0.419570  0.394050  1.0  -0.6071
  O  O20  1  0.580430  0.890650  0.394050  1.0  -0.6054
  O  O21  1  0.310220  0.890650  0.105950  1.0  -0.6046
  O  O22  1  0.580430  0.689780  0.105950  1.0  -0.6052
  O  O23  1  0.109350  0.419570  0.105950  1.0  -0.6054
  O  O24  1  0.689780  0.109350  0.605950  1.0  -0.6053
  O  O25  1  0.419570  0.310220  0.605950  1.0  -0.6059
  O  O26  1  0.890650  0.580430  0.605950  1.0  -0.6062
