# generated using pymatgen
data_MgH3(CO2)3
_symmetry_space_group_name_H-M   'P 1'
_cell_length_a   7.26380000
_cell_length_b   7.26380000
_cell_length_c   8.20980000
_cell_angle_alpha   90.00000000
_cell_angle_beta   90.00000000
_cell_angle_gamma   120.00000000
_symmetry_Int_Tables_number   1
_chemical_formula_structural   MgH3(CO2)3
_chemical_formula_sum   'Mg2 H6 C6 O12'
_cell_volume   375.13791893
_cell_formula_units_Z   2
loop_
 _symmetry_equiv_pos_site_id
 _symmetry_equiv_pos_as_xyz
  1  'x, y, z'
loop_
 _atom_site_type_symbol
 _atom_site_label
 _atom_site_symmetry_multiplicity
 _atom_site_fract_x
 _atom_site_fract_y
 _atom_site_fract_z
 _atom_site_occupancy
 _atom_site_charge
  Mg  Mg1  1  0.666667  0.333333  0.750000  1.0  1.5014
  Mg  Mg2  1  0.333333  0.666667  0.250000  1.0  1.5014
  H  H3  1  0.000000  0.568100  0.000000  1.0  0.0191
  H  H4  1  0.431900  0.431900  0.000000  1.0  0.0194
  H  H5  1  0.568100  0.000000  0.000000  1.0  0.0197
  H  H6  1  0.000000  0.431900  0.500000  1.0  0.0201
  H  H7  1  0.568100  0.568100  0.500000  1.0  0.0196
  H  H8  1  0.431900  0.000000  0.500000  1.0  0.0205
  C  C9  1  0.000000  0.440000  0.000000  1.0  0.6899
  C  C10  1  0.560000  0.560000  0.000000  1.0  0.6913
  C  C11  1  0.440000  0.000000  0.000000  1.0  0.6931
  C  C12  1  0.000000  0.560000  0.500000  1.0  0.6917
  C  C13  1  0.440000  0.440000  0.500000  1.0  0.6901
  C  C14  1  0.560000  0.000000  0.500000  1.0  0.6928
  O  O15  1  0.890720  0.310190  0.893990  1.0  -0.6053
  O  O16  1  0.689810  0.580530  0.893990  1.0  -0.6064
  O  O17  1  0.419470  0.109280  0.893990  1.0  -0.6054
  O  O18  1  0.109280  0.689810  0.393990  1.0  -0.6069
  O  O19  1  0.310190  0.419470  0.393990  1.0  -0.6072
  O  O20  1  0.580530  0.890720  0.393990  1.0  -0.6056
  O  O21  1  0.310190  0.890720  0.106010  1.0  -0.6047
  O  O22  1  0.580530  0.689810  0.106010  1.0  -0.6056
  O  O23  1  0.109280  0.419470  0.106010  1.0  -0.6055
  O  O24  1  0.689810  0.109280  0.606010  1.0  -0.6054
  O  O25  1  0.419470  0.310190  0.606010  1.0  -0.6056
  O  O26  1  0.890720  0.580530  0.606010  1.0  -0.6065
