# generated using pymatgen
data_MgH3(CO2)3
_symmetry_space_group_name_H-M   'P 1'
_cell_length_a   7.28400000
_cell_length_b   7.28400000
_cell_length_c   8.20880000
_cell_angle_alpha   90.00000000
_cell_angle_beta   90.00000000
_cell_angle_gamma   120.00000000
_symmetry_Int_Tables_number   1
_chemical_formula_structural   MgH3(CO2)3
_chemical_formula_sum   'Mg2 H6 C6 O12'
_cell_volume   377.18132390
_cell_formula_units_Z   2
loop_
 _symmetry_equiv_pos_site_id
 _symmetry_equiv_pos_as_xyz
  1  'x, y, z'
loop_
 _atom_site_type_symbol
 _atom_site_label
 _atom_site_symmetry_multiplicity
 _atom_site_fract_x
 _atom_site_fract_y
 _atom_site_fract_z
 _atom_site_occupancy
 _atom_site_charge
  Mg  Mg1  1  0.333333  0.666667  0.250000  1.0  1.4982
  Mg  Mg2  1  0.666667  0.333333  0.750000  1.0  1.4982
  H  H3  1  0.000000  0.432900  0.000000  1.0  0.0134
  H  H4  1  0.567100  0.567100  0.000000  1.0  0.0129
  H  H5  1  0.432900  0.000000  0.000000  1.0  0.0136
  H  H6  1  0.000000  0.567100  0.500000  1.0  0.0123
  H  H7  1  0.432900  0.432900  0.500000  1.0  0.0127
  H  H8  1  0.567100  0.000000  0.500000  1.0  0.0129
  C  C9  1  0.000000  0.560600  0.000000  1.0  0.6851
  C  C10  1  0.439400  0.439400  0.000000  1.0  0.6834
  C  C11  1  0.560600  0.000000  0.000000  1.0  0.6861
  C  C12  1  0.000000  0.439400  0.500000  1.0  0.6834
  C  C13  1  0.560600  0.560600  0.500000  1.0  0.6849
  C  C14  1  0.439400  0.000000  0.500000  1.0  0.6861
  O  O15  1  0.109580  0.689670  0.105960  1.0  -0.5996
  O  O16  1  0.310330  0.419910  0.105960  1.0  -0.599
  O  O17  1  0.580090  0.890420  0.105960  1.0  -0.5976
  O  O18  1  0.890420  0.310330  0.605960  1.0  -0.5973
  O  O19  1  0.689670  0.580090  0.605960  1.0  -0.5992
  O  O20  1  0.419910  0.109580  0.605960  1.0  -0.5973
  O  O21  1  0.689670  0.109580  0.894040  1.0  -0.5987
  O  O22  1  0.419910  0.310330  0.894040  1.0  -0.6001
  O  O23  1  0.890420  0.580090  0.894040  1.0  -0.5993
  O  O24  1  0.310330  0.890420  0.394040  1.0  -0.5975
  O  O25  1  0.580090  0.689670  0.394040  1.0  -0.5983
  O  O26  1  0.109580  0.419910  0.394040  1.0  -0.5994
