# generated using pymatgen
data_MgH3(CO2)3
_symmetry_space_group_name_H-M   'P 1'
_cell_length_a   7.27740000
_cell_length_b   7.27740000
_cell_length_c   8.20940000
_cell_angle_alpha   90.00000000
_cell_angle_beta   90.00000000
_cell_angle_gamma   120.00000000
_symmetry_Int_Tables_number   1
_chemical_formula_structural   MgH3(CO2)3
_chemical_formula_sum   'Mg2 H6 C6 O12'
_cell_volume   376.52562804
_cell_formula_units_Z   2
loop_
 _symmetry_equiv_pos_site_id
 _symmetry_equiv_pos_as_xyz
  1  'x, y, z'
loop_
 _atom_site_type_symbol
 _atom_site_label
 _atom_site_symmetry_multiplicity
 _atom_site_fract_x
 _atom_site_fract_y
 _atom_site_fract_z
 _atom_site_occupancy
 _atom_site_charge
  Mg  Mg1  1  0.666667  0.333333  0.750000  1.0  1.5029
  Mg  Mg2  1  0.333333  0.666667  0.250000  1.0  1.5029
  H  H3  1  0.000000  0.567300  0.000000  1.0  0.0173
  H  H4  1  0.432700  0.432700  0.000000  1.0  0.0177
  H  H5  1  0.567300  0.000000  0.000000  1.0  0.0176
  H  H6  1  0.000000  0.432700  0.500000  1.0  0.0183
  H  H7  1  0.567300  0.567300  0.500000  1.0  0.0178
  H  H8  1  0.432700  0.000000  0.500000  1.0  0.0186
  C  C9  1  0.000000  0.439500  0.000000  1.0  0.6882
  C  C10  1  0.560500  0.560500  0.000000  1.0  0.6895
  C  C11  1  0.439500  0.000000  0.000000  1.0  0.6909
  C  C12  1  0.000000  0.560500  0.500000  1.0  0.6899
  C  C13  1  0.439500  0.439500  0.500000  1.0  0.6883
  C  C14  1  0.560500  0.000000  0.500000  1.0  0.6909
  O  O15  1  0.890660  0.310330  0.894130  1.0  -0.6039
  O  O16  1  0.689670  0.580330  0.894130  1.0  -0.6045
  O  O17  1  0.419670  0.109340  0.894130  1.0  -0.6039
  O  O18  1  0.109340  0.689670  0.394130  1.0  -0.6055
  O  O19  1  0.310330  0.419670  0.394130  1.0  -0.6056
  O  O20  1  0.580330  0.890660  0.394130  1.0  -0.604
  O  O21  1  0.310330  0.890660  0.105870  1.0  -0.603
  O  O22  1  0.580330  0.689670  0.105870  1.0  -0.6035
  O  O23  1  0.109340  0.419670  0.105870  1.0  -0.6041
  O  O24  1  0.689670  0.109340  0.605870  1.0  -0.6038
  O  O25  1  0.419670  0.310330  0.605870  1.0  -0.6045
  O  O26  1  0.890660  0.580330  0.605870  1.0  -0.6045
