# generated using pymatgen
data_Ag4H32C37S17N8(OF)3
_symmetry_space_group_name_H-M   'P 1'
_cell_length_a   26.87000000
_cell_length_b   12.31600000
_cell_length_c   21.46800000
_cell_angle_alpha   90.00000000
_cell_angle_beta   90.00000000
_cell_angle_gamma   90.00000000
_symmetry_Int_Tables_number   1
_chemical_formula_structural   Ag4H32C37S17N8(OF)3
_chemical_formula_sum   'Ag16 H128 C148 S68 N32 O12 F12'
_cell_volume   7104.42499056
_cell_formula_units_Z   4
loop_
 _symmetry_equiv_pos_site_id
 _symmetry_equiv_pos_as_xyz
  1  'x, y, z'
loop_
 _atom_site_type_symbol
 _atom_site_label
 _atom_site_symmetry_multiplicity
 _atom_site_fract_x
 _atom_site_fract_y
 _atom_site_fract_z
 _atom_site_occupancy
 _atom_site_charge
  Ag  Ag1  1  0.774260  0.905060  0.245780  1.0  0.4279
  Ag  Ag2  1  0.225740  0.094940  0.245780  1.0  0.4277
  Ag  Ag3  1  0.725740  0.405060  0.254220  1.0  0.4279
  Ag  Ag4  1  0.274260  0.594940  0.254220  1.0  0.4277
  Ag  Ag5  1  0.225740  0.094940  0.754220  1.0  0.4278
  Ag  Ag6  1  0.774260  0.905060  0.754220  1.0  0.4279
  Ag  Ag7  1  0.274260  0.594940  0.745780  1.0  0.4278
  Ag  Ag8  1  0.725740  0.405060  0.745780  1.0  0.4279
  Ag  Ag9  1  0.500000  0.000000  0.117940  1.0  0.0827
  Ag  Ag10  1  0.500000  0.000000  0.367940  1.0  0.3965
  Ag  Ag11  1  0.000000  0.500000  0.382060  1.0  0.0858
  Ag  Ag12  1  0.000000  0.500000  0.132060  1.0  0.397
  Ag  Ag13  1  0.500000  0.000000  0.882060  1.0  0.0858
  Ag  Ag14  1  0.500000  0.000000  0.632060  1.0  0.397
  Ag  Ag15  1  0.000000  0.500000  0.617940  1.0  0.0827
  Ag  Ag16  1  0.000000  0.500000  0.867940  1.0  0.3965
  H  H17  1  0.627200  0.058700  0.070700  1.0  0.1544
  H  H18  1  0.602800  0.171000  0.082600  1.0  0.1631
  H  H19  1  0.690500  0.175900  0.091100  1.0  0.1179
  H  H20  1  0.664000  0.218400  0.150500  1.0  0.1277
  H  H21  1  0.610100  0.124700  0.396800  1.0  0.1438
  H  H22  1  0.621800  0.002400  0.405800  1.0  0.1413
  H  H23  1  0.696000  0.080300  0.394900  1.0  0.1428
  H  H24  1  0.686200  0.024800  0.331200  1.0  0.1449
  H  H25  1  0.611400  0.687700  0.116100  1.0  0.173
  H  H26  1  0.624100  0.808900  0.104400  1.0  0.1349
  H  H27  1  0.696300  0.719400  0.102600  1.0  0.1355
  H  H28  1  0.695800  0.784800  0.164300  1.0  0.1332
  H  H29  1  0.644500  0.755600  0.439600  1.0  0.1406
  H  H30  1  0.619100  0.643500  0.431100  1.0  0.1422
  H  H31  1  0.705600  0.637700  0.413800  1.0  0.1364
  H  H32  1  0.675100  0.593700  0.357800  1.0  0.1396
  H  H33  1  0.372800  0.941300  0.070700  1.0  0.1539
  H  H34  1  0.397200  0.829000  0.082600  1.0  0.165
  H  H35  1  0.309500  0.824100  0.091100  1.0  0.1181
  H  H36  1  0.336000  0.781600  0.150500  1.0  0.1293
  H  H37  1  0.389900  0.875300  0.396800  1.0  0.1454
  H  H38  1  0.378200  0.997600  0.405800  1.0  0.1404
  H  H39  1  0.304000  0.919700  0.394900  1.0  0.144
  H  H40  1  0.313800  0.975200  0.331200  1.0  0.1443
  H  H41  1  0.388600  0.312300  0.116100  1.0  0.1744
  H  H42  1  0.375900  0.191100  0.104400  1.0  0.1354
  H  H43  1  0.303700  0.280600  0.102600  1.0  0.1351
  H  H44  1  0.304200  0.215200  0.164300  1.0  0.1337
  H  H45  1  0.355500  0.244400  0.439600  1.0  0.1424
  H  H46  1  0.380900  0.356500  0.431100  1.0  0.1396
  H  H47  1  0.294400  0.362300  0.413800  1.0  0.1351
  H  H48  1  0.324900  0.406300  0.357800  1.0  0.1399
  H  H49  1  0.872800  0.558700  0.429300  1.0  0.1564
  H  H50  1  0.897200  0.671000  0.417400  1.0  0.1647
  H  H51  1  0.809500  0.675900  0.408900  1.0  0.1186
  H  H52  1  0.836000  0.718400  0.349500  1.0  0.1282
  H  H53  1  0.889900  0.624700  0.103200  1.0  0.1437
  H  H54  1  0.878200  0.502400  0.094200  1.0  0.1408
  H  H55  1  0.804000  0.580300  0.105100  1.0  0.1421
  H  H56  1  0.813800  0.524800  0.168800  1.0  0.1451
  H  H57  1  0.888600  0.187700  0.383900  1.0  0.175
  H  H58  1  0.875900  0.308900  0.395600  1.0  0.1369
  H  H59  1  0.803700  0.219400  0.397400  1.0  0.1357
  H  H60  1  0.804200  0.284800  0.335700  1.0  0.1344
  H  H61  1  0.855500  0.255600  0.060400  1.0  0.1407
  H  H62  1  0.880900  0.143500  0.068900  1.0  0.1419
  H  H63  1  0.794400  0.137700  0.086200  1.0  0.135
  H  H64  1  0.824900  0.093700  0.142200  1.0  0.1398
  H  H65  1  0.127200  0.441300  0.429300  1.0  0.1556
  H  H66  1  0.102800  0.329000  0.417400  1.0  0.1648
  H  H67  1  0.190500  0.324100  0.408900  1.0  0.1196
  H  H68  1  0.164000  0.281600  0.349500  1.0  0.1288
  H  H69  1  0.110100  0.375300  0.103200  1.0  0.1442
  H  H70  1  0.121800  0.497600  0.094200  1.0  0.1406
  H  H71  1  0.196000  0.419700  0.105100  1.0  0.1425
  H  H72  1  0.186200  0.475200  0.168800  1.0  0.144
  H  H73  1  0.111400  0.812300  0.383900  1.0  0.1745
  H  H74  1  0.124100  0.691100  0.395600  1.0  0.1363
  H  H75  1  0.196300  0.780600  0.397400  1.0  0.1354
  H  H76  1  0.195800  0.715200  0.335700  1.0  0.1341
  H  H77  1  0.144500  0.744400  0.060400  1.0  0.1408
  H  H78  1  0.119100  0.856500  0.068900  1.0  0.1414
  H  H79  1  0.205600  0.862300  0.086200  1.0  0.1348
  H  H80  1  0.175100  0.906300  0.142200  1.0  0.1388
  H  H81  1  0.372800  0.941300  0.929300  1.0  0.1553
  H  H82  1  0.397200  0.829000  0.917400  1.0  0.1656
  H  H83  1  0.309500  0.824100  0.908900  1.0  0.1192
  H  H84  1  0.336000  0.781600  0.849500  1.0  0.1287
  H  H85  1  0.389900  0.875300  0.603200  1.0  0.1444
  H  H86  1  0.378200  0.997600  0.594200  1.0  0.1406
  H  H87  1  0.304000  0.919700  0.605100  1.0  0.1428
  H  H88  1  0.313800  0.975200  0.668800  1.0  0.1438
  H  H89  1  0.388600  0.312300  0.883900  1.0  0.1751
  H  H90  1  0.375900  0.191100  0.895600  1.0  0.1372
  H  H91  1  0.303700  0.280600  0.897400  1.0  0.1354
  H  H92  1  0.304200  0.215200  0.835700  1.0  0.1344
  H  H93  1  0.355500  0.244400  0.560400  1.0  0.1407
  H  H94  1  0.380900  0.356500  0.568900  1.0  0.1404
  H  H95  1  0.294400  0.362300  0.586200  1.0  0.1343
  H  H96  1  0.324900  0.406300  0.642200  1.0  0.1386
  H  H97  1  0.627200  0.058700  0.929300  1.0  0.1565
  H  H98  1  0.602800  0.171000  0.917400  1.0  0.164
  H  H99  1  0.690500  0.175900  0.908900  1.0  0.1184
  H  H100  1  0.664000  0.218400  0.849500  1.0  0.1286
  H  H101  1  0.610100  0.124700  0.603200  1.0  0.1437
  H  H102  1  0.621800  0.002400  0.594200  1.0  0.1405
  H  H103  1  0.696000  0.080300  0.605100  1.0  0.1425
  H  H104  1  0.686200  0.024800  0.668800  1.0  0.1454
  H  H105  1  0.611400  0.687700  0.883900  1.0  0.1746
  H  H106  1  0.624100  0.808900  0.895600  1.0  0.1361
  H  H107  1  0.696300  0.719400  0.897400  1.0  0.1353
  H  H108  1  0.695800  0.784800  0.835700  1.0  0.1341
  H  H109  1  0.644500  0.755600  0.560400  1.0  0.1405
  H  H110  1  0.619100  0.643500  0.568900  1.0  0.1429
  H  H111  1  0.705600  0.637700  0.586200  1.0  0.1355
  H  H112  1  0.675100  0.593700  0.642200  1.0  0.1398
  H  H113  1  0.127200  0.441300  0.570700  1.0  0.1541
  H  H114  1  0.102800  0.329000  0.582600  1.0  0.1636
  H  H115  1  0.190500  0.324100  0.591100  1.0  0.1188
  H  H116  1  0.164000  0.281600  0.650500  1.0  0.1292
  H  H117  1  0.110100  0.375300  0.896800  1.0  0.145
  H  H118  1  0.121800  0.497600  0.905800  1.0  0.1403
  H  H119  1  0.196000  0.419700  0.894900  1.0  0.1426
  H  H120  1  0.186200  0.475200  0.831200  1.0  0.144
  H  H121  1  0.111400  0.812300  0.616100  1.0  0.1735
  H  H122  1  0.124100  0.691100  0.604400  1.0  0.1344
  H  H123  1  0.196300  0.780600  0.602600  1.0  0.1357
  H  H124  1  0.195800  0.715200  0.664300  1.0  0.1337
  H  H125  1  0.144500  0.744400  0.939600  1.0  0.1423
  H  H126  1  0.119100  0.856500  0.931100  1.0  0.1406
  H  H127  1  0.205600  0.862300  0.913800  1.0  0.1354
  H  H128  1  0.175100  0.906300  0.857800  1.0  0.1403
  H  H129  1  0.872800  0.558700  0.570700  1.0  0.1545
  H  H130  1  0.897200  0.671000  0.582600  1.0  0.1645
  H  H131  1  0.809500  0.675900  0.591100  1.0  0.1174
  H  H132  1  0.836000  0.718400  0.650500  1.0  0.1276
  H  H133  1  0.889900  0.624700  0.896800  1.0  0.1441
  H  H134  1  0.878200  0.502400  0.905800  1.0  0.1417
  H  H135  1  0.804000  0.580300  0.894900  1.0  0.1433
  H  H136  1  0.813800  0.524800  0.831200  1.0  0.1448
  H  H137  1  0.888600  0.187700  0.616100  1.0  0.1739
  H  H138  1  0.875900  0.308900  0.604400  1.0  0.1356
  H  H139  1  0.803700  0.219400  0.602600  1.0  0.1354
  H  H140  1  0.804200  0.284800  0.664300  1.0  0.1333
  H  H141  1  0.855500  0.255600  0.939600  1.0  0.1409
  H  H142  1  0.880900  0.143500  0.931100  1.0  0.1413
  H  H143  1  0.794400  0.137700  0.913800  1.0  0.1359
  H  H144  1  0.824900  0.093700  0.857800  1.0  0.1396
  C  C145  1  0.557200  0.354100  0.254600  1.0  -0.0439
  C  C146  1  0.571900  0.163200  0.212800  1.0  -0.0525
  C  C147  1  0.572000  0.153400  0.275300  1.0  -0.0144
  C  C148  1  0.562300  0.463100  0.260500  1.0  -0.0453
  C  C149  1  0.583100  0.663900  0.240600  1.0  -0.015
  C  C150  1  0.583500  0.653000  0.302500  1.0  -0.0125
  C  C151  1  0.620700  0.112900  0.101200  1.0  -0.3361
  C  C152  1  0.670300  0.156100  0.125600  1.0  -0.2313
  C  C153  1  0.696900  0.075900  0.163100  1.0  0.3378
  C  C154  1  0.622400  0.061100  0.377100  1.0  -0.3162
  C  C155  1  0.676000  0.081400  0.358400  1.0  -0.2952
  C  C156  1  0.683500  0.185900  0.326600  1.0  0.3352
  C  C157  1  0.626700  0.750600  0.133200  1.0  -0.3637
  C  C158  1  0.681000  0.726100  0.142300  1.0  -0.3098
  C  C159  1  0.689800  0.625100  0.177600  1.0  0.3389
  C  C160  1  0.635600  0.701200  0.410300  1.0  -0.287
  C  C161  1  0.683100  0.656700  0.381300  1.0  -0.2241
  C  C162  1  0.707300  0.735100  0.340500  1.0  0.3398
  C  C163  1  0.442800  0.645900  0.254600  1.0  -0.0412
  C  C164  1  0.428100  0.836800  0.212800  1.0  -0.0523
  C  C165  1  0.428000  0.846600  0.275300  1.0  -0.0144
  C  C166  1  0.437700  0.536900  0.260500  1.0  -0.0458
  C  C167  1  0.416900  0.336100  0.240600  1.0  -0.014
  C  C168  1  0.416500  0.347000  0.302500  1.0  -0.0135
  C  C169  1  0.379300  0.887100  0.101200  1.0  -0.3396
  C  C170  1  0.329700  0.843900  0.125600  1.0  -0.231
  C  C171  1  0.303100  0.924100  0.163100  1.0  0.3361
  C  C172  1  0.377600  0.938900  0.377100  1.0  -0.316
  C  C173  1  0.324000  0.918600  0.358400  1.0  -0.2942
  C  C174  1  0.316500  0.814100  0.326600  1.0  0.3377
  C  C175  1  0.373300  0.249400  0.133200  1.0  -0.3667
  C  C176  1  0.319000  0.273900  0.142300  1.0  -0.3114
  C  C177  1  0.310200  0.374900  0.177600  1.0  0.3364
  C  C178  1  0.364400  0.298800  0.410300  1.0  -0.2895
  C  C179  1  0.316900  0.343300  0.381300  1.0  -0.2249
  C  C180  1  0.292700  0.264900  0.340500  1.0  0.3427
  C  C181  1  0.942800  0.854100  0.245400  1.0  -0.0434
  C  C182  1  0.928100  0.663200  0.287200  1.0  -0.0537
  C  C183  1  0.928000  0.653400  0.224700  1.0  -0.0119
  C  C184  1  0.937700  0.963100  0.239500  1.0  -0.0456
  C  C185  1  0.916900  0.163900  0.259400  1.0  -0.0168
  C  C186  1  0.916500  0.153000  0.197500  1.0  -0.0113
  C  C187  1  0.879300  0.612900  0.398800  1.0  -0.3459
  C  C188  1  0.829700  0.656100  0.374400  1.0  -0.2304
  C  C189  1  0.803100  0.575900  0.336900  1.0  0.3369
  C  C190  1  0.877600  0.561100  0.122900  1.0  -0.3124
  C  C191  1  0.824000  0.581400  0.141600  1.0  -0.2944
  C  C192  1  0.816500  0.685900  0.173400  1.0  0.336
  C  C193  1  0.873300  0.250600  0.366800  1.0  -0.3729
  C  C194  1  0.819000  0.226100  0.357700  1.0  -0.3134
  C  C195  1  0.810200  0.125100  0.322400  1.0  0.3382
  C  C196  1  0.864400  0.201200  0.089700  1.0  -0.2844
  C  C197  1  0.816900  0.156700  0.118700  1.0  -0.2263
  C  C198  1  0.792700  0.235100  0.159500  1.0  0.3425
  C  C199  1  0.057200  0.145900  0.245400  1.0  -0.0418
  C  C200  1  0.071900  0.336800  0.287200  1.0  -0.0544
  C  C201  1  0.072000  0.346600  0.224700  1.0  -0.0127
  C  C202  1  0.062300  0.036900  0.239500  1.0  -0.0454
  C  C203  1  0.083100  0.836100  0.259400  1.0  -0.0174
  C  C204  1  0.083500  0.847000  0.197500  1.0  -0.0105
  C  C205  1  0.120700  0.387100  0.398800  1.0  -0.3401
  C  C206  1  0.170300  0.343900  0.374400  1.0  -0.2315
  C  C207  1  0.196900  0.424100  0.336900  1.0  0.334
  C  C208  1  0.122400  0.438900  0.122900  1.0  -0.3137
  C  C209  1  0.176000  0.418600  0.141600  1.0  -0.2944
  C  C210  1  0.183500  0.314100  0.173400  1.0  0.3378
  C  C211  1  0.126700  0.749400  0.366800  1.0  -0.3687
  C  C212  1  0.181000  0.773900  0.357700  1.0  -0.3118
  C  C213  1  0.189800  0.874900  0.322400  1.0  0.3357
  C  C214  1  0.135600  0.798800  0.089700  1.0  -0.2837
  C  C215  1  0.183100  0.843300  0.118700  1.0  -0.2255
  C  C216  1  0.207300  0.764900  0.159500  1.0  0.3425
  C  C217  1  0.442800  0.645900  0.745400  1.0  -0.0429
  C  C218  1  0.428100  0.836800  0.787200  1.0  -0.0535
  C  C219  1  0.428000  0.846600  0.724700  1.0  -0.0126
  C  C220  1  0.437700  0.536900  0.739500  1.0  -0.0456
  C  C221  1  0.416900  0.336100  0.759400  1.0  -0.0168
  C  C222  1  0.416500  0.347000  0.697500  1.0  -0.0113
  C  C223  1  0.379300  0.887100  0.898800  1.0  -0.3448
  C  C224  1  0.329700  0.843900  0.874400  1.0  -0.2313
  C  C225  1  0.303100  0.924100  0.836900  1.0  0.3356
  C  C226  1  0.377600  0.938900  0.622900  1.0  -0.3118
  C  C227  1  0.324000  0.918600  0.641600  1.0  -0.2935
  C  C228  1  0.316500  0.814100  0.673400  1.0  0.3386
  C  C229  1  0.373300  0.249400  0.866800  1.0  -0.3721
  C  C230  1  0.319000  0.273900  0.857700  1.0  -0.3134
  C  C231  1  0.310200  0.374900  0.822400  1.0  0.3364
  C  C232  1  0.364400  0.298800  0.589700  1.0  -0.2854
  C  C233  1  0.316900  0.343300  0.618700  1.0  -0.2257
  C  C234  1  0.292700  0.264900  0.659500  1.0  0.3443
  C  C235  1  0.557200  0.354100  0.745400  1.0  -0.0424
  C  C236  1  0.571900  0.163200  0.787200  1.0  -0.0546
  C  C237  1  0.572000  0.153400  0.724700  1.0  -0.0121
  C  C238  1  0.562300  0.463100  0.739500  1.0  -0.0452
  C  C239  1  0.583100  0.663900  0.759400  1.0  -0.0173
  C  C240  1  0.583500  0.653000  0.697500  1.0  -0.0107
  C  C241  1  0.620700  0.112900  0.898800  1.0  -0.3408
  C  C242  1  0.670300  0.156100  0.874400  1.0  -0.231
  C  C243  1  0.696900  0.075900  0.836900  1.0  0.3362
  C  C244  1  0.622400  0.061100  0.622900  1.0  -0.3136
  C  C245  1  0.676000  0.081400  0.641600  1.0  -0.2949
  C  C246  1  0.683500  0.185900  0.673400  1.0  0.3354
  C  C247  1  0.626700  0.750600  0.866800  1.0  -0.3699
  C  C248  1  0.681000  0.726100  0.857700  1.0  -0.3126
  C  C249  1  0.689800  0.625100  0.822400  1.0  0.3378
  C  C250  1  0.635600  0.701200  0.589700  1.0  -0.2832
  C  C251  1  0.683100  0.656700  0.618700  1.0  -0.2252
  C  C252  1  0.707300  0.735100  0.659500  1.0  0.3406
  C  C253  1  0.057200  0.145900  0.754600  1.0  -0.0434
  C  C254  1  0.071900  0.336800  0.712800  1.0  -0.0525
  C  C255  1  0.072000  0.346600  0.775300  1.0  -0.0147
  C  C256  1  0.062300  0.036900  0.760500  1.0  -0.0455
  C  C257  1  0.083100  0.836100  0.740600  1.0  -0.0148
  C  C258  1  0.083500  0.847000  0.802500  1.0  -0.0125
  C  C259  1  0.120700  0.387100  0.601200  1.0  -0.3354
  C  C260  1  0.170300  0.343900  0.625600  1.0  -0.2317
  C  C261  1  0.196900  0.424100  0.663100  1.0  0.3346
  C  C262  1  0.122400  0.438900  0.877100  1.0  -0.3166
  C  C263  1  0.176000  0.418600  0.858400  1.0  -0.2948
  C  C264  1  0.183500  0.314100  0.826600  1.0  0.337
  C  C265  1  0.126700  0.749400  0.633200  1.0  -0.363
  C  C266  1  0.181000  0.773900  0.642300  1.0  -0.3097
  C  C267  1  0.189800  0.874900  0.677600  1.0  0.3357
  C  C268  1  0.135600  0.798800  0.910300  1.0  -0.2872
  C  C269  1  0.183100  0.843300  0.881300  1.0  -0.2246
  C  C270  1  0.207300  0.764900  0.840500  1.0  0.3408
  C  C271  1  0.942800  0.854100  0.754600  1.0  -0.0419
  C  C272  1  0.928100  0.663200  0.712800  1.0  -0.0524
  C  C273  1  0.928000  0.653400  0.775300  1.0  -0.0141
  C  C274  1  0.937700  0.963100  0.760500  1.0  -0.0458
  C  C275  1  0.916900  0.163900  0.740600  1.0  -0.0142
  C  C276  1  0.916500  0.153000  0.802500  1.0  -0.0134
  C  C277  1  0.879300  0.612900  0.601200  1.0  -0.3408
  C  C278  1  0.829700  0.656100  0.625600  1.0  -0.2302
  C  C279  1  0.803100  0.575900  0.663100  1.0  0.3383
  C  C280  1  0.877600  0.561100  0.877100  1.0  -0.316
  C  C281  1  0.824000  0.581400  0.858400  1.0  -0.2953
  C  C282  1  0.816500  0.685900  0.826600  1.0  0.336
  C  C283  1  0.873300  0.250600  0.633200  1.0  -0.3673
  C  C284  1  0.819000  0.226100  0.642300  1.0  -0.3108
  C  C285  1  0.810200  0.125100  0.677600  1.0  0.3393
  C  C286  1  0.864400  0.201200  0.910300  1.0  -0.2888
  C  C287  1  0.816900  0.156700  0.881300  1.0  -0.2255
  C  C288  1  0.792700  0.235100  0.840500  1.0  0.3417
  C  C289  1  0.511500  0.314000  0.500000  1.0  0.4861
  C  C290  1  0.488500  0.686000  0.500000  1.0  0.4865
  C  C291  1  0.988500  0.814000  0.000000  1.0  0.4863
  C  C292  1  0.011500  0.186000  0.000000  1.0  0.4866
  S  S293  1  0.551270  0.266100  0.318580  1.0  0.0797
  S  S294  1  0.552580  0.288500  0.182190  1.0  0.095
  S  S295  1  0.562470  0.551400  0.196720  1.0  0.0929
  S  S296  1  0.564170  0.528100  0.333150  1.0  0.0735
  S  S297  1  0.582530  0.053900  0.162450  1.0  0.0123
  S  S298  1  0.581680  0.027900  0.312480  1.0  0.0164
  S  S299  1  0.592670  0.788000  0.202670  1.0  0.0409
  S  S300  1  0.592830  0.760000  0.354760  1.0  0.0402
  S  S301  1  0.448730  0.733900  0.318580  1.0  0.0802
  S  S302  1  0.447420  0.711500  0.182190  1.0  0.0956
  S  S303  1  0.437530  0.448600  0.196720  1.0  0.0923
  S  S304  1  0.435830  0.471900  0.333150  1.0  0.0749
  S  S305  1  0.417470  0.946100  0.162450  1.0  0.0124
  S  S306  1  0.418320  0.972100  0.312480  1.0  0.0167
  S  S307  1  0.407330  0.212000  0.202670  1.0  0.0399
  S  S308  1  0.407170  0.240000  0.354760  1.0  0.0389
  S  S309  1  0.948730  0.766100  0.181420  1.0  0.0814
  S  S310  1  0.947420  0.788500  0.317810  1.0  0.0965
  S  S311  1  0.937530  0.051400  0.303280  1.0  0.0928
  S  S312  1  0.935830  0.028100  0.166850  1.0  0.0739
  S  S313  1  0.917470  0.553900  0.337550  1.0  0.0132
  S  S314  1  0.918320  0.527900  0.187520  1.0  0.0159
  S  S315  1  0.907330  0.288000  0.297330  1.0  0.0371
  S  S316  1  0.907170  0.260000  0.145240  1.0  0.0394
  S  S317  1  0.051270  0.233900  0.181420  1.0  0.0795
  S  S318  1  0.052580  0.211500  0.317810  1.0  0.0943
  S  S319  1  0.062470  0.948600  0.303280  1.0  0.092
  S  S320  1  0.064170  0.971900  0.166850  1.0  0.0752
  S  S321  1  0.082530  0.446100  0.337550  1.0  0.0123
  S  S322  1  0.081680  0.472100  0.187520  1.0  0.0179
  S  S323  1  0.092670  0.712000  0.297330  1.0  0.0403
  S  S324  1  0.092830  0.740000  0.145240  1.0  0.0395
  S  S325  1  0.448730  0.733900  0.681420  1.0  0.0805
  S  S326  1  0.447420  0.711500  0.817810  1.0  0.0959
  S  S327  1  0.437530  0.448600  0.803280  1.0  0.093
  S  S328  1  0.435830  0.471900  0.666850  1.0  0.075
  S  S329  1  0.417470  0.946100  0.837550  1.0  0.0139
  S  S330  1  0.418320  0.972100  0.687520  1.0  0.0175
  S  S331  1  0.407330  0.212000  0.797330  1.0  0.0385
  S  S332  1  0.407170  0.240000  0.645240  1.0  0.0391
  S  S333  1  0.551270  0.266100  0.681420  1.0  0.0806
  S  S334  1  0.552580  0.288500  0.817810  1.0  0.0946
  S  S335  1  0.562470  0.551400  0.803280  1.0  0.0917
  S  S336  1  0.564170  0.528100  0.666850  1.0  0.074
  S  S337  1  0.582530  0.053900  0.837550  1.0  0.0125
  S  S338  1  0.581680  0.027900  0.687520  1.0  0.0167
  S  S339  1  0.592670  0.788000  0.797330  1.0  0.0392
  S  S340  1  0.592830  0.760000  0.645240  1.0  0.0401
  S  S341  1  0.051270  0.233900  0.818580  1.0  0.0792
  S  S342  1  0.052580  0.211500  0.682190  1.0  0.0957
  S  S343  1  0.062470  0.948600  0.696720  1.0  0.0935
  S  S344  1  0.064170  0.971900  0.833150  1.0  0.0746
  S  S345  1  0.082530  0.446100  0.662450  1.0  0.0112
  S  S346  1  0.081680  0.472100  0.812480  1.0  0.0173
  S  S347  1  0.092670  0.712000  0.702670  1.0  0.0424
  S  S348  1  0.092830  0.740000  0.854760  1.0  0.0389
  S  S349  1  0.948730  0.766100  0.818580  1.0  0.0806
  S  S350  1  0.947420  0.788500  0.682190  1.0  0.0951
  S  S351  1  0.937530  0.051400  0.696720  1.0  0.0918
  S  S352  1  0.935830  0.028100  0.833150  1.0  0.0736
  S  S353  1  0.917470  0.553900  0.662450  1.0  0.0129
  S  S354  1  0.918320  0.527900  0.812480  1.0  0.0156
  S  S355  1  0.907330  0.288000  0.702670  1.0  0.0385
  S  S356  1  0.907170  0.260000  0.854760  1.0  0.0398
  S  S357  1  0.496670  0.168700  0.500000  1.0  1.2391
  S  S358  1  0.503330  0.831300  0.500000  1.0  1.239
  S  S359  1  0.003330  0.668700  0.000000  1.0  1.2391
  S  S360  1  0.996670  0.331300  0.000000  1.0  1.2388
  N  N361  1  0.717000  0.012800  0.192100  1.0  -0.4422
  N  N362  1  0.690300  0.266700  0.303600  1.0  -0.4647
  N  N363  1  0.696400  0.548400  0.204100  1.0  -0.4263
  N  N364  1  0.725500  0.794100  0.307600  1.0  -0.4519
  N  N365  1  0.283000  0.987200  0.192100  1.0  -0.4442
  N  N366  1  0.309700  0.733300  0.303600  1.0  -0.4654
  N  N367  1  0.303600  0.451600  0.204100  1.0  -0.428
  N  N368  1  0.274500  0.205900  0.307600  1.0  -0.4499
  N  N369  1  0.783000  0.512800  0.307900  1.0  -0.4441
  N  N370  1  0.809700  0.766700  0.196400  1.0  -0.4664
  N  N371  1  0.803600  0.048400  0.295900  1.0  -0.4248
  N  N372  1  0.774500  0.294100  0.192400  1.0  -0.4523
  N  N373  1  0.217000  0.487200  0.307900  1.0  -0.4439
  N  N374  1  0.190300  0.233300  0.196400  1.0  -0.4667
  N  N375  1  0.196400  0.951600  0.295900  1.0  -0.427
  N  N376  1  0.225500  0.705900  0.192400  1.0  -0.4503
  N  N377  1  0.283000  0.987200  0.807900  1.0  -0.4442
  N  N378  1  0.309700  0.733300  0.696400  1.0  -0.4665
  N  N379  1  0.303600  0.451600  0.795900  1.0  -0.4264
  N  N380  1  0.274500  0.205900  0.692400  1.0  -0.4497
  N  N381  1  0.717000  0.012800  0.807900  1.0  -0.4433
  N  N382  1  0.690300  0.266700  0.696400  1.0  -0.4666
  N  N383  1  0.696400  0.548400  0.795900  1.0  -0.4253
  N  N384  1  0.725500  0.794100  0.692400  1.0  -0.4531
  N  N385  1  0.217000  0.487200  0.692100  1.0  -0.444
  N  N386  1  0.190300  0.233300  0.803600  1.0  -0.4654
  N  N387  1  0.196400  0.951600  0.704100  1.0  -0.4283
  N  N388  1  0.225500  0.705900  0.807600  1.0  -0.4501
  N  N389  1  0.783000  0.512800  0.692100  1.0  -0.4426
  N  N390  1  0.809700  0.766700  0.803600  1.0  -0.4644
  N  N391  1  0.803600  0.048400  0.704100  1.0  -0.4259
  N  N392  1  0.774500  0.294100  0.807600  1.0  -0.4512
  O  O393  1  0.520400  0.131700  0.443600  1.0  -0.7281
  O  O394  1  0.479600  0.868300  0.443600  1.0  -0.7286
  O  O395  1  0.979600  0.631700  0.056400  1.0  -0.7289
  O  O396  1  0.020400  0.368300  0.056400  1.0  -0.7278
  O  O397  1  0.479600  0.868300  0.556400  1.0  -0.729
  O  O398  1  0.520400  0.131700  0.556400  1.0  -0.728
  O  O399  1  0.020400  0.368300  0.943600  1.0  -0.7276
  O  O400  1  0.979600  0.631700  0.943600  1.0  -0.729
  O  O401  1  0.443300  0.162400  0.500000  1.0  -0.5595
  O  O402  1  0.556700  0.837600  0.500000  1.0  -0.5607
  O  O403  1  0.056700  0.662400  0.000000  1.0  -0.5604
  O  O404  1  0.943300  0.337600  0.000000  1.0  -0.5595
  F  F405  1  0.494500  0.362400  0.450000  1.0  -0.168
  F  F406  1  0.505500  0.637600  0.450000  1.0  -0.1675
  F  F407  1  0.005500  0.862400  0.050000  1.0  -0.1721
  F  F408  1  0.994500  0.137600  0.050000  1.0  -0.1733
  F  F409  1  0.505500  0.637600  0.550000  1.0  -0.1721
  F  F410  1  0.494500  0.362400  0.550000  1.0  -0.1732
  F  F411  1  0.994500  0.137600  0.950000  1.0  -0.1686
  F  F412  1  0.005500  0.862400  0.950000  1.0  -0.1669
  F  F413  1  0.560500  0.327900  0.500000  1.0  -0.1786
  F  F414  1  0.439500  0.672100  0.500000  1.0  -0.1802
  F  F415  1  0.939500  0.827900  0.000000  1.0  -0.1793
  F  F416  1  0.060500  0.172100  0.000000  1.0  -0.1799
