# generated using pymatgen
data_CdH68C64S4Br2(NO)4
_symmetry_space_group_name_H-M   'P 1'
_cell_length_a   27.16830000
_cell_length_b   15.38460000
_cell_length_c   19.27130000
_cell_angle_alpha   90.00000000
_cell_angle_beta   98.16200000
_cell_angle_gamma   90.00000000
_symmetry_Int_Tables_number   1
_chemical_formula_structural   CdH68C64S4Br2(NO)4
_chemical_formula_sum   'Cd4 H272 C256 S16 Br8 N16 O16'
_cell_volume   7973.30017719
_cell_formula_units_Z   4
loop_
 _symmetry_equiv_pos_site_id
 _symmetry_equiv_pos_as_xyz
  1  'x, y, z'
loop_
 _atom_site_type_symbol
 _atom_site_label
 _atom_site_symmetry_multiplicity
 _atom_site_fract_x
 _atom_site_fract_y
 _atom_site_fract_z
 _atom_site_occupancy
 _atom_site_charge
  Cd  Cd1  1  0.250000  0.750000  0.500000  1.0  0.7137
  Cd  Cd2  1  0.750000  0.750000  0.000000  1.0  0.7137
  Cd  Cd3  1  0.750000  0.250000  0.500000  1.0  0.7137
  Cd  Cd4  1  0.250000  0.250000  0.000000  1.0  0.7137
  H  H5  1  0.599300  0.689500  0.464500  1.0  0.1017
  H  H6  1  0.595600  0.879200  0.320400  1.0  0.0975
  H  H7  1  0.436000  0.853800  0.363500  1.0  0.11
  H  H8  1  0.440400  0.780700  0.423300  1.0  0.1198
  H  H9  1  0.363000  0.780600  0.458000  1.0  0.1004
  H  H10  1  0.238200  0.750300  0.330300  1.0  0.0834
  H  H11  1  0.280500  0.750800  0.234300  1.0  0.1184
  H  H12  1  0.367800  0.762900  0.251700  1.0  0.1108
  H  H13  1  0.727500  0.761300  0.441300  1.0  0.0971
  H  H14  1  0.690800  0.724500  0.375600  1.0  0.1098
  H  H15  1  0.684400  0.694500  0.453400  1.0  0.0947
  H  H16  1  0.654000  0.946300  0.393700  1.0  0.1064
  H  H17  1  0.678200  0.881700  0.343000  1.0  0.0999
  H  H18  1  0.710000  0.913700  0.414700  1.0  0.1018
  H  H19  1  0.643700  0.797000  0.532200  1.0  0.0911
  H  H20  1  0.639500  0.897500  0.510600  1.0  0.1145
  H  H21  1  0.693000  0.853100  0.529800  1.0  0.1087
  H  H22  1  0.401300  0.387500  0.270200  1.0  0.1082
  H  H23  1  0.403000  0.579000  0.413200  1.0  0.0929
  H  H24  1  0.559400  0.378700  0.385900  1.0  0.1025
  H  H25  1  0.559800  0.448100  0.448000  1.0  0.1031
  H  H26  1  0.636500  0.320700  0.442500  1.0  0.1015
  H  H27  1  0.762600  0.446600  0.444200  1.0  0.0792
  H  H28  1  0.721100  0.566000  0.392600  1.0  0.1222
  H  H29  1  0.633600  0.566600  0.373200  1.0  0.1112
  H  H30  1  0.353400  0.408700  0.447600  1.0  0.103
  H  H31  1  0.349500  0.337100  0.386800  1.0  0.1014
  H  H32  1  0.300100  0.380400  0.407800  1.0  0.0972
  H  H33  1  0.325500  0.368200  0.275000  1.0  0.0915
  H  H34  1  0.315200  0.464000  0.243900  1.0  0.0938
  H  H35  1  0.276100  0.419200  0.287500  1.0  0.0909
  H  H36  1  0.320100  0.591100  0.352100  1.0  0.1012
  H  H37  1  0.323100  0.543500  0.426400  1.0  0.1022
  H  H38  1  0.276100  0.528100  0.367700  1.0  0.1133
  H  H39  1  0.099300  0.189500  0.464500  1.0  0.1017
  H  H40  1  0.095600  0.379200  0.320400  1.0  0.0975
  H  H41  1  0.936000  0.353800  0.363500  1.0  0.11
  H  H42  1  0.940400  0.280700  0.423300  1.0  0.1198
  H  H43  1  0.863000  0.280600  0.458000  1.0  0.1004
  H  H44  1  0.738200  0.250300  0.330300  1.0  0.0834
  H  H45  1  0.780500  0.250800  0.234300  1.0  0.1184
  H  H46  1  0.867800  0.262900  0.251700  1.0  0.1108
  H  H47  1  0.227500  0.261300  0.441300  1.0  0.0971
  H  H48  1  0.190800  0.224500  0.375600  1.0  0.1098
  H  H49  1  0.184400  0.194500  0.453400  1.0  0.0947
  H  H50  1  0.154000  0.446300  0.393700  1.0  0.1064
  H  H51  1  0.178200  0.381700  0.343000  1.0  0.0999
  H  H52  1  0.210000  0.413700  0.414700  1.0  0.1018
  H  H53  1  0.143700  0.297000  0.532200  1.0  0.0911
  H  H54  1  0.139500  0.397500  0.510600  1.0  0.1145
  H  H55  1  0.193000  0.353100  0.529800  1.0  0.1087
  H  H56  1  0.901300  0.887500  0.270200  1.0  0.1082
  H  H57  1  0.903000  0.079000  0.413200  1.0  0.0929
  H  H58  1  0.059400  0.878700  0.385900  1.0  0.1025
  H  H59  1  0.059800  0.948100  0.448000  1.0  0.1031
  H  H60  1  0.136500  0.820700  0.442500  1.0  0.1015
  H  H61  1  0.262600  0.946600  0.444200  1.0  0.0792
  H  H62  1  0.221100  0.066000  0.392600  1.0  0.1222
  H  H63  1  0.133600  0.066600  0.373200  1.0  0.1112
  H  H64  1  0.853400  0.908700  0.447600  1.0  0.103
  H  H65  1  0.849500  0.837100  0.386800  1.0  0.1014
  H  H66  1  0.800100  0.880400  0.407800  1.0  0.0972
  H  H67  1  0.825500  0.868200  0.275000  1.0  0.0915
  H  H68  1  0.815200  0.964000  0.243900  1.0  0.0938
  H  H69  1  0.776100  0.919200  0.287500  1.0  0.0909
  H  H70  1  0.820100  0.091100  0.352100  1.0  0.1012
  H  H71  1  0.823100  0.043500  0.426400  1.0  0.1022
  H  H72  1  0.776100  0.028100  0.367700  1.0  0.1133
  H  H73  1  0.400700  0.689500  0.035500  1.0  0.1014
  H  H74  1  0.404400  0.879200  0.179600  1.0  0.0971
  H  H75  1  0.564000  0.853800  0.136500  1.0  0.1094
  H  H76  1  0.559600  0.780700  0.076700  1.0  0.1196
  H  H77  1  0.637000  0.780600  0.042000  1.0  0.1014
  H  H78  1  0.761800  0.750300  0.169700  1.0  0.0838
  H  H79  1  0.719500  0.750800  0.265700  1.0  0.1184
  H  H80  1  0.632200  0.762900  0.248300  1.0  0.1103
  H  H81  1  0.272500  0.761300  0.058700  1.0  0.0974
  H  H82  1  0.309200  0.724500  0.124400  1.0  0.1106
  H  H83  1  0.315600  0.694500  0.046600  1.0  0.0943
  H  H84  1  0.346000  0.946300  0.106300  1.0  0.1053
  H  H85  1  0.321800  0.881700  0.157000  1.0  0.0994
  H  H86  1  0.290000  0.913700  0.085300  1.0  0.1008
  H  H87  1  0.356300  0.797000  0.967800  1.0  0.0915
  H  H88  1  0.360500  0.897500  0.989400  1.0  0.1151
  H  H89  1  0.307000  0.853100  0.970200  1.0  0.1097
  H  H90  1  0.598700  0.387500  0.229800  1.0  0.1088
  H  H91  1  0.597000  0.579000  0.086800  1.0  0.0938
  H  H92  1  0.440600  0.378700  0.114100  1.0  0.1031
  H  H93  1  0.440200  0.448100  0.052000  1.0  0.1028
  H  H94  1  0.363500  0.320700  0.057500  1.0  0.1018
  H  H95  1  0.237400  0.446600  0.055800  1.0  0.0796
  H  H96  1  0.278900  0.566000  0.107400  1.0  0.123
  H  H97  1  0.366400  0.566600  0.126800  1.0  0.1111
  H  H98  1  0.646600  0.408700  0.052400  1.0  0.1006
  H  H99  1  0.650500  0.337100  0.113200  1.0  0.1016
  H  H100  1  0.699900  0.380400  0.092200  1.0  0.0981
  H  H101  1  0.674500  0.368200  0.225000  1.0  0.0917
  H  H102  1  0.684800  0.464000  0.256100  1.0  0.0942
  H  H103  1  0.723900  0.419200  0.212500  1.0  0.0906
  H  H104  1  0.679900  0.591100  0.147900  1.0  0.1011
  H  H105  1  0.676900  0.543500  0.073600  1.0  0.1016
  H  H106  1  0.723900  0.528100  0.132300  1.0  0.1138
  H  H107  1  0.900700  0.189500  0.035500  1.0  0.1014
  H  H108  1  0.904400  0.379200  0.179600  1.0  0.0971
  H  H109  1  0.064000  0.353800  0.136500  1.0  0.1094
  H  H110  1  0.059600  0.280700  0.076700  1.0  0.1196
  H  H111  1  0.137000  0.280600  0.042000  1.0  0.1014
  H  H112  1  0.261800  0.250300  0.169700  1.0  0.0838
  H  H113  1  0.219500  0.250800  0.265700  1.0  0.1184
  H  H114  1  0.132200  0.262900  0.248300  1.0  0.1103
  H  H115  1  0.772500  0.261300  0.058700  1.0  0.0974
  H  H116  1  0.809200  0.224500  0.124400  1.0  0.1106
  H  H117  1  0.815600  0.194500  0.046600  1.0  0.0943
  H  H118  1  0.846000  0.446300  0.106300  1.0  0.1053
  H  H119  1  0.821800  0.381700  0.157000  1.0  0.0994
  H  H120  1  0.790000  0.413700  0.085300  1.0  0.1008
  H  H121  1  0.856300  0.297000  0.967800  1.0  0.0915
  H  H122  1  0.860500  0.397500  0.989400  1.0  0.1151
  H  H123  1  0.807000  0.353100  0.970200  1.0  0.1097
  H  H124  1  0.098700  0.887500  0.229800  1.0  0.1088
  H  H125  1  0.097000  0.079000  0.086800  1.0  0.0938
  H  H126  1  0.940600  0.878700  0.114100  1.0  0.1031
  H  H127  1  0.940200  0.948100  0.052000  1.0  0.1028
  H  H128  1  0.863500  0.820700  0.057500  1.0  0.1018
  H  H129  1  0.737400  0.946600  0.055800  1.0  0.0796
  H  H130  1  0.778900  0.066000  0.107400  1.0  0.123
  H  H131  1  0.866400  0.066600  0.126800  1.0  0.1111
  H  H132  1  0.146600  0.908700  0.052400  1.0  0.1006
  H  H133  1  0.150500  0.837100  0.113200  1.0  0.1016
  H  H134  1  0.199900  0.880400  0.092200  1.0  0.0981
  H  H135  1  0.174500  0.868200  0.225000  1.0  0.0917
  H  H136  1  0.184800  0.964000  0.256100  1.0  0.0942
  H  H137  1  0.223900  0.919200  0.212500  1.0  0.0906
  H  H138  1  0.179900  0.091100  0.147900  1.0  0.1011
  H  H139  1  0.176900  0.043500  0.073600  1.0  0.1016
  H  H140  1  0.223900  0.028100  0.132300  1.0  0.1138
  H  H141  1  0.400700  0.310500  0.535500  1.0  0.1014
  H  H142  1  0.404400  0.120800  0.679600  1.0  0.0977
  H  H143  1  0.564000  0.146200  0.636500  1.0  0.1084
  H  H144  1  0.559600  0.219300  0.576700  1.0  0.1195
  H  H145  1  0.637000  0.219400  0.542000  1.0  0.1013
  H  H146  1  0.761800  0.249700  0.669700  1.0  0.084
  H  H147  1  0.719500  0.249200  0.765700  1.0  0.118
  H  H148  1  0.632200  0.237100  0.748300  1.0  0.1104
  H  H149  1  0.272500  0.238700  0.558700  1.0  0.0975
  H  H150  1  0.309200  0.275500  0.624400  1.0  0.1106
  H  H151  1  0.315600  0.305500  0.546600  1.0  0.0938
  H  H152  1  0.346000  0.053700  0.606300  1.0  0.1064
  H  H153  1  0.321800  0.118300  0.657000  1.0  0.1003
  H  H154  1  0.290000  0.086300  0.585300  1.0  0.1005
  H  H155  1  0.356300  0.203000  0.467800  1.0  0.0912
  H  H156  1  0.360500  0.102500  0.489400  1.0  0.1133
  H  H157  1  0.307000  0.146900  0.470200  1.0  0.1086
  H  H158  1  0.598700  0.612500  0.729800  1.0  0.1082
  H  H159  1  0.597000  0.421000  0.586800  1.0  0.0936
  H  H160  1  0.440600  0.621300  0.614100  1.0  0.1029
  H  H161  1  0.440200  0.551900  0.552000  1.0  0.1033
  H  H162  1  0.363500  0.679300  0.557500  1.0  0.1016
  H  H163  1  0.237400  0.553400  0.555800  1.0  0.0796
  H  H164  1  0.278900  0.434000  0.607400  1.0  0.1233
  H  H165  1  0.366400  0.433400  0.626800  1.0  0.1115
  H  H166  1  0.646600  0.591300  0.552400  1.0  0.1008
  H  H167  1  0.650500  0.662900  0.613200  1.0  0.1016
  H  H168  1  0.699900  0.619600  0.592200  1.0  0.0985
  H  H169  1  0.674500  0.631800  0.725000  1.0  0.0904
  H  H170  1  0.684800  0.536000  0.756100  1.0  0.0944
  H  H171  1  0.723900  0.580800  0.712500  1.0  0.0906
  H  H172  1  0.679900  0.408900  0.647900  1.0  0.1021
  H  H173  1  0.676900  0.456500  0.573600  1.0  0.1012
  H  H174  1  0.723900  0.471900  0.632300  1.0  0.1139
  H  H175  1  0.900700  0.810500  0.535500  1.0  0.1014
  H  H176  1  0.904400  0.620800  0.679600  1.0  0.0977
  H  H177  1  0.064000  0.646200  0.636500  1.0  0.1084
  H  H178  1  0.059600  0.719300  0.576700  1.0  0.1195
  H  H179  1  0.137000  0.719400  0.542000  1.0  0.1013
  H  H180  1  0.261800  0.749700  0.669700  1.0  0.084
  H  H181  1  0.219500  0.749200  0.765700  1.0  0.118
  H  H182  1  0.132200  0.737100  0.748300  1.0  0.1104
  H  H183  1  0.772500  0.738700  0.558700  1.0  0.0975
  H  H184  1  0.809200  0.775500  0.624400  1.0  0.1106
  H  H185  1  0.815600  0.805500  0.546600  1.0  0.0938
  H  H186  1  0.846000  0.553700  0.606300  1.0  0.1064
  H  H187  1  0.821800  0.618300  0.657000  1.0  0.1003
  H  H188  1  0.790000  0.586300  0.585300  1.0  0.1005
  H  H189  1  0.856300  0.703000  0.467800  1.0  0.0912
  H  H190  1  0.860500  0.602500  0.489400  1.0  0.1133
  H  H191  1  0.807000  0.646900  0.470200  1.0  0.1086
  H  H192  1  0.098700  0.112500  0.729800  1.0  0.1082
  H  H193  1  0.097000  0.921000  0.586800  1.0  0.0936
  H  H194  1  0.940600  0.121300  0.614100  1.0  0.1029
  H  H195  1  0.940200  0.051900  0.552000  1.0  0.1033
  H  H196  1  0.863500  0.179300  0.557500  1.0  0.1016
  H  H197  1  0.737400  0.053400  0.555800  1.0  0.0796
  H  H198  1  0.778900  0.934000  0.607400  1.0  0.1233
  H  H199  1  0.866400  0.933400  0.626800  1.0  0.1115
  H  H200  1  0.146600  0.091300  0.552400  1.0  0.1008
  H  H201  1  0.150500  0.162900  0.613200  1.0  0.1016
  H  H202  1  0.199900  0.119600  0.592200  1.0  0.0985
  H  H203  1  0.174500  0.131800  0.725000  1.0  0.0904
  H  H204  1  0.184800  0.036000  0.756100  1.0  0.0944
  H  H205  1  0.223900  0.080800  0.712500  1.0  0.0906
  H  H206  1  0.179900  0.908900  0.647900  1.0  0.1021
  H  H207  1  0.176900  0.956500  0.573600  1.0  0.1012
  H  H208  1  0.223900  0.971900  0.632300  1.0  0.1139
  H  H209  1  0.599300  0.310500  0.964500  1.0  0.1014
  H  H210  1  0.595600  0.120800  0.820400  1.0  0.0974
  H  H211  1  0.436000  0.146200  0.863500  1.0  0.1074
  H  H212  1  0.440400  0.219300  0.923300  1.0  0.119
  H  H213  1  0.363000  0.219400  0.958000  1.0  0.1008
  H  H214  1  0.238200  0.249700  0.830300  1.0  0.0834
  H  H215  1  0.280500  0.249200  0.734300  1.0  0.1185
  H  H216  1  0.367800  0.237100  0.751700  1.0  0.1105
  H  H217  1  0.727500  0.238700  0.941300  1.0  0.0971
  H  H218  1  0.690800  0.275500  0.875600  1.0  0.1108
  H  H219  1  0.684400  0.305500  0.953400  1.0  0.0939
  H  H220  1  0.654000  0.053700  0.893700  1.0  0.1051
  H  H221  1  0.678200  0.118300  0.843000  1.0  0.1002
  H  H222  1  0.710000  0.086300  0.914700  1.0  0.1017
  H  H223  1  0.643700  0.203000  0.032200  1.0  0.0911
  H  H224  1  0.639500  0.102500  0.010600  1.0  0.1145
  H  H225  1  0.693000  0.146900  0.029800  1.0  0.1101
  H  H226  1  0.401300  0.612500  0.770200  1.0  0.1085
  H  H227  1  0.403000  0.421000  0.913200  1.0  0.0933
  H  H228  1  0.559400  0.621300  0.885900  1.0  0.1035
  H  H229  1  0.559800  0.551900  0.948000  1.0  0.1031
  H  H230  1  0.636500  0.679300  0.942500  1.0  0.1018
  H  H231  1  0.762600  0.553400  0.944200  1.0  0.0792
  H  H232  1  0.721100  0.434000  0.892600  1.0  0.1226
  H  H233  1  0.633600  0.433400  0.873200  1.0  0.111
  H  H234  1  0.353400  0.591300  0.947600  1.0  0.102
  H  H235  1  0.349500  0.662900  0.886800  1.0  0.1021
  H  H236  1  0.300100  0.619600  0.907800  1.0  0.0975
  H  H237  1  0.325500  0.631800  0.775000  1.0  0.0913
  H  H238  1  0.315200  0.536000  0.743900  1.0  0.0933
  H  H239  1  0.276100  0.580800  0.787500  1.0  0.0908
  H  H240  1  0.320100  0.408900  0.852100  1.0  0.1011
  H  H241  1  0.323100  0.456500  0.926400  1.0  0.1025
  H  H242  1  0.276100  0.471900  0.867700  1.0  0.1127
  H  H243  1  0.099300  0.810500  0.964500  1.0  0.1014
  H  H244  1  0.095600  0.620800  0.820400  1.0  0.0974
  H  H245  1  0.936000  0.646200  0.863500  1.0  0.1074
  H  H246  1  0.940400  0.719300  0.923300  1.0  0.119
  H  H247  1  0.863000  0.719400  0.958000  1.0  0.1008
  H  H248  1  0.738200  0.749700  0.830300  1.0  0.0834
  H  H249  1  0.780500  0.749200  0.734300  1.0  0.1185
  H  H250  1  0.867800  0.737100  0.751700  1.0  0.1105
  H  H251  1  0.227500  0.738700  0.941300  1.0  0.0971
  H  H252  1  0.190800  0.775500  0.875600  1.0  0.1108
  H  H253  1  0.184400  0.805500  0.953400  1.0  0.0939
  H  H254  1  0.154000  0.553700  0.893700  1.0  0.1051
  H  H255  1  0.178200  0.618300  0.843000  1.0  0.1002
  H  H256  1  0.210000  0.586300  0.914700  1.0  0.1017
  H  H257  1  0.143700  0.703000  0.032200  1.0  0.0911
  H  H258  1  0.139500  0.602500  0.010600  1.0  0.1145
  H  H259  1  0.193000  0.646900  0.029800  1.0  0.1101
  H  H260  1  0.901300  0.112500  0.770200  1.0  0.1085
  H  H261  1  0.903000  0.921000  0.913200  1.0  0.0933
  H  H262  1  0.059400  0.121300  0.885900  1.0  0.1035
  H  H263  1  0.059800  0.051900  0.948000  1.0  0.1031
  H  H264  1  0.136500  0.179300  0.942500  1.0  0.1018
  H  H265  1  0.262600  0.053400  0.944200  1.0  0.0792
  H  H266  1  0.221100  0.934000  0.892600  1.0  0.1226
  H  H267  1  0.133600  0.933400  0.873200  1.0  0.111
  H  H268  1  0.853400  0.091300  0.947600  1.0  0.102
  H  H269  1  0.849500  0.162900  0.886800  1.0  0.1021
  H  H270  1  0.800100  0.119600  0.907800  1.0  0.0975
  H  H271  1  0.825500  0.131800  0.775000  1.0  0.0913
  H  H272  1  0.815200  0.036000  0.743900  1.0  0.0933
  H  H273  1  0.776100  0.080800  0.787500  1.0  0.0908
  H  H274  1  0.820100  0.908900  0.852100  1.0  0.1011
  H  H275  1  0.823100  0.956500  0.926400  1.0  0.1025
  H  H276  1  0.776100  0.971900  0.867700  1.0  0.1127
  C  C277  1  0.530180  0.813500  0.316300  1.0  -0.0663
  C  C278  1  0.505380  0.749100  0.348700  1.0  0.1963
  C  C279  1  0.532140  0.700800  0.402700  1.0  -0.0654
  C  C280  1  0.581490  0.722600  0.427500  1.0  -0.0737
  C  C281  1  0.605060  0.792100  0.399100  1.0  0.0284
  C  C282  1  0.579430  0.834400  0.342500  1.0  -0.1011
  C  C283  1  0.428880  0.792200  0.373100  1.0  -0.0443
  C  C284  1  0.373730  0.775600  0.357000  1.0  0.0917
  C  C285  1  0.346090  0.774700  0.411600  1.0  0.0966
  C  C286  1  0.273300  0.756800  0.337600  1.0  0.1608
  C  C287  1  0.298200  0.756600  0.280200  1.0  -0.153
  C  C288  1  0.349700  0.764800  0.290400  1.0  -0.0792
  C  C289  1  0.658100  0.818800  0.430500  1.0  0.1217
  C  C290  1  0.693300  0.743000  0.424700  1.0  -0.3701
  C  C291  1  0.676800  0.897300  0.391900  1.0  -0.3853
  C  C292  1  0.658600  0.843900  0.507800  1.0  -0.3709
  C  C293  1  0.471300  0.550600  0.387700  1.0  -0.0593
  C  C294  1  0.496850  0.496700  0.347400  1.0  0.205
  C  C295  1  0.469760  0.436700  0.302100  1.0  -0.0854
  C  C296  1  0.419100  0.428300  0.301200  1.0  -0.1046
  C  C297  1  0.393240  0.478200  0.344600  1.0  0.0017
  C  C298  1  0.420050  0.541200  0.385700  1.0  -0.1149
  C  C299  1  0.570460  0.437600  0.401700  1.0  -0.0201
  C  C300  1  0.626100  0.443100  0.408200  1.0  0.0389
  C  C301  1  0.653730  0.372600  0.434300  1.0  0.1329
  C  C302  1  0.727320  0.444900  0.434000  1.0  0.1692
  C  C303  1  0.702900  0.516800  0.404500  1.0  -0.1479
  C  C304  1  0.651300  0.516800  0.392200  1.0  -0.0266
  C  C305  1  0.337900  0.462400  0.348100  1.0  0.1937
  C  C306  1  0.335000  0.390700  0.402500  1.0  -0.3896
  C  C307  1  0.311500  0.425400  0.283200  1.0  -0.3812
  C  C308  1  0.312100  0.537700  0.376000  1.0  -0.3887
  C  C309  1  0.030180  0.313500  0.316300  1.0  -0.0663
  C  C310  1  0.005380  0.249100  0.348700  1.0  0.1963
  C  C311  1  0.032140  0.200800  0.402700  1.0  -0.0654
  C  C312  1  0.081490  0.222600  0.427500  1.0  -0.0737
  C  C313  1  0.105060  0.292100  0.399100  1.0  0.0284
  C  C314  1  0.079430  0.334400  0.342500  1.0  -0.1011
  C  C315  1  0.928880  0.292200  0.373100  1.0  -0.0443
  C  C316  1  0.873730  0.275600  0.357000  1.0  0.0917
  C  C317  1  0.846090  0.274700  0.411600  1.0  0.0966
  C  C318  1  0.773300  0.256800  0.337600  1.0  0.1608
  C  C319  1  0.798200  0.256600  0.280200  1.0  -0.153
  C  C320  1  0.849700  0.264800  0.290400  1.0  -0.0792
  C  C321  1  0.158100  0.318800  0.430500  1.0  0.1217
  C  C322  1  0.193300  0.243000  0.424700  1.0  -0.3701
  C  C323  1  0.176800  0.397300  0.391900  1.0  -0.3853
  C  C324  1  0.158600  0.343900  0.507800  1.0  -0.3709
  C  C325  1  0.971300  0.050600  0.387700  1.0  -0.0593
  C  C326  1  0.996850  0.996700  0.347400  1.0  0.205
  C  C327  1  0.969760  0.936700  0.302100  1.0  -0.0854
  C  C328  1  0.919100  0.928300  0.301200  1.0  -0.1046
  C  C329  1  0.893240  0.978200  0.344600  1.0  0.0017
  C  C330  1  0.920050  0.041200  0.385700  1.0  -0.1149
  C  C331  1  0.070460  0.937600  0.401700  1.0  -0.0201
  C  C332  1  0.126100  0.943100  0.408200  1.0  0.0389
  C  C333  1  0.153730  0.872600  0.434300  1.0  0.1329
  C  C334  1  0.227320  0.944900  0.434000  1.0  0.1692
  C  C335  1  0.202900  0.016800  0.404500  1.0  -0.1479
  C  C336  1  0.151300  0.016800  0.392200  1.0  -0.0266
  C  C337  1  0.837900  0.962400  0.348100  1.0  0.1937
  C  C338  1  0.835000  0.890700  0.402500  1.0  -0.3896
  C  C339  1  0.811500  0.925400  0.283200  1.0  -0.3812
  C  C340  1  0.812100  0.037700  0.376000  1.0  -0.3887
  C  C341  1  0.469820  0.813500  0.183700  1.0  -0.0645
  C  C342  1  0.494620  0.749100  0.151300  1.0  0.197
  C  C343  1  0.467860  0.700800  0.097300  1.0  -0.0661
  C  C344  1  0.418510  0.722600  0.072500  1.0  -0.073
  C  C345  1  0.394940  0.792100  0.100900  1.0  0.031
  C  C346  1  0.420570  0.834400  0.157500  1.0  -0.101
  C  C347  1  0.571120  0.792200  0.126900  1.0  -0.0432
  C  C348  1  0.626270  0.775600  0.143000  1.0  0.0902
  C  C349  1  0.653910  0.774700  0.088400  1.0  0.096
  C  C350  1  0.726700  0.756800  0.162400  1.0  0.1603
  C  C351  1  0.701800  0.756600  0.219800  1.0  -0.1533
  C  C352  1  0.650300  0.764800  0.209600  1.0  -0.079
  C  C353  1  0.341900  0.818800  0.069500  1.0  0.1221
  C  C354  1  0.306700  0.743000  0.075300  1.0  -0.3699
  C  C355  1  0.323200  0.897300  0.108100  1.0  -0.3826
  C  C356  1  0.341400  0.843900  0.992200  1.0  -0.372
  C  C357  1  0.528700  0.550600  0.112300  1.0  -0.0584
  C  C358  1  0.503150  0.496700  0.152600  1.0  0.2052
  C  C359  1  0.530240  0.436700  0.197900  1.0  -0.0856
  C  C360  1  0.580900  0.428300  0.198800  1.0  -0.1045
  C  C361  1  0.606760  0.478200  0.155400  1.0  0.0009
  C  C362  1  0.579950  0.541200  0.114300  1.0  -0.1137
  C  C363  1  0.429540  0.437600  0.098300  1.0  -0.0192
  C  C364  1  0.373900  0.443100  0.091800  1.0  0.041
  C  C365  1  0.346270  0.372600  0.065700  1.0  0.1336
  C  C366  1  0.272680  0.444900  0.066000  1.0  0.1696
  C  C367  1  0.297100  0.516800  0.095500  1.0  -0.1493
  C  C368  1  0.348700  0.516800  0.107800  1.0  -0.0267
  C  C369  1  0.662100  0.462400  0.151900  1.0  0.1944
  C  C370  1  0.665000  0.390700  0.097500  1.0  -0.3907
  C  C371  1  0.688500  0.425400  0.216800  1.0  -0.3812
  C  C372  1  0.687900  0.537700  0.124000  1.0  -0.3885
  C  C373  1  0.969820  0.313500  0.183700  1.0  -0.0645
  C  C374  1  0.994620  0.249100  0.151300  1.0  0.197
  C  C375  1  0.967860  0.200800  0.097300  1.0  -0.0661
  C  C376  1  0.918510  0.222600  0.072500  1.0  -0.073
  C  C377  1  0.894940  0.292100  0.100900  1.0  0.031
  C  C378  1  0.920570  0.334400  0.157500  1.0  -0.101
  C  C379  1  0.071120  0.292200  0.126900  1.0  -0.0432
  C  C380  1  0.126270  0.275600  0.143000  1.0  0.0902
  C  C381  1  0.153910  0.274700  0.088400  1.0  0.096
  C  C382  1  0.226700  0.256800  0.162400  1.0  0.1603
  C  C383  1  0.201800  0.256600  0.219800  1.0  -0.1533
  C  C384  1  0.150300  0.264800  0.209600  1.0  -0.079
  C  C385  1  0.841900  0.318800  0.069500  1.0  0.1221
  C  C386  1  0.806700  0.243000  0.075300  1.0  -0.3699
  C  C387  1  0.823200  0.397300  0.108100  1.0  -0.3826
  C  C388  1  0.841400  0.343900  0.992200  1.0  -0.372
  C  C389  1  0.028700  0.050600  0.112300  1.0  -0.0584
  C  C390  1  0.003150  0.996700  0.152600  1.0  0.2052
  C  C391  1  0.030240  0.936700  0.197900  1.0  -0.0856
  C  C392  1  0.080900  0.928300  0.198800  1.0  -0.1045
  C  C393  1  0.106760  0.978200  0.155400  1.0  0.0009
  C  C394  1  0.079950  0.041200  0.114300  1.0  -0.1137
  C  C395  1  0.929540  0.937600  0.098300  1.0  -0.0192
  C  C396  1  0.873900  0.943100  0.091800  1.0  0.041
  C  C397  1  0.846270  0.872600  0.065700  1.0  0.1336
  C  C398  1  0.772680  0.944900  0.066000  1.0  0.1696
  C  C399  1  0.797100  0.016800  0.095500  1.0  -0.1493
  C  C400  1  0.848700  0.016800  0.107800  1.0  -0.0267
  C  C401  1  0.162100  0.962400  0.151900  1.0  0.1944
  C  C402  1  0.165000  0.890700  0.097500  1.0  -0.3907
  C  C403  1  0.188500  0.925400  0.216800  1.0  -0.3812
  C  C404  1  0.187900  0.037700  0.124000  1.0  -0.3885
  C  C405  1  0.469820  0.186500  0.683700  1.0  -0.0649
  C  C406  1  0.494620  0.250900  0.651300  1.0  0.1968
  C  C407  1  0.467860  0.299200  0.597300  1.0  -0.0657
  C  C408  1  0.418510  0.277400  0.572500  1.0  -0.0732
  C  C409  1  0.394940  0.207900  0.600900  1.0  0.0316
  C  C410  1  0.420570  0.165600  0.657500  1.0  -0.1014
  C  C411  1  0.571120  0.207800  0.626900  1.0  -0.043
  C  C412  1  0.626270  0.224400  0.643000  1.0  0.0908
  C  C413  1  0.653910  0.225300  0.588400  1.0  0.0988
  C  C414  1  0.726700  0.243200  0.662400  1.0  0.1603
  C  C415  1  0.701800  0.243400  0.719800  1.0  -0.1534
  C  C416  1  0.650300  0.235200  0.709600  1.0  -0.0787
  C  C417  1  0.341900  0.181200  0.569500  1.0  0.123
  C  C418  1  0.306700  0.257000  0.575300  1.0  -0.3702
  C  C419  1  0.323200  0.102700  0.608100  1.0  -0.3815
  C  C420  1  0.341400  0.156100  0.492200  1.0  -0.3704
  C  C421  1  0.528700  0.449400  0.612300  1.0  -0.058
  C  C422  1  0.503150  0.503300  0.652600  1.0  0.2043
  C  C423  1  0.530240  0.563300  0.697900  1.0  -0.0835
  C  C424  1  0.580900  0.571700  0.698800  1.0  -0.1046
  C  C425  1  0.606760  0.521800  0.655400  1.0  0.0007
  C  C426  1  0.579950  0.458800  0.614300  1.0  -0.1148
  C  C427  1  0.429540  0.562400  0.598300  1.0  -0.0187
  C  C428  1  0.373900  0.556900  0.591800  1.0  0.0417
  C  C429  1  0.346270  0.627400  0.565700  1.0  0.1335
  C  C430  1  0.272680  0.555100  0.566000  1.0  0.1693
  C  C431  1  0.297100  0.483200  0.595500  1.0  -0.149
  C  C432  1  0.348700  0.483200  0.607800  1.0  -0.0271
  C  C433  1  0.662100  0.537600  0.651900  1.0  0.1944
  C  C434  1  0.665000  0.609300  0.597500  1.0  -0.3908
  C  C435  1  0.688500  0.574600  0.716800  1.0  -0.3814
  C  C436  1  0.687900  0.462300  0.624000  1.0  -0.3889
  C  C437  1  0.969820  0.686500  0.683700  1.0  -0.0649
  C  C438  1  0.994620  0.750900  0.651300  1.0  0.1968
  C  C439  1  0.967860  0.799200  0.597300  1.0  -0.0657
  C  C440  1  0.918510  0.777400  0.572500  1.0  -0.0732
  C  C441  1  0.894940  0.707900  0.600900  1.0  0.0316
  C  C442  1  0.920570  0.665600  0.657500  1.0  -0.1014
  C  C443  1  0.071120  0.707800  0.626900  1.0  -0.043
  C  C444  1  0.126270  0.724400  0.643000  1.0  0.0908
  C  C445  1  0.153910  0.725300  0.588400  1.0  0.0988
  C  C446  1  0.226700  0.743200  0.662400  1.0  0.1603
  C  C447  1  0.201800  0.743400  0.719800  1.0  -0.1534
  C  C448  1  0.150300  0.735200  0.709600  1.0  -0.0787
  C  C449  1  0.841900  0.681200  0.569500  1.0  0.123
  C  C450  1  0.806700  0.757000  0.575300  1.0  -0.3702
  C  C451  1  0.823200  0.602700  0.608100  1.0  -0.3815
  C  C452  1  0.841400  0.656100  0.492200  1.0  -0.3704
  C  C453  1  0.028700  0.949400  0.612300  1.0  -0.058
  C  C454  1  0.003150  0.003300  0.652600  1.0  0.2043
  C  C455  1  0.030240  0.063300  0.697900  1.0  -0.0835
  C  C456  1  0.080900  0.071700  0.698800  1.0  -0.1046
  C  C457  1  0.106760  0.021800  0.655400  1.0  0.0007
  C  C458  1  0.079950  0.958800  0.614300  1.0  -0.1148
  C  C459  1  0.929540  0.062400  0.598300  1.0  -0.0187
  C  C460  1  0.873900  0.056900  0.591800  1.0  0.0417
  C  C461  1  0.846270  0.127400  0.565700  1.0  0.1335
  C  C462  1  0.772680  0.055100  0.566000  1.0  0.1693
  C  C463  1  0.797100  0.983200  0.595500  1.0  -0.149
  C  C464  1  0.848700  0.983200  0.607800  1.0  -0.0271
  C  C465  1  0.162100  0.037600  0.651900  1.0  0.1944
  C  C466  1  0.165000  0.109300  0.597500  1.0  -0.3908
  C  C467  1  0.188500  0.074600  0.716800  1.0  -0.3814
  C  C468  1  0.187900  0.962300  0.624000  1.0  -0.3889
  C  C469  1  0.530180  0.186500  0.816300  1.0  -0.0661
  C  C470  1  0.505380  0.250900  0.848700  1.0  0.1962
  C  C471  1  0.532140  0.299200  0.902700  1.0  -0.0652
  C  C472  1  0.581490  0.277400  0.927500  1.0  -0.0736
  C  C473  1  0.605060  0.207900  0.899100  1.0  0.0294
  C  C474  1  0.579430  0.165600  0.842500  1.0  -0.1022
  C  C475  1  0.428880  0.207800  0.873100  1.0  -0.0432
  C  C476  1  0.373730  0.224400  0.857000  1.0  0.0916
  C  C477  1  0.346090  0.225300  0.911600  1.0  0.0985
  C  C478  1  0.273300  0.243200  0.837600  1.0  0.1608
  C  C479  1  0.298200  0.243400  0.780200  1.0  -0.1528
  C  C480  1  0.349700  0.235200  0.790400  1.0  -0.0791
  C  C481  1  0.658100  0.181200  0.930500  1.0  0.1224
  C  C482  1  0.693300  0.257000  0.924700  1.0  -0.37
  C  C483  1  0.676800  0.102700  0.891900  1.0  -0.3847
  C  C484  1  0.658600  0.156100  0.007800  1.0  -0.3705
  C  C485  1  0.471300  0.449400  0.887700  1.0  -0.0585
  C  C486  1  0.496850  0.503300  0.847400  1.0  0.2041
  C  C487  1  0.469760  0.563300  0.802100  1.0  -0.0836
  C  C488  1  0.419100  0.571700  0.801200  1.0  -0.1055
  C  C489  1  0.393240  0.521800  0.844600  1.0  0.0019
  C  C490  1  0.420050  0.458800  0.885700  1.0  -0.1153
  C  C491  1  0.570460  0.562400  0.901700  1.0  -0.0192
  C  C492  1  0.626100  0.556900  0.908200  1.0  0.0395
  C  C493  1  0.653730  0.627400  0.934300  1.0  0.1312
  C  C494  1  0.727320  0.555100  0.934000  1.0  0.1695
  C  C495  1  0.702900  0.483200  0.904500  1.0  -0.1481
  C  C496  1  0.651300  0.483200  0.892200  1.0  -0.0265
  C  C497  1  0.337900  0.537600  0.848100  1.0  0.1938
  C  C498  1  0.335000  0.609300  0.902500  1.0  -0.3904
  C  C499  1  0.311500  0.574600  0.783200  1.0  -0.3812
  C  C500  1  0.312100  0.462300  0.876000  1.0  -0.3891
  C  C501  1  0.030180  0.686500  0.816300  1.0  -0.0661
  C  C502  1  0.005380  0.750900  0.848700  1.0  0.1962
  C  C503  1  0.032140  0.799200  0.902700  1.0  -0.0652
  C  C504  1  0.081490  0.777400  0.927500  1.0  -0.0736
  C  C505  1  0.105060  0.707900  0.899100  1.0  0.0294
  C  C506  1  0.079430  0.665600  0.842500  1.0  -0.1022
  C  C507  1  0.928880  0.707800  0.873100  1.0  -0.0432
  C  C508  1  0.873730  0.724400  0.857000  1.0  0.0916
  C  C509  1  0.846090  0.725300  0.911600  1.0  0.0985
  C  C510  1  0.773300  0.743200  0.837600  1.0  0.1608
  C  C511  1  0.798200  0.743400  0.780200  1.0  -0.1528
  C  C512  1  0.849700  0.735200  0.790400  1.0  -0.0791
  C  C513  1  0.158100  0.681200  0.930500  1.0  0.1224
  C  C514  1  0.193300  0.757000  0.924700  1.0  -0.37
  C  C515  1  0.176800  0.602700  0.891900  1.0  -0.3847
  C  C516  1  0.158600  0.656100  0.007800  1.0  -0.3705
  C  C517  1  0.971300  0.949400  0.887700  1.0  -0.0585
  C  C518  1  0.996850  0.003300  0.847400  1.0  0.2041
  C  C519  1  0.969760  0.063300  0.802100  1.0  -0.0836
  C  C520  1  0.919100  0.071700  0.801200  1.0  -0.1055
  C  C521  1  0.893240  0.021800  0.844600  1.0  0.0019
  C  C522  1  0.920050  0.958800  0.885700  1.0  -0.1153
  C  C523  1  0.070460  0.062400  0.901700  1.0  -0.0192
  C  C524  1  0.126100  0.056900  0.908200  1.0  0.0395
  C  C525  1  0.153730  0.127400  0.934300  1.0  0.1312
  C  C526  1  0.227320  0.055100  0.934000  1.0  0.1695
  C  C527  1  0.202900  0.983200  0.904500  1.0  -0.1481
  C  C528  1  0.151300  0.983200  0.892200  1.0  -0.0265
  C  C529  1  0.837900  0.037600  0.848100  1.0  0.1938
  C  C530  1  0.835000  0.109300  0.902500  1.0  -0.3904
  C  C531  1  0.811500  0.074600  0.783200  1.0  -0.3812
  C  C532  1  0.812100  0.962300  0.876000  1.0  -0.3891
  S  S533  1  0.503670  0.621850  0.451090  1.0  -0.0315
  S  S534  1  0.003670  0.121850  0.451090  1.0  -0.0315
  S  S535  1  0.496330  0.621850  0.048910  1.0  -0.0291
  S  S536  1  0.996330  0.121850  0.048910  1.0  -0.0291
  S  S537  1  0.496330  0.378150  0.548910  1.0  -0.0294
  S  S538  1  0.996330  0.878150  0.548910  1.0  -0.0294
  S  S539  1  0.503670  0.378150  0.951090  1.0  -0.0317
  S  S540  1  0.003670  0.878150  0.951090  1.0  -0.0317
  S  S541  1  0.500000  0.882480  0.250000  1.0  -0.0308
  S  S542  1  0.500000  0.364290  0.250000  1.0  -0.0139
  S  S543  1  0.000000  0.382480  0.250000  1.0  -0.0308
  S  S544  1  0.000000  0.864290  0.250000  1.0  -0.0139
  S  S545  1  0.500000  0.117520  0.750000  1.0  -0.0275
  S  S546  1  0.500000  0.635710  0.750000  1.0  -0.0109
  S  S547  1  0.000000  0.617520  0.750000  1.0  -0.0275
  S  S548  1  0.000000  0.135710  0.750000  1.0  -0.0109
  Br  Br549  1  0.183880  0.643760  0.423360  1.0  -0.4488
  Br  Br550  1  0.683880  0.143760  0.423360  1.0  -0.4488
  Br  Br551  1  0.816120  0.643760  0.076640  1.0  -0.4482
  Br  Br552  1  0.316120  0.143760  0.076640  1.0  -0.4482
  Br  Br553  1  0.816120  0.356240  0.576640  1.0  -0.4478
  Br  Br554  1  0.316120  0.856240  0.576640  1.0  -0.4478
  Br  Br555  1  0.183880  0.356240  0.923360  1.0  -0.4489
  Br  Br556  1  0.683880  0.856240  0.923360  1.0  -0.4489
  N  N557  1  0.296270  0.765700  0.402700  1.0  -0.3579
  N  N558  1  0.703760  0.372400  0.449100  1.0  -0.3604
  N  N559  1  0.796270  0.265700  0.402700  1.0  -0.3579
  N  N560  1  0.203760  0.872400  0.449100  1.0  -0.3604
  N  N561  1  0.703730  0.765700  0.097300  1.0  -0.3563
  N  N562  1  0.296240  0.372400  0.050900  1.0  -0.363
  N  N563  1  0.203730  0.265700  0.097300  1.0  -0.3563
  N  N564  1  0.796240  0.872400  0.050900  1.0  -0.363
  N  N565  1  0.703730  0.234300  0.597300  1.0  -0.357
  N  N566  1  0.296240  0.627600  0.550900  1.0  -0.3619
  N  N567  1  0.203730  0.734300  0.597300  1.0  -0.357
  N  N568  1  0.796240  0.127600  0.550900  1.0  -0.3619
  N  N569  1  0.296270  0.234300  0.902700  1.0  -0.3582
  N  N570  1  0.703760  0.627600  0.949100  1.0  -0.3608
  N  N571  1  0.796270  0.734300  0.902700  1.0  -0.3582
  N  N572  1  0.203760  0.127600  0.949100  1.0  -0.3608
  O  O573  1  0.455090  0.735900  0.329900  1.0  -0.3079
  O  O574  1  0.548030  0.500900  0.352300  1.0  -0.329
  O  O575  1  0.955090  0.235900  0.329900  1.0  -0.3079
  O  O576  1  0.048030  0.000900  0.352300  1.0  -0.329
  O  O577  1  0.544910  0.735900  0.170100  1.0  -0.3089
  O  O578  1  0.451970  0.500900  0.147700  1.0  -0.328
  O  O579  1  0.044910  0.235900  0.170100  1.0  -0.3089
  O  O580  1  0.951970  0.000900  0.147700  1.0  -0.328
  O  O581  1  0.544910  0.264100  0.670100  1.0  -0.3081
  O  O582  1  0.451970  0.499100  0.647700  1.0  -0.3285
  O  O583  1  0.044910  0.764100  0.670100  1.0  -0.3081
  O  O584  1  0.951970  0.999100  0.647700  1.0  -0.3285
  O  O585  1  0.455090  0.264100  0.829900  1.0  -0.3069
  O  O586  1  0.548030  0.499100  0.852300  1.0  -0.3285
  O  O587  1  0.955090  0.764100  0.829900  1.0  -0.3069
  O  O588  1  0.048030  0.999100  0.852300  1.0  -0.3285
