# generated using pymatgen
data_Zn2PH13C21O8
_symmetry_space_group_name_H-M   'P 1'
_cell_length_a   13.71000000
_cell_length_b   14.75300000
_cell_length_c   20.02700000
_cell_angle_alpha   90.00000000
_cell_angle_beta   107.96900000
_cell_angle_gamma   90.00000000
_symmetry_Int_Tables_number   1
_chemical_formula_structural   Zn2PH13C21O8
_chemical_formula_sum   'Zn8 P4 H52 C84 O32'
_cell_volume   3853.15339390
_cell_formula_units_Z   4
loop_
 _symmetry_equiv_pos_site_id
 _symmetry_equiv_pos_as_xyz
  1  'x, y, z'
loop_
 _atom_site_type_symbol
 _atom_site_label
 _atom_site_symmetry_multiplicity
 _atom_site_fract_x
 _atom_site_fract_y
 _atom_site_fract_z
 _atom_site_occupancy
 _atom_site_charge
  Zn  Zn1  1  0.401550  0.974800  0.437870  1.0  1.1089
  Zn  Zn2  1  0.648380  0.901110  0.447150  1.0  1.0905
  Zn  Zn3  1  0.598450  0.474800  0.062130  1.0  1.1109
  Zn  Zn4  1  0.351620  0.401110  0.052850  1.0  1.09
  Zn  Zn5  1  0.598450  0.025200  0.562130  1.0  1.1104
  Zn  Zn6  1  0.351620  0.098890  0.552850  1.0  1.0915
  Zn  Zn7  1  0.401550  0.525200  0.937870  1.0  1.1122
  Zn  Zn8  1  0.648380  0.598890  0.947150  1.0  1.093
  P  P9  1  0.724260  0.973410  0.304000  1.0  1.1611
  P  P10  1  0.275740  0.473410  0.196000  1.0  1.1561
  P  P11  1  0.275740  0.026590  0.696000  1.0  1.156
  P  P12  1  0.724260  0.526590  0.804000  1.0  1.161
  H  H13  1  0.461700  0.175500  0.181900  1.0  0.1012
  H  H14  1  0.739800  0.244800  0.173200  1.0  0.1007
  H  H15  1  0.567000  0.051300  0.435000  1.0  0.4234
  H  H16  1  0.532200  0.051700  0.249300  1.0  0.1053
  H  H17  1  0.665200  0.792700  0.305400  1.0  0.1019
  H  H18  1  0.853300  0.086200  0.407000  1.0  0.0986
  H  H19  1  0.025900  0.100300  0.461800  1.0  0.1051
  H  H20  1  0.809200  0.120800  0.240600  1.0  0.0936
  H  H21  1  0.733300  0.946600  0.162800  1.0  0.1083
  H  H22  1  0.633300  0.671900  0.228000  1.0  0.0967
  H  H23  1  0.700600  0.825400  0.085500  1.0  0.1022
  H  H24  1  0.079600  0.894500  0.349400  1.0  0.1001
  H  H25  1  0.906300  0.882100  0.291300  1.0  0.0956
  H  H26  1  0.538300  0.675500  0.318100  1.0  0.1007
  H  H27  1  0.260200  0.744800  0.326800  1.0  0.1007
  H  H28  1  0.433000  0.551300  0.065000  1.0  0.4211
  H  H29  1  0.467800  0.551700  0.250700  1.0  0.1048
  H  H30  1  0.334800  0.292700  0.194600  1.0  0.102
  H  H31  1  0.146700  0.586200  0.093000  1.0  0.0987
  H  H32  1  0.974100  0.600300  0.038200  1.0  0.1061
  H  H33  1  0.190800  0.620800  0.259400  1.0  0.0925
  H  H34  1  0.266700  0.446600  0.337200  1.0  0.107
  H  H35  1  0.366700  0.171900  0.272000  1.0  0.096
  H  H36  1  0.299400  0.325400  0.414500  1.0  0.1024
  H  H37  1  0.920400  0.394500  0.150600  1.0  0.0999
  H  H38  1  0.093700  0.382100  0.208700  1.0  0.0955
  H  H39  1  0.538300  0.824500  0.818100  1.0  0.1006
  H  H40  1  0.260200  0.755200  0.826800  1.0  0.1011
  H  H41  1  0.433000  0.948700  0.565000  1.0  0.4211
  H  H42  1  0.467800  0.948300  0.750700  1.0  0.1052
  H  H43  1  0.334800  0.207300  0.694600  1.0  0.1017
  H  H44  1  0.146700  0.913800  0.593000  1.0  0.0997
  H  H45  1  0.974100  0.899700  0.538200  1.0  0.1051
  H  H46  1  0.190800  0.879200  0.759400  1.0  0.092
  H  H47  1  0.266700  0.053400  0.837200  1.0  0.1082
  H  H48  1  0.366700  0.328100  0.772000  1.0  0.0965
  H  H49  1  0.299400  0.174600  0.914500  1.0  0.1027
  H  H50  1  0.920400  0.105500  0.650600  1.0  0.1001
  H  H51  1  0.093700  0.117900  0.708700  1.0  0.0957
  H  H52  1  0.461700  0.324500  0.681900  1.0  0.1012
  H  H53  1  0.739800  0.255200  0.673200  1.0  0.1006
  H  H54  1  0.567000  0.448700  0.935000  1.0  0.4227
  H  H55  1  0.532200  0.448300  0.749300  1.0  0.1049
  H  H56  1  0.665200  0.707300  0.805400  1.0  0.1019
  H  H57  1  0.853300  0.413800  0.907000  1.0  0.0995
  H  H58  1  0.025900  0.399700  0.961800  1.0  0.1057
  H  H59  1  0.809200  0.379200  0.740600  1.0  0.0936
  H  H60  1  0.733300  0.553400  0.662800  1.0  0.1072
  H  H61  1  0.633300  0.828100  0.728000  1.0  0.0968
  H  H62  1  0.700600  0.674600  0.585500  1.0  0.102
  H  H63  1  0.079600  0.605500  0.849400  1.0  0.1003
  H  H64  1  0.906300  0.617900  0.791300  1.0  0.0961
  C  C65  1  0.701160  0.881590  0.241570  1.0  -0.1874
  C  C66  1  0.860400  0.983470  0.342540  1.0  -0.2901
  C  C67  1  0.678400  0.074580  0.253630  1.0  -0.1928
  C  C68  1  0.593900  0.224730  0.170970  1.0  -0.1288
  C  C69  1  0.546900  0.305100  0.127090  1.0  0.7259
  C  C70  1  0.531900  0.165200  0.194000  1.0  -0.0548
  C  C71  1  0.697500  0.206500  0.188800  1.0  -0.0415
  C  C72  1  0.071000  0.998500  0.410640  1.0  -0.1199
  C  C73  1  0.574400  0.091100  0.234500  1.0  -0.0378
  C  C74  1  0.185400  0.007600  0.446940  1.0  0.6765
  C  C75  1  0.672200  0.800000  0.260990  1.0  -0.0749
  C  C76  1  0.898600  0.047800  0.394500  1.0  -0.0402
  C  C77  1  0.001900  0.056000  0.427650  1.0  -0.0441
  C  C78  1  0.739300  0.132200  0.229400  1.0  -0.047
  C  C79  1  0.712600  0.891300  0.176120  1.0  -0.0515
  C  C80  1  0.653100  0.727400  0.214370  1.0  -0.0256
  C  C81  1  0.693100  0.818400  0.129840  1.0  -0.065
  C  C82  1  0.034100  0.934000  0.360600  1.0  -0.0444
  C  C83  1  0.929800  0.926000  0.325800  1.0  -0.0491
  C  C84  1  0.662900  0.736700  0.148800  1.0  -0.1372
  C  C85  1  0.640500  0.657300  0.098950  1.0  0.6969
  C  C86  1  0.298840  0.381590  0.258430  1.0  -0.1869
  C  C87  1  0.139600  0.483470  0.157460  1.0  -0.29
  C  C88  1  0.321600  0.574580  0.246370  1.0  -0.1921
  C  C89  1  0.406100  0.724730  0.329030  1.0  -0.1306
  C  C90  1  0.453100  0.805100  0.372910  1.0  0.7251
  C  C91  1  0.468100  0.665200  0.306000  1.0  -0.0537
  C  C92  1  0.302500  0.706500  0.311200  1.0  -0.0419
  C  C93  1  0.929000  0.498500  0.089360  1.0  -0.1203
  C  C94  1  0.425600  0.591100  0.265500  1.0  -0.0383
  C  C95  1  0.814600  0.507600  0.053060  1.0  0.6767
  C  C96  1  0.327800  0.300000  0.239010  1.0  -0.0733
  C  C97  1  0.101400  0.547800  0.105500  1.0  -0.0402
  C  C98  1  0.998100  0.556000  0.072350  1.0  -0.0439
  C  C99  1  0.260700  0.632200  0.270600  1.0  -0.0481
  C  C100  1  0.287400  0.391300  0.323880  1.0  -0.0522
  C  C101  1  0.346900  0.227400  0.285630  1.0  -0.0256
  C  C102  1  0.306900  0.318400  0.370160  1.0  -0.0614
  C  C103  1  0.965900  0.434000  0.139400  1.0  -0.043
  C  C104  1  0.070200  0.426000  0.174200  1.0  -0.0483
  C  C105  1  0.337100  0.236700  0.351200  1.0  -0.1369
  C  C106  1  0.359500  0.157300  0.401050  1.0  0.6966
  C  C107  1  0.298840  0.118410  0.758430  1.0  -0.1878
  C  C108  1  0.139600  0.016530  0.657460  1.0  -0.2897
  C  C109  1  0.321600  0.925420  0.746370  1.0  -0.1915
  C  C110  1  0.406100  0.775270  0.829030  1.0  -0.1313
  C  C111  1  0.453100  0.694900  0.872910  1.0  0.7244
  C  C112  1  0.468100  0.834800  0.806000  1.0  -0.0533
  C  C113  1  0.302500  0.793500  0.811200  1.0  -0.0414
  C  C114  1  0.929000  0.001500  0.589360  1.0  -0.1204
  C  C115  1  0.425600  0.908900  0.765500  1.0  -0.0381
  C  C116  1  0.814600  0.992400  0.553060  1.0  0.6767
  C  C117  1  0.327800  0.200000  0.739010  1.0  -0.0734
  C  C118  1  0.101400  0.952200  0.605500  1.0  -0.0399
  C  C119  1  0.998100  0.944000  0.572350  1.0  -0.0429
  C  C120  1  0.260700  0.867800  0.770600  1.0  -0.048
  C  C121  1  0.287400  0.108700  0.823880  1.0  -0.0508
  C  C122  1  0.346900  0.272600  0.785630  1.0  -0.0261
  C  C123  1  0.306900  0.181600  0.870160  1.0  -0.0617
  C  C124  1  0.965900  0.066000  0.639400  1.0  -0.0433
  C  C125  1  0.070200  0.074000  0.674200  1.0  -0.0488
  C  C126  1  0.337100  0.263300  0.851200  1.0  -0.1377
  C  C127  1  0.359500  0.342700  0.901050  1.0  0.6966
  C  C128  1  0.701160  0.618410  0.741570  1.0  -0.1883
  C  C129  1  0.860400  0.516530  0.842540  1.0  -0.2898
  C  C130  1  0.678400  0.425420  0.753630  1.0  -0.1925
  C  C131  1  0.593900  0.275270  0.670970  1.0  -0.1304
  C  C132  1  0.546900  0.194900  0.627090  1.0  0.7257
  C  C133  1  0.531900  0.334800  0.694000  1.0  -0.0546
  C  C134  1  0.697500  0.293500  0.688800  1.0  -0.042
  C  C135  1  0.071000  0.501500  0.910640  1.0  -0.1198
  C  C136  1  0.574400  0.408900  0.734500  1.0  -0.0377
  C  C137  1  0.185400  0.492400  0.946940  1.0  0.6764
  C  C138  1  0.672200  0.700000  0.760990  1.0  -0.0749
  C  C139  1  0.898600  0.452200  0.894500  1.0  -0.0392
  C  C140  1  0.001900  0.444000  0.927650  1.0  -0.0439
  C  C141  1  0.739300  0.367800  0.729400  1.0  -0.0478
  C  C142  1  0.712600  0.608700  0.676120  1.0  -0.051
  C  C143  1  0.653100  0.772600  0.714370  1.0  -0.0258
  C  C144  1  0.693100  0.681600  0.629840  1.0  -0.0642
  C  C145  1  0.034100  0.566000  0.860600  1.0  -0.0434
  C  C146  1  0.929800  0.574000  0.825800  1.0  -0.0493
  C  C147  1  0.662900  0.763300  0.648800  1.0  -0.1366
  C  C148  1  0.640500  0.842700  0.598950  1.0  0.697
  O  O149  1  0.670010  0.959210  0.357100  1.0  -0.7819
  O  O150  1  0.451820  0.314150  0.113010  1.0  -0.6059
  O  O151  1  0.210720  0.067650  0.493700  1.0  -0.6101
  O  O152  1  0.636420  0.580860  0.125360  1.0  -0.5825
  O  O153  1  0.607180  0.356720  0.108740  1.0  -0.6341
  O  O154  1  0.243590  0.955820  0.428230  1.0  -0.6017
  O  O155  1  0.628400  0.672180  0.035970  1.0  -0.6293
  O  O156  1  0.560040  0.005250  0.458580  1.0  -1.015
  O  O157  1  0.329990  0.459210  0.142900  1.0  -0.7806
  O  O158  1  0.548180  0.814150  0.386990  1.0  -0.6065
  O  O159  1  0.789280  0.567650  0.006300  1.0  -0.6093
  O  O160  1  0.363580  0.080860  0.374640  1.0  -0.5823
  O  O161  1  0.392820  0.856720  0.391260  1.0  -0.6348
  O  O162  1  0.756410  0.455820  0.071770  1.0  -0.6006
  O  O163  1  0.371600  0.172180  0.464030  1.0  -0.6283
  O  O164  1  0.439960  0.505250  0.041420  1.0  -1.0157
  O  O165  1  0.329990  0.040790  0.642900  1.0  -0.7807
  O  O166  1  0.548180  0.685850  0.886990  1.0  -0.6069
  O  O167  1  0.789280  0.932350  0.506300  1.0  -0.6089
  O  O168  1  0.363580  0.419140  0.874640  1.0  -0.5833
  O  O169  1  0.392820  0.643280  0.891260  1.0  -0.6356
  O  O170  1  0.756410  0.044180  0.571770  1.0  -0.6003
  O  O171  1  0.371600  0.327820  0.964030  1.0  -0.6284
  O  O172  1  0.439960  0.994750  0.541420  1.0  -1.0153
  O  O173  1  0.670010  0.540790  0.857100  1.0  -0.782
  O  O174  1  0.451820  0.185850  0.613010  1.0  -0.606
  O  O175  1  0.210720  0.432350  0.993700  1.0  -0.6101
  O  O176  1  0.636420  0.919140  0.625360  1.0  -0.583
  O  O177  1  0.607180  0.143280  0.608740  1.0  -0.6354
  O  O178  1  0.243590  0.544180  0.928230  1.0  -0.6023
  O  O179  1  0.628400  0.827820  0.535970  1.0  -0.6299
  O  O180  1  0.560040  0.494750  0.958580  1.0  -1.0153
