# generated using pymatgen
data_TbH27C21(NO)6
_symmetry_space_group_name_H-M   'P 1'
_cell_length_a   16.17600000
_cell_length_b   7.94800000
_cell_length_c   27.27800000
_cell_angle_alpha   90.00000000
_cell_angle_beta   93.50000000
_cell_angle_gamma   90.00000000
_symmetry_Int_Tables_number   1
_chemical_formula_structural   TbH27C21(NO)6
_chemical_formula_sum   'Tb4 H108 C84 N24 O24'
_cell_volume   3500.50513112
_cell_formula_units_Z   4
loop_
 _symmetry_equiv_pos_site_id
 _symmetry_equiv_pos_as_xyz
  1  'x, y, z'
loop_
 _atom_site_type_symbol
 _atom_site_label
 _atom_site_symmetry_multiplicity
 _atom_site_fract_x
 _atom_site_fract_y
 _atom_site_fract_z
 _atom_site_occupancy
 _atom_site_charge
  Tb  Tb1  1  0.723110  0.156490  0.732800  1.0  2.2493
  Tb  Tb2  1  0.776890  0.656490  0.767200  1.0  2.2503
  Tb  Tb3  1  0.276890  0.843510  0.267200  1.0  2.2503
  Tb  Tb4  1  0.223110  0.343510  0.232800  1.0  2.2494
  H  H5  1  0.337800  0.816800  0.798500  1.0  0.0797
  H  H6  1  0.398300  0.662700  0.797400  1.0  0.071
  H  H7  1  0.602600  0.804500  0.878300  1.0  0.0648
  H  H8  1  0.539300  0.954600  0.876500  1.0  0.0781
  H  H9  1  0.557000  0.724000  0.798000  1.0  0.0779
  H  H10  1  0.980000  0.174000  0.836000  1.0  0.0785
  H  H11  1  0.448000  0.005500  0.797500  1.0  0.0883
  H  H12  1  0.455300  0.880800  0.753300  1.0  0.0815
  H  H13  1  0.418500  0.603100  0.098600  1.0  0.0771
  H  H14  1  0.343400  0.516100  0.069700  1.0  0.0681
  H  H15  1  0.180900  0.869400  0.030900  1.0  0.0765
  H  H16  1  0.253700  0.960100  0.061100  1.0  0.0776
  H  H17  1  0.038100  0.857300  0.803100  1.0  0.0821
  H  H18  1  0.038800  0.023400  0.771900  1.0  0.073
  H  H19  1  0.979500  0.862100  0.886000  1.0  0.0734
  H  H20  1  0.942900  0.029300  0.906300  1.0  0.0862
  H  H21  1  0.075400  0.150400  0.913300  1.0  0.0728
  H  H22  1  0.077200  0.980500  0.942900  1.0  0.0734
  H  H23  1  0.493700  0.610400  0.874000  1.0  0.0718
  H  H24  1  0.484100  0.729600  0.919200  1.0  0.077
  H  H25  1  0.170700  0.972400  0.810600  1.0  0.0776
  H  H26  1  0.135100  0.144400  0.828200  1.0  0.0792
  H  H27  1  0.331000  0.795000  0.132000  1.0  0.0817
  H  H28  1  0.401800  0.845200  0.050400  1.0  0.0812
  H  H29  1  0.408400  0.690300  0.015100  1.0  0.0833
  H  H30  1  0.197400  0.628600  0.079700  1.0  0.0784
  H  H31  1  0.187100  0.783100  0.114700  1.0  0.0848
  H  H32  1  0.162200  0.316800  0.701500  1.0  0.0786
  H  H33  1  0.101700  0.162700  0.702600  1.0  0.0706
  H  H34  1  0.897400  0.304500  0.621700  1.0  0.0674
  H  H35  1  0.960700  0.454600  0.623500  1.0  0.0787
  H  H36  1  0.943000  0.224000  0.702000  1.0  0.0794
  H  H37  1  0.520000  0.674000  0.664000  1.0  0.0786
  H  H38  1  0.052000  0.505500  0.702500  1.0  0.0879
  H  H39  1  0.044700  0.380800  0.746700  1.0  0.0796
  H  H40  1  0.081500  0.103100  0.401400  1.0  0.0772
  H  H41  1  0.156600  0.016100  0.430300  1.0  0.0682
  H  H42  1  0.319100  0.369400  0.469100  1.0  0.078
  H  H43  1  0.246300  0.460100  0.438900  1.0  0.0776
  H  H44  1  0.461900  0.357300  0.696900  1.0  0.0818
  H  H45  1  0.461200  0.523400  0.728100  1.0  0.0745
  H  H46  1  0.520500  0.362100  0.614000  1.0  0.0733
  H  H47  1  0.557100  0.529300  0.593700  1.0  0.0857
  H  H48  1  0.424600  0.650400  0.586700  1.0  0.0752
  H  H49  1  0.422800  0.480500  0.557100  1.0  0.0744
  H  H50  1  0.006300  0.110400  0.626000  1.0  0.072
  H  H51  1  0.015900  0.229600  0.580800  1.0  0.0753
  H  H52  1  0.329300  0.472400  0.689400  1.0  0.0786
  H  H53  1  0.364900  0.644400  0.671800  1.0  0.0794
  H  H54  1  0.169000  0.295000  0.368000  1.0  0.082
  H  H55  1  0.098200  0.345200  0.449600  1.0  0.082
  H  H56  1  0.091600  0.190300  0.484900  1.0  0.0849
  H  H57  1  0.302600  0.128600  0.420300  1.0  0.0779
  H  H58  1  0.312900  0.283100  0.385300  1.0  0.0825
  H  H59  1  0.662200  0.183200  0.201500  1.0  0.0785
  H  H60  1  0.601700  0.337300  0.202600  1.0  0.0698
  H  H61  1  0.397400  0.195500  0.121700  1.0  0.0676
  H  H62  1  0.460700  0.045400  0.123500  1.0  0.0792
  H  H63  1  0.443000  0.276000  0.202000  1.0  0.0785
  H  H64  1  0.020000  0.826000  0.164000  1.0  0.0785
  H  H65  1  0.552000  0.994500  0.202500  1.0  0.0879
  H  H66  1  0.544700  0.119200  0.246700  1.0  0.0799
  H  H67  1  0.581500  0.396900  0.901400  1.0  0.0773
  H  H68  1  0.656600  0.483900  0.930300  1.0  0.0682
  H  H69  1  0.819100  0.130600  0.969100  1.0  0.0783
  H  H70  1  0.746300  0.039900  0.938900  1.0  0.0794
  H  H71  1  0.961900  0.142700  0.196900  1.0  0.0809
  H  H72  1  0.961200  0.976600  0.228100  1.0  0.0737
  H  H73  1  0.020500  0.137900  0.114000  1.0  0.0739
  H  H74  1  0.057100  0.970700  0.093700  1.0  0.0857
  H  H75  1  0.924600  0.849600  0.086700  1.0  0.0733
  H  H76  1  0.922800  0.019500  0.057100  1.0  0.0738
  H  H77  1  0.506300  0.389600  0.126000  1.0  0.0719
  H  H78  1  0.515900  0.270400  0.080800  1.0  0.0756
  H  H79  1  0.829300  0.027600  0.189400  1.0  0.0786
  H  H80  1  0.864900  0.855600  0.171800  1.0  0.0796
  H  H81  1  0.669000  0.205000  0.868000  1.0  0.082
  H  H82  1  0.598200  0.154800  0.949600  1.0  0.0821
  H  H83  1  0.591600  0.309700  0.984900  1.0  0.0846
  H  H84  1  0.802600  0.371400  0.920300  1.0  0.0769
  H  H85  1  0.812900  0.216900  0.885300  1.0  0.0826
  H  H86  1  0.837800  0.683200  0.298500  1.0  0.0796
  H  H87  1  0.898300  0.837300  0.297400  1.0  0.0717
  H  H88  1  0.102600  0.695500  0.378300  1.0  0.0649
  H  H89  1  0.039300  0.545400  0.376500  1.0  0.079
  H  H90  1  0.057000  0.776000  0.298000  1.0  0.0788
  H  H91  1  0.480000  0.326000  0.336000  1.0  0.0781
  H  H92  1  0.948000  0.494500  0.297500  1.0  0.0873
  H  H93  1  0.955300  0.619200  0.253300  1.0  0.0814
  H  H94  1  0.918500  0.896900  0.598600  1.0  0.0768
  H  H95  1  0.843400  0.983900  0.569700  1.0  0.0685
  H  H96  1  0.680900  0.630600  0.530900  1.0  0.0761
  H  H97  1  0.753700  0.539900  0.561100  1.0  0.0787
  H  H98  1  0.538100  0.642700  0.303100  1.0  0.0814
  H  H99  1  0.538800  0.476600  0.271900  1.0  0.0735
  H  H100  1  0.479500  0.637900  0.386000  1.0  0.0738
  H  H101  1  0.442900  0.470700  0.406300  1.0  0.0867
  H  H102  1  0.575400  0.349600  0.413300  1.0  0.0724
  H  H103  1  0.577200  0.519500  0.442900  1.0  0.0726
  H  H104  1  0.993700  0.889600  0.374000  1.0  0.0727
  H  H105  1  0.984100  0.770400  0.419200  1.0  0.0768
  H  H106  1  0.670700  0.527600  0.310600  1.0  0.0777
  H  H107  1  0.635100  0.355600  0.328200  1.0  0.0796
  H  H108  1  0.831000  0.705000  0.632000  1.0  0.0825
  H  H109  1  0.901800  0.654800  0.550400  1.0  0.0819
  H  H110  1  0.908400  0.809700  0.515100  1.0  0.0835
  H  H111  1  0.697400  0.871400  0.579700  1.0  0.0779
  H  H112  1  0.687100  0.716900  0.614700  1.0  0.0848
  C  C113  1  0.392300  0.776400  0.809600  1.0  0.0032
  C  C114  1  0.548400  0.840800  0.865200  1.0  -0.1643
  C  C115  1  0.545600  0.838500  0.809200  1.0  -0.1763
  C  C116  1  0.285100  0.814200  0.966100  1.0  0.6061
  C  C117  1  0.974300  0.051600  0.834900  1.0  -0.1599
  C  C118  1  0.336700  0.806600  0.891700  1.0  0.5679
  C  C119  1  0.458400  0.889400  0.788800  1.0  -0.1483
  C  C120  1  0.364500  0.623100  0.082100  1.0  -0.1417
  C  C121  1  0.206500  0.896800  0.899900  1.0  0.5686
  C  C122  1  0.234000  0.852000  0.048700  1.0  0.0164
  C  C123  1  0.610600  0.954700  0.790900  1.0  0.7039
  C  C124  1  0.043700  0.978700  0.805000  1.0  -0.153
  C  C125  1  0.985600  0.983500  0.886700  1.0  -0.1496
  C  C126  1  0.294100  0.570900  0.160200  1.0  0.7014
  C  C127  1  0.070500  0.029100  0.910300  1.0  0.0187
  C  C128  1  0.482500  0.725300  0.883600  1.0  0.0255
  C  C129  1  0.127700  0.023400  0.828900  1.0  0.041
  C  C130  1  0.307100  0.691000  0.118600  1.0  -0.169
  C  C131  1  0.374300  0.742900  0.038800  1.0  0.0028
  C  C132  1  0.223200  0.731900  0.091800  1.0  -0.1435
  C  C133  1  0.890800  0.007100  0.809900  1.0  0.7007
  C  C134  1  0.107700  0.276400  0.690400  1.0  0.0056
  C  C135  1  0.951600  0.340800  0.634800  1.0  -0.163
  C  C136  1  0.954400  0.338500  0.690800  1.0  -0.1769
  C  C137  1  0.214900  0.314200  0.533900  1.0  0.606
  C  C138  1  0.525700  0.551600  0.665100  1.0  -0.1602
  C  C139  1  0.163300  0.306600  0.608300  1.0  0.5687
  C  C140  1  0.041600  0.389400  0.711200  1.0  -0.1489
  C  C141  1  0.135500  0.123100  0.417900  1.0  -0.1407
  C  C142  1  0.293500  0.396800  0.600100  1.0  0.5689
  C  C143  1  0.266000  0.352000  0.451300  1.0  0.0156
  C  C144  1  0.889400  0.454700  0.709100  1.0  0.7049
  C  C145  1  0.456300  0.478700  0.695000  1.0  -0.1551
  C  C146  1  0.514400  0.483500  0.613300  1.0  -0.1497
  C  C147  1  0.205900  0.070900  0.339800  1.0  0.7034
  C  C148  1  0.429500  0.529100  0.589700  1.0  0.019
  C  C149  1  0.017500  0.225300  0.616400  1.0  0.0246
  C  C150  1  0.372300  0.523400  0.671100  1.0  0.0421
  C  C151  1  0.192900  0.191000  0.381400  1.0  -0.1703
  C  C152  1  0.125700  0.242900  0.461200  1.0  0.0027
  C  C153  1  0.276800  0.231900  0.408200  1.0  -0.1452
  C  C154  1  0.609200  0.507100  0.690100  1.0  0.702
  C  C155  1  0.607700  0.223600  0.190400  1.0  0.0057
  C  C156  1  0.451600  0.159200  0.134800  1.0  -0.163
  C  C157  1  0.454400  0.161500  0.190800  1.0  -0.1759
  C  C158  1  0.714900  0.185800  0.033900  1.0  0.6059
  C  C159  1  0.025700  0.948400  0.165100  1.0  -0.1605
  C  C160  1  0.663300  0.193400  0.108300  1.0  0.5686
  C  C161  1  0.541600  0.110600  0.211200  1.0  -0.1477
  C  C162  1  0.635500  0.376900  0.917900  1.0  -0.1399
  C  C163  1  0.793500  0.103200  0.100100  1.0  0.5691
  C  C164  1  0.766000  0.148000  0.951300  1.0  0.015
  C  C165  1  0.389400  0.045300  0.209100  1.0  0.7057
  C  C166  1  0.956300  0.021300  0.195000  1.0  -0.1551
  C  C167  1  0.014400  0.016500  0.113300  1.0  -0.1488
  C  C168  1  0.705900  0.429100  0.839800  1.0  0.7042
  C  C169  1  0.929500  0.970900  0.089700  1.0  0.0201
  C  C170  1  0.517500  0.274700  0.116400  1.0  0.0252
  C  C171  1  0.872300  0.976600  0.171100  1.0  0.0417
  C  C172  1  0.692900  0.309000  0.881400  1.0  -0.1691
  C  C173  1  0.625700  0.257100  0.961200  1.0  0.0026
  C  C174  1  0.776800  0.268100  0.908200  1.0  -0.1446
  C  C175  1  0.109200  0.992900  0.190100  1.0  0.7011
  C  C176  1  0.892300  0.723600  0.309600  1.0  0.0034
  C  C177  1  0.048400  0.659200  0.365200  1.0  -0.164
  C  C178  1  0.045600  0.661500  0.309200  1.0  -0.1773
  C  C179  1  0.785100  0.685800  0.466100  1.0  0.6063
  C  C180  1  0.474300  0.448400  0.334900  1.0  -0.1603
  C  C181  1  0.836700  0.693400  0.391700  1.0  0.5676
  C  C182  1  0.958400  0.610600  0.288800  1.0  -0.1482
  C  C183  1  0.864500  0.876900  0.582100  1.0  -0.1409
  C  C184  1  0.706500  0.603200  0.399900  1.0  0.5687
  C  C185  1  0.734000  0.648000  0.548700  1.0  0.0147
  C  C186  1  0.110600  0.545300  0.290900  1.0  0.7054
  C  C187  1  0.543700  0.521300  0.305000  1.0  -0.1539
  C  C188  1  0.485600  0.516500  0.386700  1.0  -0.1495
  C  C189  1  0.794100  0.929100  0.660200  1.0  0.7012
  C  C190  1  0.570500  0.470900  0.410300  1.0  0.019
  C  C191  1  0.982500  0.774700  0.383600  1.0  0.0251
  C  C192  1  0.627700  0.476600  0.328900  1.0  0.0412
  C  C193  1  0.807100  0.809000  0.618600  1.0  -0.1692
  C  C194  1  0.874300  0.757100  0.538800  1.0  0.0028
  C  C195  1  0.723200  0.768100  0.591800  1.0  -0.1434
  C  C196  1  0.390800  0.492900  0.309900  1.0  0.7002
  N  N197  1  0.264600  0.858000  0.868920  1.0  -0.66
  N  N198  1  0.210400  0.871300  0.948700  1.0  -0.5601
  N  N199  1  0.400000  0.775000  0.863400  1.0  -0.1983
  N  N200  1  0.135000  0.964300  0.879600  1.0  -0.2
  N  N201  1  0.350700  0.786400  0.940500  1.0  -0.6422
  N  N202  1  0.293000  0.783900  0.015400  1.0  -0.2089
  N  N203  1  0.235400  0.358000  0.631080  1.0  -0.6615
  N  N204  1  0.289600  0.371300  0.551300  1.0  -0.5607
  N  N205  1  0.100000  0.275000  0.636600  1.0  -0.1964
  N  N206  1  0.365000  0.464300  0.620400  1.0  -0.2008
  N  N207  1  0.149300  0.286400  0.559500  1.0  -0.6441
  N  N208  1  0.207000  0.283900  0.484600  1.0  -0.2094
  N  N209  1  0.735400  0.142000  0.131080  1.0  -0.6614
  N  N210  1  0.789600  0.128700  0.051300  1.0  -0.5605
  N  N211  1  0.600000  0.225000  0.136600  1.0  -0.1966
  N  N212  1  0.865000  0.035700  0.120400  1.0  -0.2014
  N  N213  1  0.649300  0.213600  0.059500  1.0  -0.6434
  N  N214  1  0.707000  0.216100  0.984600  1.0  -0.2092
  N  N215  1  0.764600  0.642000  0.368920  1.0  -0.6596
  N  N216  1  0.710400  0.628700  0.448700  1.0  -0.56
  N  N217  1  0.900000  0.725000  0.363400  1.0  -0.1986
  N  N218  1  0.635000  0.535700  0.379600  1.0  -0.2012
  N  N219  1  0.850700  0.713600  0.440500  1.0  -0.642
  N  N220  1  0.793000  0.716100  0.515400  1.0  -0.2085
  O  O221  1  0.850800  0.123900  0.787650  1.0  -0.6817
  O  O222  1  0.866900  0.857300  0.811950  1.0  -0.737
  O  O223  1  0.284800  0.625300  0.203430  1.0  -0.8345
  O  O224  1  0.683200  0.898100  0.784870  1.0  -0.8113
  O  O225  1  0.289200  0.415000  0.152040  1.0  -0.6834
  O  O226  1  0.594100  0.105500  0.780520  1.0  -0.6813
  O  O227  1  0.649200  0.623900  0.712350  1.0  -0.6814
  O  O228  1  0.633100  0.357300  0.688050  1.0  -0.7367
  O  O229  1  0.215200  0.125300  0.296570  1.0  -0.8324
  O  O230  1  0.816800  0.398100  0.715130  1.0  -0.8131
  O  O231  1  0.210800  0.915000  0.347960  1.0  -0.6855
  O  O232  1  0.905900  0.605500  0.719480  1.0  -0.6809
  O  O233  1  0.149200  0.876100  0.212350  1.0  -0.6817
  O  O234  1  0.133100  0.142700  0.188050  1.0  -0.7388
  O  O235  1  0.715200  0.374700  0.796570  1.0  -0.8333
  O  O236  1  0.316800  0.101900  0.215130  1.0  -0.8134
  O  O237  1  0.710800  0.585000  0.847960  1.0  -0.6816
  O  O238  1  0.405900  0.894500  0.219480  1.0  -0.6799
  O  O239  1  0.350800  0.376100  0.287650  1.0  -0.6816
  O  O240  1  0.366900  0.642700  0.311950  1.0  -0.7397
  O  O241  1  0.784800  0.874700  0.703430  1.0  -0.8343
  O  O242  1  0.183200  0.601900  0.284870  1.0  -0.8114
  O  O243  1  0.789200  0.085000  0.652040  1.0  -0.6844
  O  O244  1  0.094100  0.394500  0.280520  1.0  -0.6812
