# generated using pymatgen
data_ZnH8C12(IN2)2
_symmetry_space_group_name_H-M   'P 1'
_cell_length_a   14.02200000
_cell_length_b   28.14000000
_cell_length_c   44.48000000
_cell_angle_alpha   90.00000000
_cell_angle_beta   90.00000000
_cell_angle_gamma   90.00000000
_symmetry_Int_Tables_number   1
_chemical_formula_structural   ZnH8C12(IN2)2
_chemical_formula_sum   'Zn24 H192 C288 I48 N96'
_cell_volume   17550.87747840
_cell_formula_units_Z   24
loop_
 _symmetry_equiv_pos_site_id
 _symmetry_equiv_pos_as_xyz
  1  'x, y, z'
loop_
 _atom_site_type_symbol
 _atom_site_label
 _atom_site_symmetry_multiplicity
 _atom_site_fract_x
 _atom_site_fract_y
 _atom_site_fract_z
 _atom_site_occupancy
 _atom_site_charge
  Zn  Zn1  1  0.141940  0.050270  0.586350  1.0  0.8641
  Zn  Zn2  1  0.382930  0.023230  0.415020  1.0  0.8339
  Zn  Zn3  1  0.169550  0.239240  0.319450  1.0  0.8539
  Zn  Zn4  1  0.858060  0.449730  0.086350  1.0  0.8618
  Zn  Zn5  1  0.617070  0.476770  0.915020  1.0  0.8348
  Zn  Zn6  1  0.830450  0.260760  0.819450  1.0  0.8526
  Zn  Zn7  1  0.641940  0.949730  0.913650  1.0  0.8626
  Zn  Zn8  1  0.882930  0.976770  0.084980  1.0  0.8345
  Zn  Zn9  1  0.669550  0.760760  0.180550  1.0  0.8538
  Zn  Zn10  1  0.358060  0.550270  0.413650  1.0  0.8638
  Zn  Zn11  1  0.117070  0.523230  0.584980  1.0  0.8341
  Zn  Zn12  1  0.330450  0.739240  0.680550  1.0  0.852
  Zn  Zn13  1  0.858060  0.949730  0.413650  1.0  0.8622
  Zn  Zn14  1  0.617070  0.976770  0.584980  1.0  0.8343
  Zn  Zn15  1  0.830450  0.760760  0.680550  1.0  0.8521
  Zn  Zn16  1  0.141940  0.550270  0.913650  1.0  0.8636
  Zn  Zn17  1  0.382930  0.523230  0.084980  1.0  0.8335
  Zn  Zn18  1  0.169550  0.739240  0.180550  1.0  0.854
  Zn  Zn19  1  0.358060  0.050270  0.086350  1.0  0.864
  Zn  Zn20  1  0.117070  0.023230  0.915020  1.0  0.8345
  Zn  Zn21  1  0.330450  0.239240  0.819450  1.0  0.852
  Zn  Zn22  1  0.641940  0.449730  0.586350  1.0  0.8626
  Zn  Zn23  1  0.882930  0.476770  0.415020  1.0  0.8351
  Zn  Zn24  1  0.669550  0.260760  0.319450  1.0  0.8542
  H  H25  1  0.953800  0.029900  0.556100  1.0  0.0883
  H  H26  1  0.875800  0.048600  0.512200  1.0  0.1091
  H  H27  1  0.124200  0.097400  0.477600  1.0  0.1236
  H  H28  1  0.196300  0.080100  0.523100  1.0  0.091
  H  H29  1  0.521900  0.033400  0.465800  1.0  0.0874
  H  H30  1  0.679100  0.059700  0.475000  1.0  0.122
  H  H31  1  0.690400  0.101700  0.388200  1.0  0.1144
  H  H32  1  0.536100  0.075800  0.381900  1.0  0.0949
  H  H33  1  0.965900  0.213900  0.333600  1.0  0.0822
  H  H34  1  0.876200  0.173700  0.369500  1.0  0.1155
  H  H35  1  0.124000  0.142700  0.410500  1.0  0.1198
  H  H36  1  0.204500  0.177900  0.371800  1.0  0.1022
  H  H37  1  0.055700  0.088000  0.642700  1.0  0.0888
  H  H38  1  0.030900  0.158900  0.667200  1.0  0.1196
  H  H39  1  0.100500  0.228400  0.590500  1.0  0.1227
  H  H40  1  0.132300  0.154100  0.569000  1.0  0.0877
  H  H41  1  0.944000  0.203200  0.775100  1.0  0.0922
  H  H42  1  0.997400  0.209600  0.726200  1.0  0.1173
  H  H43  1  0.941400  0.349900  0.729400  1.0  0.1083
  H  H44  1  0.875500  0.339000  0.776900  1.0  0.1031
  H  H45  1  0.111300  0.419100  0.569500  1.0  0.0964
  H  H46  1  0.084900  0.347000  0.592600  1.0  0.1132
  H  H47  1  0.034900  0.414500  0.670100  1.0  0.1167
  H  H48  1  0.060900  0.486200  0.645000  1.0  0.0926
  H  H49  1  0.046200  0.470100  0.056100  1.0  0.0874
  H  H50  1  0.124200  0.451400  0.012200  1.0  0.11
  H  H51  1  0.875800  0.402600  0.977600  1.0  0.1231
  H  H52  1  0.803700  0.419900  0.023100  1.0  0.0909
  H  H53  1  0.478100  0.466600  0.965800  1.0  0.0866
  H  H54  1  0.320900  0.440300  0.975000  1.0  0.1219
  H  H55  1  0.309600  0.398300  0.888200  1.0  0.1143
  H  H56  1  0.463900  0.424200  0.881900  1.0  0.0952
  H  H57  1  0.034100  0.286100  0.833600  1.0  0.0817
  H  H58  1  0.123800  0.326300  0.869500  1.0  0.1138
  H  H59  1  0.876000  0.357300  0.910500  1.0  0.1195
  H  H60  1  0.795500  0.322100  0.871800  1.0  0.1045
  H  H61  1  0.944300  0.412000  0.142700  1.0  0.088
  H  H62  1  0.969100  0.341100  0.167200  1.0  0.1197
  H  H63  1  0.899500  0.271600  0.090500  1.0  0.1229
  H  H64  1  0.867700  0.345900  0.069000  1.0  0.0875
  H  H65  1  0.056000  0.296800  0.275100  1.0  0.0908
  H  H66  1  0.002600  0.290400  0.226200  1.0  0.1178
  H  H67  1  0.058600  0.150100  0.229400  1.0  0.1081
  H  H68  1  0.124500  0.161000  0.276900  1.0  0.103
  H  H69  1  0.888700  0.080900  0.069500  1.0  0.0963
  H  H70  1  0.915100  0.153000  0.092600  1.0  0.1133
  H  H71  1  0.965100  0.085500  0.170100  1.0  0.1173
  H  H72  1  0.939100  0.013800  0.145000  1.0  0.0929
  H  H73  1  0.453800  0.970100  0.943900  1.0  0.0877
  H  H74  1  0.375800  0.951400  0.987800  1.0  0.1097
  H  H75  1  0.624200  0.902600  0.022400  1.0  0.1235
  H  H76  1  0.696300  0.919900  0.976900  1.0  0.0908
  H  H77  1  0.021900  0.966600  0.034200  1.0  0.0862
  H  H78  1  0.179100  0.940300  0.025000  1.0  0.1218
  H  H79  1  0.190400  0.898300  0.111800  1.0  0.1145
  H  H80  1  0.036100  0.924200  0.118100  1.0  0.0953
  H  H81  1  0.465900  0.786100  0.166400  1.0  0.0821
  H  H82  1  0.376200  0.826300  0.130500  1.0  0.1155
  H  H83  1  0.624000  0.857300  0.089500  1.0  0.119
  H  H84  1  0.704500  0.822100  0.128200  1.0  0.1022
  H  H85  1  0.555700  0.912000  0.857300  1.0  0.0867
  H  H86  1  0.530900  0.841100  0.832800  1.0  0.1198
  H  H87  1  0.600500  0.771600  0.909500  1.0  0.123
  H  H88  1  0.632300  0.845900  0.931000  1.0  0.0874
  H  H89  1  0.444000  0.796800  0.724900  1.0  0.091
  H  H90  1  0.497400  0.790400  0.773800  1.0  0.1177
  H  H91  1  0.441400  0.650100  0.770600  1.0  0.1083
  H  H92  1  0.375500  0.661000  0.723100  1.0  0.1031
  H  H93  1  0.611300  0.580900  0.930500  1.0  0.0964
  H  H94  1  0.584900  0.653000  0.907400  1.0  0.1134
  H  H95  1  0.534900  0.585500  0.829900  1.0  0.1177
  H  H96  1  0.560900  0.513800  0.855000  1.0  0.092
  H  H97  1  0.546200  0.529900  0.443900  1.0  0.0878
  H  H98  1  0.624200  0.548600  0.487800  1.0  0.1096
  H  H99  1  0.375800  0.597400  0.522400  1.0  0.1235
  H  H100  1  0.303700  0.580100  0.476900  1.0  0.0909
  H  H101  1  0.978100  0.533400  0.534200  1.0  0.0865
  H  H102  1  0.820900  0.559700  0.525000  1.0  0.1217
  H  H103  1  0.809600  0.601700  0.611800  1.0  0.114
  H  H104  1  0.963900  0.575800  0.618100  1.0  0.0948
  H  H105  1  0.534100  0.713900  0.666400  1.0  0.0817
  H  H106  1  0.623800  0.673700  0.630500  1.0  0.1138
  H  H107  1  0.376000  0.642700  0.589500  1.0  0.1192
  H  H108  1  0.295500  0.677900  0.628200  1.0  0.1048
  H  H109  1  0.444300  0.588000  0.357300  1.0  0.0877
  H  H110  1  0.469100  0.658900  0.332800  1.0  0.1199
  H  H111  1  0.399500  0.728400  0.409500  1.0  0.123
  H  H112  1  0.367700  0.654100  0.431000  1.0  0.0876
  H  H113  1  0.556000  0.703200  0.224900  1.0  0.0924
  H  H114  1  0.502600  0.709600  0.273800  1.0  0.1172
  H  H115  1  0.558600  0.849900  0.270600  1.0  0.1082
  H  H116  1  0.624500  0.839000  0.223100  1.0  0.1036
  H  H117  1  0.388700  0.919100  0.430500  1.0  0.0965
  H  H118  1  0.415100  0.847000  0.407400  1.0  0.1135
  H  H119  1  0.465100  0.914500  0.329900  1.0  0.1173
  H  H120  1  0.439100  0.986200  0.355000  1.0  0.0922
  H  H121  1  0.046200  0.970100  0.443900  1.0  0.0875
  H  H122  1  0.124200  0.951400  0.487800  1.0  0.1098
  H  H123  1  0.875800  0.902600  0.522400  1.0  0.1235
  H  H124  1  0.803700  0.919900  0.476900  1.0  0.0909
  H  H125  1  0.478100  0.966600  0.534200  1.0  0.0862
  H  H126  1  0.320900  0.940300  0.525000  1.0  0.1217
  H  H127  1  0.309600  0.898300  0.611800  1.0  0.1142
  H  H128  1  0.463900  0.924200  0.618100  1.0  0.0951
  H  H129  1  0.034100  0.786100  0.666400  1.0  0.0815
  H  H130  1  0.123800  0.826300  0.630500  1.0  0.1139
  H  H131  1  0.876000  0.857300  0.589500  1.0  0.1189
  H  H132  1  0.795500  0.822100  0.628200  1.0  0.1047
  H  H133  1  0.944300  0.912000  0.357300  1.0  0.0869
  H  H134  1  0.969100  0.841100  0.332800  1.0  0.12
  H  H135  1  0.899500  0.771600  0.409500  1.0  0.1232
  H  H136  1  0.867700  0.845900  0.431000  1.0  0.0875
  H  H137  1  0.056000  0.796800  0.224900  1.0  0.0908
  H  H138  1  0.002600  0.790400  0.273800  1.0  0.1176
  H  H139  1  0.058600  0.650100  0.270600  1.0  0.1082
  H  H140  1  0.124500  0.661000  0.223100  1.0  0.1032
  H  H141  1  0.888700  0.580900  0.430500  1.0  0.0965
  H  H142  1  0.915100  0.653000  0.407400  1.0  0.1131
  H  H143  1  0.965100  0.585500  0.329900  1.0  0.1177
  H  H144  1  0.939100  0.513800  0.355000  1.0  0.0917
  H  H145  1  0.953800  0.529900  0.943900  1.0  0.0876
  H  H146  1  0.875800  0.548600  0.987800  1.0  0.1095
  H  H147  1  0.124200  0.597400  0.022400  1.0  0.1235
  H  H148  1  0.196300  0.580100  0.976900  1.0  0.0908
  H  H149  1  0.521900  0.533400  0.034200  1.0  0.0867
  H  H150  1  0.679100  0.559700  0.025000  1.0  0.1217
  H  H151  1  0.690400  0.601700  0.111800  1.0  0.1141
  H  H152  1  0.536100  0.575800  0.118100  1.0  0.095
  H  H153  1  0.965900  0.713900  0.166400  1.0  0.0819
  H  H154  1  0.876200  0.673700  0.130500  1.0  0.1153
  H  H155  1  0.124000  0.642700  0.089500  1.0  0.1195
  H  H156  1  0.204500  0.677900  0.128200  1.0  0.1023
  H  H157  1  0.055700  0.588000  0.857300  1.0  0.0877
  H  H158  1  0.030900  0.658900  0.832800  1.0  0.1198
  H  H159  1  0.100500  0.728400  0.909500  1.0  0.1231
  H  H160  1  0.132300  0.654100  0.931000  1.0  0.0876
  H  H161  1  0.944000  0.703200  0.724900  1.0  0.0923
  H  H162  1  0.997400  0.709600  0.773800  1.0  0.1176
  H  H163  1  0.941400  0.849900  0.770600  1.0  0.1083
  H  H164  1  0.875500  0.839000  0.723100  1.0  0.1035
  H  H165  1  0.111300  0.919100  0.930500  1.0  0.0966
  H  H166  1  0.084900  0.847000  0.907400  1.0  0.1137
  H  H167  1  0.034900  0.914500  0.829900  1.0  0.1174
  H  H168  1  0.060900  0.986200  0.855000  1.0  0.0925
  H  H169  1  0.546200  0.029900  0.056100  1.0  0.0876
  H  H170  1  0.624200  0.048600  0.012200  1.0  0.1097
  H  H171  1  0.375800  0.097400  0.977600  1.0  0.1235
  H  H172  1  0.303700  0.080100  0.023100  1.0  0.091
  H  H173  1  0.978100  0.033400  0.965800  1.0  0.087
  H  H174  1  0.820900  0.059700  0.975000  1.0  0.1219
  H  H175  1  0.809600  0.101700  0.888200  1.0  0.1143
  H  H176  1  0.963900  0.075800  0.881900  1.0  0.095
  H  H177  1  0.534100  0.213900  0.833600  1.0  0.0822
  H  H178  1  0.623800  0.173700  0.869500  1.0  0.1139
  H  H179  1  0.376000  0.142700  0.910500  1.0  0.1199
  H  H180  1  0.295500  0.177900  0.871800  1.0  0.1047
  H  H181  1  0.444300  0.088000  0.142700  1.0  0.0886
  H  H182  1  0.469100  0.158900  0.167200  1.0  0.1196
  H  H183  1  0.399500  0.228400  0.090500  1.0  0.1228
  H  H184  1  0.367700  0.154100  0.069000  1.0  0.0875
  H  H185  1  0.556000  0.203200  0.275100  1.0  0.0926
  H  H186  1  0.502600  0.209600  0.226200  1.0  0.1169
  H  H187  1  0.558600  0.349900  0.229400  1.0  0.1082
  H  H188  1  0.624500  0.339000  0.276900  1.0  0.1031
  H  H189  1  0.388700  0.419100  0.069500  1.0  0.0964
  H  H190  1  0.415100  0.347000  0.092600  1.0  0.1132
  H  H191  1  0.465100  0.414500  0.170100  1.0  0.1169
  H  H192  1  0.439100  0.486200  0.145000  1.0  0.0929
  H  H193  1  0.453800  0.470100  0.556100  1.0  0.0883
  H  H194  1  0.375800  0.451400  0.512200  1.0  0.1092
  H  H195  1  0.624200  0.402600  0.477600  1.0  0.1232
  H  H196  1  0.696300  0.419900  0.523100  1.0  0.0909
  H  H197  1  0.021900  0.466600  0.465800  1.0  0.0869
  H  H198  1  0.179100  0.440300  0.475000  1.0  0.122
  H  H199  1  0.190400  0.398300  0.388200  1.0  0.1147
  H  H200  1  0.036100  0.424200  0.381900  1.0  0.0951
  H  H201  1  0.465900  0.286100  0.333600  1.0  0.082
  H  H202  1  0.376200  0.326300  0.369500  1.0  0.1154
  H  H203  1  0.624000  0.357300  0.410500  1.0  0.1195
  H  H204  1  0.704500  0.322100  0.371800  1.0  0.1021
  H  H205  1  0.555700  0.412000  0.642700  1.0  0.088
  H  H206  1  0.530900  0.341100  0.667200  1.0  0.1196
  H  H207  1  0.600500  0.271600  0.590500  1.0  0.1227
  H  H208  1  0.632300  0.345900  0.569000  1.0  0.0876
  H  H209  1  0.444000  0.296800  0.775100  1.0  0.0909
  H  H210  1  0.497400  0.290400  0.726200  1.0  0.1177
  H  H211  1  0.441400  0.150100  0.729400  1.0  0.1082
  H  H212  1  0.375500  0.161000  0.776900  1.0  0.1031
  H  H213  1  0.611300  0.080900  0.569500  1.0  0.0963
  H  H214  1  0.584900  0.153000  0.592600  1.0  0.1134
  H  H215  1  0.534900  0.085500  0.670100  1.0  0.117
  H  H216  1  0.560900  0.013800  0.645000  1.0  0.0927
  C  C217  1  0.988200  0.044700  0.540300  1.0  0.1218
  C  C218  1  0.941900  0.055400  0.514200  1.0  -0.0851
  C  C219  1  0.990300  0.076000  0.490700  1.0  -0.0994
  C  C220  1  0.088000  0.084500  0.493800  1.0  -0.1589
  C  C221  1  0.130100  0.073800  0.520800  1.0  0.1489
  C  C222  1  0.939400  0.090700  0.463100  1.0  0.4081
  C  C223  1  0.804400  0.095600  0.436600  1.0  0.2936
  C  C224  1  0.937900  0.128100  0.418500  1.0  0.3287
  C  C225  1  0.557000  0.047700  0.449900  1.0  0.1347
  C  C226  1  0.651300  0.062800  0.455600  1.0  -0.1447
  C  C227  1  0.702300  0.082700  0.431700  1.0  -0.1258
  C  C228  1  0.657500  0.087600  0.404600  1.0  -0.1081
  C  C229  1  0.565600  0.072300  0.401000  1.0  0.1538
  C  C230  1  0.998000  0.197700  0.349400  1.0  0.1512
  C  C231  1  0.943800  0.174500  0.370900  1.0  -0.1384
  C  C232  1  0.990000  0.153000  0.393800  1.0  -0.0782
  C  C233  1  0.089400  0.156100  0.394200  1.0  -0.1215
  C  C234  1  0.136700  0.177800  0.371600  1.0  0.1281
  C  C235  1  0.066800  0.116900  0.632200  1.0  0.1295
  C  C236  1  0.050800  0.158900  0.646800  1.0  -0.1037
  C  C237  1  0.063600  0.201100  0.631800  1.0  -0.0965
  C  C238  1  0.092800  0.200000  0.601800  1.0  -0.1622
  C  C239  1  0.110100  0.155400  0.589200  1.0  0.1355
  C  C240  1  0.047400  0.246500  0.647800  1.0  0.3897
  C  C241  1  0.006400  0.284100  0.690300  1.0  0.348
  C  C242  1  0.045200  0.326300  0.649300  1.0  0.3937
  C  C243  1  0.940200  0.233100  0.765200  1.0  0.1304
  C  C244  1  0.973700  0.236900  0.736300  1.0  -0.113
  C  C245  1  0.973200  0.280700  0.721700  1.0  -0.0774
  C  C246  1  0.939200  0.319000  0.737900  1.0  -0.0917
  C  C247  1  0.901900  0.312600  0.766500  1.0  0.1294
  C  C248  1  0.095000  0.418400  0.590300  1.0  0.1136
  C  C249  1  0.079800  0.375400  0.604100  1.0  -0.1036
  C  C250  1  0.057600  0.372700  0.634000  1.0  -0.0858
  C  C251  1  0.050300  0.414500  0.649400  1.0  -0.1221
  C  C252  1  0.065900  0.457200  0.634200  1.0  0.138
  C  C253  1  0.011800  0.455300  0.040300  1.0  0.1215
  C  C254  1  0.058100  0.444600  0.014200  1.0  -0.0815
  C  C255  1  0.009700  0.424000  0.990700  1.0  -0.0993
  C  C256  1  0.912000  0.415500  0.993800  1.0  -0.1599
  C  C257  1  0.869900  0.426200  0.020800  1.0  0.1486
  C  C258  1  0.060600  0.409300  0.963100  1.0  0.4081
  C  C259  1  0.195600  0.404400  0.936600  1.0  0.294
  C  C260  1  0.062100  0.371900  0.918500  1.0  0.3287
  C  C261  1  0.443000  0.452300  0.949900  1.0  0.1347
  C  C262  1  0.348700  0.437200  0.955600  1.0  -0.145
  C  C263  1  0.297700  0.417300  0.931700  1.0  -0.1272
  C  C264  1  0.342500  0.412400  0.904600  1.0  -0.1085
  C  C265  1  0.434400  0.427700  0.901000  1.0  0.1524
  C  C266  1  0.002000  0.302300  0.849400  1.0  0.1501
  C  C267  1  0.056200  0.325500  0.870900  1.0  -0.1387
  C  C268  1  0.010000  0.347000  0.893800  1.0  -0.0795
  C  C269  1  0.910600  0.343900  0.894200  1.0  -0.1207
  C  C270  1  0.863300  0.322200  0.871600  1.0  0.1275
  C  C271  1  0.933200  0.383100  0.132200  1.0  0.1297
  C  C272  1  0.949200  0.341100  0.146800  1.0  -0.103
  C  C273  1  0.936400  0.298900  0.131800  1.0  -0.0957
  C  C274  1  0.907200  0.300000  0.101800  1.0  -0.161
  C  C275  1  0.889900  0.344600  0.089200  1.0  0.1356
  C  C276  1  0.952600  0.253500  0.147800  1.0  0.3897
  C  C277  1  0.993600  0.215900  0.190300  1.0  0.3478
  C  C278  1  0.954800  0.173700  0.149300  1.0  0.3938
  C  C279  1  0.059800  0.266900  0.265200  1.0  0.1312
  C  C280  1  0.026300  0.263100  0.236300  1.0  -0.1143
  C  C281  1  0.026800  0.219300  0.221700  1.0  -0.0779
  C  C282  1  0.060800  0.181000  0.237900  1.0  -0.092
  C  C283  1  0.098100  0.187400  0.266500  1.0  0.1315
  C  C284  1  0.905000  0.081600  0.090300  1.0  0.115
  C  C285  1  0.920200  0.124600  0.104100  1.0  -0.1039
  C  C286  1  0.942400  0.127300  0.134000  1.0  -0.0863
  C  C287  1  0.949700  0.085500  0.149400  1.0  -0.1214
  C  C288  1  0.934100  0.042800  0.134200  1.0  0.1366
  C  C289  1  0.488200  0.955300  0.959700  1.0  0.1232
  C  C290  1  0.441900  0.944600  0.985800  1.0  -0.0829
  C  C291  1  0.490300  0.924000  0.009300  1.0  -0.0995
  C  C292  1  0.588000  0.915500  0.006200  1.0  -0.158
  C  C293  1  0.630100  0.926200  0.979200  1.0  0.1492
  C  C294  1  0.439400  0.909300  0.036900  1.0  0.4084
  C  C295  1  0.304400  0.904400  0.063400  1.0  0.2934
  C  C296  1  0.437900  0.871900  0.081500  1.0  0.329
  C  C297  1  0.057000  0.952300  0.050100  1.0  0.1344
  C  C298  1  0.151300  0.937200  0.044400  1.0  -0.1432
  C  C299  1  0.202300  0.917300  0.068300  1.0  -0.1252
  C  C300  1  0.157500  0.912400  0.095400  1.0  -0.1081
  C  C301  1  0.065600  0.927700  0.099000  1.0  0.1536
  C  C302  1  0.498000  0.802300  0.150600  1.0  0.1512
  C  C303  1  0.443800  0.825500  0.129100  1.0  -0.1382
  C  C304  1  0.490000  0.847000  0.106200  1.0  -0.0788
  C  C305  1  0.589400  0.843900  0.105800  1.0  -0.1213
  C  C306  1  0.636700  0.822200  0.128400  1.0  0.1271
  C  C307  1  0.566800  0.883100  0.867800  1.0  0.1298
  C  C308  1  0.550800  0.841100  0.853200  1.0  -0.103
  C  C309  1  0.563600  0.798900  0.868200  1.0  -0.0961
  C  C310  1  0.592800  0.800000  0.898200  1.0  -0.1611
  C  C311  1  0.610100  0.844600  0.910800  1.0  0.1369
  C  C312  1  0.547400  0.753500  0.852200  1.0  0.3899
  C  C313  1  0.506400  0.715900  0.809700  1.0  0.3481
  C  C314  1  0.545200  0.673700  0.850700  1.0  0.3942
  C  C315  1  0.440200  0.766900  0.734800  1.0  0.131
  C  C316  1  0.473700  0.763100  0.763700  1.0  -0.1137
  C  C317  1  0.473200  0.719300  0.778300  1.0  -0.0782
  C  C318  1  0.439200  0.681000  0.762100  1.0  -0.0922
  C  C319  1  0.401900  0.687400  0.733500  1.0  0.131
  C  C320  1  0.595000  0.581600  0.909700  1.0  0.1143
  C  C321  1  0.579800  0.624600  0.895900  1.0  -0.106
  C  C322  1  0.557600  0.627300  0.866000  1.0  -0.0865
  C  C323  1  0.550300  0.585500  0.850600  1.0  -0.1194
  C  C324  1  0.565900  0.542800  0.865800  1.0  0.1358
  C  C325  1  0.511800  0.544700  0.459700  1.0  0.1228
  C  C326  1  0.558100  0.555400  0.485800  1.0  -0.0824
  C  C327  1  0.509700  0.576000  0.509300  1.0  -0.0996
  C  C328  1  0.412000  0.584500  0.506200  1.0  -0.1601
  C  C329  1  0.369900  0.573800  0.479200  1.0  0.1484
  C  C330  1  0.560600  0.590700  0.536900  1.0  0.4078
  C  C331  1  0.695600  0.595600  0.563400  1.0  0.2943
  C  C332  1  0.562100  0.628100  0.581500  1.0  0.3287
  C  C333  1  0.943000  0.547700  0.550100  1.0  0.1335
  C  C334  1  0.848700  0.562800  0.544400  1.0  -0.1442
  C  C335  1  0.797700  0.582700  0.568300  1.0  -0.1258
  C  C336  1  0.842500  0.587600  0.595400  1.0  -0.1097
  C  C337  1  0.934400  0.572300  0.599000  1.0  0.1537
  C  C338  1  0.502000  0.697700  0.650600  1.0  0.1503
  C  C339  1  0.556200  0.674500  0.629100  1.0  -0.1382
  C  C340  1  0.510000  0.653000  0.606200  1.0  -0.0786
  C  C341  1  0.410600  0.656100  0.605800  1.0  -0.1191
  C  C342  1  0.363300  0.677800  0.628400  1.0  0.1265
  C  C343  1  0.433200  0.616900  0.367800  1.0  0.1289
  C  C344  1  0.449200  0.658900  0.353200  1.0  -0.104
  C  C345  1  0.436400  0.701100  0.368200  1.0  -0.0965
  C  C346  1  0.407200  0.700000  0.398200  1.0  -0.1617
  C  C347  1  0.389900  0.655400  0.410800  1.0  0.1356
  C  C348  1  0.452600  0.746500  0.352200  1.0  0.39
  C  C349  1  0.493600  0.784100  0.309700  1.0  0.3485
  C  C350  1  0.454800  0.826300  0.350700  1.0  0.3931
  C  C351  1  0.559800  0.733100  0.234800  1.0  0.1294
  C  C352  1  0.526300  0.736900  0.263700  1.0  -0.114
  C  C353  1  0.526800  0.780700  0.278300  1.0  -0.0785
  C  C354  1  0.560800  0.819000  0.262100  1.0  -0.0913
  C  C355  1  0.598100  0.812600  0.233500  1.0  0.1296
  C  C356  1  0.405000  0.918400  0.409700  1.0  0.1149
  C  C357  1  0.420200  0.875400  0.395900  1.0  -0.1039
  C  C358  1  0.442400  0.872700  0.366000  1.0  -0.0857
  C  C359  1  0.449700  0.914500  0.350600  1.0  -0.12
  C  C360  1  0.434100  0.957200  0.365800  1.0  0.1381
  C  C361  1  0.011800  0.955300  0.459700  1.0  0.1227
  C  C362  1  0.058100  0.944600  0.485800  1.0  -0.081
  C  C363  1  0.009700  0.924000  0.509300  1.0  -0.0997
  C  C364  1  0.912000  0.915500  0.506200  1.0  -0.1595
  C  C365  1  0.869900  0.926200  0.479200  1.0  0.1487
  C  C366  1  0.060600  0.909300  0.536900  1.0  0.4082
  C  C367  1  0.195600  0.904400  0.563400  1.0  0.2943
  C  C368  1  0.062100  0.871900  0.581500  1.0  0.3287
  C  C369  1  0.443000  0.952300  0.550100  1.0  0.1333
  C  C370  1  0.348700  0.937200  0.544400  1.0  -0.1441
  C  C371  1  0.297700  0.917300  0.568300  1.0  -0.1269
  C  C372  1  0.342500  0.912400  0.595400  1.0  -0.1091
  C  C373  1  0.434400  0.927700  0.599000  1.0  0.154
  C  C374  1  0.002000  0.802300  0.650600  1.0  0.1503
  C  C375  1  0.056200  0.825500  0.629100  1.0  -0.1385
  C  C376  1  0.010000  0.847000  0.606200  1.0  -0.079
  C  C377  1  0.910600  0.843900  0.605800  1.0  -0.1192
  C  C378  1  0.863300  0.822200  0.628400  1.0  0.1268
  C  C379  1  0.933200  0.883100  0.367800  1.0  0.1293
  C  C380  1  0.949200  0.841100  0.353200  1.0  -0.1035
  C  C381  1  0.936400  0.798900  0.368200  1.0  -0.096
  C  C382  1  0.907200  0.800000  0.398200  1.0  -0.1611
  C  C383  1  0.889900  0.844600  0.410800  1.0  0.1358
  C  C384  1  0.952600  0.753500  0.352200  1.0  0.3898
  C  C385  1  0.993600  0.715900  0.309700  1.0  0.3482
  C  C386  1  0.954800  0.673700  0.350700  1.0  0.3937
  C  C387  1  0.059800  0.766900  0.234800  1.0  0.1311
  C  C388  1  0.026300  0.763100  0.263700  1.0  -0.1143
  C  C389  1  0.026800  0.719300  0.278300  1.0  -0.0783
  C  C390  1  0.060800  0.681000  0.262100  1.0  -0.0925
  C  C391  1  0.098100  0.687400  0.233500  1.0  0.1297
  C  C392  1  0.905000  0.581600  0.409700  1.0  0.1148
  C  C393  1  0.920200  0.624600  0.395900  1.0  -0.1057
  C  C394  1  0.942400  0.627300  0.366000  1.0  -0.0862
  C  C395  1  0.949700  0.585500  0.350600  1.0  -0.119
  C  C396  1  0.934100  0.542800  0.365800  1.0  0.1362
  C  C397  1  0.988200  0.544700  0.959700  1.0  0.1229
  C  C398  1  0.941900  0.555400  0.985800  1.0  -0.0845
  C  C399  1  0.990300  0.576000  0.009300  1.0  -0.0995
  C  C400  1  0.088000  0.584500  0.006200  1.0  -0.1587
  C  C401  1  0.130100  0.573800  0.979200  1.0  0.149
  C  C402  1  0.939400  0.590700  0.036900  1.0  0.4079
  C  C403  1  0.804400  0.595600  0.063400  1.0  0.2941
  C  C404  1  0.937900  0.628100  0.081500  1.0  0.3289
  C  C405  1  0.557000  0.547700  0.050100  1.0  0.1343
  C  C406  1  0.651300  0.562800  0.044400  1.0  -0.1435
  C  C407  1  0.702300  0.582700  0.068300  1.0  -0.1259
  C  C408  1  0.657500  0.587600  0.095400  1.0  -0.1097
  C  C409  1  0.565600  0.572300  0.099000  1.0  0.153
  C  C410  1  0.998000  0.697700  0.150600  1.0  0.1508
  C  C411  1  0.943800  0.674500  0.129100  1.0  -0.1381
  C  C412  1  0.990000  0.653000  0.106200  1.0  -0.0783
  C  C413  1  0.089400  0.656100  0.105800  1.0  -0.1208
  C  C414  1  0.136700  0.677800  0.128400  1.0  0.1275
  C  C415  1  0.066800  0.616900  0.867800  1.0  0.1295
  C  C416  1  0.050800  0.658900  0.853200  1.0  -0.1033
  C  C417  1  0.063600  0.701100  0.868200  1.0  -0.0966
  C  C418  1  0.092800  0.700000  0.898200  1.0  -0.161
  C  C419  1  0.110100  0.655400  0.910800  1.0  0.1366
  C  C420  1  0.047400  0.746500  0.852200  1.0  0.3901
  C  C421  1  0.006400  0.784100  0.809700  1.0  0.3483
  C  C422  1  0.045200  0.826300  0.850700  1.0  0.3936
  C  C423  1  0.940200  0.733100  0.734800  1.0  0.1297
  C  C424  1  0.973700  0.736900  0.763700  1.0  -0.1132
  C  C425  1  0.973200  0.780700  0.778300  1.0  -0.0784
  C  C426  1  0.939200  0.819000  0.762100  1.0  -0.0913
  C  C427  1  0.901900  0.812600  0.733500  1.0  0.1297
  C  C428  1  0.095000  0.918400  0.909700  1.0  0.1147
  C  C429  1  0.079800  0.875400  0.895900  1.0  -0.1043
  C  C430  1  0.057600  0.872700  0.866000  1.0  -0.0861
  C  C431  1  0.050300  0.914500  0.850600  1.0  -0.1204
  C  C432  1  0.065900  0.957200  0.865800  1.0  0.1382
  C  C433  1  0.511800  0.044700  0.040300  1.0  0.1219
  C  C434  1  0.558100  0.055400  0.014200  1.0  -0.0832
  C  C435  1  0.509700  0.076000  0.990700  1.0  -0.0993
  C  C436  1  0.412000  0.084500  0.993800  1.0  -0.1598
  C  C437  1  0.369900  0.073800  0.020800  1.0  0.1483
  C  C438  1  0.560600  0.090700  0.963100  1.0  0.4081
  C  C439  1  0.695600  0.095600  0.936600  1.0  0.2939
  C  C440  1  0.562100  0.128100  0.918500  1.0  0.3284
  C  C441  1  0.943000  0.047700  0.949900  1.0  0.1351
  C  C442  1  0.848700  0.062800  0.955600  1.0  -0.1449
  C  C443  1  0.797700  0.082700  0.931700  1.0  -0.126
  C  C444  1  0.842500  0.087600  0.904600  1.0  -0.1086
  C  C445  1  0.934400  0.072300  0.901000  1.0  0.1525
  C  C446  1  0.502000  0.197700  0.849400  1.0  0.1504
  C  C447  1  0.556200  0.174500  0.870900  1.0  -0.1384
  C  C448  1  0.510000  0.153000  0.893800  1.0  -0.0786
  C  C449  1  0.410600  0.156100  0.894200  1.0  -0.1204
  C  C450  1  0.363300  0.177800  0.871600  1.0  0.1271
  C  C451  1  0.433200  0.116900  0.132200  1.0  0.1292
  C  C452  1  0.449200  0.158900  0.146800  1.0  -0.1032
  C  C453  1  0.436400  0.201100  0.131800  1.0  -0.0964
  C  C454  1  0.407200  0.200000  0.101800  1.0  -0.1619
  C  C455  1  0.389900  0.155400  0.089200  1.0  0.1352
  C  C456  1  0.452600  0.246500  0.147800  1.0  0.3897
  C  C457  1  0.493600  0.284100  0.190300  1.0  0.3481
  C  C458  1  0.454800  0.326300  0.149300  1.0  0.3933
  C  C459  1  0.559800  0.233100  0.265200  1.0  0.1301
  C  C460  1  0.526300  0.236900  0.236300  1.0  -0.114
  C  C461  1  0.526800  0.280700  0.221700  1.0  -0.0778
  C  C462  1  0.560800  0.319000  0.237900  1.0  -0.0916
  C  C463  1  0.598100  0.312600  0.266500  1.0  0.1298
  C  C464  1  0.405000  0.418400  0.090300  1.0  0.1147
  C  C465  1  0.420200  0.375400  0.104100  1.0  -0.1023
  C  C466  1  0.442400  0.372700  0.134000  1.0  -0.0855
  C  C467  1  0.449700  0.414500  0.149400  1.0  -0.1215
  C  C468  1  0.434100  0.457200  0.134200  1.0  0.1373
  C  C469  1  0.488200  0.455300  0.540300  1.0  0.1217
  C  C470  1  0.441900  0.444600  0.514200  1.0  -0.0833
  C  C471  1  0.490300  0.424000  0.490700  1.0  -0.0993
  C  C472  1  0.588000  0.415500  0.493800  1.0  -0.1592
  C  C473  1  0.630100  0.426200  0.520800  1.0  0.1489
  C  C474  1  0.439400  0.409300  0.463100  1.0  0.4082
  C  C475  1  0.304400  0.404400  0.436600  1.0  0.2931
  C  C476  1  0.437900  0.371900  0.418500  1.0  0.3289
  C  C477  1  0.057000  0.452300  0.449900  1.0  0.1344
  C  C478  1  0.151300  0.437200  0.455600  1.0  -0.1446
  C  C479  1  0.202300  0.417300  0.431700  1.0  -0.1254
  C  C480  1  0.157500  0.412400  0.404600  1.0  -0.1074
  C  C481  1  0.065600  0.427700  0.401000  1.0  0.1537
  C  C482  1  0.498000  0.302300  0.349400  1.0  0.1509
  C  C483  1  0.443800  0.325500  0.370900  1.0  -0.1385
  C  C484  1  0.490000  0.347000  0.393800  1.0  -0.0792
  C  C485  1  0.589400  0.343900  0.394200  1.0  -0.122
  C  C486  1  0.636700  0.322200  0.371600  1.0  0.1279
  C  C487  1  0.566800  0.383100  0.632200  1.0  0.1298
  C  C488  1  0.550800  0.341100  0.646800  1.0  -0.1038
  C  C489  1  0.563600  0.298900  0.631800  1.0  -0.0958
  C  C490  1  0.592800  0.300000  0.601800  1.0  -0.1618
  C  C491  1  0.610100  0.344600  0.589200  1.0  0.1361
  C  C492  1  0.547400  0.253500  0.647800  1.0  0.3897
  C  C493  1  0.506400  0.215900  0.690300  1.0  0.3477
  C  C494  1  0.545200  0.173700  0.649300  1.0  0.3943
  C  C495  1  0.440200  0.266900  0.765200  1.0  0.1309
  C  C496  1  0.473700  0.263100  0.736300  1.0  -0.1136
  C  C497  1  0.473200  0.219300  0.721700  1.0  -0.0776
  C  C498  1  0.439200  0.181000  0.737900  1.0  -0.0917
  C  C499  1  0.401900  0.187400  0.766500  1.0  0.1322
  C  C500  1  0.595000  0.081600  0.590300  1.0  0.1137
  C  C501  1  0.579800  0.124600  0.604100  1.0  -0.1051
  C  C502  1  0.557600  0.127300  0.634000  1.0  -0.0864
  C  C503  1  0.550300  0.085500  0.649400  1.0  -0.1221
  C  C504  1  0.565900  0.042800  0.634200  1.0  0.1364
  I  I505  1  0.322290  0.057350  0.583010  1.0  -0.3994
  I  I506  1  0.056510  0.986340  0.616490  1.0  -0.3778
  I  I507  1  0.304630  0.006010  0.465880  1.0  -0.4011
  I  I508  1  0.304010  0.074780  0.375830  1.0  -0.3362
  I  I509  1  0.157610  0.325900  0.335720  1.0  -0.2968
  I  I510  1  0.334060  0.201960  0.312900  1.0  -0.4004
  I  I511  1  0.677710  0.442650  0.083010  1.0  -0.3988
  I  I512  1  0.943490  0.513660  0.116490  1.0  -0.3774
  I  I513  1  0.695370  0.493990  0.965880  1.0  -0.4011
  I  I514  1  0.695990  0.425220  0.875830  1.0  -0.3359
  I  I515  1  0.842390  0.174100  0.835720  1.0  -0.298
  I  I516  1  0.665940  0.298040  0.812900  1.0  -0.4004
  I  I517  1  0.822290  0.942650  0.916990  1.0  -0.399
  I  I518  1  0.556510  0.013660  0.883510  1.0  -0.3776
  I  I519  1  0.804630  0.993990  0.034120  1.0  -0.4008
  I  I520  1  0.804010  0.925220  0.124170  1.0  -0.3364
  I  I521  1  0.657610  0.674100  0.164280  1.0  -0.2982
  I  I522  1  0.834060  0.798040  0.187100  1.0  -0.4004
  I  I523  1  0.177710  0.557350  0.416990  1.0  -0.3985
  I  I524  1  0.443490  0.486340  0.383510  1.0  -0.3785
  I  I525  1  0.195370  0.506010  0.534120  1.0  -0.4011
  I  I526  1  0.195990  0.574780  0.624170  1.0  -0.3369
  I  I527  1  0.342390  0.825900  0.664280  1.0  -0.2973
  I  I528  1  0.165940  0.701960  0.687100  1.0  -0.4007
  I  I529  1  0.677710  0.942650  0.416990  1.0  -0.3985
  I  I530  1  0.943490  0.013660  0.383510  1.0  -0.3774
  I  I531  1  0.695370  0.993990  0.534120  1.0  -0.4009
  I  I532  1  0.695990  0.925220  0.624170  1.0  -0.3357
  I  I533  1  0.842390  0.674100  0.664280  1.0  -0.2983
  I  I534  1  0.665940  0.798040  0.687100  1.0  -0.4005
  I  I535  1  0.322290  0.557350  0.916990  1.0  -0.3989
  I  I536  1  0.056510  0.486340  0.883510  1.0  -0.3779
  I  I537  1  0.304630  0.506010  0.034120  1.0  -0.4011
  I  I538  1  0.304010  0.574780  0.124170  1.0  -0.3362
  I  I539  1  0.157610  0.825900  0.164280  1.0  -0.2973
  I  I540  1  0.334060  0.701960  0.187100  1.0  -0.4007
  I  I541  1  0.177710  0.057350  0.083010  1.0  -0.399
  I  I542  1  0.443490  0.986340  0.116490  1.0  -0.377
  I  I543  1  0.195370  0.006010  0.965880  1.0  -0.4012
  I  I544  1  0.195990  0.074780  0.875830  1.0  -0.3368
  I  I545  1  0.342390  0.325900  0.835720  1.0  -0.2968
  I  I546  1  0.165940  0.201960  0.812900  1.0  -0.4006
  I  I547  1  0.822290  0.442650  0.583010  1.0  -0.3994
  I  I548  1  0.556510  0.513660  0.616490  1.0  -0.3774
  I  I549  1  0.804630  0.493990  0.465880  1.0  -0.4009
  I  I550  1  0.804010  0.425220  0.375830  1.0  -0.3366
  I  I551  1  0.657610  0.174100  0.335720  1.0  -0.2978
  I  I552  1  0.834060  0.298040  0.312900  1.0  -0.4002
  N  N553  1  0.082600  0.054800  0.544400  1.0  -0.3184
  N  N554  1  0.846500  0.079300  0.461000  1.0  -0.4601
  N  N555  1  0.844400  0.121400  0.414500  1.0  -0.4592
  N  N556  1  0.990300  0.113300  0.442200  1.0  -0.4544
  N  N557  1  0.515800  0.052400  0.423600  1.0  -0.3136
  N  N558  1  0.092200  0.198500  0.349700  1.0  -0.3001
  N  N559  1  0.097200  0.114500  0.603720  1.0  -0.3266
  N  N560  1  0.021300  0.243300  0.676360  1.0  -0.462
  N  N561  1  0.061200  0.287300  0.633000  1.0  -0.4857
  N  N562  1  0.016700  0.327300  0.678300  1.0  -0.4498
  N  N563  1  0.902500  0.269900  0.779760  1.0  -0.3035
  N  N564  1  0.087600  0.458800  0.605100  1.0  -0.274
  N  N565  1  0.917400  0.445200  0.044400  1.0  -0.3195
  N  N566  1  0.153500  0.420700  0.961000  1.0  -0.4591
  N  N567  1  0.155600  0.378600  0.914500  1.0  -0.4603
  N  N568  1  0.009700  0.386700  0.942200  1.0  -0.4525
  N  N569  1  0.484200  0.447600  0.923600  1.0  -0.3131
  N  N570  1  0.907800  0.301500  0.849700  1.0  -0.3014
  N  N571  1  0.902800  0.385500  0.103720  1.0  -0.328
  N  N572  1  0.978700  0.256700  0.176360  1.0  -0.4623
  N  N573  1  0.938800  0.212700  0.133000  1.0  -0.4859
  N  N574  1  0.983300  0.172700  0.178300  1.0  -0.4485
  N  N575  1  0.097500  0.230100  0.279760  1.0  -0.3032
  N  N576  1  0.912400  0.041200  0.105100  1.0  -0.2743
  N  N577  1  0.582600  0.945200  0.955600  1.0  -0.3192
  N  N578  1  0.346500  0.920700  0.039000  1.0  -0.4586
  N  N579  1  0.344400  0.878600  0.085500  1.0  -0.4603
  N  N580  1  0.490300  0.886700  0.057800  1.0  -0.4543
  N  N581  1  0.015800  0.947600  0.076400  1.0  -0.3137
  N  N582  1  0.592200  0.801500  0.150300  1.0  -0.2986
  N  N583  1  0.597200  0.885500  0.896280  1.0  -0.3294
  N  N584  1  0.521300  0.756700  0.823640  1.0  -0.4625
  N  N585  1  0.561200  0.712700  0.867000  1.0  -0.4849
  N  N586  1  0.516700  0.672700  0.821700  1.0  -0.45
  N  N587  1  0.402500  0.730100  0.720240  1.0  -0.3034
  N  N588  1  0.587600  0.541200  0.894900  1.0  -0.2748
  N  N589  1  0.417400  0.554800  0.455600  1.0  -0.3208
  N  N590  1  0.653500  0.579300  0.539000  1.0  -0.4577
  N  N591  1  0.655600  0.621400  0.585500  1.0  -0.4601
  N  N592  1  0.509700  0.613300  0.557800  1.0  -0.4511
  N  N593  1  0.984200  0.552400  0.576400  1.0  -0.3135
  N  N594  1  0.407800  0.698500  0.650300  1.0  -0.3008
  N  N595  1  0.402800  0.614500  0.396280  1.0  -0.3272
  N  N596  1  0.478700  0.743300  0.323640  1.0  -0.4626
  N  N597  1  0.438800  0.787300  0.367000  1.0  -0.4857
  N  N598  1  0.483300  0.827300  0.321700  1.0  -0.4493
  N  N599  1  0.597500  0.769900  0.220240  1.0  -0.304
  N  N600  1  0.412400  0.958800  0.394900  1.0  -0.2744
  N  N601  1  0.917400  0.945200  0.455600  1.0  -0.3195
  N  N602  1  0.153500  0.920700  0.539000  1.0  -0.4578
  N  N603  1  0.155600  0.878600  0.585500  1.0  -0.4597
  N  N604  1  0.009700  0.886700  0.557800  1.0  -0.4522
  N  N605  1  0.484200  0.947600  0.576400  1.0  -0.3136
  N  N606  1  0.907800  0.801500  0.650300  1.0  -0.2999
  N  N607  1  0.902800  0.885500  0.396280  1.0  -0.3287
  N  N608  1  0.978700  0.756700  0.323640  1.0  -0.4625
  N  N609  1  0.938800  0.712700  0.367000  1.0  -0.4857
  N  N610  1  0.983300  0.672700  0.321700  1.0  -0.4495
  N  N611  1  0.097500  0.730100  0.220240  1.0  -0.3038
  N  N612  1  0.912400  0.541200  0.394900  1.0  -0.2745
  N  N613  1  0.082600  0.554800  0.955600  1.0  -0.3207
  N  N614  1  0.846500  0.579300  0.039000  1.0  -0.4585
  N  N615  1  0.844400  0.621400  0.085500  1.0  -0.4605
  N  N616  1  0.990300  0.613300  0.057800  1.0  -0.4541
  N  N617  1  0.515800  0.552400  0.076400  1.0  -0.3139
  N  N618  1  0.092200  0.698500  0.150300  1.0  -0.2996
  N  N619  1  0.097200  0.614500  0.896280  1.0  -0.3268
  N  N620  1  0.021300  0.743300  0.823640  1.0  -0.463
  N  N621  1  0.061200  0.787300  0.867000  1.0  -0.4849
  N  N622  1  0.016700  0.827300  0.821700  1.0  -0.4494
  N  N623  1  0.902500  0.769900  0.720240  1.0  -0.3039
  N  N624  1  0.087600  0.958800  0.894900  1.0  -0.2751
  N  N625  1  0.417400  0.054800  0.044400  1.0  -0.3189
  N  N626  1  0.653500  0.079300  0.961000  1.0  -0.4593
  N  N627  1  0.655600  0.121400  0.914500  1.0  -0.4593
  N  N628  1  0.509700  0.113300  0.942200  1.0  -0.4516
  N  N629  1  0.984200  0.052400  0.923600  1.0  -0.3131
  N  N630  1  0.407800  0.198500  0.849700  1.0  -0.3009
  N  N631  1  0.402800  0.114500  0.103720  1.0  -0.3269
  N  N632  1  0.478700  0.243300  0.176360  1.0  -0.4618
  N  N633  1  0.438800  0.287300  0.133000  1.0  -0.4859
  N  N634  1  0.483300  0.327300  0.178300  1.0  -0.4499
  N  N635  1  0.597500  0.269900  0.279760  1.0  -0.3034
  N  N636  1  0.412400  0.458800  0.105100  1.0  -0.2733
  N  N637  1  0.582600  0.445200  0.544400  1.0  -0.3188
  N  N638  1  0.346500  0.420700  0.461000  1.0  -0.4598
  N  N639  1  0.344400  0.378600  0.414500  1.0  -0.4602
  N  N640  1  0.490300  0.386700  0.442200  1.0  -0.4544
  N  N641  1  0.015800  0.447600  0.423600  1.0  -0.3132
  N  N642  1  0.592200  0.301500  0.349700  1.0  -0.3001
  N  N643  1  0.597200  0.385500  0.603720  1.0  -0.3287
  N  N644  1  0.521300  0.256700  0.676360  1.0  -0.4624
  N  N645  1  0.561200  0.212700  0.633000  1.0  -0.4856
  N  N646  1  0.516700  0.172700  0.678300  1.0  -0.4489
  N  N647  1  0.402500  0.230100  0.779760  1.0  -0.3031
  N  N648  1  0.587600  0.041200  0.605100  1.0  -0.2743
