# generated using pymatgen
data_ZnH8C12(IN2)2
_symmetry_space_group_name_H-M   'P 1'
_cell_length_a   13.83900000
_cell_length_b   27.91000000
_cell_length_c   44.93000000
_cell_angle_alpha   90.00000000
_cell_angle_beta   90.00000000
_cell_angle_gamma   90.00000000
_symmetry_Int_Tables_number   1
_chemical_formula_structural   ZnH8C12(IN2)2
_chemical_formula_sum   'Zn24 H192 C288 I48 N96'
_cell_volume   17354.05479570
_cell_formula_units_Z   24
loop_
 _symmetry_equiv_pos_site_id
 _symmetry_equiv_pos_as_xyz
  1  'x, y, z'
loop_
 _atom_site_type_symbol
 _atom_site_label
 _atom_site_symmetry_multiplicity
 _atom_site_fract_x
 _atom_site_fract_y
 _atom_site_fract_z
 _atom_site_occupancy
 _atom_site_charge
  Zn  Zn1  1  0.837980  0.258180  0.816600  1.0  0.8873
  Zn  Zn2  1  0.625800  0.477570  0.914110  1.0  0.8342
  Zn  Zn3  1  0.853320  0.448190  0.080010  1.0  0.8322
  Zn  Zn4  1  0.162020  0.241820  0.316600  1.0  0.8875
  Zn  Zn5  1  0.374200  0.022430  0.414110  1.0  0.8347
  Zn  Zn6  1  0.146680  0.051810  0.580010  1.0  0.8353
  Zn  Zn7  1  0.337980  0.741820  0.683400  1.0  0.886
  Zn  Zn8  1  0.125800  0.522430  0.585890  1.0  0.8337
  Zn  Zn9  1  0.353320  0.551810  0.419990  1.0  0.8348
  Zn  Zn10  1  0.662020  0.758180  0.183400  1.0  0.8885
  Zn  Zn11  1  0.874200  0.977570  0.085890  1.0  0.8339
  Zn  Zn12  1  0.646680  0.948190  0.919990  1.0  0.8338
  Zn  Zn13  1  0.162020  0.741820  0.183400  1.0  0.8876
  Zn  Zn14  1  0.374200  0.522430  0.085890  1.0  0.8335
  Zn  Zn15  1  0.146680  0.551810  0.919990  1.0  0.8348
  Zn  Zn16  1  0.837980  0.758180  0.683400  1.0  0.8873
  Zn  Zn17  1  0.625800  0.977570  0.585890  1.0  0.8334
  Zn  Zn18  1  0.853320  0.948190  0.419990  1.0  0.8328
  Zn  Zn19  1  0.662020  0.258180  0.316600  1.0  0.8884
  Zn  Zn20  1  0.874200  0.477570  0.414110  1.0  0.8351
  Zn  Zn21  1  0.646680  0.448190  0.580010  1.0  0.8336
  Zn  Zn22  1  0.337980  0.241820  0.816600  1.0  0.8858
  Zn  Zn23  1  0.125800  0.022430  0.914110  1.0  0.8343
  Zn  Zn24  1  0.353320  0.051810  0.080010  1.0  0.8353
  H  H25  1  0.046100  0.277600  0.832600  1.0  0.0856
  H  H26  1  0.134500  0.318900  0.868900  1.0  0.1132
  H  H27  1  0.884000  0.353200  0.908000  1.0  0.1141
  H  H28  1  0.801800  0.316300  0.870200  1.0  0.1008
  H  H29  1  0.476000  0.422100  0.881400  1.0  0.0891
  H  H30  1  0.318600  0.395300  0.887100  1.0  0.119
  H  H31  1  0.329200  0.436000  0.973100  1.0  0.1165
  H  H32  1  0.484600  0.465300  0.964700  1.0  0.0867
  H  H33  1  0.046500  0.465500  0.052200  1.0  0.0922
  H  H34  1  0.129500  0.444300  0.009700  1.0  0.1092
  H  H35  1  0.881900  0.400300  0.973300  1.0  0.1165
  H  H36  1  0.801900  0.422300  0.016900  1.0  0.0905
  H  H37  1  0.079400  0.484800  0.647500  1.0  0.0845
  H  H38  1  0.057500  0.412400  0.671900  1.0  0.1184
  H  H39  1  0.076500  0.346100  0.592700  1.0  0.1262
  H  H40  1  0.095600  0.419700  0.570500  1.0  0.0775
  H  H41  1  0.899300  0.336400  0.776700  1.0  0.0952
  H  H42  1  0.958100  0.347200  0.728600  1.0  0.1138
  H  H43  1  0.007800  0.204500  0.724700  1.0  0.1136
  H  H44  1  0.951000  0.198300  0.773000  1.0  0.0971
  H  H45  1  0.130200  0.157200  0.565600  1.0  0.0879
  H  H46  1  0.105400  0.229200  0.589900  1.0  0.1186
  H  H47  1  0.036800  0.154800  0.664100  1.0  0.1197
  H  H48  1  0.068800  0.085100  0.637900  1.0  0.0933
  H  H49  1  0.953900  0.222400  0.332600  1.0  0.0855
  H  H50  1  0.865500  0.181100  0.368900  1.0  0.1146
  H  H51  1  0.116000  0.146800  0.408000  1.0  0.1141
  H  H52  1  0.198200  0.183700  0.370200  1.0  0.1001
  H  H53  1  0.524000  0.077900  0.381400  1.0  0.0891
  H  H54  1  0.681400  0.104700  0.387100  1.0  0.1188
  H  H55  1  0.670800  0.064000  0.473100  1.0  0.1166
  H  H56  1  0.515400  0.034700  0.464700  1.0  0.087
  H  H57  1  0.953500  0.034500  0.552200  1.0  0.0923
  H  H58  1  0.870500  0.055700  0.509700  1.0  0.1085
  H  H59  1  0.118100  0.099700  0.473300  1.0  0.1167
  H  H60  1  0.198100  0.077700  0.516900  1.0  0.0897
  H  H61  1  0.920600  0.015200  0.147500  1.0  0.0846
  H  H62  1  0.942500  0.087600  0.171900  1.0  0.1191
  H  H63  1  0.923500  0.153900  0.092700  1.0  0.1265
  H  H64  1  0.904400  0.080300  0.070500  1.0  0.0773
  H  H65  1  0.100700  0.163600  0.276700  1.0  0.0954
  H  H66  1  0.041900  0.152800  0.228600  1.0  0.1138
  H  H67  1  0.992200  0.295500  0.224700  1.0  0.1138
  H  H68  1  0.049000  0.301700  0.273000  1.0  0.0961
  H  H69  1  0.869800  0.342800  0.065600  1.0  0.0879
  H  H70  1  0.894600  0.270800  0.089900  1.0  0.1189
  H  H71  1  0.963200  0.345200  0.164100  1.0  0.1199
  H  H72  1  0.931200  0.414900  0.137900  1.0  0.092
  H  H73  1  0.546100  0.722400  0.667400  1.0  0.0854
  H  H74  1  0.634500  0.681100  0.631100  1.0  0.1132
  H  H75  1  0.384000  0.646800  0.592000  1.0  0.1138
  H  H76  1  0.301800  0.683700  0.629800  1.0  0.1007
  H  H77  1  0.976000  0.577900  0.618600  1.0  0.0887
  H  H78  1  0.818600  0.604700  0.612900  1.0  0.1192
  H  H79  1  0.829200  0.564000  0.526900  1.0  0.1166
  H  H80  1  0.984600  0.534700  0.535300  1.0  0.0868
  H  H81  1  0.546500  0.534500  0.447800  1.0  0.0923
  H  H82  1  0.629500  0.555700  0.490300  1.0  0.1088
  H  H83  1  0.381900  0.599700  0.526700  1.0  0.1165
  H  H84  1  0.301900  0.577700  0.483100  1.0  0.0904
  H  H85  1  0.579400  0.515200  0.852500  1.0  0.0841
  H  H86  1  0.557500  0.587600  0.828100  1.0  0.1196
  H  H87  1  0.576500  0.653900  0.907300  1.0  0.1261
  H  H88  1  0.595600  0.580300  0.929500  1.0  0.0787
  H  H89  1  0.399300  0.663600  0.723300  1.0  0.0953
  H  H90  1  0.458100  0.652800  0.771400  1.0  0.1143
  H  H91  1  0.507800  0.795500  0.775300  1.0  0.1138
  H  H92  1  0.451000  0.801700  0.727000  1.0  0.0963
  H  H93  1  0.630200  0.842800  0.934400  1.0  0.0869
  H  H94  1  0.605400  0.770800  0.910100  1.0  0.1189
  H  H95  1  0.536800  0.845200  0.835900  1.0  0.1195
  H  H96  1  0.568800  0.914900  0.862100  1.0  0.0919
  H  H97  1  0.453900  0.777600  0.167400  1.0  0.0853
  H  H98  1  0.365500  0.818900  0.131100  1.0  0.1144
  H  H99  1  0.616000  0.853200  0.092000  1.0  0.1139
  H  H100  1  0.698200  0.816300  0.129800  1.0  0.0999
  H  H101  1  0.024000  0.922100  0.118600  1.0  0.0895
  H  H102  1  0.181400  0.895300  0.112900  1.0  0.1195
  H  H103  1  0.170800  0.936000  0.026900  1.0  0.1169
  H  H104  1  0.015400  0.965300  0.035300  1.0  0.0865
  H  H105  1  0.453500  0.965500  0.947800  1.0  0.0919
  H  H106  1  0.370500  0.944300  0.990300  1.0  0.1089
  H  H107  1  0.618100  0.900300  0.026700  1.0  0.1166
  H  H108  1  0.698100  0.922300  0.983100  1.0  0.0898
  H  H109  1  0.420600  0.984800  0.352500  1.0  0.084
  H  H110  1  0.442500  0.912400  0.328100  1.0  0.1189
  H  H111  1  0.423500  0.846100  0.407300  1.0  0.1264
  H  H112  1  0.404400  0.919700  0.429500  1.0  0.0784
  H  H113  1  0.600700  0.836400  0.223300  1.0  0.0958
  H  H114  1  0.541900  0.847200  0.271400  1.0  0.1137
  H  H115  1  0.492200  0.704500  0.275300  1.0  0.1137
  H  H116  1  0.549000  0.698300  0.227000  1.0  0.0972
  H  H117  1  0.369800  0.657200  0.434400  1.0  0.0877
  H  H118  1  0.394600  0.729200  0.410100  1.0  0.1187
  H  H119  1  0.463200  0.654800  0.335900  1.0  0.1197
  H  H120  1  0.431200  0.585100  0.362100  1.0  0.0923
  H  H121  1  0.953900  0.722400  0.167400  1.0  0.0851
  H  H122  1  0.865500  0.681100  0.131100  1.0  0.1144
  H  H123  1  0.116000  0.646800  0.092000  1.0  0.1139
  H  H124  1  0.198200  0.683700  0.129800  1.0  0.1
  H  H125  1  0.524000  0.577900  0.118600  1.0  0.0892
  H  H126  1  0.681400  0.604700  0.112900  1.0  0.1191
  H  H127  1  0.670800  0.564000  0.026900  1.0  0.1169
  H  H128  1  0.515400  0.534700  0.035300  1.0  0.0867
  H  H129  1  0.953500  0.534500  0.947800  1.0  0.092
  H  H130  1  0.870500  0.555700  0.990300  1.0  0.1089
  H  H131  1  0.118100  0.599700  0.026700  1.0  0.1168
  H  H132  1  0.198100  0.577700  0.983100  1.0  0.0899
  H  H133  1  0.920600  0.515200  0.352500  1.0  0.084
  H  H134  1  0.942500  0.587600  0.328100  1.0  0.1194
  H  H135  1  0.923500  0.653900  0.407300  1.0  0.1263
  H  H136  1  0.904400  0.580300  0.429500  1.0  0.0786
  H  H137  1  0.100700  0.663600  0.223300  1.0  0.0956
  H  H138  1  0.041900  0.652800  0.271400  1.0  0.1141
  H  H139  1  0.992200  0.795500  0.275300  1.0  0.1138
  H  H140  1  0.049000  0.801700  0.227000  1.0  0.0964
  H  H141  1  0.869800  0.842800  0.434400  1.0  0.0876
  H  H142  1  0.894600  0.770800  0.410100  1.0  0.1191
  H  H143  1  0.963200  0.845200  0.335900  1.0  0.1199
  H  H144  1  0.931200  0.914900  0.362100  1.0  0.0915
  H  H145  1  0.046100  0.777600  0.667400  1.0  0.0854
  H  H146  1  0.134500  0.818900  0.631100  1.0  0.1132
  H  H147  1  0.884000  0.853200  0.592000  1.0  0.1139
  H  H148  1  0.801800  0.816300  0.629800  1.0  0.1007
  H  H149  1  0.476000  0.922100  0.618600  1.0  0.089
  H  H150  1  0.318600  0.895300  0.612900  1.0  0.1195
  H  H151  1  0.329200  0.936000  0.526900  1.0  0.1167
  H  H152  1  0.484600  0.965300  0.535300  1.0  0.0866
  H  H153  1  0.046500  0.965500  0.447800  1.0  0.092
  H  H154  1  0.129500  0.944300  0.490300  1.0  0.1089
  H  H155  1  0.881900  0.900300  0.526700  1.0  0.117
  H  H156  1  0.801900  0.922300  0.483100  1.0  0.0905
  H  H157  1  0.079400  0.984800  0.852500  1.0  0.0842
  H  H158  1  0.057500  0.912400  0.828100  1.0  0.1192
  H  H159  1  0.076500  0.846100  0.907300  1.0  0.1263
  H  H160  1  0.095600  0.919700  0.929500  1.0  0.0787
  H  H161  1  0.899300  0.836400  0.723300  1.0  0.0956
  H  H162  1  0.958100  0.847200  0.771400  1.0  0.1139
  H  H163  1  0.007800  0.704500  0.775300  1.0  0.1139
  H  H164  1  0.951000  0.698300  0.727000  1.0  0.0972
  H  H165  1  0.130200  0.657200  0.934400  1.0  0.0874
  H  H166  1  0.105400  0.729200  0.910100  1.0  0.1188
  H  H167  1  0.036800  0.654800  0.835900  1.0  0.1194
  H  H168  1  0.068800  0.585100  0.862100  1.0  0.0924
  H  H169  1  0.453900  0.277600  0.332600  1.0  0.0853
  H  H170  1  0.365500  0.318900  0.368900  1.0  0.1143
  H  H171  1  0.616000  0.353200  0.408000  1.0  0.1139
  H  H172  1  0.698200  0.316300  0.370200  1.0  0.1
  H  H173  1  0.024000  0.422100  0.381400  1.0  0.0891
  H  H174  1  0.181400  0.395300  0.387100  1.0  0.1191
  H  H175  1  0.170800  0.436000  0.473100  1.0  0.1168
  H  H176  1  0.015400  0.465300  0.464700  1.0  0.0869
  H  H177  1  0.453500  0.465500  0.552200  1.0  0.0923
  H  H178  1  0.370500  0.444300  0.509700  1.0  0.1084
  H  H179  1  0.618100  0.400300  0.473300  1.0  0.1162
  H  H180  1  0.698100  0.422300  0.516900  1.0  0.0895
  H  H181  1  0.420600  0.484800  0.147500  1.0  0.0846
  H  H182  1  0.442500  0.412400  0.171900  1.0  0.1186
  H  H183  1  0.423500  0.346100  0.092700  1.0  0.1263
  H  H184  1  0.404400  0.419700  0.070500  1.0  0.0773
  H  H185  1  0.600700  0.336400  0.276700  1.0  0.0953
  H  H186  1  0.541900  0.347200  0.228600  1.0  0.1137
  H  H187  1  0.492200  0.204500  0.224700  1.0  0.1134
  H  H188  1  0.549000  0.198300  0.273000  1.0  0.0971
  H  H189  1  0.369800  0.157200  0.065600  1.0  0.0881
  H  H190  1  0.394600  0.229200  0.089900  1.0  0.1185
  H  H191  1  0.463200  0.154800  0.164100  1.0  0.1199
  H  H192  1  0.431200  0.085100  0.137900  1.0  0.0929
  H  H193  1  0.546100  0.222400  0.832600  1.0  0.0859
  H  H194  1  0.634500  0.181100  0.868900  1.0  0.1134
  H  H195  1  0.384000  0.146800  0.908000  1.0  0.1142
  H  H196  1  0.301800  0.183700  0.870200  1.0  0.1009
  H  H197  1  0.976000  0.077900  0.881400  1.0  0.0891
  H  H198  1  0.818600  0.104700  0.887100  1.0  0.1189
  H  H199  1  0.829200  0.064000  0.973100  1.0  0.1164
  H  H200  1  0.984600  0.034700  0.964700  1.0  0.0868
  H  H201  1  0.546500  0.034500  0.052200  1.0  0.0923
  H  H202  1  0.629500  0.055700  0.009700  1.0  0.1089
  H  H203  1  0.381900  0.099700  0.973300  1.0  0.1163
  H  H204  1  0.301900  0.077700  0.016900  1.0  0.0906
  H  H205  1  0.579400  0.015200  0.647500  1.0  0.0845
  H  H206  1  0.557500  0.087600  0.671900  1.0  0.1189
  H  H207  1  0.576500  0.153900  0.592700  1.0  0.1265
  H  H208  1  0.595600  0.080300  0.570500  1.0  0.0774
  H  H209  1  0.399300  0.163600  0.776700  1.0  0.0953
  H  H210  1  0.458100  0.152800  0.728600  1.0  0.1141
  H  H211  1  0.507800  0.295500  0.724700  1.0  0.1138
  H  H212  1  0.451000  0.301700  0.773000  1.0  0.0959
  H  H213  1  0.630200  0.342800  0.565600  1.0  0.0876
  H  H214  1  0.605400  0.270800  0.589900  1.0  0.1186
  H  H215  1  0.536800  0.345200  0.664100  1.0  0.1195
  H  H216  1  0.568800  0.414900  0.637900  1.0  0.0923
  C  C217  1  0.012600  0.294000  0.848000  1.0  0.131
  C  C218  1  0.066000  0.317700  0.869900  1.0  -0.1036
  C  C219  1  0.018000  0.339200  0.892940  1.0  -0.0958
  C  C220  1  0.919200  0.338200  0.892400  1.0  -0.0928
  C  C221  1  0.870500  0.316000  0.870000  1.0  0.1102
  C  C222  1  0.070600  0.364600  0.916610  1.0  0.3823
  C  C223  1  0.205700  0.398700  0.934990  1.0  0.3954
  C  C224  1  0.068700  0.402700  0.960640  1.0  0.396
  C  C225  1  0.445000  0.426000  0.900100  1.0  0.1337
  C  C226  1  0.351800  0.409300  0.903400  1.0  -0.1363
  C  C227  1  0.307500  0.413300  0.930800  1.0  -0.1311
  C  C228  1  0.357500  0.433600  0.953900  1.0  -0.1156
  C  C229  1  0.450500  0.450700  0.948700  1.0  0.1398
  C  C230  1  0.012700  0.450500  0.036300  1.0  0.12
  C  C231  1  0.062000  0.438600  0.011000  1.0  -0.1293
  C  C232  1  0.014400  0.418300  0.987250  1.0  -0.0975
  C  C233  1  0.917700  0.412800  0.989500  1.0  -0.1289
  C  C234  1  0.870200  0.425400  0.015900  1.0  0.1146
  C  C235  1  0.079700  0.456000  0.636200  1.0  0.1245
  C  C236  1  0.066100  0.413100  0.651000  1.0  -0.1443
  C  C237  1  0.065300  0.372400  0.634910  1.0  -0.1162
  C  C238  1  0.077000  0.374400  0.604400  1.0  -0.1448
  C  C239  1  0.089400  0.418300  0.591500  1.0  0.1444
  C  C240  1  0.053900  0.324200  0.649800  1.0  0.4013
  C  C241  1  0.019100  0.280400  0.689990  1.0  0.3827
  C  C242  1  0.055500  0.244600  0.646850  1.0  0.4068
  C  C243  1  0.920600  0.309300  0.765600  1.0  0.1331
  C  C244  1  0.955800  0.316000  0.737100  1.0  -0.1311
  C  C245  1  0.987700  0.276500  0.720990  1.0  -0.1375
  C  C246  1  0.985400  0.232200  0.734850  1.0  -0.0909
  C  C247  1  0.950600  0.228600  0.763360  1.0  0.1263
  C  C248  1  0.112500  0.156700  0.586000  1.0  0.1395
  C  C249  1  0.097300  0.199800  0.600280  1.0  -0.1432
  C  C250  1  0.070000  0.199500  0.629900  1.0  -0.1274
  C  C251  1  0.057600  0.156200  0.643940  1.0  -0.1386
  C  C252  1  0.076000  0.115000  0.628110  1.0  0.1294
  C  C253  1  0.987400  0.206000  0.348000  1.0  0.1315
  C  C254  1  0.934000  0.182300  0.369900  1.0  -0.1044
  C  C255  1  0.982000  0.160800  0.392940  1.0  -0.0963
  C  C256  1  0.080800  0.161800  0.392400  1.0  -0.0931
  C  C257  1  0.129500  0.184000  0.370000  1.0  0.109
  C  C258  1  0.929400  0.135400  0.416610  1.0  0.3824
  C  C259  1  0.794300  0.101300  0.434990  1.0  0.3949
  C  C260  1  0.931300  0.097300  0.460640  1.0  0.3966
  C  C261  1  0.555000  0.074000  0.400100  1.0  0.1356
  C  C262  1  0.648200  0.090700  0.403400  1.0  -0.1356
  C  C263  1  0.692500  0.086700  0.430800  1.0  -0.1301
  C  C264  1  0.642500  0.066400  0.453900  1.0  -0.1151
  C  C265  1  0.549500  0.049300  0.448700  1.0  0.1399
  C  C266  1  0.987300  0.049500  0.536300  1.0  0.1197
  C  C267  1  0.938000  0.061400  0.511000  1.0  -0.1319
  C  C268  1  0.985600  0.081700  0.487250  1.0  -0.0962
  C  C269  1  0.082300  0.087200  0.489500  1.0  -0.1275
  C  C270  1  0.129800  0.074600  0.515900  1.0  0.1155
  C  C271  1  0.920300  0.044000  0.136200  1.0  0.1242
  C  C272  1  0.933900  0.086900  0.151000  1.0  -0.1432
  C  C273  1  0.934700  0.127600  0.134910  1.0  -0.1166
  C  C274  1  0.923000  0.125600  0.104400  1.0  -0.1451
  C  C275  1  0.910600  0.081700  0.091500  1.0  0.1447
  C  C276  1  0.946100  0.175800  0.149800  1.0  0.4015
  C  C277  1  0.980900  0.219600  0.189990  1.0  0.3825
  C  C278  1  0.944500  0.255400  0.146850  1.0  0.4064
  C  C279  1  0.079400  0.190700  0.265600  1.0  0.1335
  C  C280  1  0.044200  0.184000  0.237100  1.0  -0.131
  C  C281  1  0.012300  0.223500  0.220990  1.0  -0.138
  C  C282  1  0.014600  0.267800  0.234850  1.0  -0.0909
  C  C283  1  0.049400  0.271400  0.263360  1.0  0.126
  C  C284  1  0.887500  0.343300  0.086000  1.0  0.1401
  C  C285  1  0.902700  0.300200  0.100280  1.0  -0.1424
  C  C286  1  0.930000  0.300500  0.129900  1.0  -0.1269
  C  C287  1  0.942400  0.343800  0.143940  1.0  -0.1375
  C  C288  1  0.924000  0.385000  0.128110  1.0  0.1286
  C  C289  1  0.512600  0.706000  0.652000  1.0  0.1322
  C  C290  1  0.566000  0.682300  0.630100  1.0  -0.1032
  C  C291  1  0.518000  0.660800  0.607060  1.0  -0.096
  C  C292  1  0.419200  0.661800  0.607600  1.0  -0.0932
  C  C293  1  0.370500  0.684000  0.630000  1.0  0.1096
  C  C294  1  0.570600  0.635400  0.583390  1.0  0.3829
  C  C295  1  0.705700  0.601300  0.565010  1.0  0.3956
  C  C296  1  0.568700  0.597300  0.539360  1.0  0.3969
  C  C297  1  0.945000  0.574000  0.599900  1.0  0.1338
  C  C298  1  0.851800  0.590700  0.596600  1.0  -0.1361
  C  C299  1  0.807500  0.586700  0.569200  1.0  -0.1293
  C  C300  1  0.857500  0.566400  0.546100  1.0  -0.1159
  C  C301  1  0.950500  0.549300  0.551300  1.0  0.1384
  C  C302  1  0.512700  0.549500  0.463700  1.0  0.1205
  C  C303  1  0.562000  0.561400  0.489000  1.0  -0.129
  C  C304  1  0.514400  0.581700  0.512750  1.0  -0.0955
  C  C305  1  0.417700  0.587200  0.510500  1.0  -0.1274
  C  C306  1  0.370200  0.574600  0.484100  1.0  0.1145
  C  C307  1  0.579700  0.544000  0.863800  1.0  0.1245
  C  C308  1  0.566100  0.586900  0.849000  1.0  -0.1415
  C  C309  1  0.565300  0.627600  0.865090  1.0  -0.1165
  C  C310  1  0.577000  0.625600  0.895600  1.0  -0.1454
  C  C311  1  0.589400  0.581700  0.908500  1.0  0.1453
  C  C312  1  0.553900  0.675800  0.850200  1.0  0.4017
  C  C313  1  0.519100  0.719600  0.810010  1.0  0.3825
  C  C314  1  0.555500  0.755400  0.853150  1.0  0.4065
  C  C315  1  0.420600  0.690700  0.734400  1.0  0.1337
  C  C316  1  0.455800  0.684000  0.762900  1.0  -0.1316
  C  C317  1  0.487700  0.723500  0.779010  1.0  -0.1374
  C  C318  1  0.485400  0.767800  0.765150  1.0  -0.09
  C  C319  1  0.450600  0.771400  0.736640  1.0  0.1262
  C  C320  1  0.612500  0.843300  0.914000  1.0  0.1413
  C  C321  1  0.597300  0.800200  0.899720  1.0  -0.1423
  C  C322  1  0.570000  0.800500  0.870100  1.0  -0.1272
  C  C323  1  0.557600  0.843800  0.856060  1.0  -0.1379
  C  C324  1  0.576000  0.885000  0.871890  1.0  0.1276
  C  C325  1  0.487400  0.794000  0.152000  1.0  0.1327
  C  C326  1  0.434000  0.817700  0.130100  1.0  -0.1039
  C  C327  1  0.482000  0.839200  0.107060  1.0  -0.0969
  C  C328  1  0.580800  0.838200  0.107600  1.0  -0.0935
  C  C329  1  0.629500  0.816000  0.130000  1.0  0.1089
  C  C330  1  0.429400  0.864600  0.083390  1.0  0.3828
  C  C331  1  0.294300  0.898700  0.065010  1.0  0.3952
  C  C332  1  0.431300  0.902700  0.039360  1.0  0.3964
  C  C333  1  0.055000  0.926000  0.099900  1.0  0.1352
  C  C334  1  0.148200  0.909300  0.096600  1.0  -0.1348
  C  C335  1  0.192500  0.913300  0.069200  1.0  -0.1306
  C  C336  1  0.142500  0.933600  0.046100  1.0  -0.1155
  C  C337  1  0.049500  0.950700  0.051300  1.0  0.1396
  C  C338  1  0.487300  0.950500  0.963700  1.0  0.1216
  C  C339  1  0.438000  0.938600  0.989000  1.0  -0.1309
  C  C340  1  0.485600  0.918300  0.012750  1.0  -0.0966
  C  C341  1  0.582300  0.912800  0.010500  1.0  -0.1279
  C  C342  1  0.629800  0.925400  0.984100  1.0  0.1159
  C  C343  1  0.420300  0.956000  0.363800  1.0  0.1253
  C  C344  1  0.433900  0.913100  0.349000  1.0  -0.1417
  C  C345  1  0.434700  0.872400  0.365090  1.0  -0.1162
  C  C346  1  0.423000  0.874400  0.395600  1.0  -0.1449
  C  C347  1  0.410600  0.918300  0.408500  1.0  0.1451
  C  C348  1  0.446100  0.824200  0.350200  1.0  0.4015
  C  C349  1  0.480900  0.780400  0.310010  1.0  0.3827
  C  C350  1  0.444500  0.744600  0.353150  1.0  0.4069
  C  C351  1  0.579400  0.809300  0.234400  1.0  0.1336
  C  C352  1  0.544200  0.816000  0.262900  1.0  -0.1312
  C  C353  1  0.512300  0.776500  0.279010  1.0  -0.1375
  C  C354  1  0.514600  0.732200  0.265150  1.0  -0.0917
  C  C355  1  0.549400  0.728600  0.236640  1.0  0.1247
  C  C356  1  0.387500  0.656700  0.414000  1.0  0.1395
  C  C357  1  0.402700  0.699800  0.399720  1.0  -0.1428
  C  C358  1  0.430000  0.699500  0.370100  1.0  -0.1269
  C  C359  1  0.442400  0.656200  0.356060  1.0  -0.1382
  C  C360  1  0.424000  0.615000  0.371890  1.0  0.1284
  C  C361  1  0.987400  0.706000  0.152000  1.0  0.132
  C  C362  1  0.934000  0.682300  0.130100  1.0  -0.104
  C  C363  1  0.982000  0.660800  0.107060  1.0  -0.0966
  C  C364  1  0.080800  0.661800  0.107600  1.0  -0.0938
  C  C365  1  0.129500  0.684000  0.130000  1.0  0.1091
  C  C366  1  0.929400  0.635400  0.083390  1.0  0.3829
  C  C367  1  0.794300  0.601300  0.065010  1.0  0.3953
  C  C368  1  0.931300  0.597300  0.039360  1.0  0.3967
  C  C369  1  0.555000  0.574000  0.099900  1.0  0.1344
  C  C370  1  0.648200  0.590700  0.096600  1.0  -0.1355
  C  C371  1  0.692500  0.586700  0.069200  1.0  -0.13
  C  C372  1  0.642500  0.566400  0.046100  1.0  -0.1153
  C  C373  1  0.549500  0.549300  0.051300  1.0  0.1397
  C  C374  1  0.987300  0.549500  0.963700  1.0  0.1209
  C  C375  1  0.938000  0.561400  0.989000  1.0  -0.1313
  C  C376  1  0.985600  0.581700  0.012750  1.0  -0.0954
  C  C377  1  0.082300  0.587200  0.010500  1.0  -0.1275
  C  C378  1  0.129800  0.574600  0.984100  1.0  0.1157
  C  C379  1  0.920300  0.544000  0.363800  1.0  0.1246
  C  C380  1  0.933900  0.586900  0.349000  1.0  -0.1411
  C  C381  1  0.934700  0.627600  0.365090  1.0  -0.1165
  C  C382  1  0.923000  0.625600  0.395600  1.0  -0.146
  C  C383  1  0.910600  0.581700  0.408500  1.0  0.1453
  C  C384  1  0.946100  0.675800  0.350200  1.0  0.4016
  C  C385  1  0.980900  0.719600  0.310010  1.0  0.3825
  C  C386  1  0.944500  0.755400  0.353150  1.0  0.4065
  C  C387  1  0.079400  0.690700  0.234400  1.0  0.1322
  C  C388  1  0.044200  0.684000  0.262900  1.0  -0.132
  C  C389  1  0.012300  0.723500  0.279010  1.0  -0.1375
  C  C390  1  0.014600  0.767800  0.265150  1.0  -0.0909
  C  C391  1  0.049400  0.771400  0.236640  1.0  0.1258
  C  C392  1  0.887500  0.843300  0.414000  1.0  0.1403
  C  C393  1  0.902700  0.800200  0.399720  1.0  -0.1425
  C  C394  1  0.930000  0.800500  0.370100  1.0  -0.1271
  C  C395  1  0.942400  0.843800  0.356060  1.0  -0.1378
  C  C396  1  0.924000  0.885000  0.371890  1.0  0.128
  C  C397  1  0.012600  0.794000  0.652000  1.0  0.1327
  C  C398  1  0.066000  0.817700  0.630100  1.0  -0.1032
  C  C399  1  0.018000  0.839200  0.607060  1.0  -0.0961
  C  C400  1  0.919200  0.838200  0.607600  1.0  -0.0927
  C  C401  1  0.870500  0.816000  0.630000  1.0  0.11
  C  C402  1  0.070600  0.864600  0.583390  1.0  0.3826
  C  C403  1  0.205700  0.898700  0.565010  1.0  0.3958
  C  C404  1  0.068700  0.902700  0.539360  1.0  0.3965
  C  C405  1  0.445000  0.926000  0.599900  1.0  0.1346
  C  C406  1  0.351800  0.909300  0.596600  1.0  -0.1361
  C  C407  1  0.307500  0.913300  0.569200  1.0  -0.1309
  C  C408  1  0.357500  0.933600  0.546100  1.0  -0.1161
  C  C409  1  0.450500  0.950700  0.551300  1.0  0.1383
  C  C410  1  0.012700  0.950500  0.463700  1.0  0.1211
  C  C411  1  0.062000  0.938600  0.489000  1.0  -0.1287
  C  C412  1  0.014400  0.918300  0.512750  1.0  -0.0968
  C  C413  1  0.917700  0.912800  0.510500  1.0  -0.1283
  C  C414  1  0.870200  0.925400  0.484100  1.0  0.1153
  C  C415  1  0.079700  0.956000  0.863800  1.0  0.1253
  C  C416  1  0.066100  0.913100  0.849000  1.0  -0.1419
  C  C417  1  0.065300  0.872400  0.865090  1.0  -0.1163
  C  C418  1  0.077000  0.874400  0.895600  1.0  -0.1448
  C  C419  1  0.089400  0.918300  0.908500  1.0  0.1455
  C  C420  1  0.053900  0.824200  0.850200  1.0  0.4015
  C  C421  1  0.019100  0.780400  0.810010  1.0  0.3828
  C  C422  1  0.055500  0.744600  0.853150  1.0  0.407
  C  C423  1  0.920600  0.809300  0.734400  1.0  0.1339
  C  C424  1  0.955800  0.816000  0.762900  1.0  -0.1316
  C  C425  1  0.987700  0.776500  0.779010  1.0  -0.1373
  C  C426  1  0.985400  0.732200  0.765150  1.0  -0.091
  C  C427  1  0.950600  0.728600  0.736640  1.0  0.1256
  C  C428  1  0.112500  0.656700  0.914000  1.0  0.1404
  C  C429  1  0.097300  0.699800  0.899720  1.0  -0.1417
  C  C430  1  0.070000  0.699500  0.870100  1.0  -0.1271
  C  C431  1  0.057600  0.656200  0.856060  1.0  -0.1382
  C  C432  1  0.076000  0.615000  0.871890  1.0  0.1285
  C  C433  1  0.487400  0.294000  0.348000  1.0  0.1312
  C  C434  1  0.434000  0.317700  0.369900  1.0  -0.1042
  C  C435  1  0.482000  0.339200  0.392940  1.0  -0.0964
  C  C436  1  0.580800  0.338200  0.392400  1.0  -0.0932
  C  C437  1  0.629500  0.316000  0.370000  1.0  0.1089
  C  C438  1  0.429400  0.364600  0.416610  1.0  0.3824
  C  C439  1  0.294300  0.398700  0.434990  1.0  0.3948
  C  C440  1  0.431300  0.402700  0.460640  1.0  0.396
  C  C441  1  0.055000  0.426000  0.400100  1.0  0.1355
  C  C442  1  0.148200  0.409300  0.403400  1.0  -0.1354
  C  C443  1  0.192500  0.413300  0.430800  1.0  -0.1308
  C  C444  1  0.142500  0.433600  0.453900  1.0  -0.1152
  C  C445  1  0.049500  0.450700  0.448700  1.0  0.1393
  C  C446  1  0.487300  0.450500  0.536300  1.0  0.1196
  C  C447  1  0.438000  0.438600  0.511000  1.0  -0.1312
  C  C448  1  0.485600  0.418300  0.487250  1.0  -0.0973
  C  C449  1  0.582300  0.412800  0.489500  1.0  -0.1287
  C  C450  1  0.629800  0.425400  0.515900  1.0  0.1156
  C  C451  1  0.420300  0.456000  0.136200  1.0  0.1236
  C  C452  1  0.433900  0.413100  0.151000  1.0  -0.1437
  C  C453  1  0.434700  0.372400  0.134910  1.0  -0.1161
  C  C454  1  0.423000  0.374400  0.104400  1.0  -0.1443
  C  C455  1  0.410600  0.418300  0.091500  1.0  0.1449
  C  C456  1  0.446100  0.324200  0.149800  1.0  0.4012
  C  C457  1  0.480900  0.280400  0.189990  1.0  0.3827
  C  C458  1  0.444500  0.244600  0.146850  1.0  0.4068
  C  C459  1  0.579400  0.309300  0.265600  1.0  0.133
  C  C460  1  0.544200  0.316000  0.237100  1.0  -0.1305
  C  C461  1  0.512300  0.276500  0.220990  1.0  -0.1379
  C  C462  1  0.514600  0.232200  0.234850  1.0  -0.0918
  C  C463  1  0.549400  0.228600  0.263360  1.0  0.1255
  C  C464  1  0.387500  0.156700  0.086000  1.0  0.1397
  C  C465  1  0.402700  0.199800  0.100280  1.0  -0.1431
  C  C466  1  0.430000  0.199500  0.129900  1.0  -0.1272
  C  C467  1  0.442400  0.156200  0.143940  1.0  -0.1377
  C  C468  1  0.424000  0.115000  0.128110  1.0  0.1294
  C  C469  1  0.512600  0.206000  0.848000  1.0  0.1314
  C  C470  1  0.566000  0.182300  0.869900  1.0  -0.1036
  C  C471  1  0.518000  0.160800  0.892940  1.0  -0.0959
  C  C472  1  0.419200  0.161800  0.892400  1.0  -0.0926
  C  C473  1  0.370500  0.184000  0.870000  1.0  0.1097
  C  C474  1  0.570600  0.135400  0.916610  1.0  0.3823
  C  C475  1  0.705700  0.101300  0.934990  1.0  0.3952
  C  C476  1  0.568700  0.097300  0.960640  1.0  0.3968
  C  C477  1  0.945000  0.074000  0.900100  1.0  0.1337
  C  C478  1  0.851800  0.090700  0.903400  1.0  -0.1361
  C  C479  1  0.807500  0.086700  0.930800  1.0  -0.1296
  C  C480  1  0.857500  0.066400  0.953900  1.0  -0.1156
  C  C481  1  0.950500  0.049300  0.948700  1.0  0.1404
  C  C482  1  0.512700  0.049500  0.036300  1.0  0.1205
  C  C483  1  0.562000  0.061400  0.011000  1.0  -0.1298
  C  C484  1  0.514400  0.081700  0.987250  1.0  -0.0962
  C  C485  1  0.417700  0.087200  0.989500  1.0  -0.1275
  C  C486  1  0.370200  0.074600  0.015900  1.0  0.1139
  C  C487  1  0.579700  0.044000  0.636200  1.0  0.1245
  C  C488  1  0.566100  0.086900  0.651000  1.0  -0.1439
  C  C489  1  0.565300  0.127600  0.634910  1.0  -0.1165
  C  C490  1  0.577000  0.125600  0.604400  1.0  -0.1453
  C  C491  1  0.589400  0.081700  0.591500  1.0  0.1441
  C  C492  1  0.553900  0.175800  0.649800  1.0  0.4016
  C  C493  1  0.519100  0.219600  0.689990  1.0  0.3825
  C  C494  1  0.555500  0.255400  0.646850  1.0  0.4065
  C  C495  1  0.420600  0.190700  0.765600  1.0  0.1345
  C  C496  1  0.455800  0.184000  0.737100  1.0  -0.1308
  C  C497  1  0.487700  0.223500  0.720990  1.0  -0.1377
  C  C498  1  0.485400  0.267800  0.734850  1.0  -0.0899
  C  C499  1  0.450600  0.271400  0.763360  1.0  0.1264
  C  C500  1  0.612500  0.343300  0.586000  1.0  0.1401
  C  C501  1  0.597300  0.300200  0.600280  1.0  -0.1431
  C  C502  1  0.570000  0.300500  0.629900  1.0  -0.127
  C  C503  1  0.557600  0.343800  0.643940  1.0  -0.1386
  C  C504  1  0.576000  0.385000  0.628110  1.0  0.1282
  I  I505  1  0.828910  0.169510  0.829370  1.0  -0.3164
  I  I506  1  0.679670  0.303870  0.810440  1.0  -0.36
  I  I507  1  0.709760  0.424960  0.876430  1.0  -0.3572
  I  I508  1  0.700930  0.497310  0.964490  1.0  -0.3922
  I  I509  1  0.672280  0.440060  0.073360  1.0  -0.3902
  I  I510  1  0.939640  0.513640  0.108510  1.0  -0.365
  I  I511  1  0.171090  0.330490  0.329370  1.0  -0.3153
  I  I512  1  0.320330  0.196130  0.310440  1.0  -0.359
  I  I513  1  0.290240  0.075040  0.376430  1.0  -0.3571
  I  I514  1  0.299070  0.002690  0.464490  1.0  -0.3928
  I  I515  1  0.327720  0.059940  0.573360  1.0  -0.3907
  I  I516  1  0.060360  0.986360  0.608510  1.0  -0.3638
  I  I517  1  0.328910  0.830490  0.670630  1.0  -0.3154
  I  I518  1  0.179670  0.696130  0.689560  1.0  -0.3601
  I  I519  1  0.209760  0.575040  0.623570  1.0  -0.3563
  I  I520  1  0.200930  0.502690  0.535510  1.0  -0.3922
  I  I521  1  0.172280  0.559940  0.426640  1.0  -0.3907
  I  I522  1  0.439640  0.486360  0.391490  1.0  -0.3651
  I  I523  1  0.671090  0.669510  0.170630  1.0  -0.3156
  I  I524  1  0.820330  0.803870  0.189560  1.0  -0.3594
  I  I525  1  0.790240  0.924960  0.123570  1.0  -0.3566
  I  I526  1  0.799070  0.997310  0.035510  1.0  -0.3933
  I  I527  1  0.827720  0.940060  0.926640  1.0  -0.3912
  I  I528  1  0.560360  0.013640  0.891490  1.0  -0.3631
  I  I529  1  0.171090  0.830490  0.170630  1.0  -0.315
  I  I530  1  0.320330  0.696130  0.189560  1.0  -0.3586
  I  I531  1  0.290240  0.575040  0.123570  1.0  -0.3565
  I  I532  1  0.299070  0.502690  0.035510  1.0  -0.3931
  I  I533  1  0.327720  0.559940  0.926640  1.0  -0.3907
  I  I534  1  0.060360  0.486360  0.891490  1.0  -0.3635
  I  I535  1  0.828910  0.669510  0.670630  1.0  -0.3159
  I  I536  1  0.679670  0.803870  0.689560  1.0  -0.3596
  I  I537  1  0.709760  0.924960  0.623570  1.0  -0.3564
  I  I538  1  0.700930  0.997310  0.535510  1.0  -0.3924
  I  I539  1  0.672280  0.940060  0.426640  1.0  -0.3903
  I  I540  1  0.939640  0.013640  0.391490  1.0  -0.3649
  I  I541  1  0.671090  0.169510  0.329370  1.0  -0.3161
  I  I542  1  0.820330  0.303870  0.310440  1.0  -0.3586
  I  I543  1  0.790240  0.424960  0.376430  1.0  -0.3575
  I  I544  1  0.799070  0.497310  0.464490  1.0  -0.393
  I  I545  1  0.827720  0.440060  0.573360  1.0  -0.3912
  I  I546  1  0.560360  0.513640  0.608510  1.0  -0.3637
  I  I547  1  0.328910  0.330490  0.829370  1.0  -0.3157
  I  I548  1  0.179670  0.196130  0.810440  1.0  -0.3595
  I  I549  1  0.209760  0.075040  0.876430  1.0  -0.3568
  I  I550  1  0.200930  0.002690  0.964490  1.0  -0.3919
  I  I551  1  0.172280  0.059940  0.073360  1.0  -0.3907
  I  I552  1  0.439640  0.986360  0.108510  1.0  -0.3651
  N  N553  1  0.916700  0.293800  0.847830  1.0  -0.299
  N  N554  1  0.164400  0.372400  0.912860  1.0  -0.4705
  N  N555  1  0.161700  0.414100  0.959160  1.0  -0.4526
  N  N556  1  0.018500  0.378700  0.940240  1.0  -0.3763
  N  N557  1  0.493600  0.447500  0.922140  1.0  -0.3347
  N  N558  1  0.916900  0.441500  0.039350  1.0  -0.3155
  N  N559  1  0.093200  0.459200  0.606640  1.0  -0.3041
  N  N560  1  0.030200  0.324400  0.678250  1.0  -0.4825
  N  N561  1  0.031100  0.240300  0.675630  1.0  -0.4453
  N  N562  1  0.066300  0.286000  0.632830  1.0  -0.4879
  N  N563  1  0.916000  0.266700  0.777950  1.0  -0.2996
  N  N564  1  0.103700  0.115000  0.599300  1.0  -0.2966
  N  N565  1  0.083300  0.206200  0.347830  1.0  -0.298
  N  N566  1  0.835600  0.127600  0.412860  1.0  -0.4694
  N  N567  1  0.838300  0.085900  0.459160  1.0  -0.4528
  N  N568  1  0.981500  0.121300  0.440240  1.0  -0.3767
  N  N569  1  0.506400  0.052500  0.422140  1.0  -0.3365
  N  N570  1  0.083100  0.058500  0.539350  1.0  -0.3153
  N  N571  1  0.906800  0.040800  0.106640  1.0  -0.3049
  N  N572  1  0.969800  0.175600  0.178250  1.0  -0.4824
  N  N573  1  0.968900  0.259700  0.175630  1.0  -0.4447
  N  N574  1  0.933700  0.214000  0.132830  1.0  -0.4881
  N  N575  1  0.084000  0.233300  0.277950  1.0  -0.2999
  N  N576  1  0.896300  0.385000  0.099300  1.0  -0.2972
  N  N577  1  0.416700  0.706200  0.652170  1.0  -0.2997
  N  N578  1  0.664400  0.627600  0.587140  1.0  -0.4708
  N  N579  1  0.661700  0.585900  0.540840  1.0  -0.4525
  N  N580  1  0.518500  0.621300  0.559760  1.0  -0.3748
  N  N581  1  0.993600  0.552500  0.577860  1.0  -0.3352
  N  N582  1  0.416900  0.558500  0.460650  1.0  -0.3188
  N  N583  1  0.593200  0.540800  0.893360  1.0  -0.3044
  N  N584  1  0.530200  0.675600  0.821750  1.0  -0.4824
  N  N585  1  0.531100  0.759700  0.824370  1.0  -0.445
  N  N586  1  0.566300  0.714000  0.867170  1.0  -0.4892
  N  N587  1  0.416000  0.733300  0.722050  1.0  -0.2985
  N  N588  1  0.603700  0.885000  0.900700  1.0  -0.2981
  N  N589  1  0.583300  0.793800  0.152170  1.0  -0.2976
  N  N590  1  0.335600  0.872400  0.087140  1.0  -0.4696
  N  N591  1  0.338300  0.914100  0.040840  1.0  -0.4523
  N  N592  1  0.481500  0.878700  0.059760  1.0  -0.3769
  N  N593  1  0.006400  0.947500  0.077860  1.0  -0.3351
  N  N594  1  0.583100  0.941500  0.960650  1.0  -0.3181
  N  N595  1  0.406800  0.959200  0.393360  1.0  -0.3056
  N  N596  1  0.469800  0.824400  0.321750  1.0  -0.4822
  N  N597  1  0.468900  0.740300  0.324370  1.0  -0.445
  N  N598  1  0.433700  0.786000  0.367170  1.0  -0.4896
  N  N599  1  0.584000  0.766700  0.222050  1.0  -0.2991
  N  N600  1  0.396300  0.615000  0.400700  1.0  -0.2976
  N  N601  1  0.083300  0.706200  0.152170  1.0  -0.2985
  N  N602  1  0.835600  0.627600  0.087140  1.0  -0.4705
  N  N603  1  0.838300  0.585900  0.040840  1.0  -0.4525
  N  N604  1  0.981500  0.621300  0.059760  1.0  -0.3761
  N  N605  1  0.506400  0.552500  0.077860  1.0  -0.3364
  N  N606  1  0.083100  0.558500  0.960650  1.0  -0.319
  N  N607  1  0.906800  0.540800  0.393360  1.0  -0.3053
  N  N608  1  0.969800  0.675600  0.321750  1.0  -0.4825
  N  N609  1  0.968900  0.759700  0.324370  1.0  -0.4445
  N  N610  1  0.933700  0.714000  0.367170  1.0  -0.4895
  N  N611  1  0.084000  0.733300  0.222050  1.0  -0.2989
  N  N612  1  0.896300  0.885000  0.400700  1.0  -0.2981
  N  N613  1  0.916700  0.793800  0.652170  1.0  -0.2988
  N  N614  1  0.164400  0.872400  0.587140  1.0  -0.4695
  N  N615  1  0.161700  0.914100  0.540840  1.0  -0.4518
  N  N616  1  0.018500  0.878700  0.559760  1.0  -0.376
  N  N617  1  0.493600  0.947500  0.577860  1.0  -0.3347
  N  N618  1  0.916900  0.941500  0.460650  1.0  -0.3176
  N  N619  1  0.093200  0.959200  0.893360  1.0  -0.3057
  N  N620  1  0.030200  0.824400  0.821750  1.0  -0.4817
  N  N621  1  0.031100  0.740300  0.824370  1.0  -0.4458
  N  N622  1  0.066300  0.786000  0.867170  1.0  -0.4893
  N  N623  1  0.916000  0.766700  0.722050  1.0  -0.299
  N  N624  1  0.103700  0.615000  0.900700  1.0  -0.297
  N  N625  1  0.583300  0.293800  0.347830  1.0  -0.2981
  N  N626  1  0.335600  0.372400  0.412860  1.0  -0.4701
  N  N627  1  0.338300  0.414100  0.459160  1.0  -0.4526
  N  N628  1  0.481500  0.378700  0.440240  1.0  -0.3773
  N  N629  1  0.006400  0.447500  0.422140  1.0  -0.335
  N  N630  1  0.583100  0.441500  0.539350  1.0  -0.3151
  N  N631  1  0.406800  0.459200  0.106640  1.0  -0.3037
  N  N632  1  0.469800  0.324400  0.178250  1.0  -0.4829
  N  N633  1  0.468900  0.240300  0.175630  1.0  -0.4446
  N  N634  1  0.433700  0.286000  0.132830  1.0  -0.4879
  N  N635  1  0.584000  0.266700  0.277950  1.0  -0.2997
  N  N636  1  0.396300  0.115000  0.099300  1.0  -0.2977
  N  N637  1  0.416700  0.206200  0.847830  1.0  -0.2987
  N  N638  1  0.664400  0.127600  0.912860  1.0  -0.47
  N  N639  1  0.661700  0.085900  0.959160  1.0  -0.4529
  N  N640  1  0.518500  0.121300  0.940240  1.0  -0.3753
  N  N641  1  0.993600  0.052500  0.922140  1.0  -0.3353
  N  N642  1  0.416900  0.058500  0.039350  1.0  -0.3156
  N  N643  1  0.593200  0.040800  0.606640  1.0  -0.3038
  N  N644  1  0.530200  0.175600  0.678250  1.0  -0.4824
  N  N645  1  0.531100  0.259700  0.675630  1.0  -0.4453
  N  N646  1  0.566300  0.214000  0.632830  1.0  -0.4881
  N  N647  1  0.416000  0.233300  0.777950  1.0  -0.2998
  N  N648  1  0.603700  0.385000  0.599300  1.0  -0.2972
