# generated using pymatgen
data_ZnH8C12(IN2)2
_symmetry_space_group_name_H-M   'P 1'
_cell_length_a   14.01200000
_cell_length_b   28.28000000
_cell_length_c   44.90700000
_cell_angle_alpha   90.00000000
_cell_angle_beta   90.00000000
_cell_angle_gamma   90.00000000
_symmetry_Int_Tables_number   1
_chemical_formula_structural   ZnH8C12(IN2)2
_chemical_formula_sum   'Zn24 H192 C288 I48 N96'
_cell_volume   17794.81907952
_cell_formula_units_Z   24
loop_
 _symmetry_equiv_pos_site_id
 _symmetry_equiv_pos_as_xyz
  1  'x, y, z'
loop_
 _atom_site_type_symbol
 _atom_site_label
 _atom_site_symmetry_multiplicity
 _atom_site_fract_x
 _atom_site_fract_y
 _atom_site_fract_z
 _atom_site_occupancy
 _atom_site_charge
  Zn  Zn1  1  0.331310  0.763400  0.181060  1.0  0.847
  Zn  Zn2  1  0.367120  0.948380  0.915110  1.0  0.8728
  Zn  Zn3  1  0.116920  0.980420  0.084880  1.0  0.8399
  Zn  Zn4  1  0.668690  0.736600  0.681060  1.0  0.8492
  Zn  Zn5  1  0.632880  0.551620  0.415110  1.0  0.8745
  Zn  Zn6  1  0.883080  0.519580  0.584880  1.0  0.8399
  Zn  Zn7  1  0.831310  0.236600  0.318940  1.0  0.8472
  Zn  Zn8  1  0.867120  0.051620  0.584890  1.0  0.8744
  Zn  Zn9  1  0.616920  0.019580  0.415120  1.0  0.8403
  Zn  Zn10  1  0.168690  0.263400  0.818940  1.0  0.8493
  Zn  Zn11  1  0.132880  0.448380  0.084890  1.0  0.8733
  Zn  Zn12  1  0.383080  0.480420  0.915120  1.0  0.8414
  Zn  Zn13  1  0.668690  0.236600  0.818940  1.0  0.8492
  Zn  Zn14  1  0.632880  0.051620  0.084890  1.0  0.8748
  Zn  Zn15  1  0.883080  0.019580  0.915120  1.0  0.8407
  Zn  Zn16  1  0.331310  0.263400  0.318940  1.0  0.8476
  Zn  Zn17  1  0.367120  0.448380  0.584890  1.0  0.8722
  Zn  Zn18  1  0.116920  0.480420  0.415120  1.0  0.8405
  Zn  Zn19  1  0.168690  0.763400  0.681060  1.0  0.8488
  Zn  Zn20  1  0.132880  0.948380  0.415110  1.0  0.8737
  Zn  Zn21  1  0.383080  0.980420  0.584880  1.0  0.8404
  Zn  Zn22  1  0.831310  0.736600  0.181060  1.0  0.8471
  Zn  Zn23  1  0.867120  0.551620  0.915110  1.0  0.8742
  Zn  Zn24  1  0.616920  0.519580  0.084880  1.0  0.8399
  H  H25  1  0.297100  0.826400  0.130400  1.0  0.0899
  H  H26  1  0.377900  0.867900  0.093500  1.0  0.1238
  H  H27  1  0.625700  0.822000  0.129900  1.0  0.1205
  H  H28  1  0.537500  0.783100  0.165500  1.0  0.0821
  H  H29  1  0.971100  0.923600  0.117400  1.0  0.0854
  H  H30  1  0.815900  0.897700  0.112400  1.0  0.1247
  H  H31  1  0.819200  0.945200  0.027600  1.0  0.1121
  H  H32  1  0.974000  0.970900  0.035000  1.0  0.0937
  H  H33  1  0.306400  0.931300  0.979700  1.0  0.0785
  H  H34  1  0.377400  0.914200  0.025500  1.0  0.1252
  H  H35  1  0.632600  0.942300  0.987700  1.0  0.1207
  H  H36  1  0.554900  0.959800  0.943900  1.0  0.0731
  H  H37  1  0.619800  0.655100  0.431500  1.0  0.0898
  H  H38  1  0.592800  0.728200  0.408700  1.0  0.1179
  H  H39  1  0.522200  0.657500  0.333900  1.0  0.1176
  H  H40  1  0.546900  0.587600  0.358800  1.0  0.0949
  H  H41  1  0.591200  0.917200  0.430500  1.0  0.0936
  H  H42  1  0.565600  0.844700  0.407300  1.0  0.1198
  H  H43  1  0.544200  0.912400  0.328700  1.0  0.1225
  H  H44  1  0.570500  0.983400  0.353900  1.0  0.091
  H  H45  1  0.391100  0.840700  0.222600  1.0  0.096
  H  H46  1  0.452300  0.849500  0.270600  1.0  0.1157
  H  H47  1  0.488300  0.708500  0.274200  1.0  0.1123
  H  H48  1  0.430700  0.702700  0.226200  1.0  0.0895
  H  H49  1  0.702900  0.673600  0.630400  1.0  0.088
  H  H50  1  0.622100  0.632100  0.593500  1.0  0.1235
  H  H51  1  0.374300  0.678000  0.629900  1.0  0.1218
  H  H52  1  0.462500  0.716900  0.665500  1.0  0.0824
  H  H53  1  0.028900  0.576400  0.617400  1.0  0.0856
  H  H54  1  0.184100  0.602300  0.612400  1.0  0.1247
  H  H55  1  0.180800  0.554800  0.527600  1.0  0.1127
  H  H56  1  0.026000  0.529100  0.535000  1.0  0.094
  H  H57  1  0.693600  0.568700  0.479700  1.0  0.0781
  H  H58  1  0.622600  0.585800  0.525500  1.0  0.1251
  H  H59  1  0.367400  0.557700  0.487700  1.0  0.1207
  H  H60  1  0.445100  0.540200  0.443900  1.0  0.0731
  H  H61  1  0.380200  0.844900  0.931500  1.0  0.0898
  H  H62  1  0.407200  0.771800  0.908700  1.0  0.1179
  H  H63  1  0.477800  0.842500  0.833900  1.0  0.1183
  H  H64  1  0.453100  0.912400  0.858800  1.0  0.0945
  H  H65  1  0.408800  0.582800  0.930500  1.0  0.0938
  H  H66  1  0.434400  0.655300  0.907300  1.0  0.1198
  H  H67  1  0.455800  0.587600  0.828700  1.0  0.1229
  H  H68  1  0.429500  0.516600  0.853900  1.0  0.091
  H  H69  1  0.608900  0.659300  0.722600  1.0  0.0962
  H  H70  1  0.547700  0.650500  0.770600  1.0  0.1151
  H  H71  1  0.511700  0.791500  0.774200  1.0  0.1123
  H  H72  1  0.569300  0.797300  0.726200  1.0  0.0878
  H  H73  1  0.797100  0.173600  0.369600  1.0  0.0901
  H  H74  1  0.877900  0.132100  0.406500  1.0  0.1237
  H  H75  1  0.125700  0.178000  0.370100  1.0  0.1206
  H  H76  1  0.037500  0.216900  0.334500  1.0  0.0825
  H  H77  1  0.471100  0.076400  0.382600  1.0  0.0854
  H  H78  1  0.315900  0.102300  0.387600  1.0  0.1244
  H  H79  1  0.319200  0.054800  0.472400  1.0  0.1122
  H  H80  1  0.474000  0.029100  0.465000  1.0  0.0938
  H  H81  1  0.806400  0.068700  0.520300  1.0  0.0789
  H  H82  1  0.877400  0.085800  0.474500  1.0  0.1245
  H  H83  1  0.132600  0.057700  0.512300  1.0  0.1207
  H  H84  1  0.054900  0.040200  0.556100  1.0  0.0732
  H  H85  1  0.119800  0.344900  0.068500  1.0  0.0899
  H  H86  1  0.092800  0.271800  0.091300  1.0  0.1175
  H  H87  1  0.022200  0.342500  0.166100  1.0  0.1179
  H  H88  1  0.046900  0.412400  0.141200  1.0  0.0948
  H  H89  1  0.091200  0.082800  0.069500  1.0  0.0927
  H  H90  1  0.065600  0.155300  0.092700  1.0  0.1203
  H  H91  1  0.044200  0.087600  0.171300  1.0  0.1221
  H  H92  1  0.070500  0.016600  0.146100  1.0  0.0917
  H  H93  1  0.891100  0.159300  0.277400  1.0  0.0962
  H  H94  1  0.952300  0.150500  0.229400  1.0  0.1153
  H  H95  1  0.988300  0.291500  0.225800  1.0  0.1119
  H  H96  1  0.930700  0.297300  0.273800  1.0  0.0879
  H  H97  1  0.202900  0.326400  0.869600  1.0  0.0881
  H  H98  1  0.122100  0.367900  0.906500  1.0  0.1231
  H  H99  1  0.874300  0.322000  0.870100  1.0  0.1217
  H  H100  1  0.962500  0.283100  0.834500  1.0  0.0824
  H  H101  1  0.528900  0.423600  0.882600  1.0  0.0853
  H  H102  1  0.684100  0.397700  0.887600  1.0  0.1247
  H  H103  1  0.680800  0.445200  0.972400  1.0  0.1124
  H  H104  1  0.526000  0.470900  0.965000  1.0  0.0935
  H  H105  1  0.193600  0.431300  0.020300  1.0  0.0779
  H  H106  1  0.122600  0.414200  0.974500  1.0  0.1246
  H  H107  1  0.867400  0.442300  0.012300  1.0  0.1203
  H  H108  1  0.945100  0.459800  0.056100  1.0  0.0741
  H  H109  1  0.880200  0.155100  0.568500  1.0  0.0897
  H  H110  1  0.907200  0.228200  0.591300  1.0  0.1176
  H  H111  1  0.977800  0.157500  0.666100  1.0  0.1183
  H  H112  1  0.953100  0.087600  0.641200  1.0  0.0955
  H  H113  1  0.908800  0.417200  0.569500  1.0  0.0932
  H  H114  1  0.934400  0.344700  0.592700  1.0  0.1201
  H  H115  1  0.955800  0.412400  0.671300  1.0  0.1223
  H  H116  1  0.929500  0.483400  0.646100  1.0  0.0914
  H  H117  1  0.108900  0.340700  0.777400  1.0  0.0956
  H  H118  1  0.047700  0.349500  0.729400  1.0  0.1151
  H  H119  1  0.011700  0.208500  0.725800  1.0  0.1118
  H  H120  1  0.069300  0.202700  0.773800  1.0  0.0894
  H  H121  1  0.702900  0.173600  0.869600  1.0  0.0882
  H  H122  1  0.622100  0.132100  0.906500  1.0  0.1234
  H  H123  1  0.374300  0.178000  0.870100  1.0  0.1218
  H  H124  1  0.462500  0.216900  0.834500  1.0  0.0825
  H  H125  1  0.028900  0.076400  0.882600  1.0  0.0853
  H  H126  1  0.184100  0.102300  0.887600  1.0  0.1245
  H  H127  1  0.180800  0.054800  0.972400  1.0  0.1125
  H  H128  1  0.026000  0.029100  0.965000  1.0  0.0939
  H  H129  1  0.693600  0.068700  0.020300  1.0  0.0779
  H  H130  1  0.622600  0.085800  0.974500  1.0  0.1248
  H  H131  1  0.367400  0.057700  0.012300  1.0  0.1203
  H  H132  1  0.445100  0.040200  0.056100  1.0  0.0742
  H  H133  1  0.380200  0.344900  0.568500  1.0  0.0898
  H  H134  1  0.407200  0.271800  0.591300  1.0  0.1176
  H  H135  1  0.477800  0.342500  0.666100  1.0  0.1183
  H  H136  1  0.453100  0.412400  0.641200  1.0  0.0952
  H  H137  1  0.408800  0.082800  0.569500  1.0  0.0929
  H  H138  1  0.434400  0.155300  0.592700  1.0  0.1203
  H  H139  1  0.455800  0.087600  0.671300  1.0  0.1225
  H  H140  1  0.429500  0.016600  0.646100  1.0  0.0918
  H  H141  1  0.608900  0.159300  0.777400  1.0  0.0961
  H  H142  1  0.547700  0.150500  0.729400  1.0  0.115
  H  H143  1  0.511700  0.291500  0.725800  1.0  0.112
  H  H144  1  0.569300  0.297300  0.773800  1.0  0.0877
  H  H145  1  0.297100  0.326400  0.369600  1.0  0.09
  H  H146  1  0.377900  0.367900  0.406500  1.0  0.1234
  H  H147  1  0.625700  0.322000  0.370100  1.0  0.1206
  H  H148  1  0.537500  0.283100  0.334500  1.0  0.0821
  H  H149  1  0.971100  0.423600  0.382600  1.0  0.0853
  H  H150  1  0.815900  0.397700  0.387600  1.0  0.1246
  H  H151  1  0.819200  0.445200  0.472400  1.0  0.112
  H  H152  1  0.974000  0.470900  0.465000  1.0  0.0935
  H  H153  1  0.306400  0.431300  0.520300  1.0  0.0786
  H  H154  1  0.377400  0.414200  0.474500  1.0  0.1244
  H  H155  1  0.632600  0.442300  0.512300  1.0  0.1206
  H  H156  1  0.554900  0.459800  0.556100  1.0  0.0732
  H  H157  1  0.619800  0.155100  0.068500  1.0  0.0897
  H  H158  1  0.592800  0.228200  0.091300  1.0  0.1175
  H  H159  1  0.522200  0.157500  0.166100  1.0  0.1181
  H  H160  1  0.546900  0.087600  0.141200  1.0  0.0954
  H  H161  1  0.591200  0.417200  0.069500  1.0  0.093
  H  H162  1  0.565600  0.344700  0.092700  1.0  0.12
  H  H163  1  0.544200  0.412400  0.171300  1.0  0.1221
  H  H164  1  0.570500  0.483400  0.146100  1.0  0.0912
  H  H165  1  0.391100  0.340700  0.277400  1.0  0.0956
  H  H166  1  0.452300  0.349500  0.229400  1.0  0.1155
  H  H167  1  0.488300  0.208500  0.225800  1.0  0.112
  H  H168  1  0.430700  0.202700  0.273800  1.0  0.0897
  H  H169  1  0.202900  0.826400  0.630400  1.0  0.0879
  H  H170  1  0.122100  0.867900  0.593500  1.0  0.1236
  H  H171  1  0.874300  0.822000  0.629900  1.0  0.1219
  H  H172  1  0.962500  0.783100  0.665500  1.0  0.0826
  H  H173  1  0.528900  0.923600  0.617400  1.0  0.0857
  H  H174  1  0.684100  0.897700  0.612400  1.0  0.125
  H  H175  1  0.680800  0.945200  0.527600  1.0  0.1124
  H  H176  1  0.526000  0.970900  0.535000  1.0  0.0936
  H  H177  1  0.193600  0.931300  0.479700  1.0  0.078
  H  H178  1  0.122600  0.914200  0.525500  1.0  0.1251
  H  H179  1  0.867400  0.942300  0.487700  1.0  0.1209
  H  H180  1  0.945100  0.959800  0.443900  1.0  0.0733
  H  H181  1  0.880200  0.655100  0.931500  1.0  0.0897
  H  H182  1  0.907200  0.728200  0.908700  1.0  0.1177
  H  H183  1  0.977800  0.657500  0.833900  1.0  0.1179
  H  H184  1  0.953100  0.587600  0.858800  1.0  0.0952
  H  H185  1  0.908800  0.917200  0.930500  1.0  0.0938
  H  H186  1  0.934400  0.844700  0.907300  1.0  0.12
  H  H187  1  0.955800  0.912400  0.828700  1.0  0.1228
  H  H188  1  0.929500  0.983400  0.853900  1.0  0.0907
  H  H189  1  0.108900  0.840700  0.722600  1.0  0.0961
  H  H190  1  0.047700  0.849500  0.770600  1.0  0.1152
  H  H191  1  0.011700  0.708500  0.774200  1.0  0.1122
  H  H192  1  0.069300  0.702700  0.726200  1.0  0.0894
  H  H193  1  0.797100  0.673600  0.130400  1.0  0.0899
  H  H194  1  0.877900  0.632100  0.093500  1.0  0.1236
  H  H195  1  0.125700  0.678000  0.129900  1.0  0.1204
  H  H196  1  0.037500  0.716900  0.165500  1.0  0.0822
  H  H197  1  0.471100  0.576400  0.117400  1.0  0.0855
  H  H198  1  0.315900  0.602300  0.112400  1.0  0.1246
  H  H199  1  0.319200  0.554800  0.027600  1.0  0.1124
  H  H200  1  0.474000  0.529100  0.035000  1.0  0.0941
  H  H201  1  0.806400  0.568700  0.979700  1.0  0.079
  H  H202  1  0.877400  0.585800  0.025500  1.0  0.1251
  H  H203  1  0.132600  0.557700  0.987700  1.0  0.1207
  H  H204  1  0.054900  0.540200  0.943900  1.0  0.0729
  H  H205  1  0.119800  0.844900  0.431500  1.0  0.0898
  H  H206  1  0.092800  0.771800  0.408700  1.0  0.1177
  H  H207  1  0.022200  0.842500  0.333900  1.0  0.118
  H  H208  1  0.046900  0.912400  0.358800  1.0  0.094
  H  H209  1  0.091200  0.582800  0.430500  1.0  0.0936
  H  H210  1  0.065600  0.655300  0.407300  1.0  0.1197
  H  H211  1  0.044200  0.587600  0.328700  1.0  0.1226
  H  H212  1  0.070500  0.516600  0.353900  1.0  0.091
  H  H213  1  0.891100  0.659300  0.222600  1.0  0.0962
  H  H214  1  0.952300  0.650500  0.270600  1.0  0.1156
  H  H215  1  0.988300  0.791500  0.274200  1.0  0.1121
  H  H216  1  0.930700  0.797300  0.226200  1.0  0.0879
  C  C217  1  0.364900  0.825800  0.130210  1.0  0.1304
  C  C218  1  0.412400  0.850200  0.107840  1.0  -0.1498
  C  C219  1  0.511200  0.848200  0.106960  1.0  -0.1009
  C  C220  1  0.558000  0.823200  0.129300  1.0  -0.1399
  C  C221  1  0.505000  0.800500  0.150520  1.0  0.1369
  C  C222  1  0.564200  0.873600  0.082970  1.0  0.3661
  C  C223  1  0.698500  0.905900  0.065430  1.0  0.3694
  C  C224  1  0.563500  0.910500  0.038580  1.0  0.4088
  C  C225  1  0.939200  0.928700  0.099050  1.0  0.1405
  C  C226  1  0.847000  0.912800  0.096220  1.0  -0.1285
  C  C227  1  0.799900  0.919200  0.069300  1.0  -0.1079
  C  C228  1  0.848900  0.940900  0.046440  1.0  -0.1197
  C  C229  1  0.941000  0.956100  0.050960  1.0  0.1362
  C  C230  1  0.373900  0.932700  0.981280  1.0  0.1391
  C  C231  1  0.415600  0.922300  0.008800  1.0  -0.1701
  C  C232  1  0.513500  0.924100  0.010880  1.0  -0.1039
  C  C233  1  0.565200  0.939000  0.986440  1.0  -0.1518
  C  C234  1  0.518400  0.949100  0.960350  1.0  0.1415
  C  C235  1  0.599800  0.655700  0.411320  1.0  0.1389
  C  C236  1  0.584600  0.699700  0.397770  1.0  -0.1415
  C  C237  1  0.557500  0.700600  0.368320  1.0  -0.1037
  C  C238  1  0.542800  0.658000  0.354080  1.0  -0.1111
  C  C239  1  0.558000  0.616500  0.368960  1.0  0.131
  C  C240  1  0.543100  0.825100  0.350340  1.0  0.375
  C  C241  1  0.543200  0.745700  0.352030  1.0  0.4133
  C  C242  1  0.505700  0.783000  0.309260  1.0  0.4104
  C  C243  1  0.582700  0.916300  0.409500  1.0  0.1134
  C  C244  1  0.567600  0.872800  0.395780  1.0  -0.1249
  C  C245  1  0.555600  0.870900  0.365570  1.0  -0.0595
  C  C246  1  0.555000  0.912500  0.349540  1.0  -0.1439
  C  C247  1  0.570500  0.954600  0.364800  1.0  0.1342
  C  C248  1  0.411200  0.813400  0.233260  1.0  0.1347
  C  C249  1  0.446900  0.818900  0.262010  1.0  -0.1215
  C  C250  1  0.474200  0.779500  0.277850  1.0  -0.1236
  C  C251  1  0.468300  0.736200  0.263970  1.0  -0.0871
  C  C252  1  0.433800  0.732900  0.235440  1.0  0.1258
  C  C253  1  0.635100  0.674200  0.630210  1.0  0.1294
  C  C254  1  0.587600  0.649800  0.607840  1.0  -0.1486
  C  C255  1  0.488800  0.651800  0.606960  1.0  -0.1016
  C  C256  1  0.442000  0.676800  0.629300  1.0  -0.1425
  C  C257  1  0.495000  0.699500  0.650520  1.0  0.1374
  C  C258  1  0.435800  0.626400  0.582970  1.0  0.366
  C  C259  1  0.301500  0.594100  0.565430  1.0  0.3697
  C  C260  1  0.436500  0.589500  0.538580  1.0  0.4085
  C  C261  1  0.060800  0.571300  0.599050  1.0  0.1396
  C  C262  1  0.153000  0.587200  0.596220  1.0  -0.13
  C  C263  1  0.200100  0.580800  0.569300  1.0  -0.1075
  C  C264  1  0.151100  0.559100  0.546440  1.0  -0.1191
  C  C265  1  0.059000  0.543900  0.550960  1.0  0.1372
  C  C266  1  0.626100  0.567300  0.481280  1.0  0.1384
  C  C267  1  0.584400  0.577700  0.508800  1.0  -0.1683
  C  C268  1  0.486500  0.575900  0.510880  1.0  -0.1032
  C  C269  1  0.434800  0.561000  0.486440  1.0  -0.154
  C  C270  1  0.481600  0.550900  0.460350  1.0  0.142
  C  C271  1  0.400200  0.844300  0.911320  1.0  0.1387
  C  C272  1  0.415400  0.800300  0.897770  1.0  -0.1427
  C  C273  1  0.442500  0.799400  0.868320  1.0  -0.1033
  C  C274  1  0.457200  0.842000  0.854080  1.0  -0.1117
  C  C275  1  0.442000  0.883500  0.868960  1.0  0.1313
  C  C276  1  0.456900  0.674900  0.850340  1.0  0.3751
  C  C277  1  0.456800  0.754300  0.852030  1.0  0.413
  C  C278  1  0.494300  0.717000  0.809260  1.0  0.4103
  C  C279  1  0.417300  0.583700  0.909500  1.0  0.1129
  C  C280  1  0.432400  0.627200  0.895780  1.0  -0.1251
  C  C281  1  0.444400  0.629100  0.865570  1.0  -0.0597
  C  C282  1  0.445000  0.587500  0.849540  1.0  -0.1425
  C  C283  1  0.429500  0.545400  0.864800  1.0  0.1331
  C  C284  1  0.588800  0.686600  0.733260  1.0  0.1343
  C  C285  1  0.553100  0.681100  0.762010  1.0  -0.123
  C  C286  1  0.525800  0.720500  0.777850  1.0  -0.124
  C  C287  1  0.531700  0.763800  0.763970  1.0  -0.0871
  C  C288  1  0.566200  0.767100  0.735440  1.0  0.1262
  C  C289  1  0.864900  0.174200  0.369790  1.0  0.13
  C  C290  1  0.912400  0.149800  0.392160  1.0  -0.1496
  C  C291  1  0.011200  0.151800  0.393040  1.0  -0.1014
  C  C292  1  0.058000  0.176800  0.370700  1.0  -0.14
  C  C293  1  0.005000  0.199500  0.349480  1.0  0.1373
  C  C294  1  0.064200  0.126400  0.417030  1.0  0.366
  C  C295  1  0.198500  0.094100  0.434570  1.0  0.37
  C  C296  1  0.063500  0.089500  0.461420  1.0  0.409
  C  C297  1  0.439200  0.071300  0.400950  1.0  0.1393
  C  C298  1  0.347000  0.087200  0.403780  1.0  -0.129
  C  C299  1  0.299900  0.080800  0.430700  1.0  -0.1066
  C  C300  1  0.348900  0.059100  0.453560  1.0  -0.1206
  C  C301  1  0.441000  0.043900  0.449040  1.0  0.138
  C  C302  1  0.873900  0.067300  0.518720  1.0  0.1377
  C  C303  1  0.915600  0.077700  0.491200  1.0  -0.1693
  C  C304  1  0.013500  0.075900  0.489120  1.0  -0.1031
  C  C305  1  0.065200  0.061000  0.513560  1.0  -0.1525
  C  C306  1  0.018400  0.050900  0.539650  1.0  0.1415
  C  C307  1  0.099800  0.344300  0.088680  1.0  0.1386
  C  C308  1  0.084600  0.300300  0.102230  1.0  -0.1436
  C  C309  1  0.057500  0.299400  0.131680  1.0  -0.1034
  C  C310  1  0.042800  0.342000  0.145920  1.0  -0.1128
  C  C311  1  0.058000  0.383500  0.131040  1.0  0.1316
  C  C312  1  0.043100  0.174900  0.149660  1.0  0.3754
  C  C313  1  0.043200  0.254300  0.147970  1.0  0.413
  C  C314  1  0.005700  0.217000  0.190740  1.0  0.4105
  C  C315  1  0.082700  0.083700  0.090500  1.0  0.1133
  C  C316  1  0.067600  0.127200  0.104220  1.0  -0.1246
  C  C317  1  0.055600  0.129100  0.134430  1.0  -0.0597
  C  C318  1  0.055000  0.087500  0.150460  1.0  -0.1446
  C  C319  1  0.070500  0.045400  0.135200  1.0  0.1332
  C  C320  1  0.911200  0.186600  0.266740  1.0  0.1365
  C  C321  1  0.946900  0.181100  0.237990  1.0  -0.1225
  C  C322  1  0.974200  0.220500  0.222150  1.0  -0.1243
  C  C323  1  0.968300  0.263800  0.236030  1.0  -0.086
  C  C324  1  0.933800  0.267100  0.264560  1.0  0.1266
  C  C325  1  0.135100  0.325800  0.869790  1.0  0.1295
  C  C326  1  0.087600  0.350200  0.892160  1.0  -0.1484
  C  C327  1  0.988800  0.348200  0.893040  1.0  -0.1013
  C  C328  1  0.942000  0.323200  0.870700  1.0  -0.1421
  C  C329  1  0.995000  0.300500  0.849480  1.0  0.1368
  C  C330  1  0.935800  0.373600  0.917030  1.0  0.3662
  C  C331  1  0.801500  0.405900  0.934570  1.0  0.3694
  C  C332  1  0.936500  0.410500  0.961420  1.0  0.409
  C  C333  1  0.560800  0.428700  0.900950  1.0  0.1408
  C  C334  1  0.653000  0.412800  0.903780  1.0  -0.1289
  C  C335  1  0.700100  0.419200  0.930700  1.0  -0.1084
  C  C336  1  0.651100  0.440900  0.953560  1.0  -0.1199
  C  C337  1  0.559000  0.456100  0.949040  1.0  0.1363
  C  C338  1  0.126100  0.432700  0.018720  1.0  0.1385
  C  C339  1  0.084400  0.422300  0.991200  1.0  -0.1691
  C  C340  1  0.986500  0.424100  0.989120  1.0  -0.1041
  C  C341  1  0.934800  0.439000  0.013560  1.0  -0.1541
  C  C342  1  0.981600  0.449100  0.039650  1.0  0.1412
  C  C343  1  0.900200  0.155700  0.588680  1.0  0.1386
  C  C344  1  0.915400  0.199700  0.602230  1.0  -0.1424
  C  C345  1  0.942500  0.200600  0.631680  1.0  -0.104
  C  C346  1  0.957200  0.158000  0.645920  1.0  -0.1127
  C  C347  1  0.942000  0.116500  0.631040  1.0  0.1317
  C  C348  1  0.956900  0.325100  0.649660  1.0  0.3748
  C  C349  1  0.956800  0.245700  0.647970  1.0  0.4133
  C  C350  1  0.994300  0.283000  0.690740  1.0  0.4106
  C  C351  1  0.917300  0.416300  0.590500  1.0  0.1141
  C  C352  1  0.932400  0.372800  0.604220  1.0  -0.1236
  C  C353  1  0.944400  0.370900  0.634430  1.0  -0.0586
  C  C354  1  0.945000  0.412500  0.650460  1.0  -0.1441
  C  C355  1  0.929500  0.454600  0.635200  1.0  0.1338
  C  C356  1  0.088800  0.313400  0.766740  1.0  0.1339
  C  C357  1  0.053100  0.318900  0.737990  1.0  -0.1215
  C  C358  1  0.025800  0.279500  0.722150  1.0  -0.1248
  C  C359  1  0.031700  0.236200  0.736030  1.0  -0.0873
  C  C360  1  0.066200  0.232900  0.764560  1.0  0.1268
  C  C361  1  0.635100  0.174200  0.869790  1.0  0.1292
  C  C362  1  0.587600  0.149800  0.892160  1.0  -0.1483
  C  C363  1  0.488800  0.151800  0.893040  1.0  -0.1015
  C  C364  1  0.442000  0.176800  0.870700  1.0  -0.1425
  C  C365  1  0.495000  0.199500  0.849480  1.0  0.1377
  C  C366  1  0.435800  0.126400  0.917030  1.0  0.366
  C  C367  1  0.301500  0.094100  0.934570  1.0  0.3699
  C  C368  1  0.436500  0.089500  0.961420  1.0  0.4088
  C  C369  1  0.060800  0.071300  0.900950  1.0  0.1407
  C  C370  1  0.153000  0.087200  0.903780  1.0  -0.1291
  C  C371  1  0.200100  0.080800  0.930700  1.0  -0.1074
  C  C372  1  0.151100  0.059100  0.953560  1.0  -0.1199
  C  C373  1  0.059000  0.043900  0.949040  1.0  0.1371
  C  C374  1  0.626100  0.067300  0.018720  1.0  0.1384
  C  C375  1  0.584400  0.077700  0.991200  1.0  -0.1681
  C  C376  1  0.486500  0.075900  0.989120  1.0  -0.1033
  C  C377  1  0.434800  0.061000  0.013560  1.0  -0.1547
  C  C378  1  0.481600  0.050900  0.039650  1.0  0.1408
  C  C379  1  0.400200  0.344300  0.588680  1.0  0.139
  C  C380  1  0.415400  0.300300  0.602230  1.0  -0.1429
  C  C381  1  0.442500  0.299400  0.631680  1.0  -0.1033
  C  C382  1  0.457200  0.342000  0.645920  1.0  -0.1124
  C  C383  1  0.442000  0.383500  0.631040  1.0  0.1319
  C  C384  1  0.456900  0.174900  0.649660  1.0  0.3751
  C  C385  1  0.456800  0.254300  0.647970  1.0  0.413
  C  C386  1  0.494300  0.217000  0.690740  1.0  0.4105
  C  C387  1  0.417300  0.083700  0.590500  1.0  0.1138
  C  C388  1  0.432400  0.127200  0.604220  1.0  -0.1239
  C  C389  1  0.444400  0.129100  0.634430  1.0  -0.0595
  C  C390  1  0.445000  0.087500  0.650460  1.0  -0.144
  C  C391  1  0.429500  0.045400  0.635200  1.0  0.1337
  C  C392  1  0.588800  0.186600  0.766740  1.0  0.1359
  C  C393  1  0.553100  0.181100  0.737990  1.0  -0.1228
  C  C394  1  0.525800  0.220500  0.722150  1.0  -0.1251
  C  C395  1  0.531700  0.263800  0.736030  1.0  -0.0866
  C  C396  1  0.566200  0.267100  0.764560  1.0  0.1268
  C  C397  1  0.364900  0.325800  0.369790  1.0  0.1304
  C  C398  1  0.412400  0.350200  0.392160  1.0  -0.1498
  C  C399  1  0.511200  0.348200  0.393040  1.0  -0.1012
  C  C400  1  0.558000  0.323200  0.370700  1.0  -0.1403
  C  C401  1  0.505000  0.300500  0.349480  1.0  0.1363
  C  C402  1  0.564200  0.373600  0.417030  1.0  0.3661
  C  C403  1  0.698500  0.405900  0.434570  1.0  0.3698
  C  C404  1  0.563500  0.410500  0.461420  1.0  0.4089
  C  C405  1  0.939200  0.428700  0.400950  1.0  0.1394
  C  C406  1  0.847000  0.412800  0.403780  1.0  -0.129
  C  C407  1  0.799900  0.419200  0.430700  1.0  -0.108
  C  C408  1  0.848900  0.440900  0.453560  1.0  -0.1204
  C  C409  1  0.941000  0.456100  0.449040  1.0  0.1371
  C  C410  1  0.373900  0.432700  0.518720  1.0  0.1389
  C  C411  1  0.415600  0.422300  0.491200  1.0  -0.171
  C  C412  1  0.513500  0.424100  0.489120  1.0  -0.1039
  C  C413  1  0.565200  0.439000  0.513560  1.0  -0.1519
  C  C414  1  0.518400  0.449100  0.539650  1.0  0.1414
  C  C415  1  0.599800  0.155700  0.088680  1.0  0.1382
  C  C416  1  0.584600  0.199700  0.102230  1.0  -0.1426
  C  C417  1  0.557500  0.200600  0.131680  1.0  -0.1041
  C  C418  1  0.542800  0.158000  0.145920  1.0  -0.1126
  C  C419  1  0.558000  0.116500  0.131040  1.0  0.1317
  C  C420  1  0.543100  0.325100  0.149660  1.0  0.375
  C  C421  1  0.543200  0.245700  0.147970  1.0  0.4133
  C  C422  1  0.505700  0.283000  0.190740  1.0  0.4106
  C  C423  1  0.582700  0.416300  0.090500  1.0  0.1137
  C  C424  1  0.567600  0.372800  0.104220  1.0  -0.1244
  C  C425  1  0.555600  0.370900  0.134430  1.0  -0.0589
  C  C426  1  0.555000  0.412500  0.150460  1.0  -0.1446
  C  C427  1  0.570500  0.454600  0.135200  1.0  0.1342
  C  C428  1  0.411200  0.313400  0.266740  1.0  0.1343
  C  C429  1  0.446900  0.318900  0.237990  1.0  -0.1218
  C  C430  1  0.474200  0.279500  0.222150  1.0  -0.124
  C  C431  1  0.468300  0.236200  0.236030  1.0  -0.0866
  C  C432  1  0.433800  0.232900  0.264560  1.0  0.127
  C  C433  1  0.135100  0.825800  0.630210  1.0  0.1296
  C  C434  1  0.087600  0.850200  0.607840  1.0  -0.1488
  C  C435  1  0.988800  0.848200  0.606960  1.0  -0.1011
  C  C436  1  0.942000  0.823200  0.629300  1.0  -0.1419
  C  C437  1  0.995000  0.800500  0.650520  1.0  0.1376
  C  C438  1  0.935800  0.873600  0.582970  1.0  0.3662
  C  C439  1  0.801500  0.905900  0.565430  1.0  0.3692
  C  C440  1  0.936500  0.910500  0.538580  1.0  0.4089
  C  C441  1  0.560800  0.928700  0.599050  1.0  0.1404
  C  C442  1  0.653000  0.912800  0.596220  1.0  -0.1289
  C  C443  1  0.700100  0.919200  0.569300  1.0  -0.1083
  C  C444  1  0.651100  0.940900  0.546440  1.0  -0.119
  C  C445  1  0.559000  0.956100  0.550960  1.0  0.1366
  C  C446  1  0.126100  0.932700  0.481280  1.0  0.1386
  C  C447  1  0.084400  0.922300  0.508800  1.0  -0.1686
  C  C448  1  0.986500  0.924100  0.510880  1.0  -0.104
  C  C449  1  0.934800  0.939000  0.486440  1.0  -0.154
  C  C450  1  0.981600  0.949100  0.460350  1.0  0.1424
  C  C451  1  0.900200  0.655700  0.911320  1.0  0.1382
  C  C452  1  0.915400  0.699700  0.897770  1.0  -0.1423
  C  C453  1  0.942500  0.700600  0.868320  1.0  -0.1035
  C  C454  1  0.957200  0.658000  0.854080  1.0  -0.1121
  C  C455  1  0.942000  0.616500  0.868960  1.0  0.1308
  C  C456  1  0.956900  0.825100  0.850340  1.0  0.3748
  C  C457  1  0.956800  0.745700  0.852030  1.0  0.4133
  C  C458  1  0.994300  0.783000  0.809260  1.0  0.4104
  C  C459  1  0.917300  0.916300  0.909500  1.0  0.1126
  C  C460  1  0.932400  0.872800  0.895780  1.0  -0.1245
  C  C461  1  0.944400  0.870900  0.865570  1.0  -0.0591
  C  C462  1  0.945000  0.912500  0.849540  1.0  -0.1435
  C  C463  1  0.929500  0.954600  0.864800  1.0  0.1341
  C  C464  1  0.088800  0.813400  0.733260  1.0  0.1341
  C  C465  1  0.053100  0.818900  0.762010  1.0  -0.1212
  C  C466  1  0.025800  0.779500  0.777850  1.0  -0.124
  C  C467  1  0.031700  0.736200  0.763970  1.0  -0.0874
  C  C468  1  0.066200  0.732900  0.735440  1.0  0.1256
  C  C469  1  0.864900  0.674200  0.130210  1.0  0.1301
  C  C470  1  0.912400  0.649800  0.107840  1.0  -0.1495
  C  C471  1  0.011200  0.651800  0.106960  1.0  -0.1015
  C  C472  1  0.058000  0.676800  0.129300  1.0  -0.1399
  C  C473  1  0.005000  0.699500  0.150520  1.0  0.137
  C  C474  1  0.064200  0.626400  0.082970  1.0  0.366
  C  C475  1  0.198500  0.594100  0.065430  1.0  0.3698
  C  C476  1  0.063500  0.589500  0.038580  1.0  0.4086
  C  C477  1  0.439200  0.571300  0.099050  1.0  0.1398
  C  C478  1  0.347000  0.587200  0.096220  1.0  -0.1292
  C  C479  1  0.299900  0.580800  0.069300  1.0  -0.1065
  C  C480  1  0.348900  0.559100  0.046440  1.0  -0.12
  C  C481  1  0.441000  0.543900  0.050960  1.0  0.1368
  C  C482  1  0.873900  0.567300  0.981280  1.0  0.1378
  C  C483  1  0.915600  0.577700  0.008800  1.0  -0.1693
  C  C484  1  0.013500  0.575900  0.010880  1.0  -0.1032
  C  C485  1  0.065200  0.561000  0.986440  1.0  -0.152
  C  C486  1  0.018400  0.550900  0.960350  1.0  0.1414
  C  C487  1  0.099800  0.844300  0.411320  1.0  0.1393
  C  C488  1  0.084600  0.800300  0.397770  1.0  -0.1427
  C  C489  1  0.057500  0.799400  0.368320  1.0  -0.1034
  C  C490  1  0.042800  0.842000  0.354080  1.0  -0.1109
  C  C491  1  0.058000  0.883500  0.368960  1.0  0.1311
  C  C492  1  0.043100  0.674900  0.350340  1.0  0.3753
  C  C493  1  0.043200  0.754300  0.352030  1.0  0.413
  C  C494  1  0.005700  0.717000  0.309260  1.0  0.4103
  C  C495  1  0.082700  0.583700  0.409500  1.0  0.1133
  C  C496  1  0.067600  0.627200  0.395780  1.0  -0.1253
  C  C497  1  0.055600  0.629100  0.365570  1.0  -0.0601
  C  C498  1  0.055000  0.587500  0.349540  1.0  -0.1432
  C  C499  1  0.070500  0.545400  0.364800  1.0  0.1326
  C  C500  1  0.911200  0.686600  0.233260  1.0  0.1353
  C  C501  1  0.946900  0.681100  0.262010  1.0  -0.1226
  C  C502  1  0.974200  0.720500  0.277850  1.0  -0.1236
  C  C503  1  0.968300  0.763800  0.263970  1.0  -0.0866
  C  C504  1  0.933800  0.767100  0.235440  1.0  0.1261
  I  I505  1  0.168950  0.803280  0.187560  1.0  -0.3743
  I  I506  1  0.335360  0.677230  0.164880  1.0  -0.3032
  I  I507  1  0.187130  0.941830  0.917750  1.0  -0.3885
  I  I508  1  0.454780  0.012070  0.885930  1.0  -0.3599
  I  I509  1  0.192540  0.999100  0.034370  1.0  -0.3964
  I  I510  1  0.202760  0.929370  0.122270  1.0  -0.3265
  I  I511  1  0.831050  0.696720  0.687560  1.0  -0.3746
  I  I512  1  0.664640  0.822770  0.664880  1.0  -0.3031
  I  I513  1  0.812870  0.558170  0.417750  1.0  -0.3887
  I  I514  1  0.545220  0.487930  0.385930  1.0  -0.3591
  I  I515  1  0.807460  0.500900  0.534370  1.0  -0.3963
  I  I516  1  0.797240  0.570630  0.622270  1.0  -0.3268
  I  I517  1  0.668950  0.196720  0.312440  1.0  -0.3746
  I  I518  1  0.835360  0.322770  0.335120  1.0  -0.3029
  I  I519  1  0.687130  0.058170  0.582250  1.0  -0.389
  I  I520  1  0.954780  0.987930  0.614070  1.0  -0.3583
  I  I521  1  0.692540  0.000900  0.465630  1.0  -0.3969
  I  I522  1  0.702760  0.070630  0.377730  1.0  -0.3263
  I  I523  1  0.331050  0.303280  0.812440  1.0  -0.3737
  I  I524  1  0.164640  0.177230  0.835120  1.0  -0.3032
  I  I525  1  0.312870  0.441830  0.082250  1.0  -0.389
  I  I526  1  0.045220  0.512070  0.114070  1.0  -0.3577
  I  I527  1  0.307460  0.499100  0.965630  1.0  -0.3959
  I  I528  1  0.297240  0.429370  0.877730  1.0  -0.3262
  I  I529  1  0.831050  0.196720  0.812440  1.0  -0.3743
  I  I530  1  0.664640  0.322770  0.835120  1.0  -0.303
  I  I531  1  0.812870  0.058170  0.082250  1.0  -0.389
  I  I532  1  0.545220  0.987930  0.114070  1.0  -0.3573
  I  I533  1  0.807460  0.000900  0.965630  1.0  -0.3963
  I  I534  1  0.797240  0.070630  0.877730  1.0  -0.327
  I  I535  1  0.168950  0.303280  0.312440  1.0  -0.3741
  I  I536  1  0.335360  0.177230  0.335120  1.0  -0.3032
  I  I537  1  0.187130  0.441830  0.582250  1.0  -0.3888
  I  I538  1  0.454780  0.512070  0.614070  1.0  -0.3585
  I  I539  1  0.192540  0.499100  0.465630  1.0  -0.3966
  I  I540  1  0.202760  0.429370  0.377730  1.0  -0.3269
  I  I541  1  0.331050  0.803280  0.687560  1.0  -0.374
  I  I542  1  0.164640  0.677230  0.664880  1.0  -0.3032
  I  I543  1  0.312870  0.941830  0.417750  1.0  -0.3886
  I  I544  1  0.045220  0.012070  0.385930  1.0  -0.359
  I  I545  1  0.307460  0.999100  0.534370  1.0  -0.3958
  I  I546  1  0.297240  0.929370  0.622270  1.0  -0.326
  I  I547  1  0.668950  0.696720  0.187560  1.0  -0.3749
  I  I548  1  0.835360  0.822770  0.164880  1.0  -0.303
  I  I549  1  0.687130  0.558170  0.917750  1.0  -0.3888
  I  I550  1  0.954780  0.487930  0.885930  1.0  -0.3601
  I  I551  1  0.692540  0.500900  0.034370  1.0  -0.3968
  I  I552  1  0.702760  0.570630  0.122270  1.0  -0.3262
  N  N553  1  0.409200  0.801800  0.151160  1.0  -0.2832
  N  N554  1  0.513600  0.887400  0.059210  1.0  -0.4315
  N  N555  1  0.657200  0.881100  0.087110  1.0  -0.4157
  N  N556  1  0.654800  0.921300  0.040810  1.0  -0.4434
  N  N557  1  0.986200  0.950800  0.077270  1.0  -0.3321
  N  N558  1  0.424000  0.944600  0.956980  1.0  -0.3174
  N  N559  1  0.587700  0.614900  0.397290  1.0  -0.3031
  N  N560  1  0.556300  0.785800  0.366520  1.0  -0.4704
  N  N561  1  0.517400  0.742100  0.323490  1.0  -0.5583
  N  N562  1  0.517200  0.825500  0.321130  1.0  -0.4722
  N  N563  1  0.585600  0.956300  0.394320  1.0  -0.3042
  N  N564  1  0.404300  0.770800  0.220180  1.0  -0.3217
  N  N565  1  0.590800  0.698200  0.651160  1.0  -0.2841
  N  N566  1  0.486400  0.612600  0.559210  1.0  -0.4332
  N  N567  1  0.342800  0.618900  0.587110  1.0  -0.4176
  N  N568  1  0.345200  0.578700  0.540810  1.0  -0.443
  N  N569  1  0.013800  0.549200  0.577270  1.0  -0.3333
  N  N570  1  0.576000  0.555400  0.456980  1.0  -0.318
  N  N571  1  0.412300  0.885100  0.897290  1.0  -0.3048
  N  N572  1  0.443700  0.714200  0.866520  1.0  -0.4702
  N  N573  1  0.482600  0.757900  0.823490  1.0  -0.5585
  N  N574  1  0.482800  0.674500  0.821130  1.0  -0.4726
  N  N575  1  0.414400  0.543700  0.894320  1.0  -0.3025
  N  N576  1  0.595700  0.729200  0.720180  1.0  -0.3213
  N  N577  1  0.909200  0.198200  0.348840  1.0  -0.2844
  N  N578  1  0.013600  0.112600  0.440790  1.0  -0.4311
  N  N579  1  0.157200  0.118900  0.412890  1.0  -0.4161
  N  N580  1  0.154800  0.078700  0.459190  1.0  -0.4442
  N  N581  1  0.486200  0.049200  0.422730  1.0  -0.3327
  N  N582  1  0.924000  0.055400  0.543020  1.0  -0.3171
  N  N583  1  0.087700  0.385100  0.102710  1.0  -0.3047
  N  N584  1  0.056300  0.214200  0.133480  1.0  -0.4693
  N  N585  1  0.017400  0.257900  0.176510  1.0  -0.5582
  N  N586  1  0.017200  0.174500  0.178870  1.0  -0.4741
  N  N587  1  0.085600  0.043700  0.105680  1.0  -0.3024
  N  N588  1  0.904300  0.229200  0.279820  1.0  -0.321
  N  N589  1  0.090800  0.301800  0.848840  1.0  -0.2845
  N  N590  1  0.986400  0.387400  0.940790  1.0  -0.4332
  N  N591  1  0.842800  0.381100  0.912890  1.0  -0.4179
  N  N592  1  0.845200  0.421300  0.959190  1.0  -0.4444
  N  N593  1  0.513800  0.450800  0.922730  1.0  -0.3326
  N  N594  1  0.076000  0.444600  0.043020  1.0  -0.3154
  N  N595  1  0.912300  0.114900  0.602710  1.0  -0.3034
  N  N596  1  0.943700  0.285800  0.633480  1.0  -0.4695
  N  N597  1  0.982600  0.242100  0.676510  1.0  -0.5574
  N  N598  1  0.982800  0.325500  0.678870  1.0  -0.4742
  N  N599  1  0.914400  0.456300  0.605680  1.0  -0.3015
  N  N600  1  0.095700  0.270800  0.779820  1.0  -0.3213
  N  N601  1  0.590800  0.198200  0.848840  1.0  -0.2845
  N  N602  1  0.486400  0.112600  0.940790  1.0  -0.4332
  N  N603  1  0.342800  0.118900  0.912890  1.0  -0.4167
  N  N604  1  0.345200  0.078700  0.959190  1.0  -0.4441
  N  N605  1  0.013800  0.049200  0.922730  1.0  -0.3335
  N  N606  1  0.576000  0.055400  0.043020  1.0  -0.315
  N  N607  1  0.412300  0.385100  0.602710  1.0  -0.3042
  N  N608  1  0.443700  0.214200  0.633480  1.0  -0.4696
  N  N609  1  0.482600  0.257900  0.676510  1.0  -0.5583
  N  N610  1  0.482800  0.174500  0.678870  1.0  -0.4738
  N  N611  1  0.414400  0.043700  0.605680  1.0  -0.3023
  N  N612  1  0.595700  0.229200  0.779820  1.0  -0.3211
  N  N613  1  0.409200  0.301800  0.348840  1.0  -0.2851
  N  N614  1  0.513600  0.387400  0.440790  1.0  -0.432
  N  N615  1  0.657200  0.381100  0.412890  1.0  -0.4173
  N  N616  1  0.654800  0.421300  0.459190  1.0  -0.4441
  N  N617  1  0.986200  0.450800  0.422730  1.0  -0.3323
  N  N618  1  0.424000  0.444600  0.543020  1.0  -0.3176
  N  N619  1  0.587700  0.114900  0.102710  1.0  -0.3029
  N  N620  1  0.556300  0.285800  0.133480  1.0  -0.4692
  N  N621  1  0.517400  0.242100  0.176510  1.0  -0.5573
  N  N622  1  0.517200  0.325500  0.178870  1.0  -0.4743
  N  N623  1  0.585600  0.456300  0.105680  1.0  -0.3026
  N  N624  1  0.404300  0.270800  0.279820  1.0  -0.3211
  N  N625  1  0.090800  0.801800  0.651160  1.0  -0.2831
  N  N626  1  0.986400  0.887400  0.559210  1.0  -0.4328
  N  N627  1  0.842800  0.881100  0.587110  1.0  -0.4172
  N  N628  1  0.845200  0.921300  0.540810  1.0  -0.4436
  N  N629  1  0.513800  0.950800  0.577270  1.0  -0.3325
  N  N630  1  0.076000  0.944600  0.456980  1.0  -0.3165
  N  N631  1  0.912300  0.614900  0.897290  1.0  -0.3033
  N  N632  1  0.943700  0.785800  0.866520  1.0  -0.4704
  N  N633  1  0.982600  0.742100  0.823490  1.0  -0.5583
  N  N634  1  0.982800  0.825500  0.821130  1.0  -0.4723
  N  N635  1  0.914400  0.956300  0.894320  1.0  -0.3034
  N  N636  1  0.095700  0.770800  0.720180  1.0  -0.3219
  N  N637  1  0.909200  0.698200  0.151160  1.0  -0.2841
  N  N638  1  0.013600  0.612600  0.059210  1.0  -0.4309
  N  N639  1  0.157200  0.618900  0.087110  1.0  -0.4164
  N  N640  1  0.154800  0.578700  0.040810  1.0  -0.4432
  N  N641  1  0.486200  0.549200  0.077270  1.0  -0.3325
  N  N642  1  0.924000  0.555400  0.956980  1.0  -0.319
  N  N643  1  0.087700  0.885100  0.397290  1.0  -0.3054
  N  N644  1  0.056300  0.714200  0.366520  1.0  -0.4703
  N  N645  1  0.017400  0.757900  0.323490  1.0  -0.5584
  N  N646  1  0.017200  0.674500  0.321130  1.0  -0.4727
  N  N647  1  0.085600  0.543700  0.394320  1.0  -0.3025
  N  N648  1  0.904300  0.729200  0.220180  1.0  -0.3213
