# generated using pymatgen
data_ZnH8C12(IN2)2
_symmetry_space_group_name_H-M   'P 1'
_cell_length_a   13.87200000
_cell_length_b   28.40000000
_cell_length_c   44.18000000
_cell_angle_alpha   90.00000000
_cell_angle_beta   90.00000000
_cell_angle_gamma   90.00000000
_symmetry_Int_Tables_number   1
_chemical_formula_structural   ZnH8C12(IN2)2
_chemical_formula_sum   'Zn24 H192 C288 I48 N96'
_cell_volume   17405.36486400
_cell_formula_units_Z   24
loop_
 _symmetry_equiv_pos_site_id
 _symmetry_equiv_pos_as_xyz
  1  'x, y, z'
loop_
 _atom_site_type_symbol
 _atom_site_label
 _atom_site_symmetry_multiplicity
 _atom_site_fract_x
 _atom_site_fract_y
 _atom_site_fract_z
 _atom_site_occupancy
 _atom_site_charge
  Zn  Zn1  1  0.115920  0.980050  0.086120  1.0  0.8312
  Zn  Zn2  1  0.138490  0.449300  0.086820  1.0  0.8793
  Zn  Zn3  1  0.818360  0.236430  0.319720  1.0  0.8743
  Zn  Zn4  1  0.884080  0.519950  0.586120  1.0  0.8303
  Zn  Zn5  1  0.861510  0.050700  0.586820  1.0  0.8812
  Zn  Zn6  1  0.181640  0.263570  0.819720  1.0  0.8766
  Zn  Zn7  1  0.615920  0.019950  0.413880  1.0  0.8315
  Zn  Zn8  1  0.638490  0.550700  0.413180  1.0  0.8803
  Zn  Zn9  1  0.318360  0.763570  0.180280  1.0  0.8747
  Zn  Zn10  1  0.384080  0.480050  0.913880  1.0  0.832
  Zn  Zn11  1  0.361510  0.949300  0.913180  1.0  0.8791
  Zn  Zn12  1  0.681640  0.736430  0.680280  1.0  0.8767
  Zn  Zn13  1  0.884080  0.019950  0.913880  1.0  0.8312
  Zn  Zn14  1  0.861510  0.550700  0.913180  1.0  0.881
  Zn  Zn15  1  0.181640  0.763570  0.680280  1.0  0.8765
  Zn  Zn16  1  0.115920  0.480050  0.413880  1.0  0.8316
  Zn  Zn17  1  0.138490  0.949300  0.413180  1.0  0.8791
  Zn  Zn18  1  0.818360  0.736430  0.180280  1.0  0.8746
  Zn  Zn19  1  0.384080  0.980050  0.586120  1.0  0.831
  Zn  Zn20  1  0.361510  0.449300  0.586820  1.0  0.8785
  Zn  Zn21  1  0.681640  0.236430  0.819720  1.0  0.8765
  Zn  Zn22  1  0.615920  0.519950  0.086120  1.0  0.8311
  Zn  Zn23  1  0.638490  0.050700  0.086820  1.0  0.8809
  Zn  Zn24  1  0.318360  0.263570  0.319720  1.0  0.8748
  H  H25  1  0.060600  0.017600  0.146300  1.0  0.0842
  H  H26  1  0.037600  0.088300  0.171600  1.0  0.1173
  H  H27  1  0.076500  0.155200  0.092300  1.0  0.1205
  H  H28  1  0.097600  0.082700  0.069200  1.0  0.0867
  H  H29  1  0.864200  0.160900  0.275700  1.0  0.089
  H  H30  1  0.930600  0.151100  0.227200  1.0  0.1193
  H  H31  1  0.998600  0.290100  0.228400  1.0  0.1146
  H  H32  1  0.936900  0.294900  0.277200  1.0  0.0948
  H  H33  1  0.045100  0.412300  0.142300  1.0  0.0946
  H  H34  1  0.016800  0.341600  0.167000  1.0  0.1204
  H  H35  1  0.100000  0.272800  0.091500  1.0  0.1168
  H  H36  1  0.128000  0.345800  0.068900  1.0  0.0895
  H  H37  1  0.302200  0.926800  0.977700  1.0  0.0812
  H  H38  1  0.372000  0.911000  0.023500  1.0  0.1276
  H  H39  1  0.628900  0.949300  0.987900  1.0  0.1178
  H  H40  1  0.549000  0.967500  0.943400  1.0  0.0805
  H  H41  1  0.288300  0.829300  0.129800  1.0  0.0927
  H  H42  1  0.372100  0.869100  0.092500  1.0  0.1238
  H  H43  1  0.619600  0.823200  0.130100  1.0  0.118
  H  H44  1  0.527300  0.783200  0.165200  1.0  0.0788
  H  H45  1  0.975600  0.966800  0.034900  1.0  0.084
  H  H46  1  0.821200  0.942400  0.026600  1.0  0.1124
  H  H47  1  0.808300  0.900700  0.113800  1.0  0.1202
  H  H48  1  0.965300  0.925300  0.119600  1.0  0.0911
  H  H49  1  0.939400  0.482400  0.646300  1.0  0.0844
  H  H50  1  0.962400  0.411700  0.671600  1.0  0.1169
  H  H51  1  0.923500  0.344800  0.592300  1.0  0.1201
  H  H52  1  0.902400  0.417300  0.569200  1.0  0.0862
  H  H53  1  0.135800  0.339100  0.775700  1.0  0.0887
  H  H54  1  0.069400  0.348900  0.727200  1.0  0.1196
  H  H55  1  0.001400  0.209900  0.728400  1.0  0.1145
  H  H56  1  0.063100  0.205100  0.777200  1.0  0.0956
  H  H57  1  0.954900  0.087700  0.642300  1.0  0.0948
  H  H58  1  0.983200  0.158400  0.667000  1.0  0.1206
  H  H59  1  0.900000  0.227200  0.591500  1.0  0.1164
  H  H60  1  0.872000  0.154200  0.568900  1.0  0.0889
  H  H61  1  0.697800  0.573200  0.477700  1.0  0.0811
  H  H62  1  0.628000  0.589000  0.523500  1.0  0.1272
  H  H63  1  0.371100  0.550700  0.487900  1.0  0.1178
  H  H64  1  0.451000  0.532500  0.443400  1.0  0.0806
  H  H65  1  0.711700  0.670700  0.629800  1.0  0.0892
  H  H66  1  0.627900  0.630900  0.592500  1.0  0.1238
  H  H67  1  0.380400  0.676800  0.630100  1.0  0.1191
  H  H68  1  0.472700  0.716800  0.665200  1.0  0.0793
  H  H69  1  0.024400  0.533200  0.534900  1.0  0.0841
  H  H70  1  0.178800  0.557600  0.526600  1.0  0.1127
  H  H71  1  0.191700  0.599300  0.613800  1.0  0.1201
  H  H72  1  0.034700  0.574700  0.619600  1.0  0.0908
  H  H73  1  0.560600  0.982400  0.353700  1.0  0.0841
  H  H74  1  0.537600  0.911700  0.328400  1.0  0.1173
  H  H75  1  0.576500  0.844800  0.407700  1.0  0.1203
  H  H76  1  0.597600  0.917300  0.430800  1.0  0.0878
  H  H77  1  0.364200  0.839100  0.224300  1.0  0.089
  H  H78  1  0.430600  0.848900  0.272800  1.0  0.1194
  H  H79  1  0.498600  0.709900  0.271600  1.0  0.1144
  H  H80  1  0.436900  0.705100  0.222800  1.0  0.0958
  H  H81  1  0.545100  0.587700  0.357700  1.0  0.094
  H  H82  1  0.516800  0.658400  0.333000  1.0  0.1201
  H  H83  1  0.600000  0.727200  0.408500  1.0  0.1164
  H  H84  1  0.628000  0.654200  0.431100  1.0  0.0891
  H  H85  1  0.802200  0.073200  0.522300  1.0  0.0812
  H  H86  1  0.872000  0.089000  0.476500  1.0  0.1272
  H  H87  1  0.128900  0.050700  0.512100  1.0  0.1179
  H  H88  1  0.049000  0.032500  0.556600  1.0  0.0807
  H  H89  1  0.788300  0.170700  0.370200  1.0  0.0925
  H  H90  1  0.872100  0.130900  0.407500  1.0  0.1242
  H  H91  1  0.119600  0.176800  0.369900  1.0  0.1177
  H  H92  1  0.027300  0.216800  0.334800  1.0  0.0797
  H  H93  1  0.475600  0.033200  0.465100  1.0  0.0847
  H  H94  1  0.321200  0.057600  0.473400  1.0  0.1126
  H  H95  1  0.308300  0.099300  0.386200  1.0  0.1201
  H  H96  1  0.465300  0.074700  0.380400  1.0  0.0905
  H  H97  1  0.439400  0.517600  0.853700  1.0  0.0835
  H  H98  1  0.462400  0.588300  0.828400  1.0  0.1175
  H  H99  1  0.423500  0.655200  0.907700  1.0  0.1199
  H  H100  1  0.402400  0.582700  0.930800  1.0  0.0874
  H  H101  1  0.635800  0.660900  0.724300  1.0  0.0888
  H  H102  1  0.569400  0.651100  0.772800  1.0  0.1189
  H  H103  1  0.501400  0.790100  0.771600  1.0  0.1148
  H  H104  1  0.563100  0.794900  0.722800  1.0  0.0948
  H  H105  1  0.454900  0.912300  0.857700  1.0  0.0937
  H  H106  1  0.483200  0.841600  0.833000  1.0  0.1201
  H  H107  1  0.400000  0.772800  0.908500  1.0  0.1167
  H  H108  1  0.372000  0.845800  0.931100  1.0  0.0895
  H  H109  1  0.197800  0.426800  0.022300  1.0  0.0812
  H  H110  1  0.128000  0.411000  0.976500  1.0  0.1272
  H  H111  1  0.871100  0.449300  0.012100  1.0  0.1169
  H  H112  1  0.951000  0.467500  0.056600  1.0  0.0805
  H  H113  1  0.211700  0.329300  0.870200  1.0  0.089
  H  H114  1  0.127900  0.369100  0.907500  1.0  0.1236
  H  H115  1  0.880400  0.323200  0.869900  1.0  0.1192
  H  H116  1  0.972700  0.283200  0.834800  1.0  0.0795
  H  H117  1  0.524400  0.466800  0.965100  1.0  0.0846
  H  H118  1  0.678800  0.442400  0.973400  1.0  0.1126
  H  H119  1  0.691700  0.400700  0.886200  1.0  0.1204
  H  H120  1  0.534700  0.425300  0.880400  1.0  0.0909
  H  H121  1  0.939400  0.982400  0.853700  1.0  0.0838
  H  H122  1  0.962400  0.911700  0.828400  1.0  0.1172
  H  H123  1  0.923500  0.844800  0.907700  1.0  0.1202
  H  H124  1  0.902400  0.917300  0.930800  1.0  0.0875
  H  H125  1  0.135800  0.839100  0.724300  1.0  0.089
  H  H126  1  0.069400  0.848900  0.772800  1.0  0.1192
  H  H127  1  0.001400  0.709900  0.771600  1.0  0.1145
  H  H128  1  0.063100  0.705100  0.722800  1.0  0.0956
  H  H129  1  0.954900  0.587700  0.857700  1.0  0.0942
  H  H130  1  0.983200  0.658400  0.833000  1.0  0.1202
  H  H131  1  0.900000  0.727200  0.908500  1.0  0.1164
  H  H132  1  0.872000  0.654200  0.931100  1.0  0.0893
  H  H133  1  0.697800  0.073200  0.022300  1.0  0.0811
  H  H134  1  0.628000  0.089000  0.976500  1.0  0.1273
  H  H135  1  0.371100  0.050700  0.012100  1.0  0.1175
  H  H136  1  0.451000  0.032500  0.056600  1.0  0.081
  H  H137  1  0.711700  0.170700  0.870200  1.0  0.0893
  H  H138  1  0.627900  0.130900  0.907500  1.0  0.1239
  H  H139  1  0.380400  0.176800  0.869900  1.0  0.1192
  H  H140  1  0.472700  0.216800  0.834800  1.0  0.0799
  H  H141  1  0.024400  0.033200  0.965100  1.0  0.0849
  H  H142  1  0.178800  0.057600  0.973400  1.0  0.1126
  H  H143  1  0.191700  0.099300  0.886200  1.0  0.1202
  H  H144  1  0.034700  0.074700  0.880400  1.0  0.0906
  H  H145  1  0.060600  0.517600  0.353700  1.0  0.0835
  H  H146  1  0.037600  0.588300  0.328400  1.0  0.1174
  H  H147  1  0.076500  0.655200  0.407700  1.0  0.1201
  H  H148  1  0.097600  0.582700  0.430800  1.0  0.0878
  H  H149  1  0.864200  0.660900  0.224300  1.0  0.0888
  H  H150  1  0.930600  0.651100  0.272800  1.0  0.1192
  H  H151  1  0.998600  0.790100  0.271600  1.0  0.1148
  H  H152  1  0.936900  0.794900  0.222800  1.0  0.0951
  H  H153  1  0.045100  0.912300  0.357700  1.0  0.0934
  H  H154  1  0.016800  0.841600  0.333000  1.0  0.12
  H  H155  1  0.100000  0.772800  0.408500  1.0  0.1167
  H  H156  1  0.128000  0.845800  0.431100  1.0  0.0893
  H  H157  1  0.302200  0.426800  0.522300  1.0  0.0815
  H  H158  1  0.372000  0.411000  0.476500  1.0  0.1269
  H  H159  1  0.628900  0.449300  0.512100  1.0  0.1179
  H  H160  1  0.549000  0.467500  0.556600  1.0  0.0802
  H  H161  1  0.288300  0.329300  0.370200  1.0  0.0924
  H  H162  1  0.372100  0.369100  0.407500  1.0  0.1238
  H  H163  1  0.619600  0.323200  0.369900  1.0  0.1178
  H  H164  1  0.527300  0.283200  0.334800  1.0  0.0791
  H  H165  1  0.975600  0.466800  0.465100  1.0  0.0843
  H  H166  1  0.821200  0.442400  0.473400  1.0  0.1125
  H  H167  1  0.808300  0.400700  0.386200  1.0  0.1201
  H  H168  1  0.965300  0.425300  0.380400  1.0  0.0909
  H  H169  1  0.439400  0.017600  0.646300  1.0  0.0844
  H  H170  1  0.462400  0.088300  0.671600  1.0  0.1173
  H  H171  1  0.423500  0.155200  0.592300  1.0  0.1205
  H  H172  1  0.402400  0.082700  0.569200  1.0  0.0862
  H  H173  1  0.635800  0.160900  0.775700  1.0  0.0887
  H  H174  1  0.569400  0.151100  0.727200  1.0  0.1191
  H  H175  1  0.501400  0.290100  0.728400  1.0  0.1149
  H  H176  1  0.563100  0.294900  0.777200  1.0  0.0945
  H  H177  1  0.454900  0.412300  0.642300  1.0  0.0945
  H  H178  1  0.483200  0.341600  0.667000  1.0  0.1206
  H  H179  1  0.400000  0.272800  0.591500  1.0  0.1166
  H  H180  1  0.372000  0.345800  0.568900  1.0  0.0894
  H  H181  1  0.197800  0.926800  0.477700  1.0  0.0812
  H  H182  1  0.128000  0.911000  0.523500  1.0  0.1275
  H  H183  1  0.871100  0.949300  0.487900  1.0  0.1173
  H  H184  1  0.951000  0.967500  0.443400  1.0  0.0804
  H  H185  1  0.211700  0.829300  0.629800  1.0  0.089
  H  H186  1  0.127900  0.869100  0.592500  1.0  0.1238
  H  H187  1  0.880400  0.823200  0.630100  1.0  0.1195
  H  H188  1  0.972700  0.783200  0.665200  1.0  0.0794
  H  H189  1  0.524400  0.966800  0.534900  1.0  0.0837
  H  H190  1  0.678800  0.942400  0.526600  1.0  0.1126
  H  H191  1  0.691700  0.900700  0.613800  1.0  0.1205
  H  H192  1  0.534700  0.925300  0.619600  1.0  0.0915
  H  H193  1  0.560600  0.482400  0.146300  1.0  0.0843
  H  H194  1  0.537600  0.411700  0.171600  1.0  0.117
  H  H195  1  0.576500  0.344800  0.092300  1.0  0.1201
  H  H196  1  0.597600  0.417300  0.069200  1.0  0.0868
  H  H197  1  0.364200  0.339100  0.275700  1.0  0.0889
  H  H198  1  0.430600  0.348900  0.227200  1.0  0.1197
  H  H199  1  0.498600  0.209900  0.228400  1.0  0.1143
  H  H200  1  0.436900  0.205100  0.277200  1.0  0.0957
  H  H201  1  0.545100  0.087700  0.142300  1.0  0.0947
  H  H202  1  0.516800  0.158400  0.167000  1.0  0.1205
  H  H203  1  0.600000  0.227200  0.091500  1.0  0.1165
  H  H204  1  0.628000  0.154200  0.068900  1.0  0.0889
  H  H205  1  0.802200  0.573200  0.977700  1.0  0.0809
  H  H206  1  0.872000  0.589000  0.023500  1.0  0.1274
  H  H207  1  0.128900  0.550700  0.987900  1.0  0.1181
  H  H208  1  0.049000  0.532500  0.943400  1.0  0.0807
  H  H209  1  0.788300  0.670700  0.129800  1.0  0.0926
  H  H210  1  0.872100  0.630900  0.092500  1.0  0.1237
  H  H211  1  0.119600  0.676800  0.130100  1.0  0.1176
  H  H212  1  0.027300  0.716800  0.165200  1.0  0.0791
  H  H213  1  0.475600  0.533200  0.034900  1.0  0.0844
  H  H214  1  0.321200  0.557600  0.026600  1.0  0.1125
  H  H215  1  0.308300  0.599300  0.113800  1.0  0.1199
  H  H216  1  0.465300  0.574700  0.119600  1.0  0.0904
  C  C217  1  0.064600  0.046100  0.135160  1.0  0.1455
  C  C218  1  0.050600  0.088200  0.150460  1.0  -0.1411
  C  C219  1  0.055700  0.129700  0.134630  1.0  -0.0929
  C  C220  1  0.073300  0.127200  0.104020  1.0  -0.1434
  C  C221  1  0.086300  0.083800  0.090440  1.0  0.1302
  C  C222  1  0.042900  0.175900  0.149950  1.0  0.4016
  C  C223  1  0.004500  0.217200  0.191140  1.0  0.3828
  C  C224  1  0.043400  0.254500  0.148170  1.0  0.4044
  C  C225  1  0.892200  0.187200  0.265810  1.0  0.139
  C  C226  1  0.931000  0.181000  0.236790  1.0  -0.1434
  C  C227  1  0.969800  0.220000  0.222640  1.0  -0.1345
  C  C228  1  0.971700  0.263000  0.237820  1.0  -0.0884
  C  C229  1  0.933800  0.265800  0.266680  1.0  0.1294
  C  C230  1  0.058300  0.383600  0.132040  1.0  0.1347
  C  C231  1  0.040800  0.341600  0.146840  1.0  -0.1
  C  C232  1  0.058400  0.299800  0.132120  1.0  -0.1172
  C  C233  1  0.089800  0.301000  0.102530  1.0  -0.1548
  C  C234  1  0.106300  0.344700  0.089240  1.0  0.1338
  C  C235  1  0.369800  0.931100  0.979730  1.0  0.1396
  C  C236  1  0.410600  0.921200  0.007010  1.0  -0.1798
  C  C237  1  0.509200  0.926400  0.010340  1.0  -0.0834
  C  C238  1  0.561400  0.944100  0.986210  1.0  -0.1528
  C  C239  1  0.513500  0.954300  0.959700  1.0  0.1345
  C  C240  1  0.559900  0.912000  0.038250  1.0  0.4181
  C  C241  1  0.558900  0.874500  0.082830  1.0  0.3705
  C  C242  1  0.695400  0.906500  0.065280  1.0  0.3422
  C  C243  1  0.356700  0.827500  0.129560  1.0  0.1422
  C  C244  1  0.405700  0.851400  0.107370  1.0  -0.1332
  C  C245  1  0.504600  0.849000  0.107130  1.0  -0.1118
  C  C246  1  0.551200  0.824300  0.129240  1.0  -0.1552
  C  C247  1  0.495500  0.801200  0.150070  1.0  0.1582
  C  C248  1  0.940600  0.953400  0.051210  1.0  0.1543
  C  C249  1  0.849300  0.939100  0.046150  1.0  -0.1286
  C  C250  1  0.797100  0.919700  0.069750  1.0  -0.1104
  C  C251  1  0.841700  0.914500  0.097240  1.0  -0.1153
  C  C252  1  0.934600  0.929400  0.100590  1.0  0.1491
  C  C253  1  0.935400  0.453900  0.635160  1.0  0.1461
  C  C254  1  0.949400  0.411800  0.650460  1.0  -0.1404
  C  C255  1  0.944300  0.370300  0.634630  1.0  -0.0929
  C  C256  1  0.926700  0.372800  0.604020  1.0  -0.1416
  C  C257  1  0.913700  0.416200  0.590440  1.0  0.1311
  C  C258  1  0.957100  0.324100  0.649950  1.0  0.4009
  C  C259  1  0.995500  0.282800  0.691140  1.0  0.383
  C  C260  1  0.956600  0.245500  0.648170  1.0  0.4047
  C  C261  1  0.107800  0.312800  0.765810  1.0  0.1387
  C  C262  1  0.069000  0.319000  0.736790  1.0  -0.1439
  C  C263  1  0.030200  0.280000  0.722640  1.0  -0.1347
  C  C264  1  0.028300  0.237000  0.737820  1.0  -0.0884
  C  C265  1  0.066200  0.234200  0.766680  1.0  0.1285
  C  C266  1  0.941700  0.116400  0.632040  1.0  0.1344
  C  C267  1  0.959200  0.158400  0.646840  1.0  -0.099
  C  C268  1  0.941600  0.200200  0.632120  1.0  -0.1176
  C  C269  1  0.910200  0.199000  0.602530  1.0  -0.1549
  C  C270  1  0.893700  0.155300  0.589240  1.0  0.1337
  C  C271  1  0.630200  0.568900  0.479730  1.0  0.1382
  C  C272  1  0.589400  0.578800  0.507010  1.0  -0.1805
  C  C273  1  0.490800  0.573600  0.510340  1.0  -0.0826
  C  C274  1  0.438600  0.555900  0.486210  1.0  -0.156
  C  C275  1  0.486500  0.545700  0.459700  1.0  0.1346
  C  C276  1  0.440100  0.588000  0.538250  1.0  0.4178
  C  C277  1  0.441100  0.625500  0.582830  1.0  0.3707
  C  C278  1  0.304600  0.593500  0.565280  1.0  0.3429
  C  C279  1  0.643300  0.672500  0.629560  1.0  0.1413
  C  C280  1  0.594300  0.648600  0.607370  1.0  -0.1329
  C  C281  1  0.495400  0.651000  0.607130  1.0  -0.1121
  C  C282  1  0.448800  0.675700  0.629240  1.0  -0.1566
  C  C283  1  0.504500  0.698800  0.650070  1.0  0.1584
  C  C284  1  0.059400  0.546600  0.551210  1.0  0.1555
  C  C285  1  0.150700  0.560900  0.546150  1.0  -0.1272
  C  C286  1  0.202900  0.580300  0.569750  1.0  -0.1099
  C  C287  1  0.158300  0.585500  0.597240  1.0  -0.1149
  C  C288  1  0.065400  0.570600  0.600590  1.0  0.1467
  C  C289  1  0.564600  0.953900  0.364840  1.0  0.1466
  C  C290  1  0.550600  0.911800  0.349540  1.0  -0.1403
  C  C291  1  0.555700  0.870300  0.365370  1.0  -0.0939
  C  C292  1  0.573300  0.872800  0.395980  1.0  -0.1417
  C  C293  1  0.586300  0.916200  0.409560  1.0  0.1302
  C  C294  1  0.542900  0.824100  0.350050  1.0  0.4012
  C  C295  1  0.504500  0.782800  0.308860  1.0  0.3827
  C  C296  1  0.543400  0.745500  0.351830  1.0  0.4048
  C  C297  1  0.392200  0.812800  0.234190  1.0  0.1377
  C  C298  1  0.431000  0.819000  0.263210  1.0  -0.1435
  C  C299  1  0.469800  0.780000  0.277360  1.0  -0.1344
  C  C300  1  0.471700  0.737000  0.262180  1.0  -0.0881
  C  C301  1  0.433800  0.734200  0.233320  1.0  0.1289
  C  C302  1  0.558300  0.616400  0.367960  1.0  0.1343
  C  C303  1  0.540800  0.658400  0.353160  1.0  -0.0991
  C  C304  1  0.558400  0.700200  0.367880  1.0  -0.1174
  C  C305  1  0.589800  0.699000  0.397470  1.0  -0.1538
  C  C306  1  0.606300  0.655300  0.410760  1.0  0.1342
  C  C307  1  0.869800  0.068900  0.520270  1.0  0.1394
  C  C308  1  0.910600  0.078800  0.492990  1.0  -0.1797
  C  C309  1  0.009200  0.073600  0.489660  1.0  -0.0828
  C  C310  1  0.061400  0.055900  0.513790  1.0  -0.1541
  C  C311  1  0.013500  0.045700  0.540300  1.0  0.1348
  C  C312  1  0.059900  0.088000  0.461750  1.0  0.4181
  C  C313  1  0.058900  0.125500  0.417170  1.0  0.3706
  C  C314  1  0.195400  0.093500  0.434720  1.0  0.3426
  C  C315  1  0.856700  0.172500  0.370440  1.0  0.1421
  C  C316  1  0.905700  0.148600  0.392630  1.0  -0.1339
  C  C317  1  0.004600  0.151000  0.392870  1.0  -0.1118
  C  C318  1  0.051200  0.175700  0.370760  1.0  -0.1556
  C  C319  1  0.995500  0.198800  0.349930  1.0  0.1585
  C  C320  1  0.440600  0.046600  0.448790  1.0  0.1558
  C  C321  1  0.349300  0.060900  0.453850  1.0  -0.1303
  C  C322  1  0.297100  0.080300  0.430250  1.0  -0.1094
  C  C323  1  0.341700  0.085500  0.402760  1.0  -0.1146
  C  C324  1  0.434600  0.070600  0.399410  1.0  0.1473
  C  C325  1  0.435400  0.546100  0.864840  1.0  0.1453
  C  C326  1  0.449400  0.588200  0.849540  1.0  -0.1389
  C  C327  1  0.444300  0.629700  0.865370  1.0  -0.0928
  C  C328  1  0.426700  0.627200  0.895980  1.0  -0.1434
  C  C329  1  0.413700  0.583800  0.909560  1.0  0.1297
  C  C330  1  0.457100  0.675900  0.850050  1.0  0.401
  C  C331  1  0.495500  0.717200  0.808860  1.0  0.3827
  C  C332  1  0.456600  0.754500  0.851830  1.0  0.4045
  C  C333  1  0.607800  0.687200  0.734190  1.0  0.1378
  C  C334  1  0.569000  0.681000  0.763210  1.0  -0.1451
  C  C335  1  0.530200  0.720000  0.777360  1.0  -0.1349
  C  C336  1  0.528300  0.763000  0.762180  1.0  -0.0888
  C  C337  1  0.566200  0.765800  0.733320  1.0  0.1291
  C  C338  1  0.441700  0.883600  0.867960  1.0  0.1333
  C  C339  1  0.459200  0.841600  0.853160  1.0  -0.0994
  C  C340  1  0.441600  0.799800  0.867880  1.0  -0.1174
  C  C341  1  0.410200  0.801000  0.897470  1.0  -0.1541
  C  C342  1  0.393700  0.844700  0.910760  1.0  0.1344
  C  C343  1  0.130200  0.431100  0.020270  1.0  0.1379
  C  C344  1  0.089400  0.421200  0.992990  1.0  -0.1803
  C  C345  1  0.990800  0.426400  0.989660  1.0  -0.0832
  C  C346  1  0.938600  0.444100  0.013790  1.0  -0.1558
  C  C347  1  0.986500  0.454300  0.040300  1.0  0.1349
  C  C348  1  0.940100  0.412000  0.961750  1.0  0.418
  C  C349  1  0.941100  0.374500  0.917170  1.0  0.3706
  C  C350  1  0.804600  0.406500  0.934720  1.0  0.3419
  C  C351  1  0.143300  0.327500  0.870440  1.0  0.1414
  C  C352  1  0.094300  0.351400  0.892630  1.0  -0.1339
  C  C353  1  0.995400  0.349000  0.892870  1.0  -0.1118
  C  C354  1  0.948800  0.324300  0.870760  1.0  -0.1565
  C  C355  1  0.004500  0.301200  0.849930  1.0  0.1589
  C  C356  1  0.559400  0.453400  0.948790  1.0  0.1549
  C  C357  1  0.650700  0.439100  0.953850  1.0  -0.1286
  C  C358  1  0.702900  0.419700  0.930250  1.0  -0.1106
  C  C359  1  0.658300  0.414500  0.902760  1.0  -0.1135
  C  C360  1  0.565400  0.429400  0.899410  1.0  0.1472
  C  C361  1  0.935400  0.953900  0.864840  1.0  0.1467
  C  C362  1  0.949400  0.911800  0.849540  1.0  -0.1397
  C  C363  1  0.944300  0.870300  0.865370  1.0  -0.0933
  C  C364  1  0.926700  0.872800  0.895980  1.0  -0.1421
  C  C365  1  0.913700  0.916200  0.909560  1.0  0.1296
  C  C366  1  0.957100  0.824100  0.850050  1.0  0.4008
  C  C367  1  0.995500  0.782800  0.808860  1.0  0.3828
  C  C368  1  0.956600  0.745500  0.851830  1.0  0.4048
  C  C369  1  0.107800  0.812800  0.734190  1.0  0.1383
  C  C370  1  0.069000  0.819000  0.763210  1.0  -0.1439
  C  C371  1  0.030200  0.780000  0.777360  1.0  -0.1347
  C  C372  1  0.028300  0.737000  0.762180  1.0  -0.0882
  C  C373  1  0.066200  0.734200  0.733320  1.0  0.128
  C  C374  1  0.941700  0.616400  0.867960  1.0  0.1336
  C  C375  1  0.959200  0.658400  0.853160  1.0  -0.0995
  C  C376  1  0.941600  0.700200  0.867880  1.0  -0.1173
  C  C377  1  0.910200  0.699000  0.897470  1.0  -0.1549
  C  C378  1  0.893700  0.655300  0.910760  1.0  0.1336
  C  C379  1  0.630200  0.068900  0.020270  1.0  0.1378
  C  C380  1  0.589400  0.078800  0.992990  1.0  -0.1799
  C  C381  1  0.490800  0.073600  0.989660  1.0  -0.0829
  C  C382  1  0.438600  0.055900  0.013790  1.0  -0.157
  C  C383  1  0.486500  0.045700  0.040300  1.0  0.1345
  C  C384  1  0.440100  0.088000  0.961750  1.0  0.418
  C  C385  1  0.441100  0.125500  0.917170  1.0  0.3706
  C  C386  1  0.304600  0.093500  0.934720  1.0  0.3427
  C  C387  1  0.643300  0.172500  0.870440  1.0  0.1415
  C  C388  1  0.594300  0.148600  0.892630  1.0  -0.1332
  C  C389  1  0.495400  0.151000  0.892870  1.0  -0.1118
  C  C390  1  0.448800  0.175700  0.870760  1.0  -0.1567
  C  C391  1  0.504500  0.198800  0.849930  1.0  0.1594
  C  C392  1  0.059400  0.046600  0.948790  1.0  0.1555
  C  C393  1  0.150700  0.060900  0.953850  1.0  -0.1287
  C  C394  1  0.202900  0.080300  0.930250  1.0  -0.1099
  C  C395  1  0.158300  0.085500  0.902760  1.0  -0.1138
  C  C396  1  0.065400  0.070600  0.899410  1.0  0.1472
  C  C397  1  0.064600  0.546100  0.364840  1.0  0.1448
  C  C398  1  0.050600  0.588200  0.349540  1.0  -0.1396
  C  C399  1  0.055700  0.629700  0.365370  1.0  -0.0931
  C  C400  1  0.073300  0.627200  0.395980  1.0  -0.1426
  C  C401  1  0.086300  0.583800  0.409560  1.0  0.1299
  C  C402  1  0.042900  0.675900  0.350050  1.0  0.4015
  C  C403  1  0.004500  0.717200  0.308860  1.0  0.3826
  C  C404  1  0.043400  0.754500  0.351830  1.0  0.4045
  C  C405  1  0.892200  0.687200  0.234190  1.0  0.1383
  C  C406  1  0.931000  0.681000  0.263210  1.0  -0.1441
  C  C407  1  0.969800  0.720000  0.277360  1.0  -0.1347
  C  C408  1  0.971700  0.763000  0.262180  1.0  -0.0884
  C  C409  1  0.933800  0.765800  0.233320  1.0  0.1296
  C  C410  1  0.058300  0.883600  0.367960  1.0  0.1341
  C  C411  1  0.040800  0.841600  0.353160  1.0  -0.0987
  C  C412  1  0.058400  0.799800  0.367880  1.0  -0.1174
  C  C413  1  0.089800  0.801000  0.397470  1.0  -0.1535
  C  C414  1  0.106300  0.844700  0.410760  1.0  0.1348
  C  C415  1  0.369800  0.431100  0.520270  1.0  0.1395
  C  C416  1  0.410600  0.421200  0.492990  1.0  -0.1801
  C  C417  1  0.509200  0.426400  0.489660  1.0  -0.0832
  C  C418  1  0.561400  0.444100  0.513790  1.0  -0.1534
  C  C419  1  0.513500  0.454300  0.540300  1.0  0.1347
  C  C420  1  0.559900  0.412000  0.461750  1.0  0.418
  C  C421  1  0.558900  0.374500  0.417170  1.0  0.3705
  C  C422  1  0.695400  0.406500  0.434720  1.0  0.3421
  C  C423  1  0.356700  0.327500  0.370440  1.0  0.1423
  C  C424  1  0.405700  0.351400  0.392630  1.0  -0.1344
  C  C425  1  0.504600  0.349000  0.392870  1.0  -0.1118
  C  C426  1  0.551200  0.324300  0.370760  1.0  -0.1555
  C  C427  1  0.495500  0.301200  0.349930  1.0  0.158
  C  C428  1  0.940600  0.453400  0.448790  1.0  0.1553
  C  C429  1  0.849300  0.439100  0.453850  1.0  -0.1299
  C  C430  1  0.797100  0.419700  0.430250  1.0  -0.1107
  C  C431  1  0.841700  0.414500  0.402760  1.0  -0.1145
  C  C432  1  0.934600  0.429400  0.399410  1.0  0.1473
  C  C433  1  0.435400  0.046100  0.635160  1.0  0.1459
  C  C434  1  0.449400  0.088200  0.650460  1.0  -0.1405
  C  C435  1  0.444300  0.129700  0.634630  1.0  -0.0927
  C  C436  1  0.426700  0.127200  0.604020  1.0  -0.1427
  C  C437  1  0.413700  0.083800  0.590440  1.0  0.1309
  C  C438  1  0.457100  0.175900  0.649950  1.0  0.4011
  C  C439  1  0.495500  0.217200  0.691140  1.0  0.3829
  C  C440  1  0.456600  0.254500  0.648170  1.0  0.4045
  C  C441  1  0.607800  0.187200  0.765810  1.0  0.1389
  C  C442  1  0.569000  0.181000  0.736790  1.0  -0.1448
  C  C443  1  0.530200  0.220000  0.722640  1.0  -0.1351
  C  C444  1  0.528300  0.263000  0.737820  1.0  -0.0888
  C  C445  1  0.566200  0.265800  0.766680  1.0  0.1292
  C  C446  1  0.441700  0.383600  0.632040  1.0  0.1345
  C  C447  1  0.459200  0.341600  0.646840  1.0  -0.0992
  C  C448  1  0.441600  0.299800  0.632120  1.0  -0.1173
  C  C449  1  0.410200  0.301000  0.602530  1.0  -0.1543
  C  C450  1  0.393700  0.344700  0.589240  1.0  0.1342
  C  C451  1  0.130200  0.931100  0.479730  1.0  0.1383
  C  C452  1  0.089400  0.921200  0.507010  1.0  -0.1798
  C  C453  1  0.990800  0.926400  0.510340  1.0  -0.0831
  C  C454  1  0.938600  0.944100  0.486210  1.0  -0.1556
  C  C455  1  0.986500  0.954300  0.459700  1.0  0.1352
  C  C456  1  0.940100  0.912000  0.538250  1.0  0.4181
  C  C457  1  0.941100  0.874500  0.582830  1.0  0.3706
  C  C458  1  0.804600  0.906500  0.565280  1.0  0.3419
  C  C459  1  0.143300  0.827500  0.629560  1.0  0.1412
  C  C460  1  0.094300  0.851400  0.607370  1.0  -0.1332
  C  C461  1  0.995400  0.849000  0.607130  1.0  -0.1118
  C  C462  1  0.948800  0.824300  0.629240  1.0  -0.1563
  C  C463  1  0.004500  0.801200  0.650070  1.0  0.159
  C  C464  1  0.559400  0.953400  0.551210  1.0  0.1553
  C  C465  1  0.650700  0.939100  0.546150  1.0  -0.1272
  C  C466  1  0.702900  0.919700  0.569750  1.0  -0.1105
  C  C467  1  0.658300  0.914500  0.597240  1.0  -0.1145
  C  C468  1  0.565400  0.929400  0.600590  1.0  0.1473
  C  C469  1  0.564600  0.453900  0.135160  1.0  0.1466
  C  C470  1  0.550600  0.411800  0.150460  1.0  -0.1409
  C  C471  1  0.555700  0.370300  0.134630  1.0  -0.0935
  C  C472  1  0.573300  0.372800  0.104020  1.0  -0.1424
  C  C473  1  0.586300  0.416200  0.090440  1.0  0.1305
  C  C474  1  0.542900  0.324100  0.149950  1.0  0.4013
  C  C475  1  0.504500  0.282800  0.191140  1.0  0.3829
  C  C476  1  0.543400  0.245500  0.148170  1.0  0.4046
  C  C477  1  0.392200  0.312800  0.265810  1.0  0.1379
  C  C478  1  0.431000  0.319000  0.236790  1.0  -0.1432
  C  C479  1  0.469800  0.280000  0.222640  1.0  -0.1342
  C  C480  1  0.471700  0.237000  0.237820  1.0  -0.0882
  C  C481  1  0.433800  0.234200  0.266680  1.0  0.1293
  C  C482  1  0.558300  0.116400  0.132040  1.0  0.1347
  C  C483  1  0.540800  0.158400  0.146840  1.0  -0.0995
  C  C484  1  0.558400  0.200200  0.132120  1.0  -0.1177
  C  C485  1  0.589800  0.199000  0.102530  1.0  -0.1552
  C  C486  1  0.606300  0.155300  0.089240  1.0  0.1334
  C  C487  1  0.869800  0.568900  0.979730  1.0  0.1396
  C  C488  1  0.910600  0.578800  0.007010  1.0  -0.1805
  C  C489  1  0.009200  0.573600  0.010340  1.0  -0.0828
  C  C490  1  0.061400  0.555900  0.986210  1.0  -0.1528
  C  C491  1  0.013500  0.545700  0.959700  1.0  0.1343
  C  C492  1  0.059900  0.588000  0.038250  1.0  0.418
  C  C493  1  0.058900  0.625500  0.082830  1.0  0.3707
  C  C494  1  0.195400  0.593500  0.065280  1.0  0.3427
  C  C495  1  0.856700  0.672500  0.129560  1.0  0.1422
  C  C496  1  0.905700  0.648600  0.107370  1.0  -0.1331
  C  C497  1  0.004600  0.651000  0.107130  1.0  -0.1121
  C  C498  1  0.051200  0.675700  0.129240  1.0  -0.1555
  C  C499  1  0.995500  0.698800  0.150070  1.0  0.1577
  C  C500  1  0.440600  0.546600  0.051210  1.0  0.1541
  C  C501  1  0.349300  0.560900  0.046150  1.0  -0.1288
  C  C502  1  0.297100  0.580300  0.069750  1.0  -0.1092
  C  C503  1  0.341700  0.585500  0.097240  1.0  -0.1151
  C  C504  1  0.434600  0.570600  0.100590  1.0  0.1486
  I  I505  1  0.199050  0.932260  0.126510  1.0  -0.3247
  I  I506  1  0.193280  0.997030  0.034860  1.0  -0.4262
  I  I507  1  0.319630  0.441930  0.082850  1.0  -0.4074
  I  I508  1  0.051840  0.512020  0.117000  1.0  -0.3663
  I  I509  1  0.657130  0.194880  0.313500  1.0  -0.3667
  I  I510  1  0.820790  0.322750  0.334550  1.0  -0.2849
  I  I511  1  0.800950  0.567740  0.626510  1.0  -0.3251
  I  I512  1  0.806720  0.502970  0.534860  1.0  -0.428
  I  I513  1  0.680370  0.058070  0.582850  1.0  -0.407
  I  I514  1  0.948160  0.987980  0.617000  1.0  -0.3674
  I  I515  1  0.342870  0.305120  0.813500  1.0  -0.367
  I  I516  1  0.179210  0.177250  0.834550  1.0  -0.2848
  I  I517  1  0.699050  0.067740  0.373490  1.0  -0.3251
  I  I518  1  0.693280  0.002970  0.465140  1.0  -0.4267
  I  I519  1  0.819630  0.558070  0.417150  1.0  -0.4077
  I  I520  1  0.551840  0.487980  0.383000  1.0  -0.3649
  I  I521  1  0.157130  0.805120  0.186500  1.0  -0.3662
  I  I522  1  0.320790  0.677250  0.165450  1.0  -0.2845
  I  I523  1  0.300950  0.432260  0.873490  1.0  -0.3257
  I  I524  1  0.306720  0.497030  0.965140  1.0  -0.4274
  I  I525  1  0.180370  0.941930  0.917150  1.0  -0.4066
  I  I526  1  0.448160  0.012020  0.883000  1.0  -0.3658
  I  I527  1  0.842870  0.694880  0.686500  1.0  -0.3681
  I  I528  1  0.679210  0.822750  0.665450  1.0  -0.285
  I  I529  1  0.800950  0.067740  0.873490  1.0  -0.3254
  I  I530  1  0.806720  0.002970  0.965140  1.0  -0.4279
  I  I531  1  0.680370  0.558070  0.917150  1.0  -0.407
  I  I532  1  0.948160  0.487980  0.883000  1.0  -0.3667
  I  I533  1  0.342870  0.805120  0.686500  1.0  -0.3671
  I  I534  1  0.179210  0.677250  0.665450  1.0  -0.2846
  I  I535  1  0.199050  0.432260  0.373490  1.0  -0.3253
  I  I536  1  0.193280  0.497030  0.465140  1.0  -0.4263
  I  I537  1  0.319630  0.941930  0.417150  1.0  -0.4073
  I  I538  1  0.051840  0.012020  0.383000  1.0  -0.3649
  I  I539  1  0.657130  0.694880  0.186500  1.0  -0.3672
  I  I540  1  0.820790  0.822750  0.165450  1.0  -0.2849
  I  I541  1  0.300950  0.932260  0.626510  1.0  -0.3251
  I  I542  1  0.306720  0.997030  0.534860  1.0  -0.4273
  I  I543  1  0.180370  0.441930  0.582850  1.0  -0.4065
  I  I544  1  0.448160  0.512020  0.617000  1.0  -0.3674
  I  I545  1  0.842870  0.194880  0.813500  1.0  -0.3677
  I  I546  1  0.679210  0.322750  0.834550  1.0  -0.2848
  I  I547  1  0.699050  0.567740  0.126510  1.0  -0.3247
  I  I548  1  0.693280  0.502970  0.034860  1.0  -0.4267
  I  I549  1  0.819630  0.058070  0.082850  1.0  -0.4077
  I  I550  1  0.551840  0.987980  0.117000  1.0  -0.3661
  I  I551  1  0.157130  0.305120  0.313500  1.0  -0.3661
  I  I552  1  0.320790  0.177250  0.334550  1.0  -0.2846
  N  N553  1  0.083500  0.043550  0.105800  1.0  -0.2951
  N  N554  1  0.016600  0.174750  0.178930  1.0  -0.4649
  N  N555  1  0.057300  0.214170  0.133330  1.0  -0.4935
  N  N556  1  0.017000  0.257890  0.177030  1.0  -0.4931
  N  N557  1  0.892900  0.228650  0.280180  1.0  -0.3258
  N  N558  1  0.092800  0.385420  0.103980  1.0  -0.2998
  N  N559  1  0.418700  0.946330  0.955900  1.0  -0.3122
  N  N560  1  0.508400  0.888910  0.059010  1.0  -0.3632
  N  N561  1  0.652500  0.922720  0.040560  1.0  -0.4467
  N  N562  1  0.652800  0.880860  0.087130  1.0  -0.4566
  N  N563  1  0.399800  0.802330  0.150400  1.0  -0.3014
  N  N564  1  0.984200  0.949720  0.078090  1.0  -0.3522
  N  N565  1  0.916500  0.456450  0.605800  1.0  -0.2945
  N  N566  1  0.983400  0.325250  0.678930  1.0  -0.466
  N  N567  1  0.942700  0.285830  0.633330  1.0  -0.4936
  N  N568  1  0.983000  0.242110  0.677030  1.0  -0.4918
  N  N569  1  0.107100  0.271350  0.780180  1.0  -0.3261
  N  N570  1  0.907200  0.114580  0.603980  1.0  -0.2991
  N  N571  1  0.581300  0.553670  0.455900  1.0  -0.3133
  N  N572  1  0.491600  0.611090  0.559010  1.0  -0.3633
  N  N573  1  0.347500  0.577280  0.540560  1.0  -0.4459
  N  N574  1  0.347200  0.619140  0.587130  1.0  -0.4573
  N  N575  1  0.600200  0.697670  0.650400  1.0  -0.3009
  N  N576  1  0.015800  0.550280  0.578090  1.0  -0.3538
  N  N577  1  0.583500  0.956450  0.394200  1.0  -0.2958
  N  N578  1  0.516600  0.825250  0.321070  1.0  -0.4654
  N  N579  1  0.557300  0.785830  0.366670  1.0  -0.4946
  N  N580  1  0.517000  0.742110  0.322970  1.0  -0.4927
  N  N581  1  0.392900  0.771350  0.219820  1.0  -0.3257
  N  N582  1  0.592800  0.614580  0.396020  1.0  -0.2981
  N  N583  1  0.918700  0.053670  0.544100  1.0  -0.309
  N  N584  1  0.008400  0.111090  0.440990  1.0  -0.3625
  N  N585  1  0.152500  0.077280  0.459440  1.0  -0.4477
  N  N586  1  0.152800  0.119140  0.412870  1.0  -0.4561
  N  N587  1  0.899800  0.197670  0.349600  1.0  -0.3011
  N  N588  1  0.484200  0.050280  0.421910  1.0  -0.3527
  N  N589  1  0.416500  0.543550  0.894200  1.0  -0.2955
  N  N590  1  0.483400  0.674750  0.821070  1.0  -0.4659
  N  N591  1  0.442700  0.714170  0.866670  1.0  -0.4954
  N  N592  1  0.483000  0.757890  0.822970  1.0  -0.4928
  N  N593  1  0.607100  0.728650  0.719820  1.0  -0.3262
  N  N594  1  0.407200  0.885420  0.896020  1.0  -0.3005
  N  N595  1  0.081300  0.446330  0.044100  1.0  -0.3081
  N  N596  1  0.991600  0.388910  0.940990  1.0  -0.3645
  N  N597  1  0.847500  0.422720  0.959440  1.0  -0.4477
  N  N598  1  0.847200  0.380860  0.912870  1.0  -0.4574
  N  N599  1  0.100200  0.302330  0.849600  1.0  -0.3
  N  N600  1  0.515800  0.449720  0.921910  1.0  -0.3529
  N  N601  1  0.916500  0.956450  0.894200  1.0  -0.2951
  N  N602  1  0.983400  0.825250  0.821070  1.0  -0.4655
  N  N603  1  0.942700  0.785830  0.866670  1.0  -0.4955
  N  N604  1  0.983000  0.742110  0.822970  1.0  -0.4922
  N  N605  1  0.107100  0.771350  0.719820  1.0  -0.3264
  N  N606  1  0.907200  0.614580  0.896020  1.0  -0.2989
  N  N607  1  0.581300  0.053670  0.044100  1.0  -0.3083
  N  N608  1  0.491600  0.111090  0.940990  1.0  -0.3638
  N  N609  1  0.347500  0.077280  0.959440  1.0  -0.4474
  N  N610  1  0.347200  0.119140  0.912870  1.0  -0.4562
  N  N611  1  0.600200  0.197670  0.849600  1.0  -0.3009
  N  N612  1  0.015800  0.050280  0.921910  1.0  -0.3538
  N  N613  1  0.083500  0.543550  0.394200  1.0  -0.2953
  N  N614  1  0.016600  0.674750  0.321070  1.0  -0.4659
  N  N615  1  0.057300  0.714170  0.366670  1.0  -0.4946
  N  N616  1  0.017000  0.757890  0.322970  1.0  -0.4929
  N  N617  1  0.892900  0.728650  0.219820  1.0  -0.3254
  N  N618  1  0.092800  0.885420  0.396020  1.0  -0.3002
  N  N619  1  0.418700  0.446330  0.544100  1.0  -0.309
  N  N620  1  0.508400  0.388910  0.440990  1.0  -0.3635
  N  N621  1  0.652500  0.422720  0.459440  1.0  -0.4477
  N  N622  1  0.652800  0.380860  0.412870  1.0  -0.4572
  N  N623  1  0.399800  0.302330  0.349600  1.0  -0.3009
  N  N624  1  0.984200  0.449720  0.421910  1.0  -0.3522
  N  N625  1  0.416500  0.043550  0.605800  1.0  -0.2956
  N  N626  1  0.483400  0.174750  0.678930  1.0  -0.4651
  N  N627  1  0.442700  0.214170  0.633330  1.0  -0.4937
  N  N628  1  0.483000  0.257890  0.677030  1.0  -0.4931
  N  N629  1  0.607100  0.228650  0.780180  1.0  -0.326
  N  N630  1  0.407200  0.385420  0.603980  1.0  -0.3003
  N  N631  1  0.081300  0.946330  0.455900  1.0  -0.3124
  N  N632  1  0.991600  0.888910  0.559010  1.0  -0.3642
  N  N633  1  0.847500  0.922720  0.540560  1.0  -0.4467
  N  N634  1  0.847200  0.880860  0.587130  1.0  -0.4574
  N  N635  1  0.100200  0.802330  0.650400  1.0  -0.2997
  N  N636  1  0.515800  0.949720  0.578090  1.0  -0.3529
  N  N637  1  0.583500  0.456450  0.105800  1.0  -0.2955
  N  N638  1  0.516600  0.325250  0.178930  1.0  -0.4656
  N  N639  1  0.557300  0.285830  0.133330  1.0  -0.4934
  N  N640  1  0.517000  0.242110  0.177030  1.0  -0.4921
  N  N641  1  0.392900  0.271350  0.280180  1.0  -0.3259
  N  N642  1  0.592800  0.114580  0.103980  1.0  -0.2981
  N  N643  1  0.918700  0.553670  0.955900  1.0  -0.3133
  N  N644  1  0.008400  0.611090  0.059010  1.0  -0.3622
  N  N645  1  0.152500  0.577280  0.040560  1.0  -0.4462
  N  N646  1  0.152800  0.619140  0.087130  1.0  -0.4564
  N  N647  1  0.899800  0.697670  0.150400  1.0  -0.3019
  N  N648  1  0.484200  0.550280  0.078090  1.0  -0.3527
