# generated using pymatgen
data_Co3H24C38(N3O2)4
_symmetry_space_group_name_H-M   'P 1'
_cell_length_a   11.45270000
_cell_length_b   11.62390000
_cell_length_c   11.77540000
_cell_angle_alpha   64.82500000
_cell_angle_beta   81.40600000
_cell_angle_gamma   72.31600000
_symmetry_Int_Tables_number   1
_chemical_formula_structural   Co3H24C38(N3O2)4
_chemical_formula_sum   'Co3 H24 C38 N12 O8'
_cell_volume   1351.28834563
_cell_formula_units_Z   1
loop_
 _symmetry_equiv_pos_site_id
 _symmetry_equiv_pos_as_xyz
  1  'x, y, z'
loop_
 _atom_site_type_symbol
 _atom_site_label
 _atom_site_symmetry_multiplicity
 _atom_site_fract_x
 _atom_site_fract_y
 _atom_site_fract_z
 _atom_site_occupancy
 _atom_site_charge
  Co  Co1  1  0.000000  0.000000  0.000000  1.0  0.6906
  Co  Co2  1  0.000000  0.000000  0.500000  1.0  1.053
  Co  Co3  1  0.000000  0.500000  0.500000  1.0  0.5877
  H  H4  1  0.561600  0.564900  0.654100  1.0  0.122
  H  H5  1  0.221200  0.000800  0.308800  1.0  0.0893
  H  H6  1  0.158900  0.180600  0.986700  1.0  0.0963
  H  H7  1  0.361600  0.598100  0.625500  1.0  0.1235
  H  H8  1  0.831600  0.275300  0.371000  1.0  0.0824
  H  H9  1  0.649100  0.812700  0.018000  1.0  0.1152
  H  H10  1  0.737400  0.187400  0.961200  1.0  0.0908
  H  H11  1  0.417600  0.879400  0.296500  1.0  0.1059
  H  H12  1  0.461400  0.808600  0.030200  1.0  0.1227
  H  H13  1  0.233100  0.527100  0.340200  1.0  0.0918
  H  H14  1  0.350900  0.187300  0.982000  1.0  0.1149
  H  H15  1  0.582400  0.120600  0.703500  1.0  0.1034
  H  H16  1  0.778800  0.999200  0.691200  1.0  0.0892
  H  H17  1  0.795800  0.626600  0.295300  1.0  0.0827
  H  H18  1  0.766900  0.472900  0.659800  1.0  0.0908
  H  H19  1  0.538600  0.191400  0.969800  1.0  0.1225
  H  H20  1  0.438400  0.435100  0.345900  1.0  0.1213
  H  H21  1  0.638400  0.401900  0.374500  1.0  0.1219
  H  H22  1  0.204200  0.373400  0.704700  1.0  0.0823
  H  H23  1  0.841100  0.819400  0.013300  1.0  0.0956
  H  H24  1  0.262600  0.812600  0.038800  1.0  0.0903
  H  H25  1  0.168400  0.724700  0.629000  1.0  0.0823
  H  H26  1  0.409400  0.277700  0.719200  1.0  0.1088
  H  H27  1  0.590600  0.722300  0.280800  1.0  0.1095
  C  C28  1  0.269100  0.474100  0.417900  1.0  0.1671
  C  C29  1  0.451100  0.342900  0.532400  1.0  0.0742
  C  C30  1  0.375100  0.327500  0.640300  1.0  -0.1791
  C  C31  1  0.038600  0.967400  0.767700  1.0  0.6747
  C  C32  1  0.401400  0.886600  0.020700  1.0  -0.2145
  C  C33  1  0.718500  0.109900  0.975400  1.0  0.1747
  C  C34  1  0.564200  0.001100  0.997600  1.0  0.0544
  C  C35  1  0.249900  0.919200  0.374200  1.0  0.1803
  C  C36  1  0.961400  0.032600  0.232300  1.0  0.6749
  C  C37  1  0.631000  0.152800  0.632900  1.0  -0.1653
  C  C38  1  0.393000  0.419700  0.420800  1.0  -0.1918
  C  C39  1  0.019200  0.110700  0.730200  1.0  -0.0362
  C  C40  1  0.548900  0.657100  0.467600  1.0  0.0758
  C  C41  1  0.951100  0.752100  0.514200  1.0  0.665
  C  C42  1  0.664000  0.890700  0.008300  1.0  -0.1711
  C  C43  1  0.979100  0.779800  0.379700  1.0  -0.0265
  C  C44  1  0.750100  0.080800  0.625800  1.0  0.1804
  C  C45  1  0.780300  0.242300  0.438700  1.0  0.1809
  C  C46  1  0.598600  0.113400  0.979300  1.0  -0.2157
  C  C47  1  0.251600  0.384500  0.631300  1.0  0.1692
  C  C48  1  0.020900  0.220200  0.620300  1.0  -0.0265
  C  C49  1  0.980800  0.889300  0.269800  1.0  -0.0357
  C  C50  1  0.281500  0.890100  0.024600  1.0  0.1732
  C  C51  1  0.435800  0.998900  0.002400  1.0  0.0546
  C  C52  1  0.730900  0.525900  0.582100  1.0  0.1669
  C  C53  1  0.607000  0.580300  0.579200  1.0  -0.1974
  C  C54  1  0.369000  0.847200  0.367100  1.0  -0.1662
  C  C55  1  0.778800  0.895400  0.005000  1.0  0.1814
  C  C56  1  0.048900  0.247900  0.485800  1.0  0.6661
  C  C57  1  0.583700  0.271300  0.536900  1.0  0.0846
  C  C58  1  0.624900  0.672500  0.359700  1.0  -0.178
  C  C59  1  0.219700  0.757700  0.561300  1.0  0.1814
  C  C60  1  0.748400  0.615500  0.368700  1.0  0.1693
  C  C61  1  0.663900  0.318800  0.439000  1.0  -0.2336
  C  C62  1  0.221200  0.104600  0.995000  1.0  0.1813
  C  C63  1  0.416300  0.728700  0.463100  1.0  0.0847
  C  C64  1  0.336100  0.681200  0.561000  1.0  -0.2339
  C  C65  1  0.336000  0.109300  0.991700  1.0  -0.1724
  N  N66  1  0.995600  0.324900  0.652300  1.0  -0.1833
  N  N67  1  0.810900  0.002900  0.990500  1.0  -0.3067
  N  N68  1  0.189100  0.997100  0.009500  1.0  -0.3097
  N  N69  1  0.024100  0.715800  0.225100  1.0  -0.1377
  N  N70  1  0.196500  0.455300  0.521200  1.0  -0.2867
  N  N71  1  0.004400  0.675100  0.347700  1.0  -0.1815
  N  N72  1  0.826700  0.123500  0.528200  1.0  -0.3127
  N  N73  1  0.990000  0.153900  0.824400  1.0  -0.2383
  N  N74  1  0.173300  0.876500  0.471800  1.0  -0.3125
  N  N75  1  0.010000  0.846100  0.175600  1.0  -0.2423
  N  N76  1  0.975900  0.284200  0.774900  1.0  -0.1389
  N  N77  1  0.803500  0.544700  0.478800  1.0  -0.2879
  O  O78  1  0.046200  0.922100  0.687100  1.0  -0.5987
  O  O79  1  0.951000  0.103900  0.116600  1.0  -0.5572
  O  O80  1  0.049000  0.896100  0.883400  1.0  -0.5568
  O  O81  1  0.955400  0.634400  0.586000  1.0  -0.5584
  O  O82  1  0.920600  0.845100  0.550900  1.0  -0.5921
  O  O83  1  0.044600  0.365600  0.414000  1.0  -0.5617
  O  O84  1  0.953800  0.077900  0.312900  1.0  -0.6009
  O  O85  1  0.079400  0.154900  0.449100  1.0  -0.5937
