# generated using pymatgen
data_MgH4(C2O)4
_symmetry_space_group_name_H-M   'P 1'
_cell_length_a   9.94100000
_cell_length_b   13.62700000
_cell_length_c   17.68600000
_cell_angle_alpha   92.73200000
_cell_angle_beta   90.00000000
_cell_angle_gamma   90.00000000
_symmetry_Int_Tables_number   1
_chemical_formula_structural   MgH4(C2O)4
_chemical_formula_sum   'Mg8 H32 C64 O32'
_cell_volume   2393.12869853
_cell_formula_units_Z   8
loop_
 _symmetry_equiv_pos_site_id
 _symmetry_equiv_pos_as_xyz
  1  'x, y, z'
loop_
 _atom_site_type_symbol
 _atom_site_label
 _atom_site_symmetry_multiplicity
 _atom_site_fract_x
 _atom_site_fract_y
 _atom_site_fract_z
 _atom_site_occupancy
 _atom_site_charge
  Mg  Mg1  1  0.068720  0.895840  0.964190  1.0  1.5737
  Mg  Mg2  1  0.929590  0.657600  0.976500  1.0  1.628
  Mg  Mg3  1  0.568720  0.104160  0.535810  1.0  1.5734
  Mg  Mg4  1  0.429590  0.342400  0.523500  1.0  1.6278
  Mg  Mg5  1  0.931280  0.104160  0.035810  1.0  1.575
  Mg  Mg6  1  0.070410  0.342400  0.023500  1.0  1.6271
  Mg  Mg7  1  0.431280  0.895840  0.464190  1.0  1.5747
  Mg  Mg8  1  0.570410  0.657600  0.476500  1.0  1.6275
  H  H9  1  0.807700  0.980500  0.788700  1.0  0.1059
  H  H10  1  0.697700  0.002400  0.674100  1.0  0.0979
  H  H11  1  0.625800  0.709200  0.651700  1.0  0.0946
  H  H12  1  0.720500  0.689200  0.771100  1.0  0.1144
  H  H13  1  0.282700  0.812400  0.755800  1.0  0.0982
  H  H14  1  0.377400  0.739000  0.646000  1.0  0.0983
  H  H15  1  0.288900  0.471100  0.723900  1.0  0.0982
  H  H16  1  0.198100  0.544000  0.834000  1.0  0.108
  H  H17  1  0.307700  0.019500  0.711300  1.0  0.1061
  H  H18  1  0.197700  0.997600  0.825900  1.0  0.0985
  H  H19  1  0.125800  0.290800  0.848300  1.0  0.0947
  H  H20  1  0.220500  0.310800  0.728900  1.0  0.1136
  H  H21  1  0.782700  0.187600  0.744200  1.0  0.098
  H  H22  1  0.877400  0.261000  0.854000  1.0  0.0986
  H  H23  1  0.788900  0.528900  0.776100  1.0  0.0982
  H  H24  1  0.698100  0.456000  0.666000  1.0  0.1075
  H  H25  1  0.192300  0.019500  0.211300  1.0  0.1067
  H  H26  1  0.302300  0.997600  0.325900  1.0  0.0979
  H  H27  1  0.374200  0.290800  0.348300  1.0  0.0948
  H  H28  1  0.279500  0.310800  0.228900  1.0  0.1136
  H  H29  1  0.717300  0.187600  0.244200  1.0  0.0981
  H  H30  1  0.622600  0.261000  0.354000  1.0  0.0983
  H  H31  1  0.711100  0.528900  0.276100  1.0  0.0982
  H  H32  1  0.801900  0.456000  0.166000  1.0  0.1074
  H  H33  1  0.692300  0.980500  0.288700  1.0  0.1066
  H  H34  1  0.802300  0.002400  0.174100  1.0  0.0984
  H  H35  1  0.874200  0.709200  0.151700  1.0  0.0945
  H  H36  1  0.779500  0.689200  0.271100  1.0  0.1144
  H  H37  1  0.217300  0.812400  0.255800  1.0  0.0981
  H  H38  1  0.122600  0.739000  0.146000  1.0  0.0986
  H  H39  1  0.211100  0.471100  0.223900  1.0  0.0982
  H  H40  1  0.301900  0.544000  0.334000  1.0  0.1081
  C  C41  1  0.845700  0.818600  0.865200  1.0  0.757
  C  C42  1  0.774900  0.832800  0.790000  1.0  -0.1053
  C  C43  1  0.768600  0.925900  0.761400  1.0  -0.077
  C  C44  1  0.705000  0.938500  0.693000  1.0  -0.0241
  C  C45  1  0.651800  0.858100  0.651600  1.0  -0.1748
  C  C46  1  0.660200  0.764500  0.680300  1.0  -0.0331
  C  C47  1  0.718700  0.752200  0.750300  1.0  -0.0653
  C  C48  1  0.585400  0.872300  0.577700  1.0  0.7755
  C  C49  1  0.170100  0.734900  0.875800  1.0  0.7593
  C  C50  1  0.232200  0.686000  0.805300  1.0  -0.1282
  C  C51  1  0.285000  0.742800  0.749300  1.0  -0.0563
  C  C52  1  0.340900  0.699600  0.683900  1.0  -0.0669
  C  C53  1  0.342700  0.596600  0.674700  1.0  -0.1498
  C  C54  1  0.288400  0.540600  0.730700  1.0  -0.0527
  C  C55  1  0.233900  0.583500  0.795900  1.0  -0.0743
  C  C56  1  0.402700  0.548300  0.603100  1.0  0.8077
  C  C57  1  0.345700  0.181400  0.634800  1.0  0.7572
  C  C58  1  0.274900  0.167200  0.710000  1.0  -0.1046
  C  C59  1  0.268600  0.074100  0.738600  1.0  -0.0762
  C  C60  1  0.205000  0.061500  0.807000  1.0  -0.0239
  C  C61  1  0.151800  0.141900  0.848400  1.0  -0.1759
  C  C62  1  0.160200  0.235500  0.819700  1.0  -0.0333
  C  C63  1  0.218700  0.247800  0.749700  1.0  -0.065
  C  C64  1  0.085400  0.127700  0.922300  1.0  0.7794
  C  C65  1  0.670100  0.265100  0.624200  1.0  0.7587
  C  C66  1  0.732200  0.314000  0.694700  1.0  -0.128
  C  C67  1  0.785000  0.257200  0.750700  1.0  -0.0578
  C  C68  1  0.840900  0.300400  0.816100  1.0  -0.0675
  C  C69  1  0.842700  0.403400  0.825300  1.0  -0.1497
  C  C70  1  0.788400  0.459400  0.769300  1.0  -0.0524
  C  C71  1  0.733900  0.416500  0.704100  1.0  -0.0736
  C  C72  1  0.902700  0.451700  0.896900  1.0  0.8083
  C  C73  1  0.154300  0.181400  0.134800  1.0  0.7572
  C  C74  1  0.225100  0.167200  0.210000  1.0  -0.1051
  C  C75  1  0.231400  0.074100  0.238600  1.0  -0.0762
  C  C76  1  0.295000  0.061500  0.307000  1.0  -0.0242
  C  C77  1  0.348200  0.141900  0.348400  1.0  -0.1757
  C  C78  1  0.339800  0.235500  0.319700  1.0  -0.0332
  C  C79  1  0.281300  0.247800  0.249700  1.0  -0.0654
  C  C80  1  0.414600  0.127700  0.422300  1.0  0.7799
  C  C81  1  0.829900  0.265100  0.124200  1.0  0.7593
  C  C82  1  0.767800  0.314000  0.194700  1.0  -0.1284
  C  C83  1  0.715000  0.257200  0.250700  1.0  -0.0581
  C  C84  1  0.659100  0.300400  0.316100  1.0  -0.0674
  C  C85  1  0.657300  0.403400  0.325300  1.0  -0.1497
  C  C86  1  0.711600  0.459400  0.269300  1.0  -0.0527
  C  C87  1  0.766100  0.416500  0.204100  1.0  -0.0736
  C  C88  1  0.597300  0.451700  0.396900  1.0  0.807
  C  C89  1  0.654300  0.818600  0.365200  1.0  0.7578
  C  C90  1  0.725100  0.832800  0.290000  1.0  -0.1053
  C  C91  1  0.731400  0.925900  0.261400  1.0  -0.077
  C  C92  1  0.795000  0.938500  0.193000  1.0  -0.0247
  C  C93  1  0.848200  0.858100  0.151600  1.0  -0.1756
  C  C94  1  0.839800  0.764500  0.180300  1.0  -0.0329
  C  C95  1  0.781300  0.752200  0.250300  1.0  -0.066
  C  C96  1  0.914600  0.872300  0.077700  1.0  0.7756
  C  C97  1  0.329900  0.734900  0.375800  1.0  0.7601
  C  C98  1  0.267800  0.686000  0.305300  1.0  -0.1289
  C  C99  1  0.215000  0.742800  0.249300  1.0  -0.0564
  C  C100  1  0.159100  0.699600  0.183900  1.0  -0.0661
  C  C101  1  0.157300  0.596600  0.174700  1.0  -0.1489
  C  C102  1  0.211600  0.540600  0.230700  1.0  -0.0529
  C  C103  1  0.266100  0.583500  0.295900  1.0  -0.0743
  C  C104  1  0.097300  0.548300  0.103100  1.0  0.8062
  O  O105  1  0.918100  0.888400  0.889000  1.0  -0.7316
  O  O106  1  0.826200  0.739600  0.897200  1.0  -0.7321
  O  O107  1  0.580200  0.958300  0.553000  1.0  -0.806
  O  O108  1  0.531800  0.801600  0.539700  1.0  -0.8004
  O  O109  1  0.189300  0.826300  0.887400  1.0  -0.751
  O  O110  1  0.103600  0.683300  0.919200  1.0  -0.752
  O  O111  1  0.376200  0.460200  0.590300  1.0  -0.7492
  O  O112  1  0.477900  0.600600  0.564100  1.0  -0.7882
  O  O113  1  0.418100  0.111600  0.611000  1.0  -0.729
  O  O114  1  0.326200  0.260400  0.602800  1.0  -0.7317
  O  O115  1  0.080200  0.041700  0.947000  1.0  -0.7995
  O  O116  1  0.031800  0.198400  0.960300  1.0  -0.8048
  O  O117  1  0.689300  0.173700  0.612600  1.0  -0.7513
  O  O118  1  0.603600  0.316700  0.580800  1.0  -0.7502
  O  O119  1  0.876200  0.539800  0.909700  1.0  -0.7541
  O  O120  1  0.977900  0.399400  0.935900  1.0  -0.7913
  O  O121  1  0.081900  0.111600  0.111000  1.0  -0.7298
  O  O122  1  0.173800  0.260400  0.102800  1.0  -0.7304
  O  O123  1  0.419800  0.041700  0.447000  1.0  -0.7991
  O  O124  1  0.468200  0.198400  0.460300  1.0  -0.8031
  O  O125  1  0.810700  0.173700  0.112600  1.0  -0.7504
  O  O126  1  0.896400  0.316700  0.080800  1.0  -0.7527
  O  O127  1  0.623800  0.539800  0.409700  1.0  -0.7508
  O  O128  1  0.522100  0.399400  0.435900  1.0  -0.7921
  O  O129  1  0.581900  0.888400  0.389000  1.0  -0.7306
  O  O130  1  0.673800  0.739600  0.397200  1.0  -0.7306
  O  O131  1  0.919800  0.958300  0.053000  1.0  -0.806
  O  O132  1  0.968200  0.801600  0.039700  1.0  -0.7983
  O  O133  1  0.310700  0.826300  0.387400  1.0  -0.7546
  O  O134  1  0.396400  0.683300  0.419200  1.0  -0.7529
  O  O135  1  0.123800  0.460200  0.090300  1.0  -0.7488
  O  O136  1  0.022100  0.600600  0.064100  1.0  -0.7889
