# generated using pymatgen
data_CaH4(C2O)4
_symmetry_space_group_name_H-M   'P 1'
_cell_length_a   10.68400000
_cell_length_b   13.84820000
_cell_length_c   14.96040000
_cell_angle_alpha   76.46660000
_cell_angle_beta   69.07920000
_cell_angle_gamma   67.30940000
_symmetry_Int_Tables_number   1
_chemical_formula_structural   CaH4(C2O)4
_chemical_formula_sum   'Ca6 H24 C48 O24'
_cell_volume   1895.56830974
_cell_formula_units_Z   6
loop_
 _symmetry_equiv_pos_site_id
 _symmetry_equiv_pos_as_xyz
  1  'x, y, z'
loop_
 _atom_site_type_symbol
 _atom_site_label
 _atom_site_symmetry_multiplicity
 _atom_site_fract_x
 _atom_site_fract_y
 _atom_site_fract_z
 _atom_site_occupancy
 _atom_site_charge
  Ca  Ca1  1  0.506650  0.968100  0.383260  1.0  1.5521
  Ca  Ca2  1  0.858010  0.531900  0.116740  1.0  1.5517
  Ca  Ca3  1  0.493350  0.031900  0.616740  1.0  1.5519
  Ca  Ca4  1  0.141990  0.468100  0.883260  1.0  1.5523
  Ca  Ca5  1  0.783060  0.750000  0.250000  1.0  1.5676
  Ca  Ca6  1  0.216940  0.250000  0.750000  1.0  1.5722
  H  H7  1  0.729400  0.180500  0.245700  1.0  0.106
  H  H8  1  0.817100  0.312100  0.149100  1.0  0.0988
  H  H9  1  0.138700  0.094400  0.984000  1.0  0.0913
  H  H10  1  0.054100  0.962500  0.084700  1.0  0.1028
  H  H11  1  0.630600  0.837800  0.064600  1.0  0.097
  H  H12  1  0.369200  0.137900  0.095100  1.0  0.107
  H  H13  1  0.155600  0.319500  0.254300  1.0  0.107
  H  H14  1  0.278300  0.187900  0.350900  1.0  0.0985
  H  H15  1  0.217100  0.405600  0.516000  1.0  0.0914
  H  H16  1  0.101300  0.537500  0.415300  1.0  0.1014
  H  H17  1  0.533000  0.662200  0.435400  1.0  0.0986
  H  H18  1  0.602200  0.362100  0.404900  1.0  0.1061
  H  H19  1  0.270600  0.819500  0.754300  1.0  0.1055
  H  H20  1  0.182900  0.687900  0.850900  1.0  0.0998
  H  H21  1  0.861300  0.905600  0.016000  1.0  0.0914
  H  H22  1  0.945900  0.037500  0.915300  1.0  0.1031
  H  H23  1  0.369400  0.162200  0.935400  1.0  0.0986
  H  H24  1  0.630800  0.862100  0.904900  1.0  0.1066
  H  H25  1  0.844400  0.680500  0.745700  1.0  0.1071
  H  H26  1  0.721700  0.812100  0.649100  1.0  0.0991
  H  H27  1  0.782900  0.594400  0.484000  1.0  0.0918
  H  H28  1  0.898700  0.462500  0.584700  1.0  0.1014
  H  H29  1  0.467000  0.337800  0.564600  1.0  0.0986
  H  H30  1  0.397800  0.637900  0.595100  1.0  0.1059
  C  C31  1  0.821600  0.975100  0.236700  1.0  0.7366
  C  C32  1  0.882600  0.058600  0.174400  1.0  -0.1196
  C  C33  1  0.813200  0.162900  0.192900  1.0  -0.0524
  C  C34  1  0.864700  0.241100  0.135300  1.0  -0.0551
  C  C35  1  0.987000  0.215900  0.056700  1.0  -0.1615
  C  C36  1  0.040600  0.302300  0.993700  1.0  0.7721
  C  C37  1  0.056300  0.111900  0.037700  1.0  -0.0393
  C  C38  1  0.005000  0.033800  0.097000  1.0  -0.0546
  C  C39  1  0.498600  0.971700  0.198500  1.0  0.714
  C  C40  1  0.498300  0.985300  0.095700  1.0  -0.1239
  C  C41  1  0.577000  0.903800  0.038600  1.0  -0.0594
  C  C42  1  0.422300  0.081500  0.056500  1.0  -0.0609
  C  C43  1  0.033400  0.524900  0.263300  1.0  0.7409
  C  C44  1  0.115600  0.441400  0.325600  1.0  -0.124
  C  C45  1  0.169000  0.337100  0.307100  1.0  -0.052
  C  C46  1  0.241100  0.258900  0.364700  1.0  -0.054
  C  C47  1  0.259600  0.284100  0.443300  1.0  -0.1622
  C  C48  1  0.336600  0.197700  0.506300  1.0  0.7742
  C  C49  1  0.205900  0.388100  0.462300  1.0  -0.0394
  C  C50  1  0.135800  0.466200  0.403000  1.0  -0.0552
  C  C51  1  0.668800  0.528300  0.301500  1.0  0.7128
  C  C52  1  0.579300  0.514700  0.404300  1.0  -0.1209
  C  C53  1  0.519400  0.596200  0.461400  1.0  -0.0596
  C  C54  1  0.560300  0.418500  0.443500  1.0  -0.062
  C  C55  1  0.178400  0.024900  0.763300  1.0  0.7372
  C  C56  1  0.117400  0.941400  0.825600  1.0  -0.12
  C  C57  1  0.186800  0.837100  0.807100  1.0  -0.0506
  C  C58  1  0.135300  0.758900  0.864700  1.0  -0.0553
  C  C59  1  0.013000  0.784100  0.943300  1.0  -0.1614
  C  C60  1  0.959400  0.697700  0.006300  1.0  0.7727
  C  C61  1  0.943700  0.888100  0.962300  1.0  -0.0388
  C  C62  1  0.995000  0.966200  0.903000  1.0  -0.0544
  C  C63  1  0.501400  0.028300  0.801500  1.0  0.7128
  C  C64  1  0.501700  0.014700  0.904300  1.0  -0.1223
  C  C65  1  0.423000  0.096200  0.961400  1.0  -0.0564
  C  C66  1  0.577700  0.918500  0.943500  1.0  -0.0634
  C  C67  1  0.966600  0.475100  0.736700  1.0  0.7408
  C  C68  1  0.884400  0.558600  0.674400  1.0  -0.1236
  C  C69  1  0.831000  0.662900  0.692900  1.0  -0.0539
  C  C70  1  0.758900  0.741100  0.635300  1.0  -0.055
  C  C71  1  0.740400  0.715900  0.556700  1.0  -0.161
  C  C72  1  0.663400  0.802300  0.493700  1.0  0.7744
  C  C73  1  0.794100  0.611900  0.537700  1.0  -0.039
  C  C74  1  0.864200  0.533800  0.597000  1.0  -0.0551
  C  C75  1  0.331200  0.471700  0.698500  1.0  0.7132
  C  C76  1  0.420700  0.485300  0.595700  1.0  -0.122
  C  C77  1  0.480600  0.403800  0.538600  1.0  -0.0592
  C  C78  1  0.439700  0.581500  0.556500  1.0  -0.0625
  O  O79  1  0.711260  0.005990  0.307090  1.0  -0.7466
  O  O80  1  0.879730  0.883070  0.213870  1.0  -0.6882
  O  O81  1  0.132030  0.284990  0.913350  1.0  -0.7481
  O  O82  1  0.993170  0.391360  0.024900  1.0  -0.7932
  O  O83  1  0.574120  0.884910  0.232850  1.0  -0.7977
  O  O84  1  0.423050  0.047550  0.247550  1.0  -0.6664
  O  O85  1  0.024340  0.494010  0.192910  1.0  -0.7486
  O  O86  1  0.976670  0.616930  0.286130  1.0  -0.6895
  O  O87  1  0.330370  0.215010  0.586650  1.0  -0.7435
  O  O88  1  0.409430  0.108640  0.475100  1.0  -0.7865
  O  O89  1  0.691880  0.615090  0.267150  1.0  -0.7983
  O  O90  1  0.718150  0.452450  0.252450  1.0  -0.6686
  O  O91  1  0.288740  0.994010  0.692910  1.0  -0.7486
  O  O92  1  0.120270  0.116930  0.786130  1.0  -0.6873
  O  O93  1  0.867970  0.715010  0.086650  1.0  -0.7476
  O  O94  1  0.006830  0.608640  0.975100  1.0  -0.7903
  O  O95  1  0.425880  0.115090  0.767150  1.0  -0.798
  O  O96  1  0.576950  0.952450  0.752450  1.0  -0.6664
  O  O97  1  0.975660  0.505990  0.807090  1.0  -0.7492
  O  O98  1  0.023330  0.383070  0.713870  1.0  -0.691
  O  O99  1  0.669630  0.784990  0.413350  1.0  -0.7454
  O  O100  1  0.590570  0.891360  0.524900  1.0  -0.7946
  O  O101  1  0.308120  0.384910  0.732850  1.0  -0.7932
  O  O102  1  0.281850  0.547550  0.747550  1.0  -0.6672
