# generated using pymatgen
data_SrH4(C2O)4
_symmetry_space_group_name_H-M   'P 1'
_cell_length_a   6.89700000
_cell_length_b   12.18640000
_cell_length_c   18.51600000
_cell_angle_alpha   90.00000000
_cell_angle_beta   90.00000000
_cell_angle_gamma   90.00000000
_symmetry_Int_Tables_number   1
_chemical_formula_structural   SrH4(C2O)4
_chemical_formula_sum   'Sr4 H16 C32 O16'
_cell_volume   1556.26240841
_cell_formula_units_Z   4
loop_
 _symmetry_equiv_pos_site_id
 _symmetry_equiv_pos_as_xyz
  1  'x, y, z'
loop_
 _atom_site_type_symbol
 _atom_site_label
 _atom_site_symmetry_multiplicity
 _atom_site_fract_x
 _atom_site_fract_y
 _atom_site_fract_z
 _atom_site_occupancy
 _atom_site_charge
  Sr  Sr1  1  0.250000  0.084640  0.517640  1.0  1.6433
  Sr  Sr2  1  0.750000  0.415360  0.017640  1.0  1.6442
  Sr  Sr3  1  0.750000  0.915360  0.482360  1.0  1.6437
  Sr  Sr4  1  0.250000  0.584640  0.982360  1.0  1.6433
  H  H5  1  0.957300  0.837900  0.325700  1.0  0.0814
  H  H6  1  0.958100  0.756800  0.211900  1.0  0.1057
  H  H7  1  0.042700  0.662100  0.825700  1.0  0.0829
  H  H8  1  0.041900  0.743200  0.711900  1.0  0.1057
  H  H9  1  0.457300  0.162100  0.674300  1.0  0.0817
  H  H10  1  0.458100  0.243200  0.788100  1.0  0.106
  H  H11  1  0.542700  0.337900  0.174300  1.0  0.0828
  H  H12  1  0.541900  0.256800  0.288100  1.0  0.1062
  H  H13  1  0.042700  0.162100  0.674300  1.0  0.083
  H  H14  1  0.041900  0.243200  0.788100  1.0  0.1061
  H  H15  1  0.957300  0.337900  0.174300  1.0  0.0815
  H  H16  1  0.958100  0.256800  0.288100  1.0  0.1061
  H  H17  1  0.542700  0.837900  0.325700  1.0  0.0827
  H  H18  1  0.541900  0.756800  0.211900  1.0  0.1058
  H  H19  1  0.457300  0.662100  0.825700  1.0  0.0816
  H  H20  1  0.458100  0.743200  0.711900  1.0  0.1058
  C  C21  1  0.077100  0.821200  0.302800  1.0  -0.0449
  C  C22  1  0.077800  0.773100  0.234900  1.0  -0.0664
  C  C23  1  0.922900  0.678800  0.802800  1.0  -0.0448
  C  C24  1  0.922200  0.726900  0.734900  1.0  -0.0662
  C  C25  1  0.577100  0.178800  0.697200  1.0  -0.0443
  C  C26  1  0.577800  0.226900  0.765100  1.0  -0.0673
  C  C27  1  0.422900  0.321200  0.197200  1.0  -0.0446
  C  C28  1  0.422200  0.273100  0.265100  1.0  -0.067
  C  C29  1  0.922900  0.178800  0.697200  1.0  -0.045
  C  C30  1  0.922200  0.226900  0.765100  1.0  -0.0678
  C  C31  1  0.077100  0.321200  0.197200  1.0  -0.0449
  C  C32  1  0.077800  0.273100  0.265100  1.0  -0.0681
  C  C33  1  0.422900  0.821200  0.302800  1.0  -0.0453
  C  C34  1  0.422200  0.773100  0.234900  1.0  -0.0672
  C  C35  1  0.577100  0.678800  0.802800  1.0  -0.0449
  C  C36  1  0.577800  0.726900  0.734900  1.0  -0.0672
  C  C37  1  0.250000  0.899200  0.410700  1.0  0.8001
  C  C38  1  0.250000  0.845100  0.337500  1.0  -0.1585
  C  C39  1  0.250000  0.699400  0.125600  1.0  0.6749
  C  C40  1  0.250000  0.748500  0.200000  1.0  -0.0877
  C  C41  1  0.750000  0.600800  0.910700  1.0  0.8006
  C  C42  1  0.750000  0.654900  0.837500  1.0  -0.1594
  C  C43  1  0.750000  0.800600  0.625600  1.0  0.6741
  C  C44  1  0.750000  0.751500  0.700000  1.0  -0.0857
  C  C45  1  0.750000  0.100800  0.589300  1.0  0.7986
  C  C46  1  0.750000  0.154900  0.662500  1.0  -0.1598
  C  C47  1  0.750000  0.300600  0.874400  1.0  0.675
  C  C48  1  0.750000  0.251500  0.800000  1.0  -0.0841
  C  C49  1  0.250000  0.399200  0.089300  1.0  0.7967
  C  C50  1  0.250000  0.345100  0.162500  1.0  -0.1595
  C  C51  1  0.250000  0.199400  0.374400  1.0  0.675
  C  C52  1  0.250000  0.248500  0.300000  1.0  -0.0844
  O  O53  1  0.090600  0.923400  0.439460  1.0  -0.8002
  O  O54  1  0.090400  0.680300  0.095500  1.0  -0.7132
  O  O55  1  0.909400  0.576600  0.939460  1.0  -0.8009
  O  O56  1  0.909600  0.819700  0.595500  1.0  -0.712
  O  O57  1  0.590600  0.076600  0.560540  1.0  -0.8001
  O  O58  1  0.590400  0.319700  0.904500  1.0  -0.7121
  O  O59  1  0.409400  0.423400  0.060540  1.0  -0.8
  O  O60  1  0.409600  0.180300  0.404500  1.0  -0.7116
  O  O61  1  0.909400  0.076600  0.560540  1.0  -0.7999
  O  O62  1  0.909600  0.319700  0.904500  1.0  -0.7118
  O  O63  1  0.090600  0.423400  0.060540  1.0  -0.8004
  O  O64  1  0.090400  0.180300  0.404500  1.0  -0.712
  O  O65  1  0.409400  0.923400  0.439460  1.0  -0.8004
  O  O66  1  0.409600  0.680300  0.095500  1.0  -0.712
  O  O67  1  0.590600  0.576600  0.939460  1.0  -0.8008
  O  O68  1  0.590400  0.819700  0.595500  1.0  -0.7124
