# generated using pymatgen
data_SrH4(C2O)4
_symmetry_space_group_name_H-M   'P 1'
_cell_length_a   9.84170000
_cell_length_b   10.62020000
_cell_length_c   10.62020000
_cell_angle_alpha   120.00000000
_cell_angle_beta   90.00000000
_cell_angle_gamma   90.00000000
_symmetry_Int_Tables_number   1
_chemical_formula_structural   SrH4(C2O)4
_chemical_formula_sum   'Sr3 H12 C24 O12'
_cell_volume   961.31594342
_cell_formula_units_Z   3
loop_
 _symmetry_equiv_pos_site_id
 _symmetry_equiv_pos_as_xyz
  1  'x, y, z'
loop_
 _atom_site_type_symbol
 _atom_site_label
 _atom_site_symmetry_multiplicity
 _atom_site_fract_x
 _atom_site_fract_y
 _atom_site_fract_z
 _atom_site_occupancy
 _atom_site_charge
  Sr  Sr1  1  0.500100  0.688300  0.453650  1.0  1.6323
  Sr  Sr2  1  0.166770  0.765350  0.311700  1.0  1.6323
  Sr  Sr3  1  0.833430  0.546350  0.234650  1.0  1.6328
  H  H4  1  0.230900  0.450400  0.984500  1.0  0.0941
  H  H5  1  0.161800  0.250800  0.770300  1.0  0.1035
  H  H6  1  0.527200  0.069700  0.727900  1.0  0.0973
  H  H7  1  0.595500  0.269300  0.942600  1.0  0.0997
  H  H8  1  0.897570  0.534100  0.549600  1.0  0.0948
  H  H9  1  0.828470  0.519500  0.749200  1.0  0.1031
  H  H10  1  0.193870  0.658200  0.930300  1.0  0.0966
  H  H11  1  0.262170  0.673300  0.730700  1.0  0.0998
  H  H12  1  0.564230  0.015500  0.465900  1.0  0.0942
  H  H13  1  0.495130  0.229700  0.480500  1.0  0.1037
  H  H14  1  0.860530  0.272100  0.341800  1.0  0.0975
  H  H15  1  0.928830  0.057400  0.326700  1.0  0.0998
  C  C16  1  0.461800  0.510400  0.129100  1.0  0.7808
  C  C17  1  0.418800  0.380700  0.985700  1.0  -0.1467
  C  C18  1  0.291000  0.373800  0.933200  1.0  -0.0356
  C  C19  1  0.249400  0.254100  0.804400  1.0  -0.062
  C  C20  1  0.337800  0.138700  0.725600  1.0  -0.131
  C  C21  1  0.288200  0.009400  0.587400  1.0  0.724
  C  C22  1  0.466900  0.146100  0.779100  1.0  -0.0658
  C  C23  1  0.508000  0.265700  0.907900  1.0  -0.0534
  C  C24  1  0.128470  0.618700  0.489600  1.0  0.7853
  C  C25  1  0.085470  0.605000  0.619300  1.0  -0.1433
  C  C26  1  0.957670  0.559400  0.626200  1.0  -0.0347
  C  C27  1  0.916070  0.550300  0.745900  1.0  -0.0623
  C  C28  1  0.004470  0.586900  0.861300  1.0  -0.1296
  C  C29  1  0.954870  0.578000  0.990600  1.0  0.7292
  C  C30  1  0.133570  0.633000  0.853900  1.0  -0.0676
  C  C31  1  0.174670  0.642200  0.734300  1.0  -0.0537
  C  C32  1  0.795130  0.870900  0.381300  1.0  0.7802
  C  C33  1  0.752130  0.014300  0.395000  1.0  -0.1439
  C  C34  1  0.624330  0.066800  0.440600  1.0  -0.0348
  C  C35  1  0.582730  0.195600  0.449700  1.0  -0.0627
  C  C36  1  0.671130  0.274400  0.413100  1.0  -0.1291
  C  C37  1  0.621530  0.412600  0.422000  1.0  0.7224
  C  C38  1  0.800230  0.220900  0.367000  1.0  -0.0675
  C  C39  1  0.841330  0.092100  0.357800  1.0  -0.0533
  O  O40  1  0.374900  0.607600  0.200500  1.0  -0.7972
  O  O41  1  0.579400  0.514500  0.173800  1.0  -0.758
  O  O42  1  0.166400  0.003800  0.553600  1.0  -0.6772
  O  O43  1  0.373500  0.913500  0.507000  1.0  -0.8081
  O  O44  1  0.041570  0.592900  0.392400  1.0  -0.7983
  O  O45  1  0.246070  0.659300  0.485500  1.0  -0.7572
  O  O46  1  0.833070  0.549800  0.996200  1.0  -0.6778
  O  O47  1  0.040170  0.593500  0.086500  1.0  -0.8101
  O  O48  1  0.708230  0.799500  0.407100  1.0  -0.7964
  O  O49  1  0.912730  0.826200  0.340700  1.0  -0.7569
  O  O50  1  0.499730  0.446400  0.450200  1.0  -0.6785
  O  O51  1  0.706830  0.493000  0.406500  1.0  -0.8105
