# generated using pymatgen
data_SrH4(C2O)4
_symmetry_space_group_name_H-M   'P 1'
_cell_length_a   9.87310000
_cell_length_b   10.63960000
_cell_length_c   10.63960000
_cell_angle_alpha   120.00000000
_cell_angle_beta   90.00000000
_cell_angle_gamma   90.00000000
_symmetry_Int_Tables_number   1
_chemical_formula_structural   SrH4(C2O)4
_chemical_formula_sum   'Sr3 H12 C24 O12'
_cell_volume   967.90953703
_cell_formula_units_Z   3
loop_
 _symmetry_equiv_pos_site_id
 _symmetry_equiv_pos_as_xyz
  1  'x, y, z'
loop_
 _atom_site_type_symbol
 _atom_site_label
 _atom_site_symmetry_multiplicity
 _atom_site_fract_x
 _atom_site_fract_y
 _atom_site_fract_z
 _atom_site_occupancy
 _atom_site_charge
  Sr  Sr1  1  0.863200  0.765650  0.453680  1.0  1.6347
  Sr  Sr2  1  0.529870  0.688030  0.234350  1.0  1.634
  Sr  Sr3  1  0.196530  0.546320  0.311970  1.0  1.6342
  H  H4  1  0.768600  0.673900  0.943500  1.0  0.0979
  H  H5  1  0.835600  0.653900  0.726100  1.0  0.0963
  H  H6  1  0.200400  0.520700  0.770300  1.0  0.1029
  H  H7  1  0.133100  0.535700  0.984100  1.0  0.0868
  H  H8  1  0.435270  0.269600  0.326100  1.0  0.0982
  H  H9  1  0.502270  0.072200  0.346100  1.0  0.097
  H  H10  1  0.867070  0.249600  0.479300  1.0  0.1028
  H  H11  1  0.799770  0.448400  0.464300  1.0  0.0863
  H  H12  1  0.101930  0.056500  0.730400  1.0  0.0982
  H  H13  1  0.168930  0.273900  0.927800  1.0  0.0977
  H  H14  1  0.533730  0.229700  0.750400  1.0  0.1034
  H  H15  1  0.466430  0.015900  0.551600  1.0  0.0871
  C  C16  1  0.902000  0.619300  0.128400  1.0  0.7866
  C  C17  1  0.943700  0.604800  0.987400  1.0  -0.1389
  C  C18  1  0.855600  0.641700  0.908700  1.0  -0.0523
  C  C19  1  0.896400  0.630800  0.778200  1.0  -0.075
  C  C20  1  0.024900  0.586700  0.725500  1.0  -0.1136
  C  C21  1  0.072800  0.577300  0.586400  1.0  0.7281
  C  C22  1  0.112900  0.551100  0.804400  1.0  -0.0645
  C  C23  1  0.072200  0.560200  0.933100  1.0  -0.0423
  C  C24  1  0.568670  0.509100  0.380700  1.0  0.7771
  C  C25  1  0.610370  0.382600  0.395200  1.0  -0.1376
  C  C26  1  0.522270  0.267000  0.358300  1.0  -0.0521
  C  C27  1  0.563070  0.147400  0.369200  1.0  -0.075
  C  C28  1  0.691570  0.138800  0.413300  1.0  -0.1159
  C  C29  1  0.739470  0.009100  0.422700  1.0  0.7251
  C  C30  1  0.779570  0.253300  0.448900  1.0  -0.0641
  C  C31  1  0.738870  0.372900  0.439800  1.0  -0.0433
  C  C32  1  0.235330  0.871600  0.490900  1.0  0.7759
  C  C33  1  0.277030  0.012600  0.617400  1.0  -0.1366
  C  C34  1  0.188930  0.091300  0.733000  1.0  -0.0527
  C  C35  1  0.229730  0.221800  0.852600  1.0  -0.0756
  C  C36  1  0.358230  0.274500  0.861200  1.0  -0.1141
  C  C37  1  0.406130  0.413600  0.990900  1.0  0.7239
  C  C38  1  0.446230  0.195600  0.746700  1.0  -0.0651
  C  C39  1  0.405530  0.066900  0.627100  1.0  -0.0431
  O  O40  1  0.784900  0.658300  0.172900  1.0  -0.7565
  O  O41  1  0.988500  0.594700  0.201000  1.0  -0.808
  O  O42  1  0.989400  0.595200  0.508100  1.0  -0.7972
  O  O43  1  0.195200  0.550100  0.553500  1.0  -0.6757
  O  O44  1  0.451570  0.514600  0.341700  1.0  -0.7567
  O  O45  1  0.655170  0.606300  0.405300  1.0  -0.8075
  O  O46  1  0.656070  0.912900  0.404800  1.0  -0.7959
  O  O47  1  0.861870  0.003400  0.449900  1.0  -0.6756
  O  O48  1  0.118230  0.827100  0.485400  1.0  -0.7563
  O  O49  1  0.321830  0.799000  0.393700  1.0  -0.8081
  O  O50  1  0.322730  0.491900  0.087100  1.0  -0.7987
  O  O51  1  0.528530  0.446500  0.996600  1.0  -0.6762
