# generated using pymatgen
data_SrH4(C2O)4
_symmetry_space_group_name_H-M   'P 1'
_cell_length_a   9.80600000
_cell_length_b   10.59900000
_cell_length_c   10.59900000
_cell_angle_alpha   120.00000000
_cell_angle_beta   90.00000000
_cell_angle_gamma   90.00000000
_symmetry_Int_Tables_number   1
_chemical_formula_structural   SrH4(C2O)4
_chemical_formula_sum   'Sr3 H12 C24 O12'
_cell_volume   954.00863340
_cell_formula_units_Z   3
loop_
 _symmetry_equiv_pos_site_id
 _symmetry_equiv_pos_as_xyz
  1  'x, y, z'
loop_
 _atom_site_type_symbol
 _atom_site_label
 _atom_site_symmetry_multiplicity
 _atom_site_fract_x
 _atom_site_fract_y
 _atom_site_fract_z
 _atom_site_occupancy
 _atom_site_charge
  Sr  Sr1  1  0.123490  0.688310  0.234780  1.0  1.6323
  Sr  Sr2  1  0.456820  0.546470  0.311690  1.0  1.6326
  Sr  Sr3  1  0.790160  0.765220  0.453530  1.0  1.6331
  H  H4  1  0.520770  0.527800  0.982600  1.0  0.0951
  H  H5  1  0.450370  0.514600  0.768900  1.0  0.1058
  H  H6  1  0.814770  0.666000  0.731500  1.0  0.0951
  H  H7  1  0.885770  0.678200  0.945800  1.0  0.1035
  H  H8  1  0.854100  0.454800  0.472200  1.0  0.0951
  H  H9  1  0.783700  0.254300  0.485400  1.0  0.1054
  H  H10  1  0.148100  0.065500  0.334000  1.0  0.0957
  H  H11  1  0.219100  0.267600  0.321800  1.0  0.1031
  H  H12  1  0.187440  0.017400  0.545200  1.0  0.0954
  H  H13  1  0.117040  0.231100  0.745700  1.0  0.106
  H  H14  1  0.481440  0.268500  0.934500  1.0  0.0963
  H  H15  1  0.552440  0.054200  0.732400  1.0  0.1033
  C  C16  1  0.753000  0.616100  0.128700  1.0  0.7595
  C  C17  1  0.709500  0.603400  0.985600  1.0  -0.1373
  C  C18  1  0.580000  0.555300  0.932100  1.0  -0.0398
  C  C19  1  0.537700  0.547600  0.804100  1.0  -0.0636
  C  C20  1  0.625300  0.589000  0.727300  1.0  -0.1295
  C  C21  1  0.575200  0.579700  0.588200  1.0  0.7217
  C  C22  1  0.755800  0.638000  0.781700  1.0  -0.0667
  C  C23  1  0.798500  0.645400  0.910100  1.0  -0.0563
  C  C24  1  0.086330  0.512600  0.383900  1.0  0.7516
  C  C25  1  0.042830  0.382200  0.396600  1.0  -0.1373
  C  C26  1  0.913330  0.376800  0.444700  1.0  -0.04
  C  C27  1  0.871030  0.256500  0.452400  1.0  -0.0637
  C  C28  1  0.958630  0.138300  0.411000  1.0  -0.1321
  C  C29  1  0.908530  0.008500  0.420300  1.0  0.7187
  C  C30  1  0.089130  0.143700  0.362000  1.0  -0.0659
  C  C31  1  0.131830  0.264700  0.354600  1.0  -0.0564
  C  C32  1  0.419670  0.871300  0.487400  1.0  0.7512
  C  C33  1  0.376170  0.014400  0.617800  1.0  -0.1368
  C  C34  1  0.246670  0.067900  0.623200  1.0  -0.0398
  C  C35  1  0.204370  0.195900  0.743500  1.0  -0.0638
  C  C36  1  0.291970  0.272700  0.861700  1.0  -0.1301
  C  C37  1  0.241870  0.411800  0.991500  1.0  0.7168
  C  C38  1  0.422470  0.218300  0.856300  1.0  -0.0666
  C  C39  1  0.465170  0.089900  0.735300  1.0  -0.0571
  O  O40  1  0.871000  0.659300  0.174700  1.0  -0.7616
  O  O41  1  0.666400  0.587400  0.199400  1.0  -0.7917
  O  O42  1  0.452400  0.556800  0.557600  1.0  -0.6623
  O  O43  1  0.661920  0.593400  0.506500  1.0  -0.7963
  O  O44  1  0.204330  0.515400  0.340700  1.0  -0.762
  O  O45  1  0.999730  0.612000  0.412600  1.0  -0.7898
  O  O46  1  0.785730  0.000800  0.443200  1.0  -0.6614
  O  O47  1  0.995250  0.913100  0.406600  1.0  -0.7955
  O  O48  1  0.537670  0.825300  0.484600  1.0  -0.7611
  O  O49  1  0.333070  0.800600  0.388000  1.0  -0.7932
  O  O50  1  0.119070  0.442400  0.999200  1.0  -0.6615
  O  O51  1  0.328590  0.493500  0.086900  1.0  -0.798
