# generated using pymatgen
data_SrH4(C2O)4
_symmetry_space_group_name_H-M   'P 1'
_cell_length_a   9.82890000
_cell_length_b   10.61230000
_cell_length_c   10.61230000
_cell_angle_alpha   120.00000000
_cell_angle_beta   90.00000000
_cell_angle_gamma   90.00000000
_symmetry_Int_Tables_number   1
_chemical_formula_structural   SrH4(C2O)4
_chemical_formula_sum   'Sr3 H12 C24 O12'
_cell_volume   958.63787899
_cell_formula_units_Z   3
loop_
 _symmetry_equiv_pos_site_id
 _symmetry_equiv_pos_as_xyz
  1  'x, y, z'
loop_
 _atom_site_type_symbol
 _atom_site_label
 _atom_site_symmetry_multiplicity
 _atom_site_fract_x
 _atom_site_fract_y
 _atom_site_fract_z
 _atom_site_occupancy
 _atom_site_charge
  Sr  Sr1  1  0.166650  0.901390  0.021780  1.0  1.6359
  Sr  Sr2  1  0.833320  0.120390  0.098610  1.0  1.6354
  Sr  Sr3  1  0.499980  0.978220  0.879610  1.0  1.6345
  H  H4  1  0.896700  0.133000  0.784400  1.0  0.0971
  H  H5  1  0.827900  0.148100  0.584400  1.0  0.1037
  H  H6  1  0.193300  0.007400  0.402200  1.0  0.0999
  H  H7  1  0.262300  0.992500  0.601800  1.0  0.0992
  H  H8  1  0.563370  0.651400  0.867000  1.0  0.0974
  H  H9  1  0.494570  0.436300  0.851900  1.0  0.1041
  H  H10  1  0.859970  0.394800  0.992600  1.0  0.0998
  H  H11  1  0.928970  0.609300  0.007500  1.0  0.0995
  H  H12  1  0.230030  0.215600  0.348600  1.0  0.0969
  H  H13  1  0.161230  0.415600  0.563700  1.0  0.1038
  H  H14  1  0.526630  0.597800  0.605200  1.0  0.1003
  H  H15  1  0.595630  0.398200  0.390700  1.0  0.1
  C  C16  1  0.128300  0.049100  0.844200  1.0  0.7836
  C  C17  1  0.086200  0.061900  0.714100  1.0  -0.1406
  C  C18  1  0.956800  0.107800  0.707700  1.0  -0.0415
  C  C19  1  0.915600  0.116800  0.587500  1.0  -0.0583
  C  C20  1  0.003300  0.079800  0.472000  1.0  -0.1297
  C  C21  1  0.954300  0.088500  0.342300  1.0  0.7299
  C  C22  1  0.133300  0.033000  0.479000  1.0  -0.0718
  C  C23  1  0.174800  0.024000  0.598500  1.0  -0.0542
  C  C24  1  0.794970  0.795100  0.950900  1.0  0.7717
  C  C25  1  0.752870  0.652200  0.938100  1.0  -0.1393
  C  C26  1  0.623470  0.599900  0.892200  1.0  -0.0419
  C  C27  1  0.582270  0.470700  0.883200  1.0  -0.0583
  C  C28  1  0.669970  0.392200  0.920200  1.0  -0.131
  C  C29  1  0.620970  0.253800  0.911500  1.0  0.7251
  C  C30  1  0.799970  0.446000  0.967000  1.0  -0.0711
  C  C31  1  0.841470  0.574500  0.976000  1.0  -0.0559
  C  C32  1  0.461630  0.155800  0.204900  1.0  0.7731
  C  C33  1  0.419530  0.285900  0.347800  1.0  -0.1414
  C  C34  1  0.290130  0.292300  0.400100  1.0  -0.0427
  C  C35  1  0.248930  0.412500  0.529300  1.0  -0.0574
  C  C36  1  0.336630  0.528000  0.607800  1.0  -0.1319
  C  C37  1  0.287630  0.657700  0.746200  1.0  0.7253
  C  C38  1  0.466630  0.521000  0.554000  1.0  -0.0707
  C  C39  1  0.508130  0.401500  0.425500  1.0  -0.0539
  O  O40  1  0.041500  0.074700  0.941800  1.0  -0.7963
  O  O41  1  0.246100  0.007100  0.847600  1.0  -0.7585
  O  O42  1  0.831900  0.114600  0.335900  1.0  -0.6744
  O  O43  1  0.039600  0.074100  0.247000  1.0  -0.8155
  O  O44  1  0.708170  0.867100  0.925300  1.0  -0.7964
  O  O45  1  0.912770  0.840500  0.992900  1.0  -0.7584
  O  O46  1  0.498570  0.221300  0.885400  1.0  -0.6738
  O  O47  1  0.706270  0.172900  0.925900  1.0  -0.8123
  O  O48  1  0.374830  0.058200  0.132900  1.0  -0.7919
  O  O49  1  0.579430  0.152400  0.159500  1.0  -0.7589
  O  O50  1  0.165230  0.664100  0.778700  1.0  -0.6735
  O  O51  1  0.372930  0.753000  0.827100  1.0  -0.8148
