# generated using pymatgen
data_Sr2ZnH9C21(NO4)3
_symmetry_space_group_name_H-M   'P 1'
_cell_length_a   7.87500000
_cell_length_b   13.89800000
_cell_length_c   13.91000000
_cell_angle_alpha   107.62400000
_cell_angle_beta   97.41600000
_cell_angle_gamma   97.31000000
_symmetry_Int_Tables_number   1
_chemical_formula_structural   Sr2ZnH9C21(NO4)3
_chemical_formula_sum   'Sr4 Zn2 H18 C42 N6 O24'
_cell_volume   1416.35728366
_cell_formula_units_Z   2
loop_
 _symmetry_equiv_pos_site_id
 _symmetry_equiv_pos_as_xyz
  1  'x, y, z'
loop_
 _atom_site_type_symbol
 _atom_site_label
 _atom_site_symmetry_multiplicity
 _atom_site_fract_x
 _atom_site_fract_y
 _atom_site_fract_z
 _atom_site_occupancy
 _atom_site_charge
  Sr  Sr1  1  0.953280  0.373710  0.873540  1.0  1.5885
  Sr  Sr2  1  0.394810  0.296600  0.796730  1.0  1.6294
  Sr  Sr3  1  0.046720  0.626290  0.126460  1.0  1.5898
  Sr  Sr4  1  0.605190  0.703400  0.203270  1.0  1.625
  Zn  Zn5  1  0.001200  0.240820  0.259140  1.0  0.8879
  Zn  Zn6  1  0.998800  0.759180  0.740860  1.0  0.8885
  H  H7  1  0.720000  0.824000  0.975000  1.0  0.1107
  H  H8  1  0.394100  0.598000  0.902500  1.0  0.0986
  H  H9  1  0.427700  0.226500  0.258100  1.0  0.1084
  H  H10  1  0.280000  0.176000  0.025000  1.0  0.1113
  H  H11  1  0.263300  0.530000  0.661500  1.0  0.1019
  H  H12  1  0.732000  0.554900  0.636900  1.0  0.0808
  H  H13  1  0.365100  0.024300  0.061700  1.0  0.122
  H  H14  1  0.269500  0.862500  0.946000  1.0  0.0968
  H  H15  1  0.634900  0.975700  0.938300  1.0  0.1226
  H  H16  1  0.730500  0.137500  0.054000  1.0  0.0969
  H  H17  1  0.572300  0.773500  0.741900  1.0  0.1086
  H  H18  1  0.654100  0.294300  0.193200  1.0  0.1057
  H  H19  1  0.736700  0.470000  0.338500  1.0  0.1021
  H  H20  1  0.361700  0.562600  0.522400  1.0  0.1224
  H  H21  1  0.268000  0.445100  0.363100  1.0  0.0812
  H  H22  1  0.638300  0.437400  0.477600  1.0  0.1228
  H  H23  1  0.605900  0.402000  0.097500  1.0  0.0986
  H  H24  1  0.345900  0.705700  0.806800  1.0  0.1045
  C  C25  1  0.649500  0.601200  0.895000  1.0  -0.0078
  C  C26  1  0.879000  0.247300  0.449100  1.0  0.6663
  C  C27  1  0.912500  0.920300  0.095700  1.0  -0.0691
  C  C28  1  0.785100  0.641800  0.856100  1.0  0.0221
  C  C29  1  0.515100  0.374800  0.123500  1.0  -0.0947
  C  C30  1  0.719000  0.986300  0.995800  1.0  -0.0895
  C  C31  1  0.408400  0.269700  0.219700  1.0  0.1309
  C  C32  1  0.972600  0.827000  0.111100  1.0  0.7451
  C  C33  1  0.214900  0.358200  0.143900  1.0  0.0225
  C  C34  1  0.281000  0.013700  0.004200  1.0  -0.0911
  C  C35  1  0.974900  0.611700  0.327400  1.0  0.7219
  C  C36  1  0.218000  0.486600  0.595200  1.0  -0.0257
  C  C37  1  0.782000  0.513400  0.404800  1.0  -0.0259
  C  C38  1  0.484900  0.625200  0.876500  1.0  -0.0912
  C  C39  1  0.027400  0.173000  0.888900  1.0  0.7458
  C  C40  1  0.591600  0.730300  0.780300  1.0  0.1305
  C  C41  1  0.720000  0.495500  0.487000  1.0  -0.1212
  C  C42  1  0.456000  0.689700  0.819100  1.0  -0.0565
  C  C43  1  0.879700  0.949100  0.747600  1.0  0.6688
  C  C44  1  0.970500  0.626800  0.873600  1.0  0.6416
  C  C45  1  0.280000  0.504500  0.513000  1.0  -0.118
  C  C46  1  0.025100  0.388300  0.672600  1.0  0.722
  C  C47  1  0.784000  0.906300  0.013500  1.0  -0.0715
  C  C48  1  0.029500  0.373200  0.126400  1.0  0.6392
  C  C49  1  0.673000  0.526400  0.952000  1.0  0.2846
  C  C50  1  0.216000  0.093700  0.986500  1.0  -0.0745
  C  C51  1  0.025200  0.337900  0.479000  1.0  0.0533
  C  C52  1  0.973600  0.020200  0.161900  1.0  0.0457
  C  C53  1  0.120300  0.050900  0.252400  1.0  0.6737
  C  C54  1  0.974800  0.662100  0.521000  1.0  0.0543
  C  C55  1  0.222000  0.917400  0.936100  1.0  0.1468
  C  C56  1  0.220000  0.435500  0.418000  1.0  0.1866
  C  C57  1  0.026400  0.979800  0.838100  1.0  0.0446
  C  C58  1  0.350500  0.398800  0.105000  1.0  -0.0061
  C  C59  1  0.327000  0.473600  0.048000  1.0  0.2842
  C  C60  1  0.544000  0.310300  0.180900  1.0  -0.0572
  C  C61  1  0.087500  0.079700  0.904300  1.0  -0.0753
  C  C62  1  0.121000  0.752700  0.550900  1.0  0.6686
  C  C63  1  0.778000  0.082600  0.063900  1.0  0.1466
  C  C64  1  0.780000  0.564500  0.582000  1.0  0.1871
  C  C65  1  0.087300  0.403400  0.578400  1.0  -0.0616
  C  C66  1  0.912700  0.596600  0.421600  1.0  -0.0654
  N  N67  1  0.756200  0.706400  0.798800  1.0  -0.3643
  N  N68  1  0.905700  0.099700  0.145500  1.0  -0.3121
  N  N69  1  0.243800  0.293600  0.201200  1.0  -0.3638
  N  N70  1  0.096000  0.355000  0.400600  1.0  -0.32
  N  N71  1  0.904000  0.645000  0.599400  1.0  -0.3215
  N  N72  1  0.094300  0.900300  0.854500  1.0  -0.3111
  O  O73  1  0.871000  0.647300  0.275600  1.0  -0.7949
  O  O74  1  0.338300  0.582400  0.080500  1.0  -0.751
  O  O75  1  0.187700  0.773100  0.482500  1.0  -0.4733
  O  O76  1  0.869200  0.774500  0.146200  1.0  -0.7819
  O  O77  1  0.129000  0.352700  0.724400  1.0  -0.7935
  O  O78  1  0.831700  0.204600  0.354800  1.0  -0.5712
  O  O79  1  0.811300  0.017100  0.726300  1.0  -0.5323
  O  O80  1  0.166900  0.145400  0.298000  1.0  -0.5915
  O  O81  1  0.107200  0.581100  0.299500  1.0  -0.6284
  O  O82  1  0.107100  0.799800  0.080500  1.0  -0.6528
  O  O83  1  0.999000  0.573100  0.926400  1.0  -0.6688
  O  O84  1  0.296300  0.443200  0.943200  1.0  -0.7602
  O  O85  1  0.168300  0.795400  0.645200  1.0  -0.572
  O  O86  1  0.001000  0.426900  0.073600  1.0  -0.6683
  O  O87  1  0.703700  0.556800  0.056800  1.0  -0.7595
  O  O88  1  0.892900  0.200200  0.919500  1.0  -0.6528
  O  O89  1  0.892800  0.418900  0.700500  1.0  -0.6265
  O  O90  1  0.936300  0.336400  0.177600  1.0  -0.5616
  O  O91  1  0.063700  0.663600  0.822400  1.0  -0.5619
  O  O92  1  0.188700  0.982900  0.273700  1.0  -0.5326
  O  O93  1  0.833100  0.854600  0.702000  1.0  -0.5965
  O  O94  1  0.130800  0.225500  0.853800  1.0  -0.7856
  O  O95  1  0.661700  0.417600  0.919500  1.0  -0.7513
  O  O96  1  0.812300  0.226900  0.517500  1.0  -0.4744
