# generated using pymatgen
data_Sr2NiH9C21(NO4)3
_symmetry_space_group_name_H-M   'P 1'
_cell_length_a   7.83400000
_cell_length_b   13.78200000
_cell_length_c   13.79800000
_cell_angle_alpha   107.57700000
_cell_angle_beta   97.32800000
_cell_angle_gamma   97.03400000
_symmetry_Int_Tables_number   1
_chemical_formula_structural   Sr2NiH9C21(NO4)3
_chemical_formula_sum   'Sr4 Ni2 H18 C42 N6 O24'
_cell_volume   1388.02760141
_cell_formula_units_Z   2
loop_
 _symmetry_equiv_pos_site_id
 _symmetry_equiv_pos_as_xyz
  1  'x, y, z'
loop_
 _atom_site_type_symbol
 _atom_site_label
 _atom_site_symmetry_multiplicity
 _atom_site_fract_x
 _atom_site_fract_y
 _atom_site_fract_z
 _atom_site_occupancy
 _atom_site_charge
  Sr  Sr1  1  0.955690  0.373510  0.873000  1.0  1.5858
  Sr  Sr2  1  0.397900  0.297680  0.794570  1.0  1.6378
  Sr  Sr3  1  0.044310  0.626490  0.127000  1.0  1.5854
  Sr  Sr4  1  0.602100  0.702320  0.205430  1.0  1.6333
  Ni  Ni5  1  0.974800  0.755170  0.736310  1.0  0.9225
  Ni  Ni6  1  0.025200  0.244830  0.263690  1.0  0.925
  H  H7  1  0.373100  0.568200  0.529700  1.0  0.1272
  H  H8  1  0.265500  0.152300  0.025000  1.0  0.0943
  H  H9  1  0.655800  0.286000  0.195600  1.0  0.1162
  H  H10  1  0.254800  0.538200  0.663400  1.0  0.0908
  H  H11  1  0.344200  0.714000  0.804400  1.0  0.1157
  H  H12  1  0.745200  0.461800  0.336600  1.0  0.0913
  H  H13  1  0.716300  0.550500  0.634100  1.0  0.0706
  H  H14  1  0.573500  0.779100  0.743900  1.0  0.0823
  H  H15  1  0.283700  0.449500  0.365900  1.0  0.0712
  H  H16  1  0.358200  0.010700  0.055500  1.0  0.1144
  H  H17  1  0.734500  0.847700  0.975000  1.0  0.0945
  H  H18  1  0.641800  0.989300  0.944500  1.0  0.1139
  H  H19  1  0.603700  0.398600  0.098000  1.0  0.0759
  H  H20  1  0.752900  0.151100  0.058100  1.0  0.0888
  H  H21  1  0.626900  0.431800  0.470300  1.0  0.1274
  H  H22  1  0.247100  0.848900  0.941900  1.0  0.0886
  H  H23  1  0.426500  0.220900  0.256100  1.0  0.0819
  H  H24  1  0.396300  0.601400  0.902000  1.0  0.0764
  C  C25  1  0.206000  0.905900  0.931200  1.0  0.1472
  C  C26  1  0.975300  0.607500  0.327700  1.0  0.7015
  C  C27  1  0.232000  0.439300  0.420000  1.0  0.1606
  C  C28  1  0.546000  0.303100  0.183000  1.0  -0.17
  C  C29  1  0.289000  0.510400  0.518300  1.0  -0.1723
  C  C30  1  0.325000  0.471400  0.047600  1.0  0.6589
  C  C31  1  0.216200  0.353600  0.147100  1.0  0.0835
  C  C32  1  0.884400  0.253200  0.445700  1.0  0.6209
  C  C33  1  0.409500  0.265700  0.218500  1.0  0.1553
  C  C34  1  0.675000  0.528600  0.952400  1.0  0.6596
  C  C35  1  0.783800  0.646400  0.852900  1.0  0.084
  C  C36  1  0.966600  0.657400  0.522200  1.0  0.0303
  C  C37  1  0.033400  0.342600  0.477800  1.0  0.032
  C  C38  1  0.031700  0.169800  0.883600  1.0  0.7164
  C  C39  1  0.115600  0.746800  0.554300  1.0  0.6219
  C  C40  1  0.487800  0.628600  0.875900  1.0  -0.1004
  C  C41  1  0.024700  0.392500  0.672300  1.0  0.7016
  C  C42  1  0.121300  0.053900  0.258400  1.0  0.6696
  C  C43  1  0.512200  0.371400  0.124100  1.0  -0.1007
  C  C44  1  0.217200  0.492800  0.596600  1.0  -0.0488
  C  C45  1  0.794000  0.094100  0.068800  1.0  0.1483
  C  C46  1  0.911300  0.925600  0.101800  1.0  -0.0858
  C  C47  1  0.979000  0.025700  0.166200  1.0  0.0833
  C  C48  1  0.878700  0.946100  0.741600  1.0  0.6648
  C  C49  1  0.711000  0.489600  0.481700  1.0  -0.1715
  C  C50  1  0.031500  0.372600  0.132900  1.0  0.6257
  C  C51  1  0.216900  0.086300  0.980700  1.0  -0.1033
  C  C52  1  0.968500  0.627400  0.867100  1.0  0.6257
  C  C53  1  0.726100  0.997700  0.001600  1.0  -0.1194
  C  C54  1  0.088200  0.407900  0.578700  1.0  -0.0863
  C  C55  1  0.782800  0.507200  0.403400  1.0  -0.04
  C  C56  1  0.640000  0.603600  0.894000  1.0  -0.0444
  C  C57  1  0.590500  0.734300  0.781500  1.0  0.1557
  C  C58  1  0.360000  0.396400  0.106000  1.0  -0.0465
  C  C59  1  0.768000  0.560700  0.580000  1.0  0.1622
  C  C60  1  0.968300  0.830200  0.116400  1.0  0.7125
  C  C61  1  0.021000  0.974300  0.833800  1.0  0.08
  C  C62  1  0.273900  0.002300  0.998400  1.0  -0.1221
  C  C63  1  0.454000  0.696900  0.817000  1.0  -0.1679
  C  C64  1  0.088700  0.074400  0.898200  1.0  -0.0913
  C  C65  1  0.911800  0.592100  0.421300  1.0  -0.0883
  C  C66  1  0.783100  0.913700  0.019300  1.0  -0.1029
  N  N67  1  0.889100  0.640600  0.599800  1.0  -0.3254
  N  N68  1  0.919000  0.108100  0.149200  1.0  -0.3149
  N  N69  1  0.081000  0.891900  0.850800  1.0  -0.314
  N  N70  1  0.251100  0.289500  0.202600  1.0  -0.3268
  N  N71  1  0.748900  0.710500  0.797400  1.0  -0.3255
  N  N72  1  0.110900  0.359400  0.400200  1.0  -0.3214
  O  O73  1  0.891600  0.419400  0.699400  1.0  -0.6331
  O  O74  1  0.867900  0.640400  0.273600  1.0  -0.7439
  O  O75  1  0.703000  0.561400  0.052300  1.0  -0.7596
  O  O76  1  0.336000  0.569200  0.092200  1.0  -0.791
  O  O77  1  0.131700  0.220500  0.845700  1.0  -0.7527
  O  O78  1  0.000800  0.573900  0.924800  1.0  -0.6979
  O  O79  1  0.812000  0.230100  0.510900  1.0  -0.4975
  O  O80  1  0.810100  0.017800  0.722600  1.0  -0.5366
  O  O81  1  0.840400  0.214200  0.348100  1.0  -0.5658
  O  O82  1  0.297000  0.438600  0.947700  1.0  -0.7595
  O  O83  1  0.938500  0.339800  0.183500  1.0  -0.5652
  O  O84  1  0.999200  0.426100  0.075200  1.0  -0.6971
  O  O85  1  0.664000  0.430800  0.907800  1.0  -0.7894
  O  O86  1  0.188000  0.769900  0.489100  1.0  -0.4992
  O  O87  1  0.834200  0.853400  0.690600  1.0  -0.5701
  O  O88  1  0.868300  0.779500  0.154300  1.0  -0.7524
  O  O89  1  0.132100  0.359600  0.726400  1.0  -0.7449
  O  O90  1  0.899300  0.199900  0.916100  1.0  -0.6461
  O  O91  1  0.108400  0.580600  0.300600  1.0  -0.6343
  O  O92  1  0.100700  0.800100  0.083900  1.0  -0.6464
  O  O93  1  0.165800  0.146600  0.309400  1.0  -0.5695
  O  O94  1  0.159600  0.785800  0.651900  1.0  -0.5665
  O  O95  1  0.189900  0.982200  0.277400  1.0  -0.5392
  O  O96  1  0.061500  0.660200  0.816500  1.0  -0.5645
