# generated using pymatgen
data_InH22C23O10
_symmetry_space_group_name_H-M   'P 1'
_cell_length_a   13.75480000
_cell_length_b   13.75480000
_cell_length_c   38.16120000
_cell_angle_alpha   90.00000000
_cell_angle_beta   90.00000000
_cell_angle_gamma   90.00000000
_symmetry_Int_Tables_number   1
_chemical_formula_structural   InH22C23O10
_chemical_formula_sum   'In8 H176 C184 O80'
_cell_volume   7219.89003263
_cell_formula_units_Z   8
loop_
 _symmetry_equiv_pos_site_id
 _symmetry_equiv_pos_as_xyz
  1  'x, y, z'
loop_
 _atom_site_type_symbol
 _atom_site_label
 _atom_site_symmetry_multiplicity
 _atom_site_fract_x
 _atom_site_fract_y
 _atom_site_fract_z
 _atom_site_occupancy
 _atom_site_charge
  In  In1  1  0.286600  0.949730  0.085050  1.0  1.5421
  In  In2  1  0.713400  0.050270  0.585050  1.0  1.5423
  In  In3  1  0.550270  0.786600  0.835050  1.0  1.5416
  In  In4  1  0.449730  0.213400  0.335050  1.0  1.5419
  In  In5  1  0.213400  0.449730  0.664950  1.0  1.5427
  In  In6  1  0.786600  0.550270  0.164950  1.0  1.5427
  In  In7  1  0.949730  0.286600  0.914950  1.0  1.5427
  In  In8  1  0.050270  0.713400  0.414950  1.0  1.5418
  H  H9  1  0.594700  0.882900  0.054600  1.0  0.1112
  H  H10  1  0.783000  0.906400  0.117900  1.0  0.1445
  H  H11  1  0.695500  0.876700  0.142000  1.0  0.1182
  H  H12  1  0.611000  0.006500  0.113600  1.0  0.1293
  H  H13  1  0.681000  0.003300  0.080400  1.0  0.1501
  H  H14  1  0.728900  0.697400  0.055600  1.0  0.1379
  H  H15  1  0.814100  0.771600  0.061200  1.0  0.1558
  H  H16  1  0.712800  0.808100  0.047800  1.0  0.1357
  H  H17  1  0.552900  0.787800  0.145500  1.0  0.1285
  H  H18  1  0.554800  0.684600  0.128100  1.0  0.1435
  H  H19  1  0.471900  0.758300  0.118700  1.0  0.1495
  H  H20  1  0.333400  0.431900  0.103800  1.0  0.1109
  H  H21  1  0.401600  0.414500  0.035500  1.0  0.1039
  H  H22  1  0.299100  0.452700  0.048300  1.0  0.1131
  H  H23  1  0.347000  0.261400  0.031300  1.0  0.1028
  H  H24  1  0.241700  0.304400  0.034900  1.0  0.0958
  H  H25  1  0.182400  0.256000  0.121900  1.0  0.1367
  H  H26  1  0.137800  0.264000  0.084200  1.0  0.1475
  H  H27  1  0.192300  0.353100  0.100700  1.0  0.1216
  H  H28  1  0.461200  0.172300  0.102500  1.0  0.1381
  H  H29  1  0.525400  0.265600  0.107300  1.0  0.1418
  H  H30  1  0.485500  0.237900  0.070100  1.0  0.1316
  H  H31  1  0.405300  0.117100  0.554600  1.0  0.1108
  H  H32  1  0.217000  0.093600  0.617900  1.0  0.1477
  H  H33  1  0.304500  0.123300  0.642000  1.0  0.1187
  H  H34  1  0.389000  0.993500  0.613600  1.0  0.1292
  H  H35  1  0.319000  0.996700  0.580400  1.0  0.1493
  H  H36  1  0.271100  0.302600  0.555600  1.0  0.1399
  H  H37  1  0.185900  0.228400  0.561200  1.0  0.1525
  H  H38  1  0.287200  0.191900  0.547800  1.0  0.1354
  H  H39  1  0.447100  0.212200  0.645500  1.0  0.1287
  H  H40  1  0.445200  0.315400  0.628100  1.0  0.1461
  H  H41  1  0.528100  0.241700  0.618700  1.0  0.1481
  H  H42  1  0.666667  0.568100  0.603800  1.0  0.1105
  H  H43  1  0.598400  0.585500  0.535500  1.0  0.1033
  H  H44  1  0.700900  0.547300  0.548300  1.0  0.1131
  H  H45  1  0.653000  0.738600  0.531300  1.0  0.1044
  H  H46  1  0.758300  0.695600  0.534900  1.0  0.095
  H  H47  1  0.817600  0.744000  0.621900  1.0  0.1359
  H  H48  1  0.862200  0.736000  0.584200  1.0  0.1487
  H  H49  1  0.807700  0.646900  0.600700  1.0  0.1228
  H  H50  1  0.538800  0.827700  0.602500  1.0  0.1369
  H  H51  1  0.474600  0.734400  0.607300  1.0  0.1421
  H  H52  1  0.514500  0.762100  0.570100  1.0  0.1296
  H  H53  1  0.617100  0.094700  0.804600  1.0  0.111
  H  H54  1  0.593600  0.283000  0.867900  1.0  0.1511
  H  H55  1  0.623300  0.195500  0.892000  1.0  0.1174
  H  H56  1  0.493500  0.111000  0.863600  1.0  0.129
  H  H57  1  0.496700  0.181000  0.830400  1.0  0.1472
  H  H58  1  0.802600  0.228900  0.805600  1.0  0.1406
  H  H59  1  0.728400  0.314100  0.811200  1.0  0.1532
  H  H60  1  0.691900  0.212800  0.797800  1.0  0.135
  H  H61  1  0.712200  0.052900  0.895500  1.0  0.1283
  H  H62  1  0.815400  0.054800  0.878100  1.0  0.1482
  H  H63  1  0.741700  0.971900  0.868700  1.0  0.1485
  H  H64  1  0.068100  0.833400  0.853800  1.0  0.1089
  H  H65  1  0.085500  0.901600  0.785500  1.0  0.104
  H  H66  1  0.047300  0.799100  0.798300  1.0  0.1115
  H  H67  1  0.238600  0.847000  0.781300  1.0  0.1031
  H  H68  1  0.195600  0.741700  0.784900  1.0  0.0922
  H  H69  1  0.244000  0.682400  0.871900  1.0  0.1363
  H  H70  1  0.236000  0.637800  0.834200  1.0  0.1483
  H  H71  1  0.146900  0.692300  0.850700  1.0  0.1193
  H  H72  1  0.327700  0.961200  0.852500  1.0  0.1328
  H  H73  1  0.234400  0.025400  0.857300  1.0  0.1416
  H  H74  1  0.262100  0.985500  0.820100  1.0  0.1305
  H  H75  1  0.382900  0.905300  0.304600  1.0  0.1107
  H  H76  1  0.406400  0.717000  0.367900  1.0  0.1469
  H  H77  1  0.376700  0.804500  0.392000  1.0  0.1179
  H  H78  1  0.506500  0.889000  0.363600  1.0  0.1285
  H  H79  1  0.503300  0.819000  0.330400  1.0  0.1496
  H  H80  1  0.197400  0.771100  0.305600  1.0  0.1386
  H  H81  1  0.271600  0.685900  0.311200  1.0  0.1522
  H  H82  1  0.308100  0.787200  0.297800  1.0  0.1343
  H  H83  1  0.287800  0.947100  0.395500  1.0  0.1279
  H  H84  1  0.184600  0.945200  0.378100  1.0  0.1473
  H  H85  1  0.258300  0.028100  0.368700  1.0  0.1518
  H  H86  1  0.931900  0.166600  0.353800  1.0  0.109
  H  H87  1  0.914500  0.098400  0.285500  1.0  0.1037
  H  H88  1  0.952700  0.200900  0.298300  1.0  0.1148
  H  H89  1  0.761400  0.153000  0.281300  1.0  0.1029
  H  H90  1  0.804400  0.258300  0.284900  1.0  0.0977
  H  H91  1  0.756000  0.317600  0.371900  1.0  0.1361
  H  H92  1  0.764000  0.362200  0.334200  1.0  0.1487
  H  H93  1  0.853100  0.307700  0.350700  1.0  0.121
  H  H94  1  0.672300  0.038800  0.352500  1.0  0.1345
  H  H95  1  0.765600  0.974600  0.357300  1.0  0.1423
  H  H96  1  0.737900  0.014500  0.320100  1.0  0.1293
  H  H97  1  0.905300  0.382900  0.695400  1.0  0.1084
  H  H98  1  0.717000  0.406400  0.632100  1.0  0.1485
  H  H99  1  0.804500  0.376700  0.608000  1.0  0.1179
  H  H100  1  0.889000  0.506500  0.636400  1.0  0.1287
  H  H101  1  0.819000  0.503300  0.669600  1.0  0.1498
  H  H102  1  0.771100  0.197400  0.694400  1.0  0.1387
  H  H103  1  0.685900  0.271600  0.688800  1.0  0.1541
  H  H104  1  0.787200  0.308100  0.702200  1.0  0.1367
  H  H105  1  0.947100  0.287800  0.604500  1.0  0.1303
  H  H106  1  0.945200  0.184600  0.621900  1.0  0.1435
  H  H107  1  0.028100  0.258300  0.631300  1.0  0.1482
  H  H108  1  0.166600  0.931900  0.646200  1.0  0.1109
  H  H109  1  0.098400  0.914500  0.714500  1.0  0.1046
  H  H110  1  0.200900  0.952700  0.701700  1.0  0.1124
  H  H111  1  0.153000  0.761400  0.718700  1.0  0.1028
  H  H112  1  0.258300  0.804400  0.715100  1.0  0.0939
  H  H113  1  0.317600  0.756000  0.628100  1.0  0.1338
  H  H114  1  0.362200  0.764000  0.665800  1.0  0.1483
  H  H115  1  0.307700  0.853100  0.649300  1.0  0.1217
  H  H116  1  0.038800  0.672300  0.647500  1.0  0.1371
  H  H117  1  0.974600  0.765600  0.642700  1.0  0.1425
  H  H118  1  0.014500  0.737900  0.679900  1.0  0.13
  H  H119  1  0.094700  0.617100  0.195400  1.0  0.1091
  H  H120  1  0.283000  0.593600  0.132100  1.0  0.1447
  H  H121  1  0.195500  0.623300  0.108000  1.0  0.1179
  H  H122  1  0.111000  0.493500  0.136400  1.0  0.1279
  H  H123  1  0.181000  0.496700  0.169600  1.0  0.1517
  H  H124  1  0.228900  0.802600  0.194400  1.0  0.1388
  H  H125  1  0.314100  0.728400  0.188800  1.0  0.1529
  H  H126  1  0.212800  0.691900  0.202200  1.0  0.1378
  H  H127  1  0.052900  0.712200  0.104500  1.0  0.1286
  H  H128  1  0.054800  0.815400  0.121900  1.0  0.1453
  H  H129  1  0.971900  0.741700  0.131300  1.0  0.1494
  H  H130  1  0.833400  0.068100  0.146200  1.0  0.111
  H  H131  1  0.901600  0.085500  0.214500  1.0  0.1043
  H  H132  1  0.799100  0.047300  0.201700  1.0  0.1127
  H  H133  1  0.847000  0.238600  0.218700  1.0  0.102
  H  H134  1  0.741700  0.195600  0.215100  1.0  0.0948
  H  H135  1  0.682400  0.244000  0.128100  1.0  0.1337
  H  H136  1  0.637800  0.236000  0.165800  1.0  0.1478
  H  H137  1  0.692300  0.146900  0.149300  1.0  0.1219
  H  H138  1  0.961200  0.327700  0.147500  1.0  0.1378
  H  H139  1  0.025400  0.234400  0.142700  1.0  0.1421
  H  H140  1  0.985500  0.262100  0.179900  1.0  0.1297
  H  H141  1  0.882900  0.594700  0.945400  1.0  0.1094
  H  H142  1  0.906400  0.783000  0.882100  1.0  0.1511
  H  H143  1  0.876700  0.695500  0.858000  1.0  0.1174
  H  H144  1  0.006500  0.611000  0.886400  1.0  0.1279
  H  H145  1  0.003300  0.681000  0.919600  1.0  0.1494
  H  H146  1  0.697400  0.728900  0.944400  1.0  0.1407
  H  H147  1  0.771600  0.814100  0.938800  1.0  0.1515
  H  H148  1  0.808100  0.712800  0.952200  1.0  0.1362
  H  H149  1  0.787800  0.552900  0.854500  1.0  0.1285
  H  H150  1  0.684600  0.554800  0.871900  1.0  0.1466
  H  H151  1  0.758300  0.471900  0.881300  1.0  0.1486
  H  H152  1  0.431900  0.333400  0.896200  1.0  0.1098
  H  H153  1  0.414500  0.401600  0.964500  1.0  0.104
  H  H154  1  0.452700  0.299100  0.951700  1.0  0.113
  H  H155  1  0.261400  0.347000  0.968700  1.0  0.1026
  H  H156  1  0.304400  0.241700  0.965100  1.0  0.0931
  H  H157  1  0.256000  0.182400  0.878100  1.0  0.1332
  H  H158  1  0.264000  0.137800  0.915800  1.0  0.1485
  H  H159  1  0.353100  0.192300  0.899300  1.0  0.1211
  H  H160  1  0.172300  0.461200  0.897500  1.0  0.136
  H  H161  1  0.265600  0.525400  0.892700  1.0  0.1425
  H  H162  1  0.237900  0.485500  0.929900  1.0  0.1283
  H  H163  1  0.117100  0.405300  0.445400  1.0  0.1086
  H  H164  1  0.093600  0.217000  0.382100  1.0  0.1474
  H  H165  1  0.123300  0.304500  0.358000  1.0  0.1168
  H  H166  1  0.993500  0.389000  0.386400  1.0  0.1281
  H  H167  1  0.996700  0.319000  0.419600  1.0  0.149
  H  H168  1  0.302600  0.271100  0.444400  1.0  0.1379
  H  H169  1  0.228400  0.185900  0.438800  1.0  0.1525
  H  H170  1  0.191900  0.287200  0.452200  1.0  0.1363
  H  H171  1  0.212200  0.447100  0.354500  1.0  0.1284
  H  H172  1  0.315400  0.445200  0.371900  1.0  0.1477
  H  H173  1  0.241700  0.528100  0.381300  1.0  0.1515
  H  H174  1  0.568100  0.666667  0.396200  1.0  0.1095
  H  H175  1  0.585500  0.598400  0.464500  1.0  0.1059
  H  H176  1  0.547300  0.700900  0.451700  1.0  0.1127
  H  H177  1  0.738600  0.653000  0.468700  1.0  0.1016
  H  H178  1  0.695600  0.758300  0.465100  1.0  0.0971
  H  H179  1  0.744000  0.817600  0.378100  1.0  0.1332
  H  H180  1  0.736000  0.862200  0.415800  1.0  0.1479
  H  H181  1  0.646900  0.807700  0.399300  1.0  0.1193
  H  H182  1  0.827700  0.538800  0.397500  1.0  0.133
  H  H183  1  0.734400  0.474600  0.392700  1.0  0.1424
  H  H184  1  0.762100  0.514500  0.429900  1.0  0.1297
  C  C185  1  0.576800  0.886700  0.079500  1.0  -0.1434
  C  C186  1  0.599100  0.790400  0.095700  1.0  0.009
  C  C187  1  0.713300  0.777800  0.099500  1.0  0.068
  C  C188  1  0.716500  0.882900  0.117800  1.0  -0.2534
  C  C189  1  0.645500  0.964500  0.097400  1.0  -0.1934
  C  C190  1  0.745100  0.762300  0.062800  1.0  -0.3357
  C  C191  1  0.539500  0.751900  0.124500  1.0  -0.3696
  C  C192  1  0.473700  0.917500  0.081300  1.0  0.7082
  C  C193  1  0.743200  0.699100  0.124100  1.0  0.6278
  C  C194  1  0.291800  0.245300  0.082400  1.0  -0.0157
  C  C195  1  0.383900  0.296000  0.101400  1.0  -0.0023
  C  C196  1  0.383400  0.399100  0.089800  1.0  -0.166
  C  C197  1  0.348000  0.402800  0.051500  1.0  -0.1207
  C  C198  1  0.304400  0.299200  0.046300  1.0  -0.1935
  C  C199  1  0.190900  0.283500  0.099000  1.0  -0.3256
  C  C200  1  0.471600  0.237900  0.094800  1.0  -0.36
  C  C201  1  0.290100  0.134100  0.082700  1.0  0.6759
  C  C202  1  0.480700  0.449200  0.098900  1.0  0.6232
  C  C203  1  0.044300  0.941200  0.020000  1.0  0.1039
  C  C204  1  0.059000  0.894000  0.980300  1.0  -0.0448
  C  C205  1  0.952000  0.939000  0.041100  1.0  -0.0524
  C  C206  1  0.127600  0.937800  0.043300  1.0  0.7428
  C  C207  1  0.423200  0.113300  0.579500  1.0  -0.1405
  C  C208  1  0.400900  0.209600  0.595700  1.0  0.0103
  C  C209  1  0.286700  0.222200  0.599500  1.0  0.0679
  C  C210  1  0.283500  0.117100  0.617800  1.0  -0.2537
  C  C211  1  0.354500  0.035500  0.597400  1.0  -0.1937
  C  C212  1  0.254900  0.237700  0.562800  1.0  -0.3352
  C  C213  1  0.460500  0.248100  0.624500  1.0  -0.3699
  C  C214  1  0.526300  0.082500  0.581300  1.0  0.7082
  C  C215  1  0.256800  0.300900  0.624100  1.0  0.6266
  C  C216  1  0.708200  0.754700  0.582400  1.0  -0.0133
  C  C217  1  0.616100  0.704000  0.601400  1.0  -0.0045
  C  C218  1  0.616600  0.600900  0.589800  1.0  -0.1657
  C  C219  1  0.652000  0.597200  0.551500  1.0  -0.1217
  C  C220  1  0.695600  0.700800  0.546300  1.0  -0.1946
  C  C221  1  0.809100  0.716500  0.599000  1.0  -0.3255
  C  C222  1  0.528400  0.762100  0.594800  1.0  -0.3587
  C  C223  1  0.709900  0.865900  0.582700  1.0  0.676
  C  C224  1  0.519300  0.550800  0.598900  1.0  0.6204
  C  C225  1  0.955700  0.058800  0.520000  1.0  0.1034
  C  C226  1  0.941000  0.106000  0.480300  1.0  -0.0504
  C  C227  1  0.048000  0.061000  0.541100  1.0  -0.0528
  C  C228  1  0.872400  0.062200  0.543300  1.0  0.741
  C  C229  1  0.613300  0.076800  0.829500  1.0  -0.1436
  C  C230  1  0.709600  0.099100  0.845700  1.0  0.0109
  C  C231  1  0.722200  0.213300  0.849500  1.0  0.0699
  C  C232  1  0.617100  0.216500  0.867800  1.0  -0.2512
  C  C233  1  0.535500  0.145500  0.847400  1.0  -0.1993
  C  C234  1  0.737700  0.245100  0.812800  1.0  -0.3364
  C  C235  1  0.748100  0.039500  0.874500  1.0  -0.3715
  C  C236  1  0.582500  0.973700  0.831300  1.0  0.7082
  C  C237  1  0.800900  0.243200  0.874100  1.0  0.627
  C  C238  1  0.254700  0.791800  0.832400  1.0  -0.0168
  C  C239  1  0.204000  0.883900  0.851400  1.0  -0.0025
  C  C240  1  0.100900  0.883400  0.839800  1.0  -0.1691
  C  C241  1  0.097200  0.848000  0.801500  1.0  -0.1195
  C  C242  1  0.200800  0.804400  0.796300  1.0  -0.1929
  C  C243  1  0.216500  0.690900  0.849000  1.0  -0.3278
  C  C244  1  0.262100  0.971600  0.844800  1.0  -0.3598
  C  C245  1  0.365900  0.790100  0.832700  1.0  0.6757
  C  C246  1  0.050800  0.980700  0.848900  1.0  0.6234
  C  C247  1  0.558800  0.544300  0.770000  1.0  0.1034
  C  C248  1  0.606000  0.559000  0.730300  1.0  -0.0471
  C  C249  1  0.561000  0.452000  0.791100  1.0  -0.0499
  C  C250  1  0.562200  0.627600  0.793300  1.0  0.7435
  C  C251  1  0.386700  0.923200  0.329500  1.0  -0.1429
  C  C252  1  0.290400  0.900900  0.345700  1.0  0.0099
  C  C253  1  0.277800  0.786700  0.349500  1.0  0.0678
  C  C254  1  0.382900  0.783500  0.367800  1.0  -0.2527
  C  C255  1  0.464500  0.854500  0.347400  1.0  -0.1978
  C  C256  1  0.262300  0.754900  0.312800  1.0  -0.3346
  C  C257  1  0.251900  0.960500  0.374500  1.0  -0.3704
  C  C258  1  0.417500  0.026300  0.331300  1.0  0.7085
  C  C259  1  0.199100  0.756800  0.374100  1.0  0.6258
  C  C260  1  0.745300  0.208200  0.332400  1.0  -0.0146
  C  C261  1  0.796000  0.116100  0.351400  1.0  -0.0044
  C  C262  1  0.899100  0.116600  0.339800  1.0  -0.1668
  C  C263  1  0.902800  0.152000  0.301500  1.0  -0.1214
  C  C264  1  0.799200  0.195600  0.296300  1.0  -0.1928
  C  C265  1  0.783500  0.309100  0.349000  1.0  -0.3285
  C  C266  1  0.737900  0.028400  0.344800  1.0  -0.3593
  C  C267  1  0.634100  0.209900  0.332700  1.0  0.6768
  C  C268  1  0.949200  0.019300  0.348900  1.0  0.6223
  C  C269  1  0.441200  0.455700  0.270000  1.0  0.102
  C  C270  1  0.394000  0.441000  0.230300  1.0  -0.0462
  C  C271  1  0.439000  0.548000  0.291100  1.0  -0.0515
  C  C272  1  0.437800  0.372400  0.293300  1.0  0.7454
  C  C273  1  0.923200  0.386700  0.670500  1.0  -0.1394
  C  C274  1  0.900900  0.290400  0.654300  1.0  0.0131
  C  C275  1  0.786700  0.277800  0.650500  1.0  0.0682
  C  C276  1  0.783500  0.382900  0.632200  1.0  -0.252
  C  C277  1  0.854500  0.464500  0.652600  1.0  -0.1924
  C  C278  1  0.754900  0.262300  0.687200  1.0  -0.3363
  C  C279  1  0.960500  0.251900  0.625500  1.0  -0.3696
  C  C280  1  0.026300  0.417500  0.668700  1.0  0.7086
  C  C281  1  0.756800  0.199100  0.625900  1.0  0.6274
  C  C282  1  0.208200  0.745300  0.667600  1.0  -0.0159
  C  C283  1  0.116100  0.796000  0.648600  1.0  -0.0058
  C  C284  1  0.116600  0.899100  0.660200  1.0  -0.1661
  C  C285  1  0.152000  0.902800  0.698500  1.0  -0.1232
  C  C286  1  0.195600  0.799200  0.703700  1.0  -0.1955
  C  C287  1  0.309100  0.783500  0.651000  1.0  -0.3255
  C  C288  1  0.028400  0.737900  0.655200  1.0  -0.3596
  C  C289  1  0.209900  0.634100  0.667300  1.0  0.6766
  C  C290  1  0.019300  0.949200  0.651100  1.0  0.6213
  C  C291  1  0.455700  0.441200  0.730000  1.0  0.1051
  C  C292  1  0.441000  0.394000  0.769700  1.0  -0.0499
  C  C293  1  0.548000  0.439000  0.708900  1.0  -0.0537
  C  C294  1  0.372400  0.437800  0.706700  1.0  0.7399
  C  C295  1  0.076800  0.613300  0.170500  1.0  -0.1402
  C  C296  1  0.099100  0.709600  0.154300  1.0  0.0093
  C  C297  1  0.213300  0.722200  0.150500  1.0  0.0693
  C  C298  1  0.216500  0.617100  0.132200  1.0  -0.2522
  C  C299  1  0.145500  0.535500  0.152600  1.0  -0.1922
  C  C300  1  0.245100  0.737700  0.187200  1.0  -0.3379
  C  C301  1  0.039500  0.748100  0.125500  1.0  -0.3686
  C  C302  1  0.973700  0.582500  0.168700  1.0  0.7069
  C  C303  1  0.243200  0.800900  0.125900  1.0  0.6272
  C  C304  1  0.791800  0.254700  0.167600  1.0  -0.0148
  C  C305  1  0.883900  0.204000  0.148600  1.0  -0.0049
  C  C306  1  0.883400  0.100900  0.160200  1.0  -0.1668
  C  C307  1  0.848000  0.097200  0.198500  1.0  -0.1215
  C  C308  1  0.804400  0.200800  0.203700  1.0  -0.1967
  C  C309  1  0.690900  0.216500  0.151000  1.0  -0.3253
  C  C310  1  0.971600  0.262100  0.155200  1.0  -0.361
  C  C311  1  0.790100  0.365900  0.167300  1.0  0.6757
  C  C312  1  0.980700  0.050800  0.151100  1.0  0.6216
  C  C313  1  0.544300  0.558800  0.230000  1.0  0.1041
  C  C314  1  0.559000  0.606000  0.269700  1.0  -0.0499
  C  C315  1  0.452000  0.561000  0.208900  1.0  -0.0501
  C  C316  1  0.627600  0.562200  0.206700  1.0  0.7413
  C  C317  1  0.886700  0.576800  0.920500  1.0  -0.1387
  C  C318  1  0.790400  0.599100  0.904300  1.0  0.0098
  C  C319  1  0.777800  0.713300  0.900500  1.0  0.0697
  C  C320  1  0.882900  0.716500  0.882200  1.0  -0.2495
  C  C321  1  0.964500  0.645500  0.902600  1.0  -0.1964
  C  C322  1  0.762300  0.745100  0.937200  1.0  -0.3368
  C  C323  1  0.751900  0.539500  0.875500  1.0  -0.3699
  C  C324  1  0.917500  0.473700  0.918700  1.0  0.7088
  C  C325  1  0.699100  0.743200  0.875900  1.0  0.6259
  C  C326  1  0.245300  0.291800  0.917600  1.0  -0.0173
  C  C327  1  0.296000  0.383900  0.898600  1.0  -0.006
  C  C328  1  0.399100  0.383400  0.910200  1.0  -0.1659
  C  C329  1  0.402800  0.348000  0.948500  1.0  -0.1218
  C  C330  1  0.299200  0.304400  0.953700  1.0  -0.1948
  C  C331  1  0.283500  0.190900  0.901000  1.0  -0.3273
  C  C332  1  0.237900  0.471600  0.905200  1.0  -0.3603
  C  C333  1  0.134100  0.290100  0.917300  1.0  0.6765
  C  C334  1  0.449200  0.480700  0.901100  1.0  0.6224
  C  C335  1  0.941200  0.044300  0.980000  1.0  0.1034
  C  C336  1  0.894000  0.059000  0.019700  1.0  -0.0503
  C  C337  1  0.939000  0.952000  0.958900  1.0  -0.0493
  C  C338  1  0.937800  0.127600  0.956700  1.0  0.7429
  C  C339  1  0.113300  0.423200  0.420500  1.0  -0.1406
  C  C340  1  0.209600  0.400900  0.404300  1.0  0.0129
  C  C341  1  0.222200  0.286700  0.400500  1.0  0.0701
  C  C342  1  0.117100  0.283500  0.382200  1.0  -0.2495
  C  C343  1  0.035500  0.354500  0.402600  1.0  -0.1981
  C  C344  1  0.237700  0.254900  0.437200  1.0  -0.3358
  C  C345  1  0.248100  0.460500  0.375500  1.0  -0.3704
  C  C346  1  0.082500  0.526300  0.418700  1.0  0.7077
  C  C347  1  0.300900  0.256800  0.375900  1.0  0.627
  C  C348  1  0.754700  0.708200  0.417600  1.0  -0.0156
  C  C349  1  0.704000  0.616100  0.398600  1.0  -0.006
  C  C350  1  0.600900  0.616600  0.410200  1.0  -0.1705
  C  C351  1  0.597200  0.652000  0.448500  1.0  -0.1215
  C  C352  1  0.700800  0.695600  0.453700  1.0  -0.1942
  C  C353  1  0.716500  0.809100  0.401000  1.0  -0.3286
  C  C354  1  0.762100  0.528400  0.405200  1.0  -0.361
  C  C355  1  0.865900  0.709900  0.417300  1.0  0.6763
  C  C356  1  0.550800  0.519300  0.401100  1.0  0.6203
  C  C357  1  0.058800  0.955700  0.480000  1.0  0.1039
  C  C358  1  0.106000  0.941000  0.519700  1.0  -0.0481
  C  C359  1  0.061000  0.048000  0.458900  1.0  -0.0499
  C  C360  1  0.062200  0.872400  0.456700  1.0  0.7432
  C  C361  1  0.036000  0.036000  0.000000  1.0  0.2333
  C  C362  1  0.098000  0.098000  0.000000  1.0  -0.0261
  C  C363  1  0.964000  0.964000  0.500000  1.0  0.2343
  C  C364  1  0.902000  0.902000  0.500000  1.0  -0.0261
  C  C365  1  0.464000  0.536000  0.750000  1.0  0.2332
  C  C366  1  0.402000  0.598000  0.750000  1.0  -0.0254
  C  C367  1  0.536000  0.464000  0.250000  1.0  0.2345
  C  C368  1  0.598000  0.402000  0.250000  1.0  -0.0264
  O  O369  1  0.417500  0.893000  0.056600  1.0  -0.605
  O  O370  1  0.438800  0.954200  0.108800  1.0  -0.5669
  O  O371  1  0.737800  0.608300  0.112100  1.0  -0.573
  O  O372  1  0.767700  0.712000  0.154400  1.0  -0.5356
  O  O373  1  0.315400  0.089000  0.056500  1.0  -0.5289
  O  O374  1  0.269200  0.096300  0.111300  1.0  -0.5529
  O  O375  1  0.530000  0.467000  0.074700  1.0  -0.3979
  O  O376  1  0.488900  0.467100  0.130200  1.0  -0.5275
  O  O377  1  0.207900  0.909700  0.032400  1.0  -0.5819
  O  O378  1  0.124500  0.968900  0.074300  1.0  -0.5921
  O  O379  1  0.582500  0.107000  0.556600  1.0  -0.6059
  O  O380  1  0.561200  0.045800  0.608800  1.0  -0.5667
  O  O381  1  0.262200  0.391700  0.612100  1.0  -0.5739
  O  O382  1  0.232300  0.288000  0.654400  1.0  -0.5367
  O  O383  1  0.684600  0.911000  0.556500  1.0  -0.5298
  O  O384  1  0.730800  0.903700  0.611300  1.0  -0.5513
  O  O385  1  0.470000  0.533000  0.574700  1.0  -0.3999
  O  O386  1  0.511100  0.532900  0.630200  1.0  -0.5281
  O  O387  1  0.792100  0.090300  0.532400  1.0  -0.5812
  O  O388  1  0.875500  0.031100  0.574300  1.0  -0.5913
  O  O389  1  0.607000  0.917500  0.806600  1.0  -0.6059
  O  O390  1  0.545800  0.938800  0.858800  1.0  -0.5664
  O  O391  1  0.891700  0.237800  0.862100  1.0  -0.5712
  O  O392  1  0.788000  0.267700  0.904400  1.0  -0.5346
  O  O393  1  0.411000  0.815400  0.806500  1.0  -0.5301
  O  O394  1  0.403700  0.769200  0.861300  1.0  -0.552
  O  O395  1  0.033000  0.030000  0.824700  1.0  -0.3963
  O  O396  1  0.032900  0.988900  0.880200  1.0  -0.5261
  O  O397  1  0.590300  0.707900  0.782400  1.0  -0.5833
  O  O398  1  0.531100  0.624500  0.824300  1.0  -0.5909
  O  O399  1  0.393000  0.082500  0.306600  1.0  -0.6062
  O  O400  1  0.454200  0.061200  0.358800  1.0  -0.5661
  O  O401  1  0.108300  0.762200  0.362100  1.0  -0.5711
  O  O402  1  0.212000  0.732300  0.404400  1.0  -0.5338
  O  O403  1  0.589000  0.184600  0.306500  1.0  -0.5322
  O  O404  1  0.596300  0.230800  0.361300  1.0  -0.5536
  O  O405  1  0.967000  0.970000  0.324700  1.0  -0.3986
  O  O406  1  0.967100  0.011100  0.380200  1.0  -0.526
  O  O407  1  0.409700  0.292100  0.282400  1.0  -0.5848
  O  O408  1  0.468900  0.375500  0.324300  1.0  -0.5913
  O  O409  1  0.082500  0.393000  0.693400  1.0  -0.6055
  O  O410  1  0.061200  0.454200  0.641200  1.0  -0.5653
  O  O411  1  0.762200  0.108300  0.637900  1.0  -0.5738
  O  O412  1  0.732300  0.212000  0.595600  1.0  -0.5376
  O  O413  1  0.184600  0.589000  0.693500  1.0  -0.5345
  O  O414  1  0.230800  0.596300  0.638700  1.0  -0.552
  O  O415  1  0.970000  0.967000  0.675300  1.0  -0.4018
  O  O416  1  0.011100  0.967100  0.619800  1.0  -0.5266
  O  O417  1  0.292100  0.409700  0.717600  1.0  -0.5808
  O  O418  1  0.375500  0.468900  0.675700  1.0  -0.5926
  O  O419  1  0.917500  0.607000  0.193400  1.0  -0.6054
  O  O420  1  0.938800  0.545800  0.141200  1.0  -0.5658
  O  O421  1  0.237800  0.891700  0.137900  1.0  -0.5731
  O  O422  1  0.267700  0.788000  0.095600  1.0  -0.5371
  O  O423  1  0.815400  0.411000  0.193500  1.0  -0.5339
  O  O424  1  0.769200  0.403700  0.138700  1.0  -0.5514
  O  O425  1  0.030000  0.033000  0.175300  1.0  -0.3999
  O  O426  1  0.988900  0.032900  0.119800  1.0  -0.5271
  O  O427  1  0.707900  0.590300  0.217600  1.0  -0.5796
  O  O428  1  0.624500  0.531100  0.175700  1.0  -0.5922
  O  O429  1  0.893000  0.417500  0.943400  1.0  -0.6069
  O  O430  1  0.954200  0.438800  0.891200  1.0  -0.5653
  O  O431  1  0.608300  0.737800  0.887900  1.0  -0.5724
  O  O432  1  0.712000  0.767700  0.845600  1.0  -0.536
  O  O433  1  0.089000  0.315400  0.943500  1.0  -0.5359
  O  O434  1  0.096300  0.269200  0.888700  1.0  -0.5518
  O  O435  1  0.467000  0.530000  0.925300  1.0  -0.3982
  O  O436  1  0.467100  0.488900  0.869800  1.0  -0.5248
  O  O437  1  0.909700  0.207900  0.967600  1.0  -0.583
  O  O438  1  0.968900  0.124500  0.925700  1.0  -0.5916
  O  O439  1  0.107000  0.582500  0.443400  1.0  -0.6055
  O  O440  1  0.045800  0.561200  0.391200  1.0  -0.5648
  O  O441  1  0.391700  0.262200  0.387900  1.0  -0.5707
  O  O442  1  0.288000  0.232300  0.345600  1.0  -0.5352
  O  O443  1  0.911000  0.684600  0.443500  1.0  -0.5344
  O  O444  1  0.903700  0.730800  0.388700  1.0  -0.5528
  O  O445  1  0.533000  0.470000  0.425300  1.0  -0.3991
  O  O446  1  0.532900  0.511100  0.369800  1.0  -0.5257
  O  O447  1  0.090300  0.792100  0.467600  1.0  -0.582
  O  O448  1  0.031100  0.875500  0.425700  1.0  -0.592
