# generated using pymatgen
data_InH28(C5O2)4
_symmetry_space_group_name_H-M   'P 1'
_cell_length_a   12.33980000
_cell_length_b   13.49580000
_cell_length_c   16.97990000
_cell_angle_alpha   90.00000000
_cell_angle_beta   90.00000000
_cell_angle_gamma   90.00000000
_symmetry_Int_Tables_number   1
_chemical_formula_structural   InH28(C5O2)4
_chemical_formula_sum   'In4 H112 C80 O32'
_cell_volume   2827.75567528
_cell_formula_units_Z   4
loop_
 _symmetry_equiv_pos_site_id
 _symmetry_equiv_pos_as_xyz
  1  'x, y, z'
loop_
 _atom_site_type_symbol
 _atom_site_label
 _atom_site_symmetry_multiplicity
 _atom_site_fract_x
 _atom_site_fract_y
 _atom_site_fract_z
 _atom_site_occupancy
 _atom_site_charge
  In  In1  1  0.286030  0.104860  0.130980  1.0  1.5284
  In  In2  1  0.213970  0.895140  0.630980  1.0  1.5278
  In  In3  1  0.713970  0.604860  0.369020  1.0  1.5268
  In  In4  1  0.786030  0.395140  0.869020  1.0  1.5284
  H  H5  1  0.431800  0.503600  0.904600  1.0  0.1111
  H  H6  1  0.334200  0.422900  0.817000  1.0  0.0994
  H  H7  1  0.430500  0.348300  0.802400  1.0  0.0917
  H  H8  1  0.365900  0.238000  0.889300  1.0  0.0906
  H  H9  1  0.254400  0.286500  0.865300  1.0  0.0979
  H  H10  1  0.153800  0.384000  0.963600  1.0  0.1355
  H  H11  1  0.234100  0.466000  0.934200  1.0  0.1214
  H  H12  1  0.219000  0.447500  0.024700  1.0  0.1197
  H  H13  1  0.491200  0.284500  0.062000  1.0  0.1222
  H  H14  1  0.581200  0.340500  0.014400  1.0  0.124
  H  H15  1  0.511900  0.257900  0.973400  1.0  0.1282
  H  H16  1  0.410600  0.437000  0.099400  1.0  0.1493
  H  H17  1  0.372400  0.516200  0.037800  1.0  0.125
  H  H18  1  0.496400  0.498400  0.051900  1.0  0.1397
  H  H19  1  0.523800  0.649600  0.147100  1.0  0.1036
  H  H20  1  0.363600  0.598900  0.181100  1.0  0.0846
  H  H21  1  0.373300  0.644300  0.266400  1.0  0.0908
  H  H22  1  0.292500  0.783500  0.230800  1.0  0.0919
  H  H23  1  0.251700  0.723500  0.157000  1.0  0.0841
  H  H24  1  0.428300  0.810600  0.014100  1.0  0.1246
  H  H25  1  0.309400  0.773500  0.028000  1.0  0.1294
  H  H26  1  0.407500  0.703400  0.046300  1.0  0.1221
  H  H27  1  0.591300  0.894800  0.102900  1.0  0.1333
  H  H28  1  0.589000  0.787500  0.067600  1.0  0.1292
  H  H29  1  0.662700  0.811100  0.140400  1.0  0.1305
  H  H30  1  0.453700  0.845400  0.280200  1.0  0.1206
  H  H31  1  0.506700  0.930600  0.230600  1.0  0.1318
  H  H32  1  0.579800  0.849200  0.269500  1.0  0.1241
  H  H33  1  0.068200  0.496400  0.404600  1.0  0.107
  H  H34  1  0.165800  0.577100  0.317000  1.0  0.0995
  H  H35  1  0.069500  0.651700  0.302400  1.0  0.0924
  H  H36  1  0.134100  0.762000  0.389300  1.0  0.0932
  H  H37  1  0.245600  0.713500  0.365300  1.0  0.0999
  H  H38  1  0.346200  0.616000  0.463600  1.0  0.1372
  H  H39  1  0.265900  0.534000  0.434200  1.0  0.1207
  H  H40  1  0.281000  0.552500  0.524700  1.0  0.1209
  H  H41  1  0.008800  0.715500  0.562000  1.0  0.1223
  H  H42  1  0.918800  0.659500  0.514400  1.0  0.1229
  H  H43  1  0.988100  0.742100  0.473400  1.0  0.1294
  H  H44  1  0.089400  0.563000  0.599400  1.0  0.1497
  H  H45  1  0.127600  0.483800  0.537800  1.0  0.1255
  H  H46  1  0.003600  0.501600  0.551900  1.0  0.1392
  H  H47  1  0.976200  0.350400  0.647100  1.0  0.1044
  H  H48  1  0.136400  0.401100  0.681100  1.0  0.0835
  H  H49  1  0.126700  0.355700  0.766400  1.0  0.0916
  H  H50  1  0.207500  0.216500  0.730800  1.0  0.0915
  H  H51  1  0.248300  0.276500  0.657000  1.0  0.0821
  H  H52  1  0.071700  0.189400  0.514100  1.0  0.1254
  H  H53  1  0.190600  0.226500  0.528000  1.0  0.1284
  H  H54  1  0.092500  0.296600  0.546300  1.0  0.1237
  H  H55  1  0.908700  0.105200  0.602900  1.0  0.1305
  H  H56  1  0.911000  0.212500  0.567600  1.0  0.1294
  H  H57  1  0.837300  0.188900  0.640400  1.0  0.1294
  H  H58  1  0.046300  0.154600  0.780200  1.0  0.121
  H  H59  1  0.993300  0.069400  0.730600  1.0  0.1316
  H  H60  1  0.920200  0.150800  0.769500  1.0  0.1218
  H  H61  1  0.568200  0.003600  0.595400  1.0  0.1109
  H  H62  1  0.665800  0.922900  0.683000  1.0  0.1002
  H  H63  1  0.569500  0.848300  0.697600  1.0  0.0928
  H  H64  1  0.634100  0.738000  0.610700  1.0  0.0909
  H  H65  1  0.745600  0.786500  0.634700  1.0  0.1002
  H  H66  1  0.846200  0.884000  0.536400  1.0  0.1363
  H  H67  1  0.765900  0.966000  0.565800  1.0  0.1208
  H  H68  1  0.781000  0.947500  0.475300  1.0  0.1209
  H  H69  1  0.508800  0.784500  0.438000  1.0  0.1224
  H  H70  1  0.418800  0.840500  0.485600  1.0  0.1224
  H  H71  1  0.488100  0.757900  0.526600  1.0  0.1289
  H  H72  1  0.589400  0.937000  0.400600  1.0  0.1501
  H  H73  1  0.627600  0.016200  0.462200  1.0  0.1252
  H  H74  1  0.503600  0.998400  0.448100  1.0  0.1398
  H  H75  1  0.476200  0.149600  0.352900  1.0  0.1045
  H  H76  1  0.636400  0.098900  0.318900  1.0  0.0852
  H  H77  1  0.626700  0.144300  0.233600  1.0  0.0919
  H  H78  1  0.707500  0.283500  0.269200  1.0  0.0925
  H  H79  1  0.748300  0.223500  0.343000  1.0  0.0822
  H  H80  1  0.571700  0.310600  0.485900  1.0  0.1257
  H  H81  1  0.690600  0.273500  0.472000  1.0  0.1274
  H  H82  1  0.592500  0.203400  0.453700  1.0  0.1238
  H  H83  1  0.408700  0.394800  0.397100  1.0  0.1347
  H  H84  1  0.411000  0.287500  0.432400  1.0  0.1305
  H  H85  1  0.337300  0.311100  0.359600  1.0  0.13
  H  H86  1  0.546300  0.345400  0.219800  1.0  0.121
  H  H87  1  0.493300  0.430600  0.269400  1.0  0.1324
  H  H88  1  0.420200  0.349200  0.230500  1.0  0.1232
  H  H89  1  0.931800  0.996400  0.095400  1.0  0.1067
  H  H90  1  0.834200  0.077100  0.183000  1.0  0.1002
  H  H91  1  0.930500  0.151700  0.197600  1.0  0.092
  H  H92  1  0.865900  0.262000  0.110700  1.0  0.092
  H  H93  1  0.754400  0.213500  0.134700  1.0  0.0982
  H  H94  1  0.653800  0.116000  0.036400  1.0  0.1353
  H  H95  1  0.734100  0.034000  0.065800  1.0  0.1227
  H  H96  1  0.719000  0.052500  0.975300  1.0  0.1197
  H  H97  1  0.991200  0.215500  0.938000  1.0  0.1231
  H  H98  1  0.081200  0.159500  0.985600  1.0  0.1241
  H  H99  1  0.011900  0.242100  0.026600  1.0  0.1279
  H  H100  1  0.910600  0.063000  0.900600  1.0  0.1496
  H  H101  1  0.872400  0.983800  0.962200  1.0  0.1244
  H  H102  1  0.996400  0.001600  0.948100  1.0  0.139
  H  H103  1  0.023800  0.850400  0.852900  1.0  0.1037
  H  H104  1  0.863600  0.901100  0.818900  1.0  0.0839
  H  H105  1  0.873300  0.855700  0.733600  1.0  0.0916
  H  H106  1  0.792500  0.716500  0.769200  1.0  0.092
  H  H107  1  0.751700  0.776500  0.843000  1.0  0.0842
  H  H108  1  0.928300  0.689400  0.985900  1.0  0.1263
  H  H109  1  0.809400  0.726500  0.972000  1.0  0.1309
  H  H110  1  0.907500  0.796600  0.953700  1.0  0.1246
  H  H111  1  0.091300  0.605200  0.897100  1.0  0.133
  H  H112  1  0.089000  0.712500  0.932400  1.0  0.1295
  H  H113  1  0.162700  0.688900  0.859600  1.0  0.1308
  H  H114  1  0.953700  0.654600  0.719800  1.0  0.1208
  H  H115  1  0.006700  0.569400  0.769400  1.0  0.1318
  H  H116  1  0.079800  0.650800  0.730500  1.0  0.1243
  C  C117  1  0.312600  0.341000  0.972100  1.0  0.0148
  C  C118  1  0.426800  0.389300  0.986100  1.0  0.1933
  C  C119  1  0.454300  0.434000  0.904500  1.0  -0.1564
  C  C120  1  0.384700  0.378100  0.842400  1.0  -0.0924
  C  C121  1  0.324900  0.299300  0.888500  1.0  -0.1493
  C  C122  1  0.221500  0.416600  0.973800  1.0  -0.3581
  C  C123  1  0.510700  0.310700  0.011400  1.0  -0.3602
  C  C124  1  0.426500  0.467300  0.049500  1.0  -0.35
  C  C125  1  0.292800  0.261300  0.035000  1.0  0.6518
  C  C126  1  0.576600  0.430300  0.889000  1.0  0.67
  C  C127  1  0.386500  0.810200  0.131500  1.0  0.011
  C  C128  1  0.501800  0.798400  0.170400  1.0  0.1754
  C  C129  1  0.501100  0.686900  0.193700  1.0  -0.1944
  C  C130  1  0.383400  0.657600  0.210700  1.0  -0.1167
  C  C131  1  0.315600  0.745800  0.185200  1.0  -0.1704
  C  C132  1  0.382500  0.770700  0.047100  1.0  -0.3677
  C  C133  1  0.594800  0.825500  0.115200  1.0  -0.3479
  C  C134  1  0.511400  0.861800  0.244600  1.0  -0.37
  C  C135  1  0.351900  0.918400  0.130700  1.0  0.6309
  C  C136  1  0.580600  0.662000  0.258900  1.0  0.6388
  C  C137  1  0.187400  0.659000  0.472100  1.0  0.0156
  C  C138  1  0.073200  0.610700  0.486100  1.0  0.1935
  C  C139  1  0.045700  0.566000  0.404500  1.0  -0.1578
  C  C140  1  0.115300  0.621900  0.342400  1.0  -0.092
  C  C141  1  0.175100  0.700700  0.388500  1.0  -0.149
  C  C142  1  0.278500  0.583400  0.473800  1.0  -0.356
  C  C143  1  0.989300  0.689300  0.511400  1.0  -0.3625
  C  C144  1  0.073500  0.532700  0.549500  1.0  -0.3501
  C  C145  1  0.207200  0.738700  0.535000  1.0  0.6511
  C  C146  1  0.923400  0.569700  0.389000  1.0  0.6721
  C  C147  1  0.113500  0.189800  0.631500  1.0  0.0084
  C  C148  1  0.998200  0.201600  0.670400  1.0  0.1764
  C  C149  1  0.998900  0.313100  0.693700  1.0  -0.199
  C  C150  1  0.116600  0.342400  0.710700  1.0  -0.1168
  C  C151  1  0.184400  0.254200  0.685200  1.0  -0.1727
  C  C152  1  0.117500  0.229300  0.547100  1.0  -0.3692
  C  C153  1  0.905200  0.174500  0.615200  1.0  -0.3486
  C  C154  1  0.988600  0.138200  0.744600  1.0  -0.3703
  C  C155  1  0.148100  0.081600  0.630700  1.0  0.6309
  C  C156  1  0.919400  0.338000  0.758900  1.0  0.6346
  C  C157  1  0.687400  0.841000  0.527900  1.0  0.0132
  C  C158  1  0.573200  0.889300  0.513900  1.0  0.194
  C  C159  1  0.545700  0.934000  0.595500  1.0  -0.1567
  C  C160  1  0.615300  0.878100  0.657600  1.0  -0.0913
  C  C161  1  0.675100  0.799300  0.611500  1.0  -0.1503
  C  C162  1  0.778500  0.916600  0.526200  1.0  -0.3562
  C  C163  1  0.489300  0.810700  0.488600  1.0  -0.3612
  C  C164  1  0.573500  0.967300  0.450500  1.0  -0.3501
  C  C165  1  0.707200  0.761300  0.465000  1.0  0.6503
  C  C166  1  0.423400  0.930300  0.611000  1.0  0.674
  C  C167  1  0.613500  0.310200  0.368500  1.0  0.0111
  C  C168  1  0.498200  0.298400  0.329600  1.0  0.1765
  C  C169  1  0.498900  0.186900  0.306300  1.0  -0.1949
  C  C170  1  0.616600  0.157600  0.289300  1.0  -0.1169
  C  C171  1  0.684400  0.245800  0.314800  1.0  -0.1716
  C  C172  1  0.617500  0.270700  0.452900  1.0  -0.367
  C  C173  1  0.405200  0.325500  0.384800  1.0  -0.3494
  C  C174  1  0.488600  0.361800  0.255400  1.0  -0.371
  C  C175  1  0.648100  0.418400  0.369300  1.0  0.6316
  C  C176  1  0.419400  0.162000  0.241100  1.0  0.6339
  C  C177  1  0.812600  0.159000  0.027900  1.0  0.0144
  C  C178  1  0.926800  0.110700  0.013900  1.0  0.194
  C  C179  1  0.954300  0.066000  0.095500  1.0  -0.1546
  C  C180  1  0.884700  0.121900  0.157600  1.0  -0.0903
  C  C181  1  0.824900  0.200700  0.111500  1.0  -0.152
  C  C182  1  0.721500  0.083400  0.026200  1.0  -0.3586
  C  C183  1  0.010700  0.189300  0.988600  1.0  -0.3604
  C  C184  1  0.926500  0.032700  0.950500  1.0  -0.3503
  C  C185  1  0.792800  0.238700  0.965000  1.0  0.6528
  C  C186  1  0.076600  0.069700  0.111000  1.0  0.6756
  C  C187  1  0.886500  0.689800  0.868500  1.0  0.0114
  C  C188  1  0.001800  0.701600  0.829600  1.0  0.1756
  C  C189  1  0.001100  0.813100  0.806300  1.0  -0.1972
  C  C190  1  0.883400  0.842400  0.789300  1.0  -0.1151
  C  C191  1  0.815600  0.754200  0.814800  1.0  -0.1686
  C  C192  1  0.882500  0.729300  0.952900  1.0  -0.3672
  C  C193  1  0.094800  0.674500  0.884800  1.0  -0.3485
  C  C194  1  0.011400  0.638200  0.755400  1.0  -0.3716
  C  C195  1  0.851900  0.581600  0.869300  1.0  0.6278
  C  C196  1  0.080600  0.838000  0.741100  1.0  0.6394
  O  O197  1  0.270700  0.285000  0.104120  1.0  -0.6035
  O  O198  1  0.305500  0.170700  0.015720  1.0  -0.5956
  O  O199  1  0.636200  0.484600  0.929700  1.0  -0.6051
  O  O200  1  0.614900  0.372500  0.837370  1.0  -0.6113
  O  O201  1  0.378200  0.973900  0.073690  1.0  -0.5783
  O  O202  1  0.295800  0.953600  0.187280  1.0  -0.597
  O  O203  1  0.680800  0.661100  0.244420  1.0  -0.5629
  O  O204  1  0.546700  0.641200  0.327170  1.0  -0.5857
  O  O205  1  0.229300  0.715000  0.604120  1.0  -0.6036
  O  O206  1  0.194500  0.829300  0.515720  1.0  -0.5933
  O  O207  1  0.863800  0.515400  0.429700  1.0  -0.6038
  O  O208  1  0.885100  0.627500  0.337370  1.0  -0.6096
  O  O209  1  0.121800  0.026100  0.573690  1.0  -0.578
  O  O210  1  0.204200  0.046400  0.687280  1.0  -0.5962
  O  O211  1  0.819200  0.338900  0.744420  1.0  -0.5683
  O  O212  1  0.953300  0.358800  0.827170  1.0  -0.5865
  O  O213  1  0.729300  0.785000  0.395880  1.0  -0.6016
  O  O214  1  0.694500  0.670700  0.484280  1.0  -0.5953
  O  O215  1  0.363800  0.984600  0.570300  1.0  -0.6059
  O  O216  1  0.385100  0.872500  0.662630  1.0  -0.607
  O  O217  1  0.621800  0.473900  0.426310  1.0  -0.5781
  O  O218  1  0.704200  0.453600  0.312720  1.0  -0.5952
  O  O219  1  0.319200  0.161100  0.255580  1.0  -0.5684
  O  O220  1  0.453300  0.141200  0.172830  1.0  -0.5854
  O  O221  1  0.770700  0.215000  0.895880  1.0  -0.6018
  O  O222  1  0.805500  0.329300  0.984280  1.0  -0.5946
  O  O223  1  0.136200  0.015400  0.070300  1.0  -0.6037
  O  O224  1  0.114900  0.127500  0.162630  1.0  -0.607
  O  O225  1  0.878200  0.526100  0.926310  1.0  -0.5809
  O  O226  1  0.795800  0.546400  0.812720  1.0  -0.5968
  O  O227  1  0.180800  0.838900  0.755580  1.0  -0.5626
  O  O228  1  0.046700  0.858800  0.672830  1.0  -0.5838
