# generated using pymatgen
data_InH16(C14O5)2
_symmetry_space_group_name_H-M   'P 1'
_cell_length_a   22.74800000
_cell_length_b   15.84660000
_cell_length_c   15.11260000
_cell_angle_alpha   90.00000000
_cell_angle_beta   90.00000000
_cell_angle_gamma   90.00000000
_symmetry_Int_Tables_number   1
_chemical_formula_structural   InH16(C14O5)2
_chemical_formula_sum   'In4 H64 C112 O40'
_cell_volume   5447.76672624
_cell_formula_units_Z   4
loop_
 _symmetry_equiv_pos_site_id
 _symmetry_equiv_pos_as_xyz
  1  'x, y, z'
loop_
 _atom_site_type_symbol
 _atom_site_label
 _atom_site_symmetry_multiplicity
 _atom_site_fract_x
 _atom_site_fract_y
 _atom_site_fract_z
 _atom_site_occupancy
 _atom_site_charge
  In  In1  1  0.171010  0.602030  0.866920  1.0  1.502
  In  In2  1  0.671010  0.102030  0.866920  1.0  1.5021
  In  In3  1  0.171010  0.397970  0.366920  1.0  1.501
  In  In4  1  0.671010  0.897970  0.366920  1.0  1.5011
  H  H5  1  0.866000  0.846700  0.261400  1.0  0.1166
  H  H6  1  0.079600  0.787900  0.654600  1.0  0.1209
  H  H7  1  0.022600  0.761400  0.010400  1.0  0.1209
  H  H8  1  0.058200  0.581800  0.439300  1.0  0.1306
  H  H9  1  0.028900  0.817500  0.525200  1.0  0.1462
  H  H10  1  0.108600  0.550800  0.571400  1.0  0.1203
  H  H11  1  0.975600  0.520400  0.969600  1.0  0.1061
  H  H12  1  0.825900  0.727800  0.486900  1.0  0.1213
  H  H13  1  0.882800  0.549400  0.025700  1.0  0.134
  H  H14  1  0.775000  0.838600  0.858900  1.0  0.1148
  H  H15  1  0.931400  0.790100  0.066900  1.0  0.1348
  H  H16  1  0.831100  0.731400  0.915900  1.0  0.1485
  H  H17  1  0.924400  0.687700  0.503600  1.0  0.1268
  H  H18  1  0.962600  0.804400  0.274000  1.0  0.1352
  H  H19  1  0.783100  0.801800  0.161800  1.0  0.1153
  H  H20  1  0.730600  0.913900  0.103500  1.0  0.1198
  H  H21  1  0.366000  0.346700  0.261400  1.0  0.1166
  H  H22  1  0.579600  0.287900  0.654600  1.0  0.1209
  H  H23  1  0.522600  0.261400  0.010400  1.0  0.1209
  H  H24  1  0.558200  0.081800  0.439300  1.0  0.1306
  H  H25  1  0.528900  0.317500  0.525200  1.0  0.1462
  H  H26  1  0.608600  0.050800  0.571400  1.0  0.1203
  H  H27  1  0.475600  0.020400  0.969600  1.0  0.1061
  H  H28  1  0.325900  0.227800  0.486900  1.0  0.1213
  H  H29  1  0.382800  0.049400  0.025700  1.0  0.134
  H  H30  1  0.275000  0.338600  0.858900  1.0  0.1148
  H  H31  1  0.431400  0.290100  0.066900  1.0  0.1348
  H  H32  1  0.331100  0.231400  0.915900  1.0  0.1485
  H  H33  1  0.424400  0.187700  0.503600  1.0  0.1268
  H  H34  1  0.462600  0.304400  0.274000  1.0  0.1352
  H  H35  1  0.283100  0.301800  0.161800  1.0  0.1153
  H  H36  1  0.230600  0.413900  0.103500  1.0  0.1198
  H  H37  1  0.866000  0.153300  0.761400  1.0  0.116
  H  H38  1  0.079600  0.212100  0.154600  1.0  0.1208
  H  H39  1  0.022600  0.238600  0.510400  1.0  0.1207
  H  H40  1  0.058200  0.418200  0.939300  1.0  0.1309
  H  H41  1  0.028900  0.182500  0.025200  1.0  0.1451
  H  H42  1  0.108600  0.449200  0.071400  1.0  0.1204
  H  H43  1  0.975600  0.479600  0.469600  1.0  0.1073
  H  H44  1  0.825900  0.272200  0.986900  1.0  0.1213
  H  H45  1  0.882800  0.450600  0.525700  1.0  0.1348
  H  H46  1  0.775000  0.161400  0.358900  1.0  0.1149
  H  H47  1  0.931400  0.209900  0.566900  1.0  0.1347
  H  H48  1  0.831100  0.268600  0.415900  1.0  0.1486
  H  H49  1  0.924400  0.312300  0.003600  1.0  0.1267
  H  H50  1  0.962600  0.195600  0.774000  1.0  0.135
  H  H51  1  0.783100  0.198200  0.661800  1.0  0.1152
  H  H52  1  0.730600  0.086100  0.603500  1.0  0.1196
  H  H53  1  0.366000  0.653300  0.761400  1.0  0.116
  H  H54  1  0.579600  0.712100  0.154600  1.0  0.1208
  H  H55  1  0.522600  0.738600  0.510400  1.0  0.1207
  H  H56  1  0.558200  0.918200  0.939300  1.0  0.1309
  H  H57  1  0.528900  0.682500  0.025200  1.0  0.1451
  H  H58  1  0.608600  0.949200  0.071400  1.0  0.1204
  H  H59  1  0.475600  0.979600  0.469600  1.0  0.1073
  H  H60  1  0.325900  0.772200  0.986900  1.0  0.1213
  H  H61  1  0.382800  0.950600  0.525700  1.0  0.1348
  H  H62  1  0.275000  0.661400  0.358900  1.0  0.1149
  H  H63  1  0.431400  0.709900  0.566900  1.0  0.1347
  H  H64  1  0.331100  0.768600  0.415900  1.0  0.1486
  H  H65  1  0.424400  0.812300  0.003600  1.0  0.1267
  H  H66  1  0.462600  0.695600  0.774000  1.0  0.135
  H  H67  1  0.283100  0.698200  0.661800  1.0  0.1152
  H  H68  1  0.230600  0.586100  0.603500  1.0  0.1196
  C  C69  1  0.009200  0.637500  0.982800  1.0  -0.1053
  C  C70  1  0.836000  0.791300  0.374200  1.0  -0.1181
  C  C71  1  0.877600  0.814400  0.309700  1.0  -0.0492
  C  C72  1  0.775400  0.824000  0.368700  1.0  0.6632
  C  C73  1  0.097700  0.666500  0.627300  1.0  -0.1288
  C  C74  1  0.074700  0.745900  0.612200  1.0  -0.0291
  C  C75  1  0.037900  0.700600  0.472100  1.0  0.3075
  C  C76  1  0.994600  0.718700  0.013100  1.0  -0.0335
  C  C77  1  0.061900  0.622500  0.483300  1.0  -0.199
  C  C78  1  0.044500  0.764000  0.534900  1.0  -0.1644
  C  C79  1  0.092300  0.604000  0.562500  1.0  -0.0268
  C  C80  1  0.953200  0.742400  0.389700  1.0  0.2965
  C  C81  1  0.966600  0.574700  0.988500  1.0  -0.0372
  C  C82  1  0.126500  0.645800  0.712800  1.0  0.6797
  C  C83  1  0.853400  0.744000  0.444700  1.0  -0.0582
  C  C84  1  0.898000  0.672900  0.049500  1.0  0.2698
  C  C85  1  0.910900  0.591800  0.021900  1.0  -0.1481
  C  C86  1  0.748500  0.888900  0.973500  1.0  -0.1242
  C  C87  1  0.777700  0.832400  0.919900  1.0  -0.0206
  C  C88  1  0.940200  0.736200  0.046400  1.0  -0.2025
  C  C89  1  0.810500  0.767400  0.953400  1.0  -0.1964
  C  C90  1  0.912600  0.719100  0.454700  1.0  -0.1536
  C  C91  1  0.935500  0.789500  0.317300  1.0  -0.2105
  C  C92  1  0.782200  0.810300  0.101000  1.0  -0.221
  C  C93  1  0.812400  0.756400  0.045300  1.0  0.2555
  C  C94  1  0.750500  0.877000  0.066100  1.0  -0.0375
  C  C95  1  0.716400  0.962200  0.936600  1.0  0.6828
  C  C96  1  0.068000  0.620400  0.944400  1.0  0.7005
  C  C97  1  0.509200  0.137500  0.982800  1.0  -0.1053
  C  C98  1  0.336000  0.291300  0.374200  1.0  -0.1181
  C  C99  1  0.377600  0.314400  0.309700  1.0  -0.0492
  C  C100  1  0.275400  0.324000  0.368700  1.0  0.6632
  C  C101  1  0.597700  0.166500  0.627300  1.0  -0.1288
  C  C102  1  0.574700  0.245900  0.612200  1.0  -0.0291
  C  C103  1  0.537900  0.200600  0.472100  1.0  0.3075
  C  C104  1  0.494600  0.218700  0.013100  1.0  -0.0335
  C  C105  1  0.561900  0.122500  0.483300  1.0  -0.199
  C  C106  1  0.544500  0.264000  0.534900  1.0  -0.1644
  C  C107  1  0.592300  0.104000  0.562500  1.0  -0.0268
  C  C108  1  0.453200  0.242400  0.389700  1.0  0.2965
  C  C109  1  0.466600  0.074700  0.988500  1.0  -0.0372
  C  C110  1  0.626500  0.145800  0.712800  1.0  0.6797
  C  C111  1  0.353400  0.244000  0.444700  1.0  -0.0582
  C  C112  1  0.398000  0.172900  0.049500  1.0  0.2698
  C  C113  1  0.410900  0.091800  0.021900  1.0  -0.1481
  C  C114  1  0.248500  0.388900  0.973500  1.0  -0.1242
  C  C115  1  0.277700  0.332400  0.919900  1.0  -0.0206
  C  C116  1  0.440200  0.236200  0.046400  1.0  -0.2025
  C  C117  1  0.310500  0.267400  0.953400  1.0  -0.1964
  C  C118  1  0.412600  0.219100  0.454700  1.0  -0.1536
  C  C119  1  0.435500  0.289500  0.317300  1.0  -0.2105
  C  C120  1  0.282200  0.310300  0.101000  1.0  -0.221
  C  C121  1  0.312400  0.256400  0.045300  1.0  0.2555
  C  C122  1  0.250500  0.377000  0.066100  1.0  -0.0375
  C  C123  1  0.216400  0.462200  0.936600  1.0  0.6828
  C  C124  1  0.568000  0.120400  0.944400  1.0  0.7005
  C  C125  1  0.009200  0.362500  0.482800  1.0  -0.105
  C  C126  1  0.836000  0.208700  0.874200  1.0  -0.1181
  C  C127  1  0.877600  0.185600  0.809700  1.0  -0.0484
  C  C128  1  0.775400  0.176000  0.868700  1.0  0.663
  C  C129  1  0.097700  0.333500  0.127300  1.0  -0.1281
  C  C130  1  0.074700  0.254100  0.112200  1.0  -0.0299
  C  C131  1  0.037900  0.299400  0.972100  1.0  0.3067
  C  C132  1  0.994600  0.281300  0.513100  1.0  -0.0333
  C  C133  1  0.061900  0.377500  0.983300  1.0  -0.1988
  C  C134  1  0.044500  0.236000  0.034900  1.0  -0.1644
  C  C135  1  0.092300  0.396000  0.062500  1.0  -0.0262
  C  C136  1  0.953200  0.257600  0.889700  1.0  0.2969
  C  C137  1  0.966600  0.425300  0.488500  1.0  -0.0376
  C  C138  1  0.126500  0.354200  0.212800  1.0  0.6798
  C  C139  1  0.853400  0.256000  0.944700  1.0  -0.0587
  C  C140  1  0.898000  0.327100  0.549500  1.0  0.2699
  C  C141  1  0.910900  0.408200  0.521900  1.0  -0.1478
  C  C142  1  0.748500  0.111100  0.473500  1.0  -0.1245
  C  C143  1  0.777700  0.167600  0.419900  1.0  -0.021
  C  C144  1  0.940200  0.263800  0.546400  1.0  -0.202
  C  C145  1  0.810500  0.232600  0.453400  1.0  -0.1964
  C  C146  1  0.912600  0.280900  0.954700  1.0  -0.1546
  C  C147  1  0.935500  0.210500  0.817300  1.0  -0.2104
  C  C148  1  0.782200  0.189700  0.601000  1.0  -0.221
  C  C149  1  0.812400  0.243600  0.545300  1.0  0.2559
  C  C150  1  0.750500  0.123000  0.566100  1.0  -0.0372
  C  C151  1  0.716400  0.037800  0.436600  1.0  0.6824
  C  C152  1  0.068000  0.379600  0.444400  1.0  0.6995
  C  C153  1  0.509200  0.862500  0.482800  1.0  -0.105
  C  C154  1  0.336000  0.708700  0.874200  1.0  -0.1181
  C  C155  1  0.377600  0.685600  0.809700  1.0  -0.0484
  C  C156  1  0.275400  0.676000  0.868700  1.0  0.663
  C  C157  1  0.597700  0.833500  0.127300  1.0  -0.1281
  C  C158  1  0.574700  0.754100  0.112200  1.0  -0.0299
  C  C159  1  0.537900  0.799400  0.972100  1.0  0.3067
  C  C160  1  0.494600  0.781300  0.513100  1.0  -0.0333
  C  C161  1  0.561900  0.877500  0.983300  1.0  -0.1988
  C  C162  1  0.544500  0.736000  0.034900  1.0  -0.1644
  C  C163  1  0.592300  0.896000  0.062500  1.0  -0.0262
  C  C164  1  0.453200  0.757600  0.889700  1.0  0.2969
  C  C165  1  0.466600  0.925300  0.488500  1.0  -0.0376
  C  C166  1  0.626500  0.854200  0.212800  1.0  0.6798
  C  C167  1  0.353400  0.756000  0.944700  1.0  -0.0587
  C  C168  1  0.398000  0.827100  0.549500  1.0  0.2699
  C  C169  1  0.410900  0.908200  0.521900  1.0  -0.1478
  C  C170  1  0.248500  0.611100  0.473500  1.0  -0.1245
  C  C171  1  0.277700  0.667600  0.419900  1.0  -0.021
  C  C172  1  0.440200  0.763800  0.546400  1.0  -0.202
  C  C173  1  0.310500  0.732600  0.453400  1.0  -0.1964
  C  C174  1  0.412600  0.780900  0.954700  1.0  -0.1546
  C  C175  1  0.435500  0.710500  0.817300  1.0  -0.2104
  C  C176  1  0.282200  0.689700  0.601000  1.0  -0.221
  C  C177  1  0.312400  0.743600  0.545300  1.0  0.2559
  C  C178  1  0.250500  0.623000  0.566100  1.0  -0.0372
  C  C179  1  0.216400  0.537800  0.436600  1.0  0.6824
  C  C180  1  0.568000  0.879600  0.444400  1.0  0.6995
  O  O181  1  0.131700  0.701500  0.773100  1.0  -0.5553
  O  O182  1  0.110240  0.671400  0.961500  1.0  -0.553
  O  O183  1  0.701190  0.960200  0.855100  1.0  -0.5843
  O  O184  1  0.736720  0.802000  0.423600  1.0  -0.5637
  O  O185  1  0.146350  0.571900  0.725700  1.0  -0.5659
  O  O186  1  0.076550  0.558900  0.894300  1.0  -0.591
  O  O187  1  0.760900  0.875600  0.308900  1.0  -0.5903
  O  O188  1  0.704140  0.025700  0.983400  1.0  -0.5579
  O  O189  1  0.011250  0.718200  0.391500  1.0  -0.2654
  O  O190  1  0.842660  0.690200  0.083200  1.0  -0.2793
  O  O191  1  0.631700  0.201500  0.773100  1.0  -0.5553
  O  O192  1  0.610240  0.171400  0.961500  1.0  -0.553
  O  O193  1  0.201190  0.460200  0.855100  1.0  -0.5843
  O  O194  1  0.236720  0.302000  0.423600  1.0  -0.5635
  O  O195  1  0.646350  0.071900  0.725700  1.0  -0.5667
  O  O196  1  0.576550  0.058900  0.894300  1.0  -0.591
  O  O197  1  0.260900  0.375600  0.308900  1.0  -0.5903
  O  O198  1  0.204140  0.525700  0.983400  1.0  -0.5579
  O  O199  1  0.511250  0.218200  0.391500  1.0  -0.2654
  O  O200  1  0.342660  0.190200  0.083200  1.0  -0.2793
  O  O201  1  0.131700  0.298500  0.273100  1.0  -0.5547
  O  O202  1  0.110240  0.328600  0.461500  1.0  -0.5536
  O  O203  1  0.701190  0.039800  0.355100  1.0  -0.585
  O  O204  1  0.736720  0.198000  0.923600  1.0  -0.5629
  O  O205  1  0.146350  0.428100  0.225700  1.0  -0.5676
  O  O206  1  0.076550  0.441100  0.394300  1.0  -0.59
  O  O207  1  0.760900  0.124400  0.808900  1.0  -0.5903
  O  O208  1  0.704140  0.974300  0.483400  1.0  -0.5583
  O  O209  1  0.011250  0.281800  0.891500  1.0  -0.2647
  O  O210  1  0.842660  0.309800  0.583200  1.0  -0.2758
  O  O211  1  0.631700  0.798500  0.273100  1.0  -0.5547
  O  O212  1  0.610240  0.828600  0.461500  1.0  -0.5536
  O  O213  1  0.201190  0.539800  0.355100  1.0  -0.585
  O  O214  1  0.236720  0.698000  0.923600  1.0  -0.5626
  O  O215  1  0.646350  0.928100  0.225700  1.0  -0.5676
  O  O216  1  0.576550  0.941100  0.394300  1.0  -0.59
  O  O217  1  0.260900  0.624400  0.808900  1.0  -0.5903
  O  O218  1  0.204140  0.474300  0.483400  1.0  -0.5583
  O  O219  1  0.511250  0.781800  0.891500  1.0  -0.2647
  O  O220  1  0.342660  0.809800  0.583200  1.0  -0.2758
