# generated using pymatgen
data_Co2H31(C11O5)2
_symmetry_space_group_name_H-M   'P 1'
_cell_length_a   13.33460000
_cell_length_b   13.46130000
_cell_length_c   17.51150000
_cell_angle_alpha   90.00000000
_cell_angle_beta   90.00000000
_cell_angle_gamma   90.00000000
_symmetry_Int_Tables_number   1
_chemical_formula_structural   Co2H31(C11O5)2
_chemical_formula_sum   'Co8 H124 C88 O40'
_cell_volume   3143.33265424
_cell_formula_units_Z   4
loop_
 _symmetry_equiv_pos_site_id
 _symmetry_equiv_pos_as_xyz
  1  'x, y, z'
loop_
 _atom_site_type_symbol
 _atom_site_label
 _atom_site_symmetry_multiplicity
 _atom_site_fract_x
 _atom_site_fract_y
 _atom_site_fract_z
 _atom_site_occupancy
 _atom_site_charge
  Co  Co1  1  0.733060  0.509920  0.574020  1.0  1.0039
  Co  Co2  1  0.765740  0.491070  0.416130  1.0  0.9857
  Co  Co3  1  0.766940  0.490080  0.074020  1.0  1.0048
  Co  Co4  1  0.734260  0.508930  0.916130  1.0  0.9861
  Co  Co5  1  0.266940  0.009920  0.925980  1.0  1.0045
  Co  Co6  1  0.234260  0.991070  0.083870  1.0  0.9832
  Co  Co7  1  0.233060  0.990080  0.425980  1.0  1.0044
  Co  Co8  1  0.265740  0.008930  0.583870  1.0  0.9831
  H  H9  1  0.290300  0.318400  0.428100  1.0  0.1012
  H  H10  1  0.249200  0.385700  0.542300  1.0  0.1021
  H  H11  1  0.332300  0.325800  0.586900  1.0  0.1051
  H  H12  1  0.433500  0.451300  0.571500  1.0  0.1
  H  H13  1  0.354300  0.506100  0.519900  1.0  0.1014
  H  H14  1  0.422800  0.546800  0.398000  1.0  0.1248
  H  H15  1  0.345400  0.462100  0.380700  1.0  0.1295
  H  H16  1  0.452200  0.459200  0.343400  1.0  0.1208
  H  H17  1  0.420300  0.302800  0.330500  1.0  0.1123
  H  H18  1  0.448400  0.197600  0.362400  1.0  0.118
  H  H19  1  0.531700  0.278800  0.352500  1.0  0.1246
  H  H20  1  0.508100  0.266200  0.552200  1.0  0.1169
  H  H21  1  0.584300  0.254200  0.484600  1.0  0.1257
  H  H22  1  0.500600  0.174100  0.497600  1.0  0.1292
  H  H23  1  0.568200  0.958100  0.423000  1.0  0.0929
  H  H24  1  0.573200  0.949500  0.580700  1.0  0.0791
  H  H25  1  0.647500  0.005200  0.525300  1.0  0.0932
  H  H26  1  0.753700  0.879000  0.543200  1.0  0.087
  H  H27  1  0.670200  0.814400  0.582900  1.0  0.0931
  H  H28  1  0.805000  0.828700  0.409900  1.0  0.1231
  H  H29  1  0.720300  0.906800  0.394400  1.0  0.1198
  H  H30  1  0.717400  0.803300  0.353500  1.0  0.124
  H  H31  1  0.457400  0.789400  0.360900  1.0  0.1223
  H  H32  1  0.543800  0.710500  0.359300  1.0  0.1187
  H  H33  1  0.564500  0.819700  0.332400  1.0  0.1175
  H  H34  1  0.426400  0.760400  0.489900  1.0  0.128
  H  H35  1  0.508700  0.770200  0.553400  1.0  0.1182
  H  H36  1  0.511900  0.680800  0.496000  1.0  0.1181
  H  H37  1  0.847800  0.441200  0.692000  1.0  0.1272
  H  H38  1  0.821500  0.388200  0.769200  1.0  0.1424
  H  H39  1  0.876600  0.491200  0.769800  1.0  0.1454
  H  H40  1  0.209700  0.681600  0.928100  1.0  0.1009
  H  H41  1  0.250800  0.614300  0.042300  1.0  0.099
  H  H42  1  0.167700  0.674200  0.086900  1.0  0.1054
  H  H43  1  0.066500  0.548700  0.071500  1.0  0.0996
  H  H44  1  0.145700  0.493900  0.019900  1.0  0.1015
  H  H45  1  0.077200  0.453200  0.898000  1.0  0.1242
  H  H46  1  0.154600  0.537900  0.880700  1.0  0.1296
  H  H47  1  0.047800  0.540800  0.843400  1.0  0.121
  H  H48  1  0.079700  0.697200  0.830500  1.0  0.1128
  H  H49  1  0.051600  0.802400  0.862400  1.0  0.1193
  H  H50  1  0.968300  0.721200  0.852500  1.0  0.1265
  H  H51  1  0.991900  0.733800  0.052200  1.0  0.1169
  H  H52  1  0.915700  0.745800  0.984600  1.0  0.1262
  H  H53  1  0.999400  0.825900  0.997600  1.0  0.1308
  H  H54  1  0.931800  0.041900  0.923000  1.0  0.0922
  H  H55  1  0.926800  0.050500  0.080700  1.0  0.0792
  H  H56  1  0.852500  0.994800  0.025300  1.0  0.0957
  H  H57  1  0.746300  0.121000  0.043200  1.0  0.0887
  H  H58  1  0.829800  0.185600  0.082900  1.0  0.0929
  H  H59  1  0.695000  0.171300  0.909900  1.0  0.1246
  H  H60  1  0.779700  0.093200  0.894400  1.0  0.1202
  H  H61  1  0.782600  0.196700  0.853500  1.0  0.1234
  H  H62  1  0.042600  0.210600  0.860900  1.0  0.1237
  H  H63  1  0.956200  0.289500  0.859300  1.0  0.1187
  H  H64  1  0.935500  0.180300  0.832400  1.0  0.1173
  H  H65  1  0.073600  0.239600  0.989900  1.0  0.1275
  H  H66  1  0.991300  0.229800  0.053400  1.0  0.1185
  H  H67  1  0.988100  0.319200  0.996000  1.0  0.1191
  H  H68  1  0.652200  0.558800  0.192000  1.0  0.1274
  H  H69  1  0.678500  0.611800  0.269200  1.0  0.1425
  H  H70  1  0.623400  0.508800  0.269800  1.0  0.1452
  H  H71  1  0.709700  0.818400  0.071900  1.0  0.1007
  H  H72  1  0.750800  0.885700  0.957700  1.0  0.0993
  H  H73  1  0.667700  0.825800  0.913100  1.0  0.1051
  H  H74  1  0.566500  0.951300  0.928500  1.0  0.0985
  H  H75  1  0.645700  0.006100  0.980100  1.0  0.1004
  H  H76  1  0.577200  0.046800  0.102000  1.0  0.123
  H  H77  1  0.654600  0.962100  0.119300  1.0  0.1298
  H  H78  1  0.547800  0.959200  0.156600  1.0  0.1215
  H  H79  1  0.579700  0.802800  0.169500  1.0  0.113
  H  H80  1  0.551600  0.697600  0.137600  1.0  0.1193
  H  H81  1  0.468300  0.778800  0.147500  1.0  0.1266
  H  H82  1  0.491900  0.766200  0.947800  1.0  0.116
  H  H83  1  0.415700  0.754200  0.015400  1.0  0.1254
  H  H84  1  0.499400  0.674100  0.002400  1.0  0.1303
  H  H85  1  0.431800  0.458100  0.077000  1.0  0.0928
  H  H86  1  0.426800  0.449500  0.919300  1.0  0.0787
  H  H87  1  0.352500  0.505200  0.974700  1.0  0.0939
  H  H88  1  0.246300  0.379000  0.956800  1.0  0.0878
  H  H89  1  0.329800  0.314400  0.917100  1.0  0.093
  H  H90  1  0.195000  0.328700  0.090100  1.0  0.1261
  H  H91  1  0.279700  0.406800  0.105600  1.0  0.1207
  H  H92  1  0.282600  0.303300  0.146500  1.0  0.1256
  H  H93  1  0.542600  0.289400  0.139100  1.0  0.1223
  H  H94  1  0.456200  0.210500  0.140700  1.0  0.1206
  H  H95  1  0.435500  0.319700  0.167600  1.0  0.1187
  H  H96  1  0.573600  0.260400  0.010100  1.0  0.127
  H  H97  1  0.491300  0.270200  0.946600  1.0  0.118
  H  H98  1  0.488100  0.180800  0.004000  1.0  0.1177
  H  H99  1  0.152200  0.941200  0.808000  1.0  0.1284
  H  H100  1  0.178500  0.888200  0.730800  1.0  0.1421
  H  H101  1  0.123400  0.991200  0.730200  1.0  0.1452
  H  H102  1  0.790300  0.181600  0.571900  1.0  0.1004
  H  H103  1  0.749200  0.114300  0.457700  1.0  0.0995
  H  H104  1  0.832300  0.174200  0.413100  1.0  0.1044
  H  H105  1  0.933500  0.048700  0.428500  1.0  0.0977
  H  H106  1  0.854300  0.993900  0.480100  1.0  0.1019
  H  H107  1  0.922800  0.953200  0.602000  1.0  0.1238
  H  H108  1  0.845400  0.037900  0.619300  1.0  0.132
  H  H109  1  0.952200  0.040800  0.656600  1.0  0.1228
  H  H110  1  0.920300  0.197200  0.669500  1.0  0.1129
  H  H111  1  0.948400  0.302400  0.637600  1.0  0.1196
  H  H112  1  0.031700  0.221200  0.647500  1.0  0.1246
  H  H113  1  0.008100  0.233800  0.447800  1.0  0.116
  H  H114  1  0.084300  0.245800  0.515400  1.0  0.1254
  H  H115  1  0.000600  0.325900  0.502400  1.0  0.1319
  H  H116  1  0.068200  0.541900  0.577000  1.0  0.094
  H  H117  1  0.073200  0.550500  0.419300  1.0  0.0775
  H  H118  1  0.147500  0.494800  0.474700  1.0  0.095
  H  H119  1  0.253700  0.621000  0.456800  1.0  0.0874
  H  H120  1  0.170200  0.685600  0.417100  1.0  0.093
  H  H121  1  0.305000  0.671300  0.590100  1.0  0.1225
  H  H122  1  0.220300  0.593200  0.605600  1.0  0.1235
  H  H123  1  0.217400  0.696700  0.646500  1.0  0.1249
  H  H124  1  0.957400  0.710600  0.639100  1.0  0.1235
  H  H125  1  0.043800  0.789500  0.640700  1.0  0.1184
  H  H126  1  0.064500  0.680300  0.667600  1.0  0.12
  H  H127  1  0.926400  0.739600  0.510100  1.0  0.1268
  H  H128  1  0.008700  0.729800  0.446600  1.0  0.1188
  H  H129  1  0.011900  0.819200  0.504000  1.0  0.1187
  H  H130  1  0.347800  0.058800  0.308000  1.0  0.1301
  H  H131  1  0.321500  0.111800  0.230800  1.0  0.1427
  H  H132  1  0.376600  0.008800  0.230200  1.0  0.1453
  C  C133  1  0.453800  0.419300  0.455200  1.0  0.0316
  C  C134  1  0.443200  0.303700  0.446500  1.0  0.1558
  C  C135  1  0.331300  0.291600  0.469700  1.0  -0.1621
  C  C136  1  0.317400  0.360800  0.539800  1.0  -0.1008
  C  C137  1  0.390200  0.444200  0.527400  1.0  -0.1598
  C  C138  1  0.415000  0.477000  0.388300  1.0  -0.338
  C  C139  1  0.462700  0.267400  0.365500  1.0  -0.3771
  C  C140  1  0.516200  0.243700  0.500500  1.0  -0.3728
  C  C141  1  0.568800  0.447100  0.468000  1.0  0.6098
  C  C142  1  0.298900  0.186100  0.482700  1.0  0.656
  C  C143  1  0.673700  0.794600  0.466100  1.0  0.031
  C  C144  1  0.557400  0.808100  0.450300  1.0  0.2009
  C  C145  1  0.542900  0.921200  0.467200  1.0  -0.1568
  C  C146  1  0.611500  0.943600  0.533800  1.0  -0.0785
  C  C147  1  0.685400  0.855000  0.538600  1.0  -0.1642
  C  C148  1  0.734800  0.837300  0.399800  1.0  -0.3647
  C  C149  1  0.528000  0.779200  0.367900  1.0  -0.3738
  C  C150  1  0.496000  0.750000  0.501700  1.0  -0.3643
  C  C151  1  0.699900  0.683800  0.478100  1.0  0.647
  C  C152  1  0.436500  0.948400  0.477500  1.0  0.6241
  C  C153  1  0.827400  0.451300  0.744000  1.0  -0.4104
  C  C154  1  0.729800  0.502600  0.745400  1.0  0.7105
  C  C155  1  0.046200  0.580700  0.955200  1.0  0.0299
  C  C156  1  0.056800  0.696300  0.946500  1.0  0.1572
  C  C157  1  0.168700  0.708400  0.969700  1.0  -0.1587
  C  C158  1  0.182600  0.639200  0.039800  1.0  -0.1036
  C  C159  1  0.109800  0.555800  0.027400  1.0  -0.1596
  C  C160  1  0.085000  0.523000  0.888300  1.0  -0.339
  C  C161  1  0.037300  0.732600  0.865500  1.0  -0.3758
  C  C162  1  0.983800  0.756300  0.000500  1.0  -0.3728
  C  C163  1  0.931200  0.552900  0.968000  1.0  0.6087
  C  C164  1  0.201100  0.813900  0.982700  1.0  0.657
  C  C165  1  0.826300  0.205400  0.966100  1.0  0.0306
  C  C166  1  0.942600  0.191900  0.950300  1.0  0.2
  C  C167  1  0.957100  0.078800  0.967200  1.0  -0.153
  C  C168  1  0.888500  0.056400  0.033800  1.0  -0.078
  C  C169  1  0.814600  0.145000  0.038600  1.0  -0.1643
  C  C170  1  0.765200  0.162700  0.899800  1.0  -0.3667
  C  C171  1  0.972000  0.220800  0.867900  1.0  -0.3742
  C  C172  1  0.004000  0.250000  0.001700  1.0  -0.3639
  C  C173  1  0.800100  0.316200  0.978100  1.0  0.6482
  C  C174  1  0.063500  0.051600  0.977500  1.0  0.6232
  C  C175  1  0.672600  0.548700  0.244000  1.0  -0.411
  C  C176  1  0.770200  0.497400  0.245400  1.0  0.7087
  C  C177  1  0.546200  0.919300  0.044800  1.0  0.0316
  C  C178  1  0.556800  0.803700  0.053500  1.0  0.1553
  C  C179  1  0.668700  0.791600  0.030300  1.0  -0.159
  C  C180  1  0.682600  0.860800  0.960200  1.0  -0.0991
  C  C181  1  0.609800  0.944200  0.972600  1.0  -0.1586
  C  C182  1  0.585000  0.977000  0.111700  1.0  -0.3379
  C  C183  1  0.537300  0.767400  0.134500  1.0  -0.3749
  C  C184  1  0.483800  0.743700  0.999500  1.0  -0.372
  C  C185  1  0.431200  0.947100  0.032000  1.0  0.6082
  C  C186  1  0.701100  0.686100  0.017300  1.0  0.656
  C  C187  1  0.326300  0.294600  0.033900  1.0  0.0305
  C  C188  1  0.442600  0.308100  0.049700  1.0  0.2011
  C  C189  1  0.457100  0.421200  0.032800  1.0  -0.1573
  C  C190  1  0.388500  0.443600  0.966200  1.0  -0.0788
  C  C191  1  0.314600  0.355000  0.961400  1.0  -0.1625
  C  C192  1  0.265200  0.337300  0.100200  1.0  -0.3659
  C  C193  1  0.472000  0.279200  0.132100  1.0  -0.372
  C  C194  1  0.504000  0.250000  0.998300  1.0  -0.3641
  C  C195  1  0.300100  0.183800  0.021900  1.0  0.6466
  C  C196  1  0.563500  0.448400  0.022500  1.0  0.6238
  C  C197  1  0.172600  0.951300  0.756000  1.0  -0.4113
  C  C198  1  0.270200  0.002600  0.754600  1.0  0.7071
  C  C199  1  0.953800  0.080700  0.544800  1.0  0.0308
  C  C200  1  0.943200  0.196300  0.553500  1.0  0.1562
  C  C201  1  0.831300  0.208400  0.530300  1.0  -0.162
  C  C202  1  0.817400  0.139200  0.460200  1.0  -0.0969
  C  C203  1  0.890200  0.055800  0.472600  1.0  -0.1598
  C  C204  1  0.915000  0.023000  0.611700  1.0  -0.3373
  C  C205  1  0.962700  0.232600  0.634500  1.0  -0.3759
  C  C206  1  0.016200  0.256300  0.499500  1.0  -0.3716
  C  C207  1  0.068800  0.052900  0.532000  1.0  0.6094
  C  C208  1  0.798900  0.313900  0.517300  1.0  0.6572
  C  C209  1  0.173700  0.705400  0.533900  1.0  0.0314
  C  C210  1  0.057400  0.691900  0.549700  1.0  0.2016
  C  C211  1  0.042900  0.578800  0.532800  1.0  -0.1538
  C  C212  1  0.111500  0.556400  0.466200  1.0  -0.0806
  C  C213  1  0.185400  0.645000  0.461400  1.0  -0.1623
  C  C214  1  0.234800  0.662700  0.600200  1.0  -0.3641
  C  C215  1  0.028000  0.720800  0.632100  1.0  -0.3722
  C  C216  1  0.996000  0.750000  0.498300  1.0  -0.3631
  C  C217  1  0.199900  0.816200  0.521900  1.0  0.6474
  C  C218  1  0.936500  0.551600  0.522500  1.0  0.6236
  C  C219  1  0.327400  0.048700  0.256000  1.0  -0.4109
  C  C220  1  0.229800  0.997400  0.254600  1.0  0.7099
  O  O221  1  0.596500  0.471700  0.530100  1.0  -0.5391
  O  O222  1  0.621100  0.441500  0.406800  1.0  -0.5821
  O  O223  1  0.305600  0.151000  0.550600  1.0  -0.5868
  O  O224  1  0.268900  0.137600  0.425400  1.0  -0.568
  O  O225  1  0.706600  0.652300  0.543900  1.0  -0.5533
  O  O226  1  0.715600  0.634300  0.418800  1.0  -0.575
  O  O227  1  0.380000  0.956800  0.422300  1.0  -0.5661
  O  O228  1  0.403300  0.961900  0.547800  1.0  -0.6139
  O  O229  1  0.686300  0.524800  0.807700  1.0  -0.5933
  O  O230  1  0.686900  0.522100  0.683000  1.0  -0.6297
  O  O231  1  0.903500  0.528300  0.030100  1.0  -0.5402
  O  O232  1  0.878900  0.558500  0.906800  1.0  -0.5798
  O  O233  1  0.194400  0.849000  0.050600  1.0  -0.5879
  O  O234  1  0.231100  0.862400  0.925400  1.0  -0.5677
  O  O235  1  0.793400  0.347700  0.043900  1.0  -0.5545
  O  O236  1  0.784400  0.365700  0.918800  1.0  -0.5743
  O  O237  1  0.120000  0.043200  0.922300  1.0  -0.5661
  O  O238  1  0.096700  0.038100  0.047800  1.0  -0.6144
  O  O239  1  0.813700  0.475200  0.307700  1.0  -0.5932
  O  O240  1  0.813100  0.477900  0.183000  1.0  -0.6269
  O  O241  1  0.403500  0.971700  0.969900  1.0  -0.5391
  O  O242  1  0.378900  0.941500  0.093200  1.0  -0.5822
  O  O243  1  0.694400  0.651000  0.949400  1.0  -0.5856
  O  O244  1  0.731100  0.637600  0.074600  1.0  -0.5677
  O  O245  1  0.293400  0.152300  0.956100  1.0  -0.552
  O  O246  1  0.284400  0.134300  0.081200  1.0  -0.574
  O  O247  1  0.620000  0.456800  0.077700  1.0  -0.5659
  O  O248  1  0.596700  0.461900  0.952200  1.0  -0.6157
  O  O249  1  0.313700  0.024800  0.692300  1.0  -0.5927
  O  O250  1  0.313100  0.022100  0.817000  1.0  -0.6263
  O  O251  1  0.096500  0.028300  0.469900  1.0  -0.5388
  O  O252  1  0.121100  0.058500  0.593200  1.0  -0.5815
  O  O253  1  0.805600  0.349000  0.449400  1.0  -0.5858
  O  O254  1  0.768900  0.362400  0.574600  1.0  -0.5691
  O  O255  1  0.206600  0.847700  0.456100  1.0  -0.5528
  O  O256  1  0.215600  0.865700  0.581200  1.0  -0.5748
  O  O257  1  0.880000  0.543200  0.577700  1.0  -0.5663
  O  O258  1  0.903300  0.538100  0.452200  1.0  -0.6147
  O  O259  1  0.186300  0.975200  0.192300  1.0  -0.5926
  O  O260  1  0.186900  0.977900  0.317000  1.0  -0.63
