# generated using pymatgen
data_EuH12(C4O)6
_symmetry_space_group_name_H-M   'P 1'
_cell_length_a   10.42990000
_cell_length_b   13.52190000
_cell_length_c   31.66420000
_cell_angle_alpha   90.00000000
_cell_angle_beta   97.62080000
_cell_angle_gamma   90.00000000
_symmetry_Int_Tables_number   1
_chemical_formula_structural   EuH12(C4O)6
_chemical_formula_sum   'Eu4 H48 C96 O24'
_cell_volume   4426.22432905
_cell_formula_units_Z   4
loop_
 _symmetry_equiv_pos_site_id
 _symmetry_equiv_pos_as_xyz
  1  'x, y, z'
loop_
 _atom_site_type_symbol
 _atom_site_label
 _atom_site_symmetry_multiplicity
 _atom_site_fract_x
 _atom_site_fract_y
 _atom_site_fract_z
 _atom_site_occupancy
 _atom_site_charge
  Eu  Eu1  1  0.915520  0.903920  0.539000  1.0  2.1301
  Eu  Eu2  1  0.084480  0.403920  0.961000  1.0  2.1299
  Eu  Eu3  1  0.084480  0.096080  0.461000  1.0  2.1314
  Eu  Eu4  1  0.915520  0.596080  0.039000  1.0  2.1307
  H  H5  1  0.780100  0.019600  0.354800  1.0  0.1011
  H  H6  1  0.635100  0.969100  0.296500  1.0  0.1105
  H  H7  1  0.460100  0.787700  0.370000  1.0  0.1128
  H  H8  1  0.608000  0.835800  0.430200  1.0  0.1135
  H  H9  1  0.757600  0.209800  0.877600  1.0  0.0983
  H  H10  1  0.625200  0.148800  0.818600  1.0  0.1266
  H  H11  1  0.826600  0.306000  0.741800  1.0  0.1093
  H  H12  1  0.967900  0.361100  0.800300  1.0  0.1151
  H  H13  1  0.147400  0.741700  0.523300  1.0  0.0908
  H  H14  1  0.268600  0.592200  0.534500  1.0  0.1238
  H  H15  1  0.465500  0.670600  0.437200  1.0  0.1255
  H  H16  1  0.343300  0.816600  0.429400  1.0  0.0929
  H  H17  1  0.219900  0.519600  0.145200  1.0  0.1015
  H  H18  1  0.364900  0.469100  0.203500  1.0  0.1109
  H  H19  1  0.539900  0.287700  0.130000  1.0  0.1132
  H  H20  1  0.392000  0.335800  0.069800  1.0  0.1132
  H  H21  1  0.242400  0.709800  0.622400  1.0  0.0979
  H  H22  1  0.374800  0.648800  0.681400  1.0  0.127
  H  H23  1  0.173400  0.806000  0.758200  1.0  0.1098
  H  H24  1  0.032100  0.861100  0.699700  1.0  0.1151
  H  H25  1  0.852600  0.241700  0.976700  1.0  0.0913
  H  H26  1  0.731400  0.092200  0.965500  1.0  0.1227
  H  H27  1  0.534500  0.170600  0.062800  1.0  0.1252
  H  H28  1  0.656700  0.316600  0.070600  1.0  0.0932
  H  H29  1  0.219900  0.980400  0.645200  1.0  0.1019
  H  H30  1  0.364900  0.030900  0.703500  1.0  0.1111
  H  H31  1  0.539900  0.212300  0.630000  1.0  0.1131
  H  H32  1  0.392000  0.164200  0.569800  1.0  0.1129
  H  H33  1  0.242400  0.790200  0.122400  1.0  0.0977
  H  H34  1  0.374800  0.851200  0.181400  1.0  0.1284
  H  H35  1  0.173400  0.694000  0.258200  1.0  0.1098
  H  H36  1  0.032100  0.638900  0.199700  1.0  0.1151
  H  H37  1  0.852600  0.258300  0.476700  1.0  0.0913
  H  H38  1  0.731400  0.407800  0.465500  1.0  0.1229
  H  H39  1  0.534500  0.329400  0.562800  1.0  0.1249
  H  H40  1  0.656700  0.183400  0.570600  1.0  0.0937
  H  H41  1  0.780100  0.480400  0.854800  1.0  0.1016
  H  H42  1  0.635100  0.530900  0.796500  1.0  0.1107
  H  H43  1  0.460100  0.712300  0.870000  1.0  0.1132
  H  H44  1  0.608000  0.664200  0.930200  1.0  0.1132
  H  H45  1  0.757600  0.290200  0.377600  1.0  0.0979
  H  H46  1  0.625200  0.351200  0.318600  1.0  0.1273
  H  H47  1  0.826600  0.194000  0.241800  1.0  0.1088
  H  H48  1  0.967900  0.138900  0.300300  1.0  0.1147
  H  H49  1  0.147400  0.758300  0.023300  1.0  0.0908
  H  H50  1  0.268600  0.907800  0.034500  1.0  0.1233
  H  H51  1  0.465500  0.829400  0.937200  1.0  0.1249
  H  H52  1  0.343300  0.683400  0.929400  1.0  0.0931
  C  C53  1  0.197700  0.040100  0.563700  1.0  0.767
  C  C54  1  0.293800  0.069700  0.601900  1.0  -0.1452
  C  C55  1  0.284400  0.028300  0.641800  1.0  -0.0758
  C  C56  1  0.370700  0.058400  0.676300  1.0  -0.0991
  C  C57  1  0.462700  0.125500  0.672000  1.0  0.0438
  C  C58  1  0.526200  0.834500  0.367000  1.0  -0.1323
  C  C59  1  0.614200  0.863500  0.403000  1.0  -0.0411
  C  C60  1  0.550200  0.162000  0.709300  1.0  -0.1197
  C  C61  1  0.975200  0.317600  0.883100  1.0  0.7074
  C  C62  1  0.883300  0.283400  0.844800  1.0  0.0412
  C  C63  1  0.775200  0.226100  0.849800  1.0  -0.0521
  C  C64  1  0.693800  0.192800  0.815000  1.0  -0.1086
  C  C65  1  0.712900  0.224400  0.774200  1.0  0.0077
  C  C66  1  0.814000  0.285000  0.769600  1.0  -0.0946
  C  C67  1  0.899500  0.317000  0.804200  1.0  0.0733
  C  C68  1  0.626300  0.189800  0.738000  1.0  -0.144
  C  C69  1  0.161000  0.885500  0.469600  1.0  0.6875
  C  C70  1  0.236000  0.790900  0.476100  1.0  -0.1454
  C  C71  1  0.213500  0.727600  0.506200  1.0  -0.0574
  C  C72  1  0.287200  0.638100  0.513500  1.0  -0.1279
  C  C73  1  0.382800  0.620500  0.490100  1.0  0.0698
  C  C74  1  0.403600  0.685400  0.455800  1.0  -0.1539
  C  C75  1  0.328900  0.770700  0.451000  1.0  -0.0332
  C  C76  1  0.465300  0.536600  0.497500  1.0  -0.0036
  C  C77  1  0.802300  0.540100  0.936300  1.0  0.766
  C  C78  1  0.706200  0.569700  0.898100  1.0  -0.1444
  C  C79  1  0.715600  0.528300  0.858200  1.0  -0.076
  C  C80  1  0.629300  0.558400  0.823700  1.0  -0.0964
  C  C81  1  0.537300  0.625500  0.828000  1.0  0.0417
  C  C82  1  0.473800  0.334500  0.133000  1.0  -0.1329
  C  C83  1  0.385800  0.363500  0.097000  1.0  -0.041
  C  C84  1  0.449800  0.662000  0.790700  1.0  -0.1243
  C  C85  1  0.024800  0.817600  0.616900  1.0  0.7063
  C  C86  1  0.116700  0.783400  0.655200  1.0  0.0404
  C  C87  1  0.224800  0.726100  0.650200  1.0  -0.0538
  C  C88  1  0.306200  0.692800  0.685000  1.0  -0.1085
  C  C89  1  0.287100  0.724400  0.725800  1.0  0.0092
  C  C90  1  0.186000  0.785000  0.730400  1.0  -0.0971
  C  C91  1  0.100500  0.817000  0.695800  1.0  0.0716
  C  C92  1  0.373700  0.689800  0.762000  1.0  -0.1373
  C  C93  1  0.839000  0.385500  0.030400  1.0  0.6872
  C  C94  1  0.764000  0.290900  0.023900  1.0  -0.1465
  C  C95  1  0.786500  0.227600  0.993800  1.0  -0.0573
  C  C96  1  0.712800  0.138100  0.986500  1.0  -0.1287
  C  C97  1  0.617200  0.120500  0.009900  1.0  0.069
  C  C98  1  0.596400  0.185400  0.044200  1.0  -0.1542
  C  C99  1  0.671100  0.270700  0.049000  1.0  -0.034
  C  C100  1  0.534700  0.036600  0.002500  1.0  -0.0027
  C  C101  1  0.802300  0.959900  0.436300  1.0  0.7646
  C  C102  1  0.706200  0.930300  0.398100  1.0  -0.1445
  C  C103  1  0.715600  0.971700  0.358200  1.0  -0.0758
  C  C104  1  0.629300  0.941600  0.323700  1.0  -0.0979
  C  C105  1  0.537300  0.874500  0.328000  1.0  0.0454
  C  C106  1  0.473800  0.165500  0.633000  1.0  -0.133
  C  C107  1  0.385800  0.136500  0.597000  1.0  -0.041
  C  C108  1  0.449800  0.838000  0.290700  1.0  -0.1246
  C  C109  1  0.024800  0.682400  0.116900  1.0  0.7067
  C  C110  1  0.116700  0.716600  0.155200  1.0  0.042
  C  C111  1  0.224800  0.773900  0.150200  1.0  -0.0529
  C  C112  1  0.306200  0.807200  0.185000  1.0  -0.1093
  C  C113  1  0.287100  0.775600  0.225800  1.0  0.0092
  C  C114  1  0.186000  0.715000  0.230400  1.0  -0.0966
  C  C115  1  0.100500  0.683000  0.195800  1.0  0.0717
  C  C116  1  0.373700  0.810200  0.262000  1.0  -0.1373
  C  C117  1  0.839000  0.114500  0.530400  1.0  0.6871
  C  C118  1  0.764000  0.209100  0.523900  1.0  -0.146
  C  C119  1  0.786500  0.272400  0.493800  1.0  -0.057
  C  C120  1  0.712800  0.361900  0.486500  1.0  -0.1276
  C  C121  1  0.617200  0.379500  0.509900  1.0  0.073
  C  C122  1  0.596400  0.314600  0.544200  1.0  -0.1552
  C  C123  1  0.671100  0.229300  0.549000  1.0  -0.0342
  C  C124  1  0.534700  0.463400  0.502500  1.0  -0.003
  C  C125  1  0.197700  0.459900  0.063700  1.0  0.7657
  C  C126  1  0.293800  0.430300  0.101900  1.0  -0.1455
  C  C127  1  0.284400  0.471700  0.141800  1.0  -0.0759
  C  C128  1  0.370700  0.441600  0.176300  1.0  -0.1005
  C  C129  1  0.462700  0.374500  0.172000  1.0  0.0485
  C  C130  1  0.526200  0.665500  0.867000  1.0  -0.1328
  C  C131  1  0.614200  0.636500  0.903000  1.0  -0.0417
  C  C132  1  0.550200  0.338000  0.209300  1.0  -0.12
  C  C133  1  0.975200  0.182400  0.383100  1.0  0.7068
  C  C134  1  0.883300  0.216600  0.344800  1.0  0.042
  C  C135  1  0.775200  0.273900  0.349800  1.0  -0.0526
  C  C136  1  0.693800  0.307200  0.315000  1.0  -0.1108
  C  C137  1  0.712900  0.275600  0.274200  1.0  0.0084
  C  C138  1  0.814000  0.215000  0.269600  1.0  -0.0946
  C  C139  1  0.899500  0.183000  0.304200  1.0  0.073
  C  C140  1  0.626300  0.310200  0.238000  1.0  -0.1437
  C  C141  1  0.161000  0.614500  0.969600  1.0  0.688
  C  C142  1  0.236000  0.709100  0.976100  1.0  -0.1451
  C  C143  1  0.213500  0.772400  0.006200  1.0  -0.0576
  C  C144  1  0.287200  0.861900  0.013500  1.0  -0.1278
  C  C145  1  0.382800  0.879500  0.990100  1.0  0.0739
  C  C146  1  0.403600  0.814600  0.955800  1.0  -0.1534
  C  C147  1  0.328900  0.729300  0.951000  1.0  -0.0344
  C  C148  1  0.465300  0.963400  0.997500  1.0  -0.004
  O  O149  1  0.100900  0.990800  0.572250  1.0  -0.7094
  O  O150  1  0.783100  0.931600  0.472000  1.0  -0.7014
  O  O151  1  0.060000  0.379900  0.879300  1.0  -0.6729
  O  O152  1  0.957800  0.280600  0.918200  1.0  -0.7089
  O  O153  1  0.069200  0.901700  0.491000  1.0  -0.83
  O  O154  1  0.192500  0.947000  0.442700  1.0  -0.6941
  O  O155  1  0.899100  0.490800  0.927750  1.0  -0.7064
  O  O156  1  0.216900  0.431600  0.028000  1.0  -0.7021
  O  O157  1  0.940000  0.879900  0.620700  1.0  -0.6705
  O  O158  1  0.042200  0.780600  0.581800  1.0  -0.7081
  O  O159  1  0.930800  0.401700  0.009000  1.0  -0.831
  O  O160  1  0.807500  0.447000  0.057300  1.0  -0.694
  O  O161  1  0.899100  0.009200  0.427750  1.0  -0.7056
  O  O162  1  0.216900  0.068400  0.528000  1.0  -0.7006
  O  O163  1  0.940000  0.620100  0.120700  1.0  -0.6699
  O  O164  1  0.042200  0.719400  0.081800  1.0  -0.7072
  O  O165  1  0.930800  0.098300  0.509000  1.0  -0.8307
  O  O166  1  0.807500  0.053000  0.557300  1.0  -0.697
  O  O167  1  0.100900  0.509200  0.072250  1.0  -0.7065
  O  O168  1  0.783100  0.568400  0.972000  1.0  -0.701
  O  O169  1  0.060000  0.120100  0.379300  1.0  -0.6719
  O  O170  1  0.957800  0.219400  0.418200  1.0  -0.7081
  O  O171  1  0.069200  0.598300  0.991000  1.0  -0.8298
  O  O172  1  0.192500  0.553000  0.942700  1.0  -0.6981
