# generated using pymatgen
data_CuH14C10IN4
_symmetry_space_group_name_H-M   'P 1'
_cell_length_a   17.10000000
_cell_length_b   13.30300000
_cell_length_c   7.29700000
_cell_angle_alpha   90.00000000
_cell_angle_beta   90.00000000
_cell_angle_gamma   90.00000000
_symmetry_Int_Tables_number   1
_chemical_formula_structural   CuH14C10IN4
_chemical_formula_sum   'Cu4 H56 C40 I4 N16'
_cell_volume   1659.93104610
_cell_formula_units_Z   4
loop_
 _symmetry_equiv_pos_site_id
 _symmetry_equiv_pos_as_xyz
  1  'x, y, z'
loop_
 _atom_site_type_symbol
 _atom_site_label
 _atom_site_symmetry_multiplicity
 _atom_site_fract_x
 _atom_site_fract_y
 _atom_site_fract_z
 _atom_site_occupancy
 _atom_site_charge
  Cu  Cu1  1  0.750000  0.651600  0.667900  1.0  0.2901
  Cu  Cu2  1  0.250000  0.151600  0.167900  1.0  0.2901
  Cu  Cu3  1  0.250000  0.348400  0.667900  1.0  0.2907
  Cu  Cu4  1  0.750000  0.848400  0.167900  1.0  0.2907
  H  H5  1  0.582800  0.489700  0.876200  1.0  0.1415
  H  H6  1  0.667800  0.468500  0.792800  1.0  0.1381
  H  H7  1  0.595000  0.400500  0.731700  1.0  0.1297
  H  H8  1  0.505000  0.725200  0.210700  1.0  0.1166
  H  H9  1  0.448000  0.630100  0.223100  1.0  0.1415
  H  H10  1  0.526000  0.624100  0.102700  1.0  0.1301
  H  H11  1  0.632800  0.711600  0.375700  1.0  0.2335
  H  H12  1  0.082800  0.989700  0.376200  1.0  0.1415
  H  H13  1  0.167800  0.968500  0.292800  1.0  0.1381
  H  H14  1  0.095000  0.900500  0.231700  1.0  0.1297
  H  H15  1  0.005000  0.225200  0.710700  1.0  0.1166
  H  H16  1  0.948000  0.130100  0.723100  1.0  0.1415
  H  H17  1  0.026000  0.124100  0.602700  1.0  0.1301
  H  H18  1  0.132800  0.211600  0.875700  1.0  0.2335
  H  H19  1  0.417200  0.510300  0.876200  1.0  0.1424
  H  H20  1  0.332200  0.531500  0.792800  1.0  0.1361
  H  H21  1  0.405000  0.599500  0.731700  1.0  0.1316
  H  H22  1  0.495000  0.274800  0.210700  1.0  0.1153
  H  H23  1  0.552000  0.369900  0.223100  1.0  0.1406
  H  H24  1  0.474000  0.375900  0.102700  1.0  0.1305
  H  H25  1  0.367200  0.288400  0.375700  1.0  0.2339
  H  H26  1  0.917200  0.010300  0.376200  1.0  0.1424
  H  H27  1  0.832200  0.031500  0.292800  1.0  0.1361
  H  H28  1  0.905000  0.099500  0.231700  1.0  0.1316
  H  H29  1  0.995000  0.774800  0.710700  1.0  0.1153
  H  H30  1  0.052000  0.869900  0.723100  1.0  0.1406
  H  H31  1  0.974000  0.875900  0.602700  1.0  0.1305
  H  H32  1  0.867200  0.788400  0.875700  1.0  0.2339
  H  H33  1  0.082800  0.510300  0.876200  1.0  0.1416
  H  H34  1  0.167800  0.531500  0.792800  1.0  0.1383
  H  H35  1  0.095000  0.599500  0.731700  1.0  0.1316
  H  H36  1  0.005000  0.274800  0.210700  1.0  0.1141
  H  H37  1  0.948000  0.369900  0.223100  1.0  0.141
  H  H38  1  0.026000  0.375900  0.102700  1.0  0.13
  H  H39  1  0.132800  0.288400  0.375700  1.0  0.2333
  H  H40  1  0.582800  0.010300  0.376200  1.0  0.1416
  H  H41  1  0.667800  0.031500  0.292800  1.0  0.1383
  H  H42  1  0.595000  0.099500  0.231700  1.0  0.1316
  H  H43  1  0.505000  0.774800  0.710700  1.0  0.1141
  H  H44  1  0.448000  0.869900  0.723100  1.0  0.141
  H  H45  1  0.526000  0.875900  0.602700  1.0  0.13
  H  H46  1  0.632800  0.788400  0.875700  1.0  0.2333
  H  H47  1  0.917200  0.489700  0.876200  1.0  0.1426
  H  H48  1  0.832200  0.468500  0.792800  1.0  0.1364
  H  H49  1  0.905000  0.400500  0.731700  1.0  0.1285
  H  H50  1  0.995000  0.725200  0.210700  1.0  0.1167
  H  H51  1  0.052000  0.630100  0.223100  1.0  0.1411
  H  H52  1  0.974000  0.624100  0.102700  1.0  0.1306
  H  H53  1  0.867200  0.711600  0.375700  1.0  0.2345
  H  H54  1  0.417200  0.989700  0.376200  1.0  0.1426
  H  H55  1  0.332200  0.968500  0.292800  1.0  0.1364
  H  H56  1  0.405000  0.900500  0.231700  1.0  0.1285
  H  H57  1  0.495000  0.225200  0.710700  1.0  0.1167
  H  H58  1  0.552000  0.130100  0.723100  1.0  0.1411
  H  H59  1  0.474000  0.124100  0.602700  1.0  0.1306
  H  H60  1  0.367200  0.211600  0.875700  1.0  0.2345
  C  C61  1  0.611500  0.468400  0.767000  1.0  -0.3819
  C  C62  1  0.595500  0.536800  0.619000  1.0  0.2349
  C  C63  1  0.533400  0.535800  0.493000  1.0  -0.1248
  C  C64  1  0.545700  0.615200  0.374000  1.0  0.1838
  C  C65  1  0.502600  0.652000  0.215000  1.0  -0.3698
  C  C66  1  0.111500  0.968400  0.267000  1.0  -0.3819
  C  C67  1  0.095500  0.036800  0.119000  1.0  0.2349
  C  C68  1  0.033400  0.035800  0.993000  1.0  -0.1248
  C  C69  1  0.045700  0.115200  0.874000  1.0  0.1838
  C  C70  1  0.002600  0.152000  0.715000  1.0  -0.3698
  C  C71  1  0.388500  0.531600  0.767000  1.0  -0.3812
  C  C72  1  0.404500  0.463200  0.619000  1.0  0.2345
  C  C73  1  0.466600  0.464200  0.493000  1.0  -0.1244
  C  C74  1  0.454300  0.384800  0.374000  1.0  0.1839
  C  C75  1  0.497400  0.348000  0.215000  1.0  -0.3718
  C  C76  1  0.888500  0.031600  0.267000  1.0  -0.3812
  C  C77  1  0.904500  0.963200  0.119000  1.0  0.2345
  C  C78  1  0.966600  0.964200  0.993000  1.0  -0.1244
  C  C79  1  0.954300  0.884800  0.874000  1.0  0.1839
  C  C80  1  0.997400  0.848000  0.715000  1.0  -0.3718
  C  C81  1  0.111500  0.531600  0.767000  1.0  -0.3818
  C  C82  1  0.095500  0.463200  0.619000  1.0  0.2349
  C  C83  1  0.033400  0.464200  0.493000  1.0  -0.1244
  C  C84  1  0.045700  0.384800  0.374000  1.0  0.1836
  C  C85  1  0.002600  0.348000  0.215000  1.0  -0.3699
  C  C86  1  0.611500  0.031600  0.267000  1.0  -0.3818
  C  C87  1  0.595500  0.963200  0.119000  1.0  0.2349
  C  C88  1  0.533400  0.964200  0.993000  1.0  -0.1244
  C  C89  1  0.545700  0.884800  0.874000  1.0  0.1836
  C  C90  1  0.502600  0.848000  0.715000  1.0  -0.3699
  C  C91  1  0.888500  0.468400  0.767000  1.0  -0.3818
  C  C92  1  0.904500  0.536800  0.619000  1.0  0.2344
  C  C93  1  0.966600  0.535800  0.493000  1.0  -0.1245
  C  C94  1  0.954300  0.615200  0.374000  1.0  0.1839
  C  C95  1  0.997400  0.652000  0.215000  1.0  -0.372
  C  C96  1  0.388500  0.968400  0.267000  1.0  -0.3818
  C  C97  1  0.404500  0.036800  0.119000  1.0  0.2344
  C  C98  1  0.466600  0.035800  0.993000  1.0  -0.1245
  C  C99  1  0.454300  0.115200  0.874000  1.0  0.1839
  C  C100  1  0.497400  0.152000  0.715000  1.0  -0.372
  I  I101  1  0.750000  0.847640  0.534780  1.0  -0.3286
  I  I102  1  0.250000  0.347640  0.034780  1.0  -0.3286
  I  I103  1  0.250000  0.152360  0.534780  1.0  -0.3286
  I  I104  1  0.750000  0.652360  0.034780  1.0  -0.3286
  N  N105  1  0.644800  0.613600  0.578300  1.0  -0.4288
  N  N106  1  0.612200  0.658800  0.429900  1.0  -0.1243
  N  N107  1  0.144800  0.113600  0.078300  1.0  -0.4288
  N  N108  1  0.112200  0.158800  0.929900  1.0  -0.1243
  N  N109  1  0.355200  0.386400  0.578300  1.0  -0.4279
  N  N110  1  0.387800  0.341200  0.429900  1.0  -0.1249
  N  N111  1  0.855200  0.886400  0.078300  1.0  -0.4279
  N  N112  1  0.887800  0.841200  0.929900  1.0  -0.1249
  N  N113  1  0.144800  0.386400  0.578300  1.0  -0.4282
  N  N114  1  0.112200  0.341200  0.429900  1.0  -0.1243
  N  N115  1  0.644800  0.886400  0.078300  1.0  -0.4282
  N  N116  1  0.612200  0.841200  0.929900  1.0  -0.1243
  N  N117  1  0.855200  0.613600  0.578300  1.0  -0.428
  N  N118  1  0.887800  0.658800  0.429900  1.0  -0.1246
  N  N119  1  0.355200  0.113600  0.078300  1.0  -0.428
  N  N120  1  0.387800  0.158800  0.929900  1.0  -0.1246
