# generated using pymatgen
data_LaEuH12(C4O5)3
_symmetry_space_group_name_H-M   'P 1'
_cell_length_a   9.29500000
_cell_length_b   9.29500000
_cell_length_c   17.68900000
_cell_angle_alpha   90.00000000
_cell_angle_beta   90.00000000
_cell_angle_gamma   120.00000000
_symmetry_Int_Tables_number   1
_chemical_formula_structural   LaEuH12(C4O5)3
_chemical_formula_sum   'La2 Eu2 H24 C24 O30'
_cell_volume   1323.52668456
_cell_formula_units_Z   2
loop_
 _symmetry_equiv_pos_site_id
 _symmetry_equiv_pos_as_xyz
  1  'x, y, z'
loop_
 _atom_site_type_symbol
 _atom_site_label
 _atom_site_symmetry_multiplicity
 _atom_site_fract_x
 _atom_site_fract_y
 _atom_site_fract_z
 _atom_site_occupancy
 _atom_site_charge
  La  La1  1  0.333333  0.666667  0.750000  1.0  2.2584
  La  La2  1  0.666667  0.333333  0.250000  1.0  2.2584
  Eu  Eu3  1  0.000000  0.000000  0.000000  1.0  1.9894
  Eu  Eu4  1  0.000000  0.000000  0.500000  1.0  1.9894
  H  H5  1  0.573000  0.598400  0.917200  1.0  0.1093
  H  H6  1  0.509000  0.676300  0.975600  1.0  0.0924
  H  H7  1  0.025400  0.427000  0.917200  1.0  0.1081
  H  H8  1  0.167300  0.491000  0.975600  1.0  0.0921
  H  H9  1  0.401600  0.974600  0.917200  1.0  0.109
  H  H10  1  0.323700  0.832700  0.975600  1.0  0.093
  H  H11  1  0.573000  0.598400  0.582800  1.0  0.1104
  H  H12  1  0.509000  0.676300  0.524400  1.0  0.0922
  H  H13  1  0.025400  0.427000  0.582800  1.0  0.1089
  H  H14  1  0.167300  0.491000  0.524400  1.0  0.0929
  H  H15  1  0.401600  0.974600  0.582800  1.0  0.1097
  H  H16  1  0.323700  0.832700  0.524400  1.0  0.0926
  H  H17  1  0.974600  0.401600  0.082800  1.0  0.1095
  H  H18  1  0.832700  0.323700  0.024400  1.0  0.0925
  H  H19  1  0.598400  0.573000  0.082800  1.0  0.1088
  H  H20  1  0.676300  0.509000  0.024400  1.0  0.0928
  H  H21  1  0.427000  0.025400  0.082800  1.0  0.1097
  H  H22  1  0.491000  0.167300  0.024400  1.0  0.093
  H  H23  1  0.974600  0.401600  0.417200  1.0  0.1094
  H  H24  1  0.832700  0.323700  0.475600  1.0  0.0924
  H  H25  1  0.598400  0.573000  0.417200  1.0  0.1078
  H  H26  1  0.676300  0.509000  0.475600  1.0  0.0933
  H  H27  1  0.427000  0.025400  0.417200  1.0  0.1086
  H  H28  1  0.491000  0.167300  0.475600  1.0  0.0924
  C  C29  1  0.655600  0.839800  0.895000  1.0  0.752
  C  C30  1  0.602800  0.694400  0.946900  1.0  -0.0719
  C  C31  1  0.184200  0.344400  0.895000  1.0  0.7494
  C  C32  1  0.091600  0.397200  0.946900  1.0  -0.0704
  C  C33  1  0.160200  0.815800  0.895000  1.0  0.751
  C  C34  1  0.305600  0.908400  0.946900  1.0  -0.0708
  C  C35  1  0.655600  0.839800  0.605000  1.0  0.7535
  C  C36  1  0.602800  0.694400  0.553100  1.0  -0.0713
  C  C37  1  0.184200  0.344400  0.605000  1.0  0.7524
  C  C38  1  0.091600  0.397200  0.553100  1.0  -0.0697
  C  C39  1  0.160200  0.815800  0.605000  1.0  0.751
  C  C40  1  0.305600  0.908400  0.553100  1.0  -0.0707
  C  C41  1  0.815800  0.160200  0.105000  1.0  0.7527
  C  C42  1  0.908400  0.305600  0.053100  1.0  -0.0704
  C  C43  1  0.839800  0.655600  0.105000  1.0  0.7518
  C  C44  1  0.694400  0.602800  0.053100  1.0  -0.0708
  C  C45  1  0.344400  0.184200  0.105000  1.0  0.7513
  C  C46  1  0.397200  0.091600  0.053100  1.0  -0.0701
  C  C47  1  0.815800  0.160200  0.395000  1.0  0.7503
  C  C48  1  0.908400  0.305600  0.446900  1.0  -0.0712
  C  C49  1  0.839800  0.655600  0.395000  1.0  0.7497
  C  C50  1  0.694400  0.602800  0.446900  1.0  -0.071
  C  C51  1  0.344400  0.184200  0.395000  1.0  0.7514
  C  C52  1  0.397200  0.091600  0.446900  1.0  -0.0704
  O  O53  1  0.558400  0.826700  0.844300  1.0  -0.7573
  O  O54  1  0.793800  0.966500  0.906800  1.0  -0.6651
  O  O55  1  0.268300  0.441600  0.844300  1.0  -0.7579
  O  O56  1  0.172700  0.206200  0.906800  1.0  -0.6664
  O  O57  1  0.173300  0.731700  0.844300  1.0  -0.762
  O  O58  1  0.033500  0.827300  0.906800  1.0  -0.6684
  O  O59  1  0.558400  0.826700  0.655700  1.0  -0.7577
  O  O60  1  0.793800  0.966500  0.593200  1.0  -0.6659
  O  O61  1  0.268300  0.441600  0.655700  1.0  -0.7587
  O  O62  1  0.172700  0.206200  0.593200  1.0  -0.667
  O  O63  1  0.173300  0.731700  0.655700  1.0  -0.7633
  O  O64  1  0.033500  0.827300  0.593200  1.0  -0.6696
  O  O65  1  0.731700  0.173300  0.155700  1.0  -0.7581
  O  O66  1  0.827300  0.033500  0.093200  1.0  -0.6663
  O  O67  1  0.826700  0.558400  0.155700  1.0  -0.7586
  O  O68  1  0.966500  0.793800  0.093200  1.0  -0.6668
  O  O69  1  0.441600  0.268300  0.155700  1.0  -0.763
  O  O70  1  0.206200  0.172700  0.093200  1.0  -0.6692
  O  O71  1  0.731700  0.173300  0.344300  1.0  -0.7572
  O  O72  1  0.827300  0.033500  0.406800  1.0  -0.6656
  O  O73  1  0.826700  0.558400  0.344300  1.0  -0.7587
  O  O74  1  0.966500  0.793800  0.406800  1.0  -0.6669
  O  O75  1  0.441600  0.268300  0.344300  1.0  -0.7615
  O  O76  1  0.206200  0.172700  0.406800  1.0  -0.6676
  O  O77  1  0.732300  0.732300  0.000000  1.0  -0.3277
  O  O78  1  0.000000  0.267700  0.000000  1.0  -0.328
  O  O79  1  0.267700  0.000000  0.000000  1.0  -0.3268
  O  O80  1  0.732300  0.732300  0.500000  1.0  -0.3277
  O  O81  1  0.000000  0.267700  0.500000  1.0  -0.328
  O  O82  1  0.267700  0.000000  0.500000  1.0  -0.3268
