# generated using pymatgen
data_CuH14C10IN4
_symmetry_space_group_name_H-M   'P 1'
_cell_length_a   17.04050000
_cell_length_b   13.62950000
_cell_length_c   7.46170000
_cell_angle_alpha   90.00000000
_cell_angle_beta   90.00000000
_cell_angle_gamma   90.00000000
_symmetry_Int_Tables_number   1
_chemical_formula_structural   CuH14C10IN4
_chemical_formula_sum   'Cu4 H56 C40 I4 N16'
_cell_volume   1733.00590178
_cell_formula_units_Z   4
loop_
 _symmetry_equiv_pos_site_id
 _symmetry_equiv_pos_as_xyz
  1  'x, y, z'
loop_
 _atom_site_type_symbol
 _atom_site_label
 _atom_site_symmetry_multiplicity
 _atom_site_fract_x
 _atom_site_fract_y
 _atom_site_fract_z
 _atom_site_occupancy
 _atom_site_charge
  Cu  Cu1  1  0.750000  0.648300  0.685300  1.0  0.2889
  Cu  Cu2  1  0.250000  0.148300  0.185300  1.0  0.2889
  Cu  Cu3  1  0.250000  0.351700  0.685300  1.0  0.2882
  Cu  Cu4  1  0.750000  0.851700  0.185300  1.0  0.2882
  H  H5  1  0.638800  0.412600  0.738900  1.0  0.1328
  H  H6  1  0.562600  0.448700  0.836700  1.0  0.1185
  H  H7  1  0.643100  0.500500  0.874000  1.0  0.1352
  H  H8  1  0.519700  0.713000  0.210200  1.0  0.1201
  H  H9  1  0.445300  0.655000  0.274000  1.0  0.1361
  H  H10  1  0.505900  0.605000  0.145200  1.0  0.1317
  H  H11  1  0.631600  0.705800  0.399300  1.0  0.2608
  H  H12  1  0.138800  0.912600  0.238900  1.0  0.1328
  H  H13  1  0.062600  0.948700  0.336700  1.0  0.1185
  H  H14  1  0.143100  0.000500  0.374000  1.0  0.1352
  H  H15  1  0.019700  0.213000  0.710200  1.0  0.1201
  H  H16  1  0.945300  0.155000  0.774000  1.0  0.1361
  H  H17  1  0.005900  0.105000  0.645200  1.0  0.1317
  H  H18  1  0.131600  0.205800  0.899300  1.0  0.2608
  H  H19  1  0.361200  0.587400  0.738900  1.0  0.1335
  H  H20  1  0.437400  0.551300  0.836700  1.0  0.1191
  H  H21  1  0.356900  0.499500  0.874000  1.0  0.1348
  H  H22  1  0.480300  0.287000  0.210200  1.0  0.1193
  H  H23  1  0.554700  0.345000  0.274000  1.0  0.1371
  H  H24  1  0.494100  0.395000  0.145200  1.0  0.1308
  H  H25  1  0.368400  0.294200  0.399300  1.0  0.2608
  H  H26  1  0.861200  0.087400  0.238900  1.0  0.1335
  H  H27  1  0.937400  0.051300  0.336700  1.0  0.1191
  H  H28  1  0.856900  0.999500  0.374000  1.0  0.1348
  H  H29  1  0.980300  0.787000  0.710200  1.0  0.1193
  H  H30  1  0.054700  0.845000  0.774000  1.0  0.1371
  H  H31  1  0.994100  0.895000  0.645200  1.0  0.1308
  H  H32  1  0.868400  0.794200  0.899300  1.0  0.2608
  H  H33  1  0.138800  0.587400  0.738900  1.0  0.1333
  H  H34  1  0.062600  0.551300  0.836700  1.0  0.1185
  H  H35  1  0.143100  0.499500  0.874000  1.0  0.1349
  H  H36  1  0.019700  0.287000  0.210200  1.0  0.1188
  H  H37  1  0.945300  0.345000  0.274000  1.0  0.1365
  H  H38  1  0.005900  0.395000  0.145200  1.0  0.1315
  H  H39  1  0.131600  0.294200  0.399300  1.0  0.2605
  H  H40  1  0.638800  0.087400  0.238900  1.0  0.1333
  H  H41  1  0.562600  0.051300  0.336700  1.0  0.1185
  H  H42  1  0.643100  0.999500  0.374000  1.0  0.1349
  H  H43  1  0.519700  0.787000  0.710200  1.0  0.1188
  H  H44  1  0.445300  0.845000  0.774000  1.0  0.1365
  H  H45  1  0.505900  0.895000  0.645200  1.0  0.1315
  H  H46  1  0.631600  0.794200  0.899300  1.0  0.2605
  H  H47  1  0.861200  0.412600  0.738900  1.0  0.1322
  H  H48  1  0.937400  0.448700  0.836700  1.0  0.1198
  H  H49  1  0.856900  0.500500  0.874000  1.0  0.1346
  H  H50  1  0.980300  0.713000  0.210200  1.0  0.1193
  H  H51  1  0.054700  0.655000  0.274000  1.0  0.1371
  H  H52  1  0.994100  0.605000  0.145200  1.0  0.1306
  H  H53  1  0.868400  0.705800  0.399300  1.0  0.2616
  H  H54  1  0.361200  0.912600  0.238900  1.0  0.1322
  H  H55  1  0.437400  0.948700  0.336700  1.0  0.1198
  H  H56  1  0.356900  0.000500  0.374000  1.0  0.1346
  H  H57  1  0.480300  0.213000  0.710200  1.0  0.1193
  H  H58  1  0.554700  0.155000  0.774000  1.0  0.1371
  H  H59  1  0.494100  0.105000  0.645200  1.0  0.1306
  H  H60  1  0.368400  0.205800  0.899300  1.0  0.2616
  C  C61  1  0.611500  0.469000  0.784000  1.0  -0.3883
  C  C62  1  0.596500  0.536800  0.640000  1.0  0.2229
  C  C63  1  0.533200  0.535900  0.514000  1.0  -0.0879
  C  C64  1  0.544100  0.612600  0.401000  1.0  0.1423
  C  C65  1  0.499900  0.649700  0.244000  1.0  -0.3624
  C  C66  1  0.111500  0.969000  0.284000  1.0  -0.3883
  C  C67  1  0.096500  0.036800  0.140000  1.0  0.2229
  C  C68  1  0.033200  0.035900  0.014000  1.0  -0.0879
  C  C69  1  0.044100  0.112600  0.901000  1.0  0.1423
  C  C70  1  0.999900  0.149700  0.744000  1.0  -0.3624
  C  C71  1  0.388500  0.531000  0.784000  1.0  -0.39
  C  C72  1  0.403500  0.463200  0.640000  1.0  0.2222
  C  C73  1  0.466800  0.464100  0.514000  1.0  -0.0882
  C  C74  1  0.455900  0.387400  0.401000  1.0  0.1425
  C  C75  1  0.500100  0.350300  0.244000  1.0  -0.3619
  C  C76  1  0.888500  0.031000  0.284000  1.0  -0.39
  C  C77  1  0.903500  0.963200  0.140000  1.0  0.2222
  C  C78  1  0.966800  0.964100  0.014000  1.0  -0.0882
  C  C79  1  0.955900  0.887400  0.901000  1.0  0.1425
  C  C80  1  0.000100  0.850300  0.744000  1.0  -0.3619
  C  C81  1  0.111500  0.531000  0.784000  1.0  -0.3881
  C  C82  1  0.096500  0.463200  0.640000  1.0  0.2223
  C  C83  1  0.033200  0.464100  0.514000  1.0  -0.0876
  C  C84  1  0.044100  0.387400  0.401000  1.0  0.1427
  C  C85  1  0.999900  0.350300  0.244000  1.0  -0.3622
  C  C86  1  0.611500  0.031000  0.284000  1.0  -0.3881
  C  C87  1  0.596500  0.963200  0.140000  1.0  0.2223
  C  C88  1  0.533200  0.964100  0.014000  1.0  -0.0876
  C  C89  1  0.544100  0.887400  0.901000  1.0  0.1427
  C  C90  1  0.499900  0.850300  0.744000  1.0  -0.3622
  C  C91  1  0.888500  0.469000  0.784000  1.0  -0.3899
  C  C92  1  0.903500  0.536800  0.640000  1.0  0.2225
  C  C93  1  0.966800  0.535900  0.514000  1.0  -0.0882
  C  C94  1  0.955900  0.612600  0.401000  1.0  0.1417
  C  C95  1  0.000100  0.649700  0.244000  1.0  -0.3626
  C  C96  1  0.388500  0.969000  0.284000  1.0  -0.3899
  C  C97  1  0.403500  0.036800  0.140000  1.0  0.2225
  C  C98  1  0.466800  0.035900  0.014000  1.0  -0.0882
  C  C99  1  0.455900  0.112600  0.901000  1.0  0.1417
  C  C100  1  0.500100  0.149700  0.744000  1.0  -0.3626
  I  I101  1  0.750000  0.843440  0.546500  1.0  -0.4085
  I  I102  1  0.250000  0.343440  0.046500  1.0  -0.4085
  I  I103  1  0.250000  0.156560  0.546500  1.0  -0.4082
  I  I104  1  0.750000  0.656560  0.046500  1.0  -0.4082
  N  N105  1  0.643700  0.613700  0.598700  1.0  -0.3529
  N  N106  1  0.611400  0.656100  0.453000  1.0  -0.1469
  N  N107  1  0.143700  0.113700  0.098700  1.0  -0.3529
  N  N108  1  0.111400  0.156100  0.953000  1.0  -0.1469
  N  N109  1  0.356300  0.386300  0.598700  1.0  -0.3543
  N  N110  1  0.388600  0.343900  0.453000  1.0  -0.1475
  N  N111  1  0.856300  0.886300  0.098700  1.0  -0.3543
  N  N112  1  0.888600  0.843900  0.953000  1.0  -0.1475
  N  N113  1  0.143700  0.386300  0.598700  1.0  -0.3522
  N  N114  1  0.111400  0.343900  0.453000  1.0  -0.1467
  N  N115  1  0.643700  0.886300  0.098700  1.0  -0.3522
  N  N116  1  0.611400  0.843900  0.953000  1.0  -0.1467
  N  N117  1  0.856300  0.613700  0.598700  1.0  -0.3544
  N  N118  1  0.888600  0.656100  0.453000  1.0  -0.1472
  N  N119  1  0.356300  0.113700  0.098700  1.0  -0.3544
  N  N120  1  0.388600  0.156100  0.953000  1.0  -0.1472
