# generated using pymatgen
data_AlPO4
_symmetry_space_group_name_H-M   'P 1'
_cell_length_a   13.87000000
_cell_length_b   13.87000000
_cell_length_c   15.22200000
_cell_angle_alpha   90.00000000
_cell_angle_beta   90.00000000
_cell_angle_gamma   120.00000000
_symmetry_Int_Tables_number   1
_chemical_formula_structural   AlPO4
_chemical_formula_sum   'Al18 P18 O72'
_cell_volume   2536.03516623
_cell_formula_units_Z   18
loop_
 _symmetry_equiv_pos_site_id
 _symmetry_equiv_pos_as_xyz
  1  'x, y, z'
loop_
 _atom_site_type_symbol
 _atom_site_label
 _atom_site_symmetry_multiplicity
 _atom_site_fract_x
 _atom_site_fract_y
 _atom_site_fract_z
 _atom_site_occupancy
 _atom_site_charge
  Al  Al1  1  0.566030  0.675070  0.266110  1.0  1.8695
  Al  Al2  1  0.232700  0.008400  0.599440  1.0  1.8696
  Al  Al3  1  0.899360  0.341740  0.932780  1.0  1.8695
  Al  Al4  1  0.324930  0.890960  0.266110  1.0  1.8709
  Al  Al5  1  0.991600  0.224290  0.599440  1.0  1.8709
  Al  Al6  1  0.658260  0.557630  0.932780  1.0  1.8709
  Al  Al7  1  0.109040  0.433970  0.266110  1.0  1.8688
  Al  Al8  1  0.775710  0.767300  0.599440  1.0  1.8688
  Al  Al9  1  0.442370  0.100640  0.932780  1.0  1.8688
  Al  Al10  1  0.433970  0.324930  0.733890  1.0  1.8687
  Al  Al11  1  0.100640  0.658260  0.067220  1.0  1.8687
  Al  Al12  1  0.767300  0.991600  0.400560  1.0  1.8687
  Al  Al13  1  0.675070  0.109040  0.733890  1.0  1.8706
  Al  Al14  1  0.341740  0.442370  0.067220  1.0  1.8706
  Al  Al15  1  0.008400  0.775710  0.400560  1.0  1.8706
  Al  Al16  1  0.890960  0.566030  0.733890  1.0  1.8688
  Al  Al17  1  0.557630  0.899360  0.067220  1.0  1.8688
  Al  Al18  1  0.224290  0.232700  0.400560  1.0  1.8688
  P  P19  1  0.568520  0.675090  0.057680  1.0  1.916
  P  P20  1  0.235190  0.008420  0.391010  1.0  1.916
  P  P21  1  0.901850  0.341760  0.724350  1.0  1.916
  P  P22  1  0.324910  0.893430  0.057680  1.0  1.9154
  P  P23  1  0.991580  0.226760  0.391010  1.0  1.9154
  P  P24  1  0.658240  0.560100  0.724350  1.0  1.9154
  P  P25  1  0.106570  0.431480  0.057680  1.0  1.9168
  P  P26  1  0.773240  0.764810  0.391010  1.0  1.9168
  P  P27  1  0.439900  0.098150  0.724350  1.0  1.9168
  P  P28  1  0.431480  0.324910  0.942320  1.0  1.9161
  P  P29  1  0.098150  0.658240  0.275650  1.0  1.9161
  P  P30  1  0.764810  0.991580  0.608990  1.0  1.9161
  P  P31  1  0.675090  0.106570  0.942320  1.0  1.916
  P  P32  1  0.341760  0.439900  0.275650  1.0  1.916
  P  P33  1  0.008420  0.773240  0.608990  1.0  1.916
  P  P34  1  0.893430  0.568520  0.942320  1.0  1.9166
  P  P35  1  0.560100  0.901850  0.275650  1.0  1.9166
  P  P36  1  0.226760  0.235190  0.608990  1.0  1.9166
  O  O37  1  0.603000  0.676100  0.151200  1.0  -0.9544
  O  O38  1  0.648200  0.662500  0.997600  1.0  -0.864
  O  O39  1  0.449900  0.582000  0.043600  1.0  -1.0579
  O  O40  1  0.576600  0.783800  0.035600  1.0  -0.9037
  O  O41  1  0.269670  0.009430  0.484530  1.0  -0.9544
  O  O42  1  0.314870  0.995830  0.330930  1.0  -0.864
  O  O43  1  0.116570  0.915330  0.376930  1.0  -1.0647
  O  O44  1  0.243270  0.117130  0.368930  1.0  -0.9037
  O  O45  1  0.936330  0.342770  0.817870  1.0  -0.9544
  O  O46  1  0.981530  0.329170  0.664270  1.0  -0.863
  O  O47  1  0.783230  0.248670  0.710270  1.0  -1.0607
  O  O48  1  0.909930  0.450470  0.702270  1.0  -0.9037
  O  O49  1  0.323900  0.926900  0.151200  1.0  -0.9555
  O  O50  1  0.337500  0.985700  0.997600  1.0  -0.8644
  O  O51  1  0.418000  0.867900  0.043600  1.0  -1.0617
  O  O52  1  0.216200  0.792800  0.035600  1.0  -0.9037
  O  O53  1  0.990570  0.260230  0.484530  1.0  -0.9555
  O  O54  1  0.004170  0.319030  0.330930  1.0  -0.8644
  O  O55  1  0.084670  0.201230  0.376930  1.0  -1.0602
  O  O56  1  0.882870  0.126130  0.368930  1.0  -0.904
  O  O57  1  0.657230  0.593570  0.817870  1.0  -0.9555
  O  O58  1  0.670830  0.652370  0.664270  1.0  -0.8629
  O  O59  1  0.751330  0.534570  0.710270  1.0  -1.0641
  O  O60  1  0.549530  0.459470  0.702270  1.0  -0.9037
  O  O61  1  0.073100  0.397000  0.151200  1.0  -0.9557
  O  O62  1  0.014300  0.351800  0.997600  1.0  -0.8603
  O  O63  1  0.132100  0.550100  0.043600  1.0  -1.07
  O  O64  1  0.207200  0.423400  0.035600  1.0  -0.9015
  O  O65  1  0.739770  0.730330  0.484530  1.0  -0.9557
  O  O66  1  0.680970  0.685130  0.330930  1.0  -0.8603
  O  O67  1  0.798770  0.883430  0.376930  1.0  -1.0667
  O  O68  1  0.873870  0.756730  0.368930  1.0  -0.9015
  O  O69  1  0.406430  0.063670  0.817870  1.0  -0.9557
  O  O70  1  0.347630  0.018470  0.664270  1.0  -0.8676
  O  O71  1  0.465430  0.216770  0.710270  1.0  -1.0669
  O  O72  1  0.540530  0.090070  0.702270  1.0  -0.9012
  O  O73  1  0.397000  0.323900  0.848800  1.0  -0.9553
  O  O74  1  0.351800  0.337500  0.002400  1.0  -0.865
  O  O75  1  0.550100  0.418000  0.956400  1.0  -1.0576
  O  O76  1  0.423400  0.216200  0.964400  1.0  -0.9047
  O  O77  1  0.063670  0.657230  0.182130  1.0  -0.9553
  O  O78  1  0.018470  0.670830  0.335730  1.0  -0.8638
  O  O79  1  0.216770  0.751330  0.289730  1.0  -1.0607
  O  O80  1  0.090070  0.549530  0.297730  1.0  -0.9047
  O  O81  1  0.730330  0.990570  0.515470  1.0  -0.9553
  O  O82  1  0.685130  0.004170  0.669070  1.0  -0.865
  O  O83  1  0.883430  0.084670  0.623070  1.0  -1.0648
  O  O84  1  0.756730  0.882870  0.631070  1.0  -0.9047
  O  O85  1  0.676100  0.073100  0.848800  1.0  -0.9544
  O  O86  1  0.662500  0.014300  0.002400  1.0  -0.8652
  O  O87  1  0.582000  0.132100  0.956400  1.0  -1.0637
  O  O88  1  0.783800  0.207200  0.964400  1.0  -0.9022
  O  O89  1  0.342770  0.406430  0.182130  1.0  -0.9544
  O  O90  1  0.329170  0.347630  0.335730  1.0  -0.8635
  O  O91  1  0.248670  0.465430  0.289730  1.0  -1.0663
  O  O92  1  0.450470  0.540530  0.297730  1.0  -0.9022
  O  O93  1  0.009430  0.739770  0.515470  1.0  -0.9544
  O  O94  1  0.995830  0.680970  0.669070  1.0  -0.8652
  O  O95  1  0.915330  0.798770  0.623070  1.0  -1.0621
  O  O96  1  0.117130  0.873870  0.631070  1.0  -0.9024
  O  O97  1  0.926900  0.603000  0.848800  1.0  -0.957
  O  O98  1  0.985700  0.648200  0.002400  1.0  -0.8598
  O  O99  1  0.867900  0.449900  0.956400  1.0  -1.0681
  O  O100  1  0.792800  0.576600  0.964400  1.0  -0.9024
  O  O101  1  0.593570  0.936330  0.182130  1.0  -0.957
  O  O102  1  0.652370  0.981530  0.335730  1.0  -0.8671
  O  O103  1  0.534570  0.783230  0.289730  1.0  -1.065
  O  O104  1  0.459470  0.909930  0.297730  1.0  -0.9022
  O  O105  1  0.260230  0.269670  0.515470  1.0  -0.9571
  O  O106  1  0.319030  0.314870  0.669070  1.0  -0.8598
  O  O107  1  0.201230  0.116570  0.623070  1.0  -1.0647
  O  O108  1  0.126130  0.243270  0.631070  1.0  -0.9024
