# generated using pymatgen
data_Er2H6(C7O4)3
_symmetry_space_group_name_H-M   'P 1'
_cell_length_a   9.84420000
_cell_length_b   10.87950000
_cell_length_c   29.22880000
_cell_angle_alpha   90.00000000
_cell_angle_beta   90.00000000
_cell_angle_gamma   92.17700000
_symmetry_Int_Tables_number   1
_chemical_formula_structural   Er2H6(C7O4)3
_chemical_formula_sum   'Er8 H24 C84 O48'
_cell_volume   3128.14433495
_cell_formula_units_Z   4
loop_
 _symmetry_equiv_pos_site_id
 _symmetry_equiv_pos_as_xyz
  1  'x, y, z'
loop_
 _atom_site_type_symbol
 _atom_site_label
 _atom_site_symmetry_multiplicity
 _atom_site_fract_x
 _atom_site_fract_y
 _atom_site_fract_z
 _atom_site_occupancy
 _atom_site_charge
  Er  Er1  1  0.545170  0.041560  0.918510  1.0  1.5649
  Er  Er2  1  0.540260  0.263420  0.748460  1.0  1.6166
  Er  Er3  1  0.454830  0.458440  0.418510  1.0  1.5643
  Er  Er4  1  0.459740  0.236580  0.248460  1.0  1.6165
  Er  Er5  1  0.454830  0.958440  0.081490  1.0  1.5644
  Er  Er6  1  0.459740  0.736580  0.251540  1.0  1.6172
  Er  Er7  1  0.545170  0.541560  0.581490  1.0  1.5651
  Er  Er8  1  0.540260  0.763420  0.751540  1.0  1.6175
  H  H9  1  0.865900  0.893200  0.713200  1.0  0.115
  H  H10  1  0.094000  0.845100  0.709300  1.0  0.1087
  H  H11  1  0.220000  0.162600  0.893000  1.0  0.112
  H  H12  1  0.986700  0.164500  0.907600  1.0  0.0996
  H  H13  1  0.943100  0.689400  0.982600  1.0  0.1191
  H  H14  1  0.175200  0.735400  0.987200  1.0  0.1271
  H  H15  1  0.134100  0.606800  0.213200  1.0  0.1152
  H  H16  1  0.906000  0.654900  0.209300  1.0  0.1079
  H  H17  1  0.780000  0.337400  0.393000  1.0  0.1126
  H  H18  1  0.013300  0.335500  0.407600  1.0  0.0998
  H  H19  1  0.056900  0.810600  0.482600  1.0  0.1196
  H  H20  1  0.824800  0.764600  0.487200  1.0  0.129
  H  H21  1  0.134100  0.106800  0.286800  1.0  0.1155
  H  H22  1  0.906000  0.154900  0.290700  1.0  0.1078
  H  H23  1  0.780000  0.837400  0.107000  1.0  0.1121
  H  H24  1  0.013300  0.835500  0.092400  1.0  0.0999
  H  H25  1  0.056900  0.310600  0.017400  1.0  0.1195
  H  H26  1  0.824800  0.264600  0.012800  1.0  0.1286
  H  H27  1  0.865900  0.393200  0.786800  1.0  0.1153
  H  H28  1  0.094000  0.345100  0.790700  1.0  0.108
  H  H29  1  0.220000  0.662600  0.607000  1.0  0.1123
  H  H30  1  0.986700  0.664500  0.592400  1.0  0.0998
  H  H31  1  0.943100  0.189400  0.517400  1.0  0.1197
  H  H32  1  0.175200  0.235400  0.512800  1.0  0.1275
  C  C33  1  0.924800  0.087400  0.848710  1.0  -0.0641
  C  C34  1  0.969100  0.032300  0.807020  1.0  0.0494
  C  C35  1  0.879000  0.990500  0.771450  1.0  -0.0804
  C  C36  1  0.926000  0.922000  0.735670  1.0  -0.0544
  C  C37  1  0.064500  0.895000  0.732820  1.0  -0.0389
  C  C38  1  0.157000  0.941400  0.764290  1.0  -0.049
  C  C39  1  0.111900  0.016800  0.801130  1.0  0.0524
  C  C40  1  0.205400  0.075100  0.832740  1.0  -0.0732
  C  C41  1  0.158700  0.128500  0.871880  1.0  -0.0426
  C  C42  1  0.017300  0.131700  0.880260  1.0  -0.0437
  C  C43  1  0.781100  0.079100  0.864960  1.0  0.6329
  C  C44  1  0.733000  0.029100  0.767080  1.0  0.7634
  C  C45  1  0.353500  0.099100  0.822270  1.0  0.745
  C  C46  1  0.298200  0.895300  0.761380  1.0  0.6532
  C  C47  1  0.881600  0.861300  0.989310  1.0  -0.0662
  C  C48  1  0.973800  0.770600  0.986330  1.0  -0.0437
  C  C49  1  0.114100  0.798400  0.988880  1.0  -0.0633
  C  C50  1  0.161400  0.916900  0.993820  1.0  -0.0533
  C  C51  1  0.928200  0.985800  0.998830  1.0  0.037
  C  C52  1  0.737000  0.827100  0.976470  1.0  0.6657
  C  C53  1  0.311200  0.940800  0.985830  1.0  0.6869
  C  C54  1  0.075200  0.412600  0.348710  1.0  -0.0644
  C  C55  1  0.030900  0.467700  0.307020  1.0  0.0494
  C  C56  1  0.121000  0.509500  0.271450  1.0  -0.0806
  C  C57  1  0.074000  0.578000  0.235670  1.0  -0.0557
  C  C58  1  0.935500  0.605000  0.232820  1.0  -0.0391
  C  C59  1  0.843000  0.558600  0.264290  1.0  -0.0487
  C  C60  1  0.888100  0.483200  0.301130  1.0  0.0528
  C  C61  1  0.794600  0.424900  0.332740  1.0  -0.0736
  C  C62  1  0.841300  0.371500  0.371880  1.0  -0.0428
  C  C63  1  0.982700  0.368300  0.380260  1.0  -0.0434
  C  C64  1  0.218900  0.420900  0.364960  1.0  0.633
  C  C65  1  0.267000  0.470900  0.267080  1.0  0.7619
  C  C66  1  0.646500  0.400900  0.322270  1.0  0.747
  C  C67  1  0.701800  0.604700  0.261380  1.0  0.6529
  C  C68  1  0.118400  0.638700  0.489310  1.0  -0.0667
  C  C69  1  0.026200  0.729400  0.486330  1.0  -0.041
  C  C70  1  0.885900  0.701600  0.488880  1.0  -0.0598
  C  C71  1  0.838600  0.583100  0.493820  1.0  -0.0551
  C  C72  1  0.071800  0.514200  0.498830  1.0  0.0365
  C  C73  1  0.263000  0.672900  0.476470  1.0  0.6667
  C  C74  1  0.688800  0.559200  0.485830  1.0  0.6873
  C  C75  1  0.075200  0.912600  0.151290  1.0  -0.0637
  C  C76  1  0.030900  0.967700  0.192980  1.0  0.0494
  C  C77  1  0.121000  0.009500  0.228550  1.0  -0.081
  C  C78  1  0.074000  0.078000  0.264330  1.0  -0.0551
  C  C79  1  0.935500  0.105000  0.267180  1.0  -0.039
  C  C80  1  0.843000  0.058600  0.235710  1.0  -0.0488
  C  C81  1  0.888100  0.983200  0.198870  1.0  0.0527
  C  C82  1  0.794600  0.924900  0.167260  1.0  -0.0734
  C  C83  1  0.841300  0.871500  0.128120  1.0  -0.0429
  C  C84  1  0.982700  0.868300  0.119740  1.0  -0.0425
  C  C85  1  0.218900  0.920900  0.135040  1.0  0.6325
  C  C86  1  0.267000  0.970900  0.232920  1.0  0.7626
  C  C87  1  0.646500  0.900900  0.177730  1.0  0.747
  C  C88  1  0.701800  0.104700  0.238620  1.0  0.6531
  C  C89  1  0.118400  0.138700  0.010690  1.0  -0.0661
  C  C90  1  0.026200  0.229400  0.013670  1.0  -0.0423
  C  C91  1  0.885900  0.201600  0.011120  1.0  -0.0585
  C  C92  1  0.838600  0.083100  0.006180  1.0  -0.055
  C  C93  1  0.071800  0.014200  0.001170  1.0  0.0366
  C  C94  1  0.263000  0.172900  0.023530  1.0  0.6671
  C  C95  1  0.688800  0.059200  0.014170  1.0  0.6877
  C  C96  1  0.924800  0.587400  0.651290  1.0  -0.0634
  C  C97  1  0.969100  0.532300  0.692980  1.0  0.0495
  C  C98  1  0.879000  0.490500  0.728550  1.0  -0.0808
  C  C99  1  0.926000  0.422000  0.764330  1.0  -0.0554
  C  C100  1  0.064500  0.395000  0.767180  1.0  -0.0393
  C  C101  1  0.157000  0.441400  0.735710  1.0  -0.0491
  C  C102  1  0.111900  0.516800  0.698870  1.0  0.0523
  C  C103  1  0.205400  0.575100  0.667260  1.0  -0.0731
  C  C104  1  0.158700  0.628500  0.628120  1.0  -0.0422
  C  C105  1  0.017300  0.631700  0.619740  1.0  -0.0431
  C  C106  1  0.781100  0.579100  0.635040  1.0  0.6324
  C  C107  1  0.733000  0.529100  0.732920  1.0  0.7632
  C  C108  1  0.353500  0.599100  0.677730  1.0  0.7453
  C  C109  1  0.298200  0.395300  0.738620  1.0  0.6534
  C  C110  1  0.881600  0.361300  0.510690  1.0  -0.0652
  C  C111  1  0.973800  0.270600  0.513670  1.0  -0.0439
  C  C112  1  0.114100  0.298400  0.511120  1.0  -0.0618
  C  C113  1  0.161400  0.416900  0.506180  1.0  -0.0531
  C  C114  1  0.928200  0.485800  0.501170  1.0  0.0371
  C  C115  1  0.737000  0.327100  0.523530  1.0  0.6661
  C  C116  1  0.311200  0.440800  0.514170  1.0  0.6879
  O  O117  1  0.712100  0.140700  0.772510  1.0  -0.6915
  O  O118  1  0.643600  0.950700  0.754940  1.0  -0.7185
  O  O119  1  0.707900  0.984400  0.858310  1.0  -0.5633
  O  O120  1  0.735900  0.164200  0.890450  1.0  -0.6022
  O  O121  1  0.383900  0.130400  0.782210  1.0  -0.6735
  O  O122  1  0.437800  0.096300  0.854420  1.0  -0.6885
  O  O123  1  0.355400  0.888700  0.722760  1.0  -0.5922
  O  O124  1  0.355400  0.854000  0.796300  1.0  -0.6263
  O  O125  1  0.677600  0.899300  0.949870  1.0  -0.6697
  O  O126  1  0.685400  0.727400  0.990680  1.0  -0.4126
  O  O127  1  0.394000  0.883800  0.009880  1.0  -0.6044
  O  O128  1  0.341400  0.014100  0.953850  1.0  -0.6394
  O  O129  1  0.287900  0.359300  0.272510  1.0  -0.6905
  O  O130  1  0.356400  0.549300  0.254940  1.0  -0.7187
  O  O131  1  0.292100  0.515600  0.358310  1.0  -0.5639
  O  O132  1  0.264100  0.335800  0.390450  1.0  -0.6007
  O  O133  1  0.616100  0.369600  0.282210  1.0  -0.6734
  O  O134  1  0.562200  0.403700  0.354420  1.0  -0.6871
  O  O135  1  0.644600  0.611300  0.222760  1.0  -0.5915
  O  O136  1  0.644600  0.646000  0.296300  1.0  -0.626
  O  O137  1  0.322400  0.600700  0.449870  1.0  -0.6783
  O  O138  1  0.314600  0.772600  0.490680  1.0  -0.4127
  O  O139  1  0.606000  0.616200  0.509880  1.0  -0.6041
  O  O140  1  0.658600  0.485900  0.453850  1.0  -0.6401
  O  O141  1  0.287900  0.859300  0.227490  1.0  -0.6895
  O  O142  1  0.356400  0.049300  0.245060  1.0  -0.7197
  O  O143  1  0.292100  0.015600  0.141690  1.0  -0.5636
  O  O144  1  0.264100  0.835800  0.109550  1.0  -0.6017
  O  O145  1  0.616100  0.869600  0.217790  1.0  -0.6721
  O  O146  1  0.562200  0.903700  0.145580  1.0  -0.6884
  O  O147  1  0.644600  0.111300  0.277240  1.0  -0.5913
  O  O148  1  0.644600  0.146000  0.203700  1.0  -0.6247
  O  O149  1  0.322400  0.100700  0.050130  1.0  -0.6727
  O  O150  1  0.314600  0.272600  0.009320  1.0  -0.4113
  O  O151  1  0.606000  0.116200  0.990120  1.0  -0.6042
  O  O152  1  0.658600  0.985900  0.046150  1.0  -0.6399
  O  O153  1  0.712100  0.640700  0.727490  1.0  -0.6913
  O  O154  1  0.643600  0.450700  0.745060  1.0  -0.7189
  O  O155  1  0.707900  0.484400  0.641690  1.0  -0.5634
  O  O156  1  0.735900  0.664200  0.609550  1.0  -0.6022
  O  O157  1  0.383900  0.630400  0.717790  1.0  -0.673
  O  O158  1  0.437800  0.596300  0.645580  1.0  -0.6887
  O  O159  1  0.355400  0.388700  0.777240  1.0  -0.5914
  O  O160  1  0.355400  0.354000  0.703700  1.0  -0.6247
  O  O161  1  0.677600  0.399300  0.550130  1.0  -0.6679
  O  O162  1  0.685400  0.227400  0.509320  1.0  -0.4117
  O  O163  1  0.394000  0.383800  0.490120  1.0  -0.6046
  O  O164  1  0.341400  0.514100  0.546150  1.0  -0.6393
