# generated using pymatgen
data_CuH5C10N3O4
_symmetry_space_group_name_H-M   'P 1'
_cell_length_a   10.33140000
_cell_length_b   12.31960000
_cell_length_c   19.04200000
_cell_angle_alpha   106.78500000
_cell_angle_beta   93.69400000
_cell_angle_gamma   94.28400000
_symmetry_Int_Tables_number   1
_chemical_formula_structural   CuH5C10N3O4
_chemical_formula_sum   'Cu8 H40 C80 N24 O32'
_cell_volume   2304.49252861
_cell_formula_units_Z   8
loop_
 _symmetry_equiv_pos_site_id
 _symmetry_equiv_pos_as_xyz
  1  'x, y, z'
loop_
 _atom_site_type_symbol
 _atom_site_label
 _atom_site_symmetry_multiplicity
 _atom_site_fract_x
 _atom_site_fract_y
 _atom_site_fract_z
 _atom_site_occupancy
 _atom_site_charge
  Cu  Cu1  1  0.108690  0.479260  0.224950  1.0  0.8834
  Cu  Cu2  1  0.345950  0.545780  0.289940  1.0  0.9297
  Cu  Cu3  1  0.588500  0.206780  0.397640  1.0  0.867
  Cu  Cu4  1  0.881050  0.833830  0.032460  1.0  0.8611
  Cu  Cu5  1  0.891310  0.520740  0.775050  1.0  0.8832
  Cu  Cu6  1  0.654050  0.454220  0.710060  1.0  0.9314
  Cu  Cu7  1  0.411500  0.793220  0.602360  1.0  0.8657
  Cu  Cu8  1  0.118950  0.166170  0.967540  1.0  0.8585
  H  H9  1  0.037000  0.281400  0.573900  1.0  0.1325
  H  H10  1  0.500700  0.663100  0.925900  1.0  0.123
  H  H11  1  0.232500  0.193600  0.609700  1.0  0.1518
  H  H12  1  0.191600  0.529500  0.001800  1.0  0.1413
  H  H13  1  0.142100  0.117600  0.136600  1.0  0.106
  H  H14  1  0.311000  0.442200  0.487900  1.0  0.1449
  H  H15  1  0.063600  0.130600  0.319800  1.0  0.1303
  H  H16  1  0.521400  0.649000  0.133300  1.0  0.1182
  H  H17  1  0.417800  0.910400  0.067100  1.0  0.1268
  H  H18  1  0.434700  0.243000  0.694700  1.0  0.1253
  H  H19  1  0.942300  0.375900  0.394400  1.0  0.1154
  H  H20  1  0.391600  0.535800  0.803200  1.0  0.1427
  H  H21  1  0.558500  0.963200  0.259700  1.0  0.1339
  H  H22  1  0.195100  0.521200  0.719000  1.0  0.1194
  H  H23  1  0.749000  0.856900  0.220300  1.0  0.1514
  H  H24  1  0.947900  0.799500  0.283900  1.0  0.1316
  H  H25  1  0.328200  0.912500  0.330400  1.0  0.1189
  H  H26  1  0.519300  0.235900  0.187500  1.0  0.1337
  H  H27  1  0.731600  0.204600  0.179600  1.0  0.1435
  H  H28  1  0.919600  0.100800  0.136500  1.0  0.1201
  H  H29  1  0.963000  0.718600  0.426100  1.0  0.1333
  H  H30  1  0.499300  0.336900  0.074100  1.0  0.1235
  H  H31  1  0.767500  0.806400  0.390300  1.0  0.1522
  H  H32  1  0.808400  0.470500  0.998200  1.0  0.1417
  H  H33  1  0.857900  0.882400  0.863400  1.0  0.108
  H  H34  1  0.689000  0.557800  0.512100  1.0  0.1454
  H  H35  1  0.936400  0.869400  0.680200  1.0  0.1302
  H  H36  1  0.478600  0.351000  0.866700  1.0  0.1178
  H  H37  1  0.582200  0.089600  0.932900  1.0  0.1264
  H  H38  1  0.565300  0.757000  0.305300  1.0  0.1255
  H  H39  1  0.057700  0.624100  0.605600  1.0  0.116
  H  H40  1  0.608400  0.464200  0.196800  1.0  0.1437
  H  H41  1  0.441500  0.036800  0.740300  1.0  0.1337
  H  H42  1  0.804900  0.478800  0.281000  1.0  0.1189
  H  H43  1  0.251000  0.143100  0.779700  1.0  0.1511
  H  H44  1  0.052100  0.200500  0.716100  1.0  0.1319
  H  H45  1  0.671800  0.087500  0.669600  1.0  0.1187
  H  H46  1  0.480700  0.764100  0.812500  1.0  0.134
  H  H47  1  0.268400  0.795400  0.820400  1.0  0.1435
  H  H48  1  0.080400  0.899200  0.863500  1.0  0.1193
  C  C49  1  0.060300  0.316000  0.538500  1.0  -0.1121
  C  C50  1  0.463300  0.642600  0.963900  1.0  -0.1271
  C  C51  1  0.337000  0.592000  0.953600  1.0  0.1652
  C  C52  1  0.187100  0.360600  0.538800  1.0  0.1897
  C  C53  1  0.290300  0.259000  0.620100  1.0  -0.0873
  C  C54  1  0.170100  0.463600  0.371500  1.0  0.6793
  C  C55  1  0.533100  0.662500  0.031100  1.0  -0.1372
  C  C56  1  0.277100  0.562900  0.009600  1.0  -0.0839
  C  C57  1  0.229700  0.105700  0.133800  1.0  -0.0027
  C  C58  1  0.829800  0.272300  0.481000  1.0  0.6567
  C  C59  1  0.225300  0.412200  0.486500  1.0  -0.0503
  C  C60  1  0.967400  0.324000  0.483700  1.0  -0.1296
  C  C61  1  0.084100  0.057500  0.317300  1.0  -0.0863
  C  C62  1  0.986100  0.968000  0.303400  1.0  0.1809
  C  C63  1  0.474600  0.634300  0.087600  1.0  -0.0133
  C  C64  1  0.393600  0.981700  0.091800  1.0  -0.0373
  C  C65  1  0.293400  0.552400  0.140900  1.0  0.6833
  C  C66  1  0.318800  0.133100  0.343000  1.0  0.6876
  C  C67  1  0.401800  0.287000  0.666667  1.0  -0.0092
  C  C68  1  0.003900  0.372600  0.431400  1.0  0.0118
  C  C69  1  0.132200  0.417600  0.432200  1.0  -0.1369
  C  C70  1  0.212000  0.035800  0.327400  1.0  -0.1358
  C  C71  1  0.306800  0.545600  0.815800  1.0  -0.1083
  C  C72  1  0.644900  0.985400  0.278400  1.0  0.0084
  C  C73  1  0.198100  0.537500  0.770000  1.0  0.0248
  C  C74  1  0.671100  0.714400  0.044100  1.0  0.6489
  C  C75  1  0.174000  0.716600  0.296800  1.0  0.676
  C  C76  1  0.487700  0.073500  0.125200  1.0  0.0984
  C  C77  1  0.749300  0.926400  0.256400  1.0  -0.0965
  C  C78  1  0.143300  0.836800  0.305700  1.0  -0.1393
  C  C79  1  0.014400  0.858700  0.295700  1.0  -0.1101
  C  C80  1  0.242000  0.926300  0.322500  1.0  0.0197
  C  C81  1  0.347600  0.584800  0.077400  1.0  -0.1533
  C  C82  1  0.323200  0.194900  0.167100  1.0  -0.1469
  C  C83  1  0.159900  0.904300  0.059300  1.0  0.6762
  C  C84  1  0.286200  0.311300  0.204300  1.0  0.6713
  C  C85  1  0.262500  0.000800  0.096900  1.0  -0.1434
  C  C86  1  0.455100  0.177400  0.163700  1.0  -0.0984
  C  C87  1  0.729700  0.130400  0.148900  1.0  -0.108
  C  C88  1  0.832300  0.072800  0.125100  1.0  0.0046
  C  C89  1  0.939700  0.684000  0.461500  1.0  -0.1106
  C  C90  1  0.536700  0.357400  0.036100  1.0  -0.1306
  C  C91  1  0.663000  0.408000  0.046400  1.0  0.1643
  C  C92  1  0.812900  0.639400  0.461200  1.0  0.1896
  C  C93  1  0.709700  0.741000  0.379900  1.0  -0.0852
  C  C94  1  0.829900  0.536400  0.628500  1.0  0.6796
  C  C95  1  0.466900  0.337500  0.968900  1.0  -0.1372
  C  C96  1  0.722900  0.437100  0.990400  1.0  -0.0866
  C  C97  1  0.770300  0.894300  0.866200  1.0  -0.0023
  C  C98  1  0.170200  0.727700  0.519000  1.0  0.6566
  C  C99  1  0.774700  0.587800  0.513500  1.0  -0.0497
  C  C100  1  0.032600  0.676000  0.516300  1.0  -0.1292
  C  C101  1  0.915900  0.942500  0.682700  1.0  -0.0861
  C  C102  1  0.013900  0.032000  0.696600  1.0  0.1803
  C  C103  1  0.525400  0.365700  0.912400  1.0  -0.013
  C  C104  1  0.606400  0.018300  0.908200  1.0  -0.0421
  C  C105  1  0.706600  0.447600  0.859100  1.0  0.6834
  C  C106  1  0.681200  0.866900  0.657000  1.0  0.6879
  C  C107  1  0.598200  0.713000  0.333333  1.0  -0.009
  C  C108  1  0.996100  0.627400  0.568600  1.0  0.0123
  C  C109  1  0.867800  0.582400  0.567800  1.0  -0.1377
  C  C110  1  0.788000  0.964200  0.672600  1.0  -0.136
  C  C111  1  0.693200  0.454400  0.184200  1.0  -0.1082
  C  C112  1  0.355100  0.014600  0.721600  1.0  0.0093
  C  C113  1  0.801900  0.462500  0.230000  1.0  0.0256
  C  C114  1  0.328900  0.285600  0.955900  1.0  0.6474
  C  C115  1  0.826000  0.283400  0.703200  1.0  0.6759
  C  C116  1  0.512300  0.926500  0.874800  1.0  0.1
  C  C117  1  0.250700  0.073600  0.743600  1.0  -0.0968
  C  C118  1  0.856700  0.163200  0.694300  1.0  -0.1392
  C  C119  1  0.985600  0.141300  0.704300  1.0  -0.1103
  C  C120  1  0.758000  0.073700  0.677500  1.0  0.0187
  C  C121  1  0.652400  0.415200  0.922600  1.0  -0.1524
  C  C122  1  0.676800  0.805100  0.832900  1.0  -0.1468
  C  C123  1  0.840100  0.095700  0.940700  1.0  0.6768
  C  C124  1  0.713800  0.688700  0.795700  1.0  0.6715
  C  C125  1  0.737500  0.999200  0.903100  1.0  -0.1425
  C  C126  1  0.544900  0.822600  0.836300  1.0  -0.0998
  C  C127  1  0.270300  0.869600  0.851100  1.0  -0.1083
  C  C128  1  0.167700  0.927200  0.874900  1.0  0.0053
  N  N129  1  0.383000  0.427200  0.620800  1.0  -0.2421
  N  N130  1  0.095800  0.556900  0.810000  1.0  -0.136
  N  N131  1  0.283300  0.347500  0.592700  1.0  0.1834
  N  N132  1  0.786800  0.968100  0.082200  1.0  -0.1381
  N  N133  1  0.264800  0.570800  0.883400  1.0  0.1648
  N  N134  1  0.689700  0.081600  0.331900  1.0  -0.1899
  N  N135  1  0.853100  0.991200  0.298600  1.0  0.1974
  N  N136  1  0.135400  0.577600  0.879400  1.0  -0.213
  N  N137  1  0.817300  0.085900  0.345400  1.0  -0.2907
  N  N138  1  0.456000  0.388900  0.665100  1.0  -0.1424
  N  N139  1  0.658800  0.958300  0.078600  1.0  -0.3141
  N  N140  1  0.623500  0.056500  0.118400  1.0  0.1496
  N  N141  1  0.617000  0.572800  0.379200  1.0  -0.2432
  N  N142  1  0.904200  0.443100  0.190000  1.0  -0.1386
  N  N143  1  0.716700  0.652500  0.407300  1.0  0.1828
  N  N144  1  0.213200  0.031900  0.917800  1.0  -0.141
  N  N145  1  0.735200  0.429200  0.116600  1.0  0.1638
  N  N146  1  0.310300  0.918400  0.668100  1.0  -0.1866
  N  N147  1  0.146900  0.008800  0.701400  1.0  0.1958
  N  N148  1  0.864600  0.422400  0.120600  1.0  -0.2171
  N  N149  1  0.182700  0.914100  0.654600  1.0  -0.2907
  N  N150  1  0.544000  0.611100  0.334900  1.0  -0.1424
  N  N151  1  0.341200  0.041700  0.921400  1.0  -0.3136
  N  N152  1  0.376500  0.943500  0.881600  1.0  0.1518
  O  O153  1  0.169400  0.327800  0.192700  1.0  -0.5518
  O  O154  1  0.748000  0.298700  0.437000  1.0  -0.5821
  O  O155  1  0.717700  0.744100  0.991100  1.0  -0.5686
  O  O156  1  0.373400  0.572200  0.196800  1.0  -0.5637
  O  O157  1  0.084300  0.639700  0.263300  1.0  -0.5632
  O  O158  1  0.082500  0.457700  0.321000  1.0  -0.5619
  O  O159  1  0.285600  0.700000  0.319400  1.0  -0.564
  O  O160  1  0.286300  0.504600  0.373800  1.0  -0.5549
  O  O161  1  0.042500  0.927600  0.070100  1.0  -0.6114
  O  O162  1  0.432200  0.107000  0.357400  1.0  -0.608
  O  O163  1  0.178600  0.508600  0.134800  1.0  -0.5582
  O  O164  1  0.733700  0.730400  0.104600  1.0  -0.5938
  O  O165  1  0.291300  0.225900  0.340000  1.0  -0.4982
  O  O166  1  0.374400  0.385200  0.241200  1.0  -0.5517
  O  O167  1  0.805500  0.209900  0.519500  1.0  -0.5453
  O  O168  1  0.191400  0.814200  0.020700  1.0  -0.5285
  O  O169  1  0.830600  0.672200  0.807300  1.0  -0.5509
  O  O170  1  0.252000  0.701300  0.563000  1.0  -0.5816
  O  O171  1  0.282300  0.255900  0.008900  1.0  -0.5687
  O  O172  1  0.626600  0.427800  0.803200  1.0  -0.5623
  O  O173  1  0.915700  0.360300  0.736700  1.0  -0.5638
  O  O174  1  0.917500  0.542300  0.679000  1.0  -0.5621
  O  O175  1  0.714400  0.300000  0.680600  1.0  -0.5638
  O  O176  1  0.713700  0.495400  0.626200  1.0  -0.5549
  O  O177  1  0.957500  0.072400  0.929900  1.0  -0.6101
  O  O178  1  0.567800  0.893000  0.642600  1.0  -0.6101
  O  O179  1  0.821400  0.491400  0.865200  1.0  -0.5595
  O  O180  1  0.266300  0.269600  0.895400  1.0  -0.594
  O  O181  1  0.708700  0.774100  0.660000  1.0  -0.4983
  O  O182  1  0.625600  0.614800  0.758800  1.0  -0.5516
  O  O183  1  0.194500  0.790100  0.480500  1.0  -0.5434
  O  O184  1  0.808600  0.185800  0.979300  1.0  -0.5293
