# generated using pymatgen
data_NaEuC8(NO4)2
_symmetry_space_group_name_H-M   'P 1'
_cell_length_a   15.30600000
_cell_length_b   6.72600000
_cell_length_c   14.38600000
_cell_angle_alpha   90.00000000
_cell_angle_beta   90.00000000
_cell_angle_gamma   90.00000000
_symmetry_Int_Tables_number   1
_chemical_formula_structural   NaEuC8(NO4)2
_chemical_formula_sum   'Na4 Eu4 C32 N8 O32'
_cell_volume   1481.01217222
_cell_formula_units_Z   4
loop_
 _symmetry_equiv_pos_site_id
 _symmetry_equiv_pos_as_xyz
  1  'x, y, z'
loop_
 _atom_site_type_symbol
 _atom_site_label
 _atom_site_symmetry_multiplicity
 _atom_site_fract_x
 _atom_site_fract_y
 _atom_site_fract_z
 _atom_site_occupancy
 _atom_site_charge
  Na  Na1  1  0.263900  0.250000  0.689000  1.0  0.9563
  Na  Na2  1  0.236100  0.750000  0.189000  1.0  0.9572
  Na  Na3  1  0.736100  0.750000  0.311000  1.0  0.9567
  Na  Na4  1  0.763900  0.250000  0.811000  1.0  0.9579
  Eu  Eu5  1  0.801540  0.750000  0.621100  1.0  2.0973
  Eu  Eu6  1  0.698460  0.250000  0.121100  1.0  2.098
  Eu  Eu7  1  0.198460  0.250000  0.378900  1.0  2.0986
  Eu  Eu8  1  0.301540  0.750000  0.878900  1.0  2.0988
  C  C9  1  0.997900  0.750000  0.508200  1.0  0.1086
  C  C10  1  0.085700  0.750000  0.492500  1.0  0.132
  C  C11  1  0.106500  0.750000  0.652100  1.0  0.1401
  C  C12  1  0.020000  0.750000  0.666900  1.0  0.1355
  C  C13  1  0.928800  0.750000  0.433600  1.0  0.611
  C  C14  1  0.129100  0.750000  0.399300  1.0  0.7167
  C  C15  1  0.173400  0.750000  0.729000  1.0  0.6704
  C  C16  1  0.972900  0.750000  0.759900  1.0  0.5874
  C  C17  1  0.502100  0.250000  0.008200  1.0  0.1085
  C  C18  1  0.414300  0.250000  0.992500  1.0  0.1311
  C  C19  1  0.393500  0.250000  0.152100  1.0  0.1408
  C  C20  1  0.480000  0.250000  0.166900  1.0  0.1357
  C  C21  1  0.571200  0.250000  0.933600  1.0  0.6103
  C  C22  1  0.370900  0.250000  0.899300  1.0  0.7178
  C  C23  1  0.326600  0.250000  0.229000  1.0  0.6697
  C  C24  1  0.527100  0.250000  0.259900  1.0  0.5898
  C  C25  1  0.002100  0.250000  0.491800  1.0  0.1086
  C  C26  1  0.914300  0.250000  0.507500  1.0  0.1314
  C  C27  1  0.893500  0.250000  0.347900  1.0  0.1408
  C  C28  1  0.980000  0.250000  0.333100  1.0  0.1338
  C  C29  1  0.071200  0.250000  0.566400  1.0  0.6105
  C  C30  1  0.870900  0.250000  0.600700  1.0  0.7182
  C  C31  1  0.826600  0.250000  0.271000  1.0  0.6702
  C  C32  1  0.027100  0.250000  0.240100  1.0  0.5892
  C  C33  1  0.497900  0.750000  0.991800  1.0  0.1087
  C  C34  1  0.585700  0.750000  0.007500  1.0  0.1316
  C  C35  1  0.606500  0.750000  0.847900  1.0  0.1403
  C  C36  1  0.520000  0.750000  0.833100  1.0  0.1338
  C  C37  1  0.428800  0.750000  0.066400  1.0  0.6098
  C  C38  1  0.629100  0.750000  0.100700  1.0  0.7176
  C  C39  1  0.673400  0.750000  0.771000  1.0  0.6693
  C  C40  1  0.472900  0.750000  0.740100  1.0  0.5903
  N  N41  1  0.966500  0.750000  0.595500  1.0  -0.3849
  N  N42  1  0.143000  0.750000  0.563100  1.0  -0.4066
  N  N43  1  0.533500  0.250000  0.095500  1.0  -0.3836
  N  N44  1  0.357000  0.250000  0.063100  1.0  -0.4049
  N  N45  1  0.033500  0.250000  0.404500  1.0  -0.385
  N  N46  1  0.857000  0.250000  0.436900  1.0  -0.4053
  N  N47  1  0.466500  0.750000  0.904500  1.0  -0.3853
  N  N48  1  0.643000  0.750000  0.936900  1.0  -0.4066
  O  O49  1  0.147900  0.586900  0.362400  1.0  -0.7609
  O  O50  1  0.205600  0.915000  0.754900  1.0  -0.7225
  O  O51  1  0.352100  0.413100  0.862400  1.0  -0.7614
  O  O52  1  0.294400  0.085000  0.254900  1.0  -0.7219
  O  O53  1  0.852100  0.086900  0.637600  1.0  -0.7607
  O  O54  1  0.794400  0.415000  0.245100  1.0  -0.7232
  O  O55  1  0.647900  0.913100  0.137600  1.0  -0.7618
  O  O56  1  0.705600  0.585000  0.745100  1.0  -0.723
  O  O57  1  0.852100  0.413100  0.637600  1.0  -0.7613
  O  O58  1  0.794400  0.085000  0.245100  1.0  -0.7235
  O  O59  1  0.647900  0.586900  0.137600  1.0  -0.7621
  O  O60  1  0.705600  0.915000  0.745100  1.0  -0.7228
  O  O61  1  0.147900  0.913100  0.362400  1.0  -0.7611
  O  O62  1  0.205600  0.585000  0.754900  1.0  -0.7212
  O  O63  1  0.352100  0.086900  0.862400  1.0  -0.7611
  O  O64  1  0.294400  0.415000  0.254900  1.0  -0.7231
  O  O65  1  0.849800  0.750000  0.462900  1.0  -0.7846
  O  O66  1  0.950500  0.750000  0.352500  1.0  -0.5042
  O  O67  1  0.022900  0.750000  0.830100  1.0  -0.4672
  O  O68  1  0.891600  0.750000  0.758900  1.0  -0.6421
  O  O69  1  0.650200  0.250000  0.962900  1.0  -0.7838
  O  O70  1  0.549500  0.250000  0.852500  1.0  -0.5028
  O  O71  1  0.477100  0.250000  0.330100  1.0  -0.4663
  O  O72  1  0.608400  0.250000  0.258900  1.0  -0.6424
  O  O73  1  0.150200  0.250000  0.537100  1.0  -0.7835
  O  O74  1  0.049500  0.250000  0.647500  1.0  -0.5097
  O  O75  1  0.977100  0.250000  0.169900  1.0  -0.4666
  O  O76  1  0.108400  0.250000  0.241100  1.0  -0.6417
  O  O77  1  0.349800  0.750000  0.037100  1.0  -0.7848
  O  O78  1  0.450500  0.750000  0.147500  1.0  -0.5103
  O  O79  1  0.522900  0.750000  0.669900  1.0  -0.4655
  O  O80  1  0.391600  0.750000  0.741100  1.0  -0.6409
