# generated using pymatgen
data_NaGdC8(NO4)2
_symmetry_space_group_name_H-M   'P 1'
_cell_length_a   15.25100000
_cell_length_b   6.69900000
_cell_length_c   14.38200000
_cell_angle_alpha   90.00000000
_cell_angle_beta   90.00000000
_cell_angle_gamma   90.00000000
_symmetry_Int_Tables_number   1
_chemical_formula_structural   NaGdC8(NO4)2
_chemical_formula_sum   'Na4 Gd4 C32 N8 O32'
_cell_volume   1469.35786952
_cell_formula_units_Z   4
loop_
 _symmetry_equiv_pos_site_id
 _symmetry_equiv_pos_as_xyz
  1  'x, y, z'
loop_
 _atom_site_type_symbol
 _atom_site_label
 _atom_site_symmetry_multiplicity
 _atom_site_fract_x
 _atom_site_fract_y
 _atom_site_fract_z
 _atom_site_occupancy
 _atom_site_charge
  Na  Na1  1  0.735700  0.750000  0.310600  1.0  0.9497
  Na  Na2  1  0.764300  0.250000  0.810600  1.0  0.9503
  Na  Na3  1  0.264300  0.250000  0.689400  1.0  0.9495
  Na  Na4  1  0.235700  0.750000  0.189400  1.0  0.9488
  Gd  Gd5  1  0.801090  0.750000  0.620730  1.0  2.1216
  Gd  Gd6  1  0.698910  0.250000  0.120730  1.0  2.1222
  Gd  Gd7  1  0.198910  0.250000  0.379270  1.0  2.1221
  Gd  Gd8  1  0.301090  0.750000  0.879270  1.0  2.1223
  C  C9  1  0.928500  0.750000  0.434000  1.0  0.6423
  C  C10  1  0.970300  0.750000  0.760900  1.0  0.6074
  C  C11  1  0.996400  0.750000  0.507300  1.0  0.0652
  C  C12  1  0.019700  0.750000  0.667900  1.0  0.1019
  C  C13  1  0.087200  0.750000  0.494800  1.0  0.1757
  C  C14  1  0.106500  0.750000  0.652600  1.0  0.1701
  C  C15  1  0.128500  0.750000  0.399400  1.0  0.7148
  C  C16  1  0.173000  0.750000  0.730000  1.0  0.663
  C  C17  1  0.571500  0.250000  0.934000  1.0  0.6419
  C  C18  1  0.529700  0.250000  0.260900  1.0  0.609
  C  C19  1  0.503600  0.250000  0.007300  1.0  0.0656
  C  C20  1  0.480300  0.250000  0.167900  1.0  0.102
  C  C21  1  0.412800  0.250000  0.994800  1.0  0.1741
  C  C22  1  0.393500  0.250000  0.152600  1.0  0.1707
  C  C23  1  0.371500  0.250000  0.899400  1.0  0.7158
  C  C24  1  0.327000  0.250000  0.230000  1.0  0.663
  C  C25  1  0.071500  0.250000  0.566000  1.0  0.6429
  C  C26  1  0.029700  0.250000  0.239100  1.0  0.6078
  C  C27  1  0.003600  0.250000  0.492700  1.0  0.0655
  C  C28  1  0.980300  0.250000  0.332100  1.0  0.102
  C  C29  1  0.912800  0.250000  0.505200  1.0  0.1745
  C  C30  1  0.893500  0.250000  0.347400  1.0  0.1707
  C  C31  1  0.871500  0.250000  0.600600  1.0  0.7164
  C  C32  1  0.827000  0.250000  0.270000  1.0  0.6626
  C  C33  1  0.428500  0.750000  0.066000  1.0  0.6416
  C  C34  1  0.470300  0.750000  0.739100  1.0  0.6089
  C  C35  1  0.496400  0.750000  0.992700  1.0  0.0652
  C  C36  1  0.519700  0.750000  0.832100  1.0  0.1018
  C  C37  1  0.587200  0.750000  0.005200  1.0  0.1757
  C  C38  1  0.606500  0.750000  0.847400  1.0  0.1701
  C  C39  1  0.628500  0.750000  0.100600  1.0  0.7163
  C  C40  1  0.673000  0.750000  0.770000  1.0  0.6611
  N  N41  1  0.965500  0.750000  0.595400  1.0  -0.408
  N  N42  1  0.142300  0.750000  0.565900  1.0  -0.416
  N  N43  1  0.534500  0.250000  0.095400  1.0  -0.4095
  N  N44  1  0.357700  0.250000  0.065900  1.0  -0.4138
  N  N45  1  0.034500  0.250000  0.404600  1.0  -0.4102
  N  N46  1  0.857700  0.250000  0.434100  1.0  -0.414
  N  N47  1  0.465500  0.750000  0.904600  1.0  -0.4081
  N  N48  1  0.642300  0.750000  0.934100  1.0  -0.4164
  O  O49  1  0.853300  0.085300  0.637500  1.0  -0.7745
  O  O50  1  0.704300  0.583000  0.743400  1.0  -0.7392
  O  O51  1  0.646700  0.914700  0.137500  1.0  -0.7762
  O  O52  1  0.795700  0.417000  0.243400  1.0  -0.7389
  O  O53  1  0.146700  0.585300  0.362500  1.0  -0.775
  O  O54  1  0.295700  0.083000  0.256600  1.0  -0.7375
  O  O55  1  0.353300  0.414700  0.862500  1.0  -0.7754
  O  O56  1  0.204300  0.917000  0.756600  1.0  -0.7385
  O  O57  1  0.146700  0.914700  0.362500  1.0  -0.7756
  O  O58  1  0.295700  0.417000  0.256600  1.0  -0.7384
  O  O59  1  0.353300  0.085300  0.862500  1.0  -0.7747
  O  O60  1  0.204300  0.583000  0.756600  1.0  -0.7373
  O  O61  1  0.853300  0.414700  0.637500  1.0  -0.7755
  O  O62  1  0.704300  0.917000  0.743400  1.0  -0.7391
  O  O63  1  0.646700  0.585300  0.137500  1.0  -0.7759
  O  O64  1  0.795700  0.083000  0.243400  1.0  -0.7392
  O  O65  1  0.849400  0.750000  0.463000  1.0  -0.7831
  O  O66  1  0.890800  0.750000  0.757100  1.0  -0.6123
  O  O67  1  0.949000  0.750000  0.351600  1.0  -0.5098
  O  O68  1  0.019400  0.750000  0.829900  1.0  -0.4568
  O  O69  1  0.650600  0.250000  0.963000  1.0  -0.7837
  O  O70  1  0.609200  0.250000  0.257100  1.0  -0.6126
  O  O71  1  0.551000  0.250000  0.851600  1.0  -0.5083
  O  O72  1  0.480600  0.250000  0.329900  1.0  -0.4566
  O  O73  1  0.150600  0.250000  0.537000  1.0  -0.783
  O  O74  1  0.109200  0.250000  0.242900  1.0  -0.6105
  O  O75  1  0.051000  0.250000  0.648400  1.0  -0.5116
  O  O76  1  0.980600  0.250000  0.170100  1.0  -0.4574
  O  O77  1  0.349400  0.750000  0.037000  1.0  -0.783
  O  O78  1  0.390800  0.750000  0.742900  1.0  -0.6093
  O  O79  1  0.449000  0.750000  0.148400  1.0  -0.5115
  O  O80  1  0.519400  0.750000  0.670100  1.0  -0.4555
