# generated using pymatgen
data_NaTbC8(NO4)2
_symmetry_space_group_name_H-M   'P 1'
_cell_length_a   15.14700000
_cell_length_b   6.67630000
_cell_length_c   14.37500000
_cell_angle_alpha   90.00000000
_cell_angle_beta   90.00000000
_cell_angle_gamma   90.00000000
_symmetry_Int_Tables_number   1
_chemical_formula_structural   NaTbC8(NO4)2
_chemical_formula_sum   'Na4 Tb4 C32 N8 O32'
_cell_volume   1453.68504394
_cell_formula_units_Z   4
loop_
 _symmetry_equiv_pos_site_id
 _symmetry_equiv_pos_as_xyz
  1  'x, y, z'
loop_
 _atom_site_type_symbol
 _atom_site_label
 _atom_site_symmetry_multiplicity
 _atom_site_fract_x
 _atom_site_fract_y
 _atom_site_fract_z
 _atom_site_occupancy
 _atom_site_charge
  Na  Na1  1  0.734600  0.750000  0.310000  1.0  0.9237
  Na  Na2  1  0.765400  0.250000  0.810000  1.0  0.923
  Na  Na3  1  0.265400  0.250000  0.690000  1.0  0.9218
  Na  Na4  1  0.234600  0.750000  0.190000  1.0  0.9224
  Tb  Tb5  1  0.800310  0.750000  0.620230  1.0  2.1969
  Tb  Tb6  1  0.699690  0.250000  0.120230  1.0  2.1977
  Tb  Tb7  1  0.199690  0.250000  0.379770  1.0  2.2002
  Tb  Tb8  1  0.300310  0.750000  0.879770  1.0  2.2
  C  C9  1  0.927500  0.750000  0.433800  1.0  0.6154
  C  C10  1  0.969100  0.750000  0.758700  1.0  0.592
  C  C11  1  0.996400  0.750000  0.508200  1.0  0.0911
  C  C12  1  0.017900  0.750000  0.667000  1.0  0.1096
  C  C13  1  0.087200  0.750000  0.494000  1.0  0.1123
  C  C14  1  0.106600  0.750000  0.652700  1.0  0.1087
  C  C15  1  0.129600  0.750000  0.399400  1.0  0.7
  C  C16  1  0.176700  0.750000  0.729800  1.0  0.7058
  C  C17  1  0.572500  0.250000  0.933800  1.0  0.6146
  C  C18  1  0.530900  0.250000  0.258700  1.0  0.5951
  C  C19  1  0.503600  0.250000  0.008200  1.0  0.0912
  C  C20  1  0.482100  0.250000  0.167000  1.0  0.11
  C  C21  1  0.412800  0.250000  0.994000  1.0  0.1099
  C  C22  1  0.393400  0.250000  0.152700  1.0  0.1095
  C  C23  1  0.370400  0.250000  0.899400  1.0  0.7013
  C  C24  1  0.323300  0.250000  0.229800  1.0  0.7044
  C  C25  1  0.072500  0.250000  0.566200  1.0  0.6143
  C  C26  1  0.030900  0.250000  0.241300  1.0  0.5943
  C  C27  1  0.003600  0.250000  0.491800  1.0  0.0911
  C  C28  1  0.982100  0.250000  0.333000  1.0  0.1103
  C  C29  1  0.912800  0.250000  0.506000  1.0  0.1099
  C  C30  1  0.893400  0.250000  0.347300  1.0  0.1095
  C  C31  1  0.870400  0.250000  0.600600  1.0  0.7018
  C  C32  1  0.823300  0.250000  0.270200  1.0  0.7049
  C  C33  1  0.427500  0.750000  0.066200  1.0  0.6138
  C  C34  1  0.469100  0.750000  0.741300  1.0  0.5939
  C  C35  1  0.496400  0.750000  0.991800  1.0  0.0912
  C  C36  1  0.517900  0.750000  0.833000  1.0  0.1102
  C  C37  1  0.587200  0.750000  0.006000  1.0  0.1118
  C  C38  1  0.606600  0.750000  0.847300  1.0  0.1091
  C  C39  1  0.629600  0.750000  0.100600  1.0  0.7012
  C  C40  1  0.676700  0.750000  0.770200  1.0  0.7054
  N  N41  1  0.964700  0.750000  0.594800  1.0  -0.3446
  N  N42  1  0.142700  0.750000  0.566000  1.0  -0.4239
  N  N43  1  0.535300  0.250000  0.094800  1.0  -0.3458
  N  N44  1  0.357300  0.250000  0.066000  1.0  -0.424
  N  N45  1  0.035300  0.250000  0.405200  1.0  -0.3463
  N  N46  1  0.857300  0.250000  0.434000  1.0  -0.4243
  N  N47  1  0.464700  0.750000  0.905200  1.0  -0.3447
  N  N48  1  0.642700  0.750000  0.934000  1.0  -0.4242
  O  O49  1  0.851900  0.084400  0.637000  1.0  -0.7827
  O  O50  1  0.703300  0.584000  0.741800  1.0  -0.7004
  O  O51  1  0.648100  0.915600  0.137000  1.0  -0.7838
  O  O52  1  0.796700  0.416000  0.241800  1.0  -0.702
  O  O53  1  0.148100  0.584400  0.363000  1.0  -0.7828
  O  O54  1  0.296700  0.084000  0.258200  1.0  -0.6996
  O  O55  1  0.351900  0.415600  0.863000  1.0  -0.7827
  O  O56  1  0.203300  0.916000  0.758200  1.0  -0.7008
  O  O57  1  0.148100  0.915600  0.363000  1.0  -0.7827
  O  O58  1  0.296700  0.416000  0.258200  1.0  -0.7011
  O  O59  1  0.351900  0.084400  0.863000  1.0  -0.7827
  O  O60  1  0.203300  0.584000  0.758200  1.0  -0.6989
  O  O61  1  0.851900  0.415600  0.637000  1.0  -0.7827
  O  O62  1  0.703300  0.916000  0.741800  1.0  -0.7016
  O  O63  1  0.648100  0.584400  0.137000  1.0  -0.7843
  O  O64  1  0.796700  0.084000  0.241800  1.0  -0.7012
  O  O65  1  0.847300  0.750000  0.463300  1.0  -0.788
  O  O66  1  0.889400  0.750000  0.757200  1.0  -0.6296
  O  O67  1  0.948300  0.750000  0.352500  1.0  -0.5153
  O  O68  1  0.018500  0.750000  0.830000  1.0  -0.4887
  O  O69  1  0.652700  0.250000  0.963300  1.0  -0.7878
  O  O70  1  0.610600  0.250000  0.257200  1.0  -0.6301
  O  O71  1  0.551700  0.250000  0.852500  1.0  -0.5144
  O  O72  1  0.481500  0.250000  0.330000  1.0  -0.4884
  O  O73  1  0.152700  0.250000  0.536700  1.0  -0.7871
  O  O74  1  0.110600  0.250000  0.242800  1.0  -0.6277
  O  O75  1  0.051700  0.250000  0.647500  1.0  -0.5199
  O  O76  1  0.981500  0.250000  0.170000  1.0  -0.4857
  O  O77  1  0.347300  0.750000  0.036700  1.0  -0.7885
  O  O78  1  0.389400  0.750000  0.742800  1.0  -0.6262
  O  O79  1  0.448300  0.750000  0.147500  1.0  -0.5206
  O  O80  1  0.518500  0.750000  0.670000  1.0  -0.4833
