# generated using pymatgen
data_NaCeH4C8(NO5)2
_symmetry_space_group_name_H-M   'P 1'
_cell_length_a   15.41400000
_cell_length_b   6.71800000
_cell_length_c   14.32200000
_cell_angle_alpha   90.00000000
_cell_angle_beta   90.00000000
_cell_angle_gamma   90.00000000
_symmetry_Int_Tables_number   1
_chemical_formula_structural   NaCeH4C8(NO5)2
_chemical_formula_sum   'Na4 Ce4 H16 C32 N8 O40'
_cell_volume   1483.06103114
_cell_formula_units_Z   4
loop_
 _symmetry_equiv_pos_site_id
 _symmetry_equiv_pos_as_xyz
  1  'x, y, z'
loop_
 _atom_site_type_symbol
 _atom_site_label
 _atom_site_symmetry_multiplicity
 _atom_site_fract_x
 _atom_site_fract_y
 _atom_site_fract_z
 _atom_site_occupancy
 _atom_site_charge
  Na  Na1  1  0.258600  0.250000  0.690900  1.0  0.9475
  Na  Na2  1  0.241400  0.750000  0.190900  1.0  0.9485
  Na  Na3  1  0.741400  0.750000  0.309100  1.0  0.9482
  Na  Na4  1  0.758600  0.250000  0.809100  1.0  0.9488
  Ce  Ce5  1  0.803340  0.750000  0.623430  1.0  2.1283
  Ce  Ce6  1  0.696660  0.250000  0.123430  1.0  2.1286
  Ce  Ce7  1  0.196660  0.250000  0.376570  1.0  2.1289
  Ce  Ce8  1  0.303340  0.750000  0.876570  1.0  2.1284
  H  H9  1  0.690900  0.033600  0.595200  1.0  0.4002
  H  H10  1  0.670000  0.885100  0.533500  1.0  0.4234
  H  H11  1  0.809100  0.966400  0.095200  1.0  0.3996
  H  H12  1  0.830000  0.114900  0.033500  1.0  0.4221
  H  H13  1  0.309100  0.533600  0.404800  1.0  0.4015
  H  H14  1  0.330000  0.385100  0.466500  1.0  0.4205
  H  H15  1  0.190900  0.466400  0.904800  1.0  0.4012
  H  H16  1  0.170000  0.614900  0.966500  1.0  0.4212
  H  H17  1  0.309100  0.966400  0.404800  1.0  0.3987
  H  H18  1  0.330000  0.114900  0.466500  1.0  0.421
  H  H19  1  0.190900  0.033600  0.904800  1.0  0.4001
  H  H20  1  0.170000  0.885100  0.966500  1.0  0.4237
  H  H21  1  0.690900  0.466400  0.595200  1.0  0.4002
  H  H22  1  0.670000  0.614900  0.533500  1.0  0.4221
  H  H23  1  0.809100  0.533600  0.095200  1.0  0.4004
  H  H24  1  0.830000  0.385100  0.033500  1.0  0.4205
  C  C25  1  0.997100  0.750000  0.507000  1.0  0.0642
  C  C26  1  0.085200  0.750000  0.490300  1.0  0.0423
  C  C27  1  0.111300  0.750000  0.648100  1.0  0.1597
  C  C28  1  0.021400  0.750000  0.665100  1.0  0.1417
  C  C29  1  0.927300  0.750000  0.430700  1.0  0.596
  C  C30  1  0.125600  0.750000  0.392000  1.0  0.6857
  C  C31  1  0.178000  0.750000  0.722500  1.0  0.6871
  C  C32  1  0.979100  0.750000  0.759600  1.0  0.6221
  C  C33  1  0.502900  0.250000  0.007000  1.0  0.0636
  C  C34  1  0.414800  0.250000  0.990300  1.0  0.0411
  C  C35  1  0.388700  0.250000  0.148100  1.0  0.1593
  C  C36  1  0.478600  0.250000  0.165100  1.0  0.1417
  C  C37  1  0.572700  0.250000  0.930700  1.0  0.595
  C  C38  1  0.374400  0.250000  0.892000  1.0  0.6859
  C  C39  1  0.322000  0.250000  0.222500  1.0  0.6884
  C  C40  1  0.520900  0.250000  0.259600  1.0  0.6235
  C  C41  1  0.002900  0.250000  0.493000  1.0  0.0632
  C  C42  1  0.914800  0.250000  0.509700  1.0  0.0413
  C  C43  1  0.888700  0.250000  0.351900  1.0  0.1589
  C  C44  1  0.978600  0.250000  0.334900  1.0  0.1414
  C  C45  1  0.072700  0.250000  0.569300  1.0  0.5965
  C  C46  1  0.874400  0.250000  0.608000  1.0  0.6848
  C  C47  1  0.822000  0.250000  0.277500  1.0  0.688
  C  C48  1  0.020900  0.250000  0.240400  1.0  0.624
  C  C49  1  0.497100  0.750000  0.993000  1.0  0.0639
  C  C50  1  0.585200  0.750000  0.009700  1.0  0.0423
  C  C51  1  0.611300  0.750000  0.851900  1.0  0.1594
  C  C52  1  0.521400  0.750000  0.834900  1.0  0.1416
  C  C53  1  0.427300  0.750000  0.069300  1.0  0.596
  C  C54  1  0.625600  0.750000  0.108000  1.0  0.6851
  C  C55  1  0.678000  0.750000  0.777500  1.0  0.6865
  C  C56  1  0.479100  0.750000  0.740400  1.0  0.6254
  N  N57  1  0.966600  0.750000  0.594800  1.0  -0.4129
  N  N58  1  0.142500  0.750000  0.562000  1.0  -0.3957
  N  N59  1  0.533400  0.250000  0.094800  1.0  -0.4109
  N  N60  1  0.357500  0.250000  0.062000  1.0  -0.3977
  N  N61  1  0.033400  0.250000  0.405200  1.0  -0.411
  N  N62  1  0.857500  0.250000  0.438000  1.0  -0.3983
  N  N63  1  0.466600  0.750000  0.905200  1.0  -0.4124
  N  N64  1  0.642500  0.750000  0.938000  1.0  -0.3963
  O  O65  1  0.144700  0.586800  0.358500  1.0  -0.7428
  O  O66  1  0.206900  0.915100  0.752200  1.0  -0.6969
  O  O67  1  0.704500  0.978000  0.544500  1.0  -0.7918
  O  O68  1  0.355300  0.413200  0.858500  1.0  -0.7433
  O  O69  1  0.293100  0.084900  0.252200  1.0  -0.6966
  O  O70  1  0.795500  0.022000  0.044500  1.0  -0.7898
  O  O71  1  0.855300  0.086800  0.641500  1.0  -0.7427
  O  O72  1  0.793100  0.415100  0.247800  1.0  -0.6979
  O  O73  1  0.295500  0.478000  0.455500  1.0  -0.7904
  O  O74  1  0.644700  0.913200  0.141500  1.0  -0.7419
  O  O75  1  0.706900  0.584900  0.747800  1.0  -0.697
  O  O76  1  0.204500  0.522000  0.955500  1.0  -0.7869
  O  O77  1  0.855300  0.413200  0.641500  1.0  -0.7431
  O  O78  1  0.793100  0.084900  0.247800  1.0  -0.6969
  O  O79  1  0.295500  0.022000  0.455500  1.0  -0.7884
  O  O80  1  0.644700  0.586800  0.141500  1.0  -0.7418
  O  O81  1  0.706900  0.915100  0.747800  1.0  -0.6977
  O  O82  1  0.204500  0.978000  0.955500  1.0  -0.7892
  O  O83  1  0.144700  0.913200  0.358500  1.0  -0.7431
  O  O84  1  0.206900  0.584900  0.752200  1.0  -0.697
  O  O85  1  0.704500  0.522000  0.544500  1.0  -0.7903
  O  O86  1  0.355300  0.086800  0.858500  1.0  -0.743
  O  O87  1  0.293100  0.415100  0.252200  1.0  -0.6968
  O  O88  1  0.795500  0.478000  0.044500  1.0  -0.7916
  O  O89  1  0.849700  0.750000  0.462200  1.0  -0.7266
  O  O90  1  0.949800  0.750000  0.349800  1.0  -0.5015
  O  O91  1  0.027300  0.750000  0.828600  1.0  -0.5271
  O  O92  1  0.897200  0.750000  0.759800  1.0  -0.6921
  O  O93  1  0.650300  0.250000  0.962200  1.0  -0.7263
  O  O94  1  0.550200  0.250000  0.849800  1.0  -0.5008
  O  O95  1  0.472700  0.250000  0.328600  1.0  -0.5259
  O  O96  1  0.602800  0.250000  0.259800  1.0  -0.6965
  O  O97  1  0.150300  0.250000  0.537800  1.0  -0.727
  O  O98  1  0.050200  0.250000  0.650200  1.0  -0.505
  O  O99  1  0.972700  0.250000  0.171400  1.0  -0.5273
  O  O100  1  0.102800  0.250000  0.240200  1.0  -0.6986
  O  O101  1  0.349700  0.750000  0.037800  1.0  -0.7277
  O  O102  1  0.449800  0.750000  0.150200  1.0  -0.505
  O  O103  1  0.527300  0.750000  0.671400  1.0  -0.5265
  O  O104  1  0.397200  0.750000  0.740200  1.0  -0.693
