# generated using pymatgen
data_NaSmC8(NO4)2
_symmetry_space_group_name_H-M   'P 1'
_cell_length_a   15.56900000
_cell_length_b   6.85330000
_cell_length_c   14.39700000
_cell_angle_alpha   90.00000000
_cell_angle_beta   90.00000000
_cell_angle_gamma   90.00000000
_symmetry_Int_Tables_number   1
_chemical_formula_structural   NaSmC8(NO4)2
_chemical_formula_sum   'Na4 Sm4 C32 N8 O32'
_cell_volume   1536.14590180
_cell_formula_units_Z   4
loop_
 _symmetry_equiv_pos_site_id
 _symmetry_equiv_pos_as_xyz
  1  'x, y, z'
loop_
 _atom_site_type_symbol
 _atom_site_label
 _atom_site_symmetry_multiplicity
 _atom_site_fract_x
 _atom_site_fract_y
 _atom_site_fract_z
 _atom_site_occupancy
 _atom_site_charge
  Na  Na1  1  0.259500  0.250000  0.692100  1.0  0.9482
  Na  Na2  1  0.240500  0.750000  0.192100  1.0  0.9493
  Na  Na3  1  0.740500  0.750000  0.307900  1.0  0.9477
  Na  Na4  1  0.759500  0.250000  0.807900  1.0  0.9489
  Sm  Sm5  1  0.801810  0.750000  0.621430  1.0  2.1978
  Sm  Sm6  1  0.698190  0.250000  0.121430  1.0  2.1963
  Sm  Sm7  1  0.198190  0.250000  0.378570  1.0  2.1968
  Sm  Sm8  1  0.301810  0.750000  0.878570  1.0  2.1989
  C  C9  1  0.998800  0.750000  0.506600  1.0  0.0481
  C  C10  1  0.087400  0.750000  0.491000  1.0  0.1182
  C  C11  1  0.110900  0.750000  0.647400  1.0  0.1254
  C  C12  1  0.022300  0.750000  0.663500  1.0  0.1364
  C  C13  1  0.930700  0.750000  0.431000  1.0  0.5836
  C  C14  1  0.129200  0.750000  0.396000  1.0  0.7119
  C  C15  1  0.178900  0.750000  0.722500  1.0  0.6748
  C  C16  1  0.981700  0.750000  0.758200  1.0  0.6099
  C  C17  1  0.501200  0.250000  0.006600  1.0  0.0478
  C  C18  1  0.412600  0.250000  0.991000  1.0  0.1169
  C  C19  1  0.389100  0.250000  0.147400  1.0  0.1254
  C  C20  1  0.477700  0.250000  0.163500  1.0  0.1366
  C  C21  1  0.569300  0.250000  0.931000  1.0  0.583
  C  C22  1  0.370800  0.250000  0.896000  1.0  0.7139
  C  C23  1  0.321100  0.250000  0.222500  1.0  0.6748
  C  C24  1  0.518300  0.250000  0.258200  1.0  0.6115
  C  C25  1  0.001200  0.250000  0.493400  1.0  0.0472
  C  C26  1  0.912600  0.250000  0.509000  1.0  0.117
  C  C27  1  0.889100  0.250000  0.352600  1.0  0.1247
  C  C28  1  0.977700  0.250000  0.336500  1.0  0.1342
  C  C29  1  0.069300  0.250000  0.569000  1.0  0.5841
  C  C30  1  0.870800  0.250000  0.604000  1.0  0.7145
  C  C31  1  0.821100  0.250000  0.277500  1.0  0.6747
  C  C32  1  0.018300  0.250000  0.241800  1.0  0.6104
  C  C33  1  0.498800  0.750000  0.993400  1.0  0.0478
  C  C34  1  0.587400  0.750000  0.009000  1.0  0.1178
  C  C35  1  0.610900  0.750000  0.852600  1.0  0.1246
  C  C36  1  0.522300  0.750000  0.836500  1.0  0.134
  C  C37  1  0.430700  0.750000  0.069000  1.0  0.5835
  C  C38  1  0.629200  0.750000  0.104000  1.0  0.7138
  C  C39  1  0.678900  0.750000  0.777500  1.0  0.6737
  C  C40  1  0.481700  0.750000  0.741800  1.0  0.612
  N  N41  1  0.968100  0.750000  0.593400  1.0  -0.4199
  N  N42  1  0.142200  0.750000  0.561700  1.0  -0.3885
  N  N43  1  0.531900  0.250000  0.093400  1.0  -0.419
  N  N44  1  0.357800  0.250000  0.061700  1.0  -0.3863
  N  N45  1  0.031900  0.250000  0.406600  1.0  -0.4192
  N  N46  1  0.857800  0.250000  0.438300  1.0  -0.387
  N  N47  1  0.468100  0.750000  0.906600  1.0  -0.4196
  N  N48  1  0.642200  0.750000  0.938300  1.0  -0.3893
  O  O49  1  0.147400  0.589300  0.361500  1.0  -0.7329
  O  O50  1  0.206400  0.909000  0.749700  1.0  -0.7013
  O  O51  1  0.352600  0.410700  0.861500  1.0  -0.7327
  O  O52  1  0.293600  0.091000  0.249700  1.0  -0.7013
  O  O53  1  0.852600  0.089300  0.638500  1.0  -0.7305
  O  O54  1  0.793600  0.409000  0.250300  1.0  -0.704
  O  O55  1  0.647400  0.910700  0.138500  1.0  -0.7319
  O  O56  1  0.706400  0.591000  0.750300  1.0  -0.7029
  O  O57  1  0.852600  0.410700  0.638500  1.0  -0.7322
  O  O58  1  0.793600  0.091000  0.250300  1.0  -0.7042
  O  O59  1  0.647400  0.589300  0.138500  1.0  -0.7324
  O  O60  1  0.706400  0.909000  0.750300  1.0  -0.7029
  O  O61  1  0.147400  0.910700  0.361500  1.0  -0.7323
  O  O62  1  0.206400  0.591000  0.749700  1.0  -0.7003
  O  O63  1  0.352600  0.089300  0.861500  1.0  -0.7321
  O  O64  1  0.293600  0.409000  0.249700  1.0  -0.7023
  O  O65  1  0.854000  0.750000  0.459100  1.0  -0.7446
  O  O66  1  0.955500  0.750000  0.349900  1.0  -0.5362
  O  O67  1  0.028300  0.750000  0.826500  1.0  -0.4831
  O  O68  1  0.901200  0.750000  0.759100  1.0  -0.7135
  O  O69  1  0.646000  0.250000  0.959100  1.0  -0.7456
  O  O70  1  0.544500  0.250000  0.849900  1.0  -0.5349
  O  O71  1  0.471700  0.250000  0.326500  1.0  -0.4834
  O  O72  1  0.598800  0.250000  0.259100  1.0  -0.7137
  O  O73  1  0.146000  0.250000  0.540900  1.0  -0.7446
  O  O74  1  0.044500  0.250000  0.650100  1.0  -0.5377
  O  O75  1  0.971700  0.250000  0.173500  1.0  -0.4855
  O  O76  1  0.098800  0.250000  0.240900  1.0  -0.7119
  O  O77  1  0.354000  0.750000  0.040900  1.0  -0.7444
  O  O78  1  0.455500  0.750000  0.150100  1.0  -0.5387
  O  O79  1  0.528300  0.750000  0.673500  1.0  -0.484
  O  O80  1  0.401200  0.750000  0.740900  1.0  -0.7094
