# generated using pymatgen
data_ZnP2H3O8
_symmetry_space_group_name_H-M   'P 1'
_cell_length_a   8.45700000
_cell_length_b   13.81200000
_cell_length_c   10.18900000
_cell_angle_alpha   90.00000000
_cell_angle_beta   91.20000000
_cell_angle_gamma   90.00000000
_symmetry_Int_Tables_number   1
_chemical_formula_structural   ZnP2H3O8
_chemical_formula_sum   'Zn4 P8 H12 O32'
_cell_volume   1189.89654665
_cell_formula_units_Z   4
loop_
 _symmetry_equiv_pos_site_id
 _symmetry_equiv_pos_as_xyz
  1  'x, y, z'
loop_
 _atom_site_type_symbol
 _atom_site_label
 _atom_site_symmetry_multiplicity
 _atom_site_fract_x
 _atom_site_fract_y
 _atom_site_fract_z
 _atom_site_occupancy
 _atom_site_charge
  Zn  Zn1  1  0.216350  0.573670  0.975240  1.0  1.1199
  Zn  Zn2  1  0.717980  0.869080  0.085930  1.0  1.0935
  Zn  Zn3  1  0.216350  0.426330  0.475240  1.0  1.1205
  Zn  Zn4  1  0.717980  0.130920  0.585930  1.0  1.0936
  P  P5  1  0.245160  0.613130  0.661270  1.0  1.9258
  P  P6  1  0.749040  0.037120  0.295240  1.0  1.9184
  P  P7  1  0.905540  0.693730  0.964070  1.0  1.707
  P  P8  1  0.406340  0.773240  0.994370  1.0  1.7097
  P  P9  1  0.245160  0.386870  0.161270  1.0  1.9418
  P  P10  1  0.749040  0.962880  0.795240  1.0  1.9192
  P  P11  1  0.905540  0.306270  0.464070  1.0  1.7082
  P  P12  1  0.406340  0.226760  0.494370  1.0  1.7097
  H  H13  1  0.170000  0.812000  0.930000  1.0  0.3354
  H  H14  1  0.547000  0.129000  0.277000  1.0  0.3704
  H  H15  1  0.674000  0.692000  0.881000  1.0  0.3287
  H  H16  1  0.426000  0.723000  0.722000  1.0  0.3346
  H  H17  1  0.931000  0.149000  0.274000  1.0  0.3286
  H  H18  1  0.049000  0.701000  0.718000  1.0  0.3714
  H  H19  1  0.170000  0.188000  0.430000  1.0  0.3355
  H  H20  1  0.547000  0.871000  0.777000  1.0  0.3707
  H  H21  1  0.674000  0.308000  0.381000  1.0  0.3273
  H  H22  1  0.426000  0.277000  0.222000  1.0  0.3354
  H  H23  1  0.931000  0.851000  0.774000  1.0  0.3283
  H  H24  1  0.049000  0.299000  0.218000  1.0  0.3714
  O  O25  1  0.352900  0.675340  0.042300  1.0  -0.8029
  O  O26  1  0.001400  0.754280  0.866800  1.0  -0.7685
  O  O27  1  0.998400  0.606220  0.009900  1.0  -0.7705
  O  O28  1  0.257400  0.839410  0.964000  1.0  -0.6258
  O  O29  1  0.500800  0.827370  0.099200  1.0  -0.7847
  O  O30  1  0.770500  0.935750  0.247300  1.0  -0.8047
  O  O31  1  0.586000  0.074800  0.241000  1.0  -0.5976
  O  O32  1  0.850000  0.754550  0.078000  1.0  -0.7785
  O  O33  1  0.253800  0.558170  0.787600  1.0  -0.8493
  O  O34  1  0.500500  0.765040  0.867100  1.0  -0.7284
  O  O35  1  0.758100  0.651980  0.885000  1.0  -0.6011
  O  O36  1  0.377700  0.691200  0.655400  1.0  -0.6038
  O  O37  1  0.878400  0.101300  0.232600  1.0  -0.5792
  O  O38  1  0.757500  0.044760  0.441500  1.0  -0.8578
  O  O39  1  0.086000  0.669900  0.647800  1.0  -0.5871
  O  O40  1  0.260800  0.555040  0.538200  1.0  -0.8136
  O  O41  1  0.352900  0.324660  0.542300  1.0  -0.8013
  O  O42  1  0.001400  0.245720  0.366800  1.0  -0.7676
  O  O43  1  0.998400  0.393780  0.509900  1.0  -0.7691
  O  O44  1  0.257400  0.160590  0.464000  1.0  -0.626
  O  O45  1  0.500800  0.172630  0.599200  1.0  -0.7858
  O  O46  1  0.770500  0.064250  0.747300  1.0  -0.8015
  O  O47  1  0.586000  0.925200  0.741000  1.0  -0.5974
  O  O48  1  0.850000  0.245450  0.578000  1.0  -0.7781
  O  O49  1  0.253800  0.441830  0.287600  1.0  -0.8561
  O  O50  1  0.500500  0.234960  0.367100  1.0  -0.7287
  O  O51  1  0.758100  0.348020  0.385000  1.0  -0.5999
  O  O52  1  0.377700  0.308800  0.155400  1.0  -0.6039
  O  O53  1  0.878400  0.898700  0.732600  1.0  -0.5797
  O  O54  1  0.757500  0.955240  0.941500  1.0  -0.8555
  O  O55  1  0.086000  0.330100  0.147800  1.0  -0.5874
  O  O56  1  0.260800  0.444960  0.038200  1.0  -0.8134
