# generated using pymatgen
data_Zn(PO4)2
_symmetry_space_group_name_H-M   'P 1'
_cell_length_a   8.44300000
_cell_length_b   13.77900000
_cell_length_c   10.17000000
_cell_angle_alpha   90.00000000
_cell_angle_beta   91.91000000
_cell_angle_gamma   90.00000000
_symmetry_Int_Tables_number   1
_chemical_formula_structural   Zn(PO4)2
_chemical_formula_sum   'Zn4 P8 O32'
_cell_volume   1182.48077158
_cell_formula_units_Z   4
loop_
 _symmetry_equiv_pos_site_id
 _symmetry_equiv_pos_as_xyz
  1  'x, y, z'
loop_
 _atom_site_type_symbol
 _atom_site_label
 _atom_site_symmetry_multiplicity
 _atom_site_fract_x
 _atom_site_fract_y
 _atom_site_fract_z
 _atom_site_occupancy
 _atom_site_charge
  Zn  Zn1  1  0.121100  0.926420  0.039600  1.0  1.1682
  Zn  Zn2  1  0.622800  0.369100  0.650400  1.0  1.1762
  Zn  Zn3  1  0.121100  0.073580  0.539600  1.0  1.1675
  Zn  Zn4  1  0.622800  0.630900  0.150400  1.0  1.1762
  P  P5  1  0.810600  0.806200  0.028500  1.0  1.7774
  P  P6  1  0.150300  0.113300  0.225800  1.0  1.735
  P  P7  1  0.310900  0.726800  0.059100  1.0  1.7744
  P  P8  1  0.653900  0.537000  0.859900  1.0  1.6817
  P  P9  1  0.810600  0.193800  0.528500  1.0  1.7777
  P  P10  1  0.150300  0.886700  0.725800  1.0  1.7355
  P  P11  1  0.310900  0.273200  0.559100  1.0  1.774
  P  P12  1  0.653900  0.463000  0.359900  1.0  1.6814
  O  O13  1  0.904100  0.894300  0.074500  1.0  -0.6512
  O  O14  1  0.754600  0.746500  0.142500  1.0  -0.6682
  O  O15  1  0.661800  0.847600  0.949800  1.0  -0.4748
  O  O16  1  0.906100  0.746000  0.930600  1.0  -0.5368
  O  O17  1  0.156800  0.941600  0.853000  1.0  -0.7027
  O  O18  1  0.990100  0.170000  0.212400  1.0  -0.4741
  O  O19  1  0.167300  0.055700  0.102900  1.0  -0.6744
  O  O20  1  0.283600  0.191000  0.220900  1.0  -0.4627
  O  O21  1  0.257800  0.824700  0.107400  1.0  -0.678
  O  O22  1  0.405700  0.672200  0.163100  1.0  -0.6549
  O  O23  1  0.162400  0.661200  0.028300  1.0  -0.4814
  O  O24  1  0.405400  0.735600  0.931300  1.0  -0.4913
  O  O25  1  0.663700  0.544400  0.006100  1.0  -0.7224
  O  O26  1  0.490600  0.574500  0.805000  1.0  -0.4726
  O  O27  1  0.785000  0.602200  0.796900  1.0  -0.4845
  O  O28  1  0.675100  0.435400  0.811700  1.0  -0.6812
  O  O29  1  0.904100  0.105700  0.574500  1.0  -0.6526
  O  O30  1  0.754600  0.253500  0.642500  1.0  -0.6691
  O  O31  1  0.661800  0.152400  0.449800  1.0  -0.4741
  O  O32  1  0.906100  0.254000  0.430600  1.0  -0.5363
  O  O33  1  0.156800  0.058400  0.353000  1.0  -0.7028
  O  O34  1  0.990100  0.830000  0.712400  1.0  -0.4746
  O  O35  1  0.167300  0.944300  0.602900  1.0  -0.6756
  O  O36  1  0.283600  0.809000  0.720900  1.0  -0.4627
  O  O37  1  0.257800  0.175300  0.607400  1.0  -0.6779
  O  O38  1  0.405700  0.327800  0.663100  1.0  -0.6542
  O  O39  1  0.162400  0.338800  0.528300  1.0  -0.4813
  O  O40  1  0.405400  0.264400  0.431300  1.0  -0.4917
  O  O41  1  0.663700  0.455600  0.506100  1.0  -0.7231
  O  O42  1  0.490600  0.425500  0.305000  1.0  -0.4723
  O  O43  1  0.785000  0.397800  0.296900  1.0  -0.4855
  O  O44  1  0.675100  0.564600  0.311700  1.0  -0.6803
