# generated using pymatgen
data_Ca5H66(C54O13)2
_symmetry_space_group_name_H-M   'P 1'
_cell_length_a   16.13500000
_cell_length_b   26.79200000
_cell_length_c   18.63000000
_cell_angle_alpha   90.00000000
_cell_angle_beta   110.57000000
_cell_angle_gamma   90.00000000
_symmetry_Int_Tables_number   1
_chemical_formula_structural   Ca5H66(C54O13)2
_chemical_formula_sum   'Ca10 H132 C216 O52'
_cell_volume   7540.07794934
_cell_formula_units_Z   2
loop_
 _symmetry_equiv_pos_site_id
 _symmetry_equiv_pos_as_xyz
  1  'x, y, z'
loop_
 _atom_site_type_symbol
 _atom_site_label
 _atom_site_symmetry_multiplicity
 _atom_site_fract_x
 _atom_site_fract_y
 _atom_site_fract_z
 _atom_site_occupancy
 _atom_site_charge
  Ca  Ca1  1  0.952260  0.432050  0.970840  1.0  1.5417
  Ca  Ca2  1  0.278710  0.936990  0.444780  1.0  1.5503
  Ca  Ca3  1  0.047740  0.932050  0.529160  1.0  1.5423
  Ca  Ca4  1  0.721290  0.436990  0.055220  1.0  1.5494
  Ca  Ca5  1  0.047740  0.567950  0.029160  1.0  1.542
  Ca  Ca6  1  0.721290  0.063010  0.555220  1.0  1.5504
  Ca  Ca7  1  0.952260  0.067950  0.470840  1.0  1.5419
  Ca  Ca8  1  0.278710  0.563010  0.944780  1.0  1.5511
  Ca  Ca9  1  0.500000  0.000000  0.500000  1.0  1.5764
  Ca  Ca10  1  0.500000  0.500000  0.000000  1.0  1.5764
  H  H11  1  0.114100  0.481700  0.976200  1.0  0.4719
  H  H12  1  0.054500  0.497300  0.909500  1.0  0.413
  H  H13  1  0.910800  0.333400  0.862000  1.0  0.3711
  H  H14  1  0.383600  0.319700  0.833600  1.0  0.1149
  H  H15  1  0.230300  0.212100  0.699800  1.0  0.0953
  H  H16  1  0.492600  0.216600  0.735700  1.0  0.1069
  H  H17  1  0.618200  0.243800  0.808200  1.0  0.1175
  H  H18  1  0.751100  0.287400  0.858300  1.0  0.1036
  H  H19  1  0.621300  0.404500  0.903900  1.0  0.0859
  H  H20  1  0.488800  0.362800  0.850300  1.0  0.1143
  H  H21  1  0.260800  0.362200  0.801500  1.0  0.0988
  H  H22  1  0.149900  0.393200  0.842900  1.0  0.1097
  H  H23  1  0.031200  0.256800  0.804200  1.0  0.1086
  H  H24  1  0.146300  0.225700  0.769200  1.0  0.106
  H  H25  1  0.226700  0.175900  0.588200  1.0  0.1124
  H  H26  1  0.208700  0.102600  0.517900  1.0  0.1042
  H  H27  1  0.453200  0.057100  0.654100  1.0  0.1026
  H  H28  1  0.470100  0.129700  0.726500  1.0  0.1155
  H  H29  1  0.204500  0.084200  0.995300  1.0  0.1108
  H  H30  1  0.294100  0.201300  0.907800  1.0  0.0947
  H  H31  1  0.383800  0.179100  0.137200  1.0  0.1011
  H  H32  1  0.429100  0.103200  0.205000  1.0  0.1034
  H  H33  1  0.433200  0.053500  0.307500  1.0  0.1111
  H  H34  1  0.171100  0.024500  0.203800  1.0  0.1095
  H  H35  1  0.166400  0.075500  0.103400  1.0  0.1122
  H  H36  1  0.066800  0.139800  0.863700  1.0  0.1204
  H  H37  1  0.988100  0.125500  0.733400  1.0  0.1099
  H  H38  1  0.215500  0.091300  0.701100  1.0  0.0945
  H  H39  1  0.295200  0.110900  0.828800  1.0  0.1249
  H  H40  1  0.296300  0.284500  0.957300  1.0  0.1025
  H  H41  1  0.374200  0.357700  0.961400  1.0  0.1034
  H  H42  1  0.595100  0.292900  0.110500  1.0  0.107
  H  H43  1  0.515800  0.220700  0.110000  1.0  0.1207
  H  H44  1  0.885900  0.981700  0.523800  1.0  0.4707
  H  H45  1  0.945500  0.997300  0.590500  1.0  0.4134
  H  H46  1  0.089200  0.833400  0.638000  1.0  0.3716
  H  H47  1  0.616400  0.819700  0.666400  1.0  0.1157
  H  H48  1  0.769700  0.712100  0.800200  1.0  0.0956
  H  H49  1  0.507400  0.716600  0.764300  1.0  0.1069
  H  H50  1  0.381800  0.743800  0.691800  1.0  0.1179
  H  H51  1  0.248900  0.787400  0.641700  1.0  0.1035
  H  H52  1  0.378700  0.904500  0.596100  1.0  0.0857
  H  H53  1  0.511200  0.862800  0.649700  1.0  0.1161
  H  H54  1  0.739200  0.862200  0.698500  1.0  0.099
  H  H55  1  0.850100  0.893200  0.657100  1.0  0.1101
  H  H56  1  0.968800  0.756800  0.695800  1.0  0.1084
  H  H57  1  0.853700  0.725700  0.730800  1.0  0.1062
  H  H58  1  0.773300  0.675900  0.911800  1.0  0.1104
  H  H59  1  0.791300  0.602600  0.982100  1.0  0.1045
  H  H60  1  0.546800  0.557100  0.845900  1.0  0.1014
  H  H61  1  0.529900  0.629700  0.773500  1.0  0.116
  H  H62  1  0.795500  0.584200  0.504700  1.0  0.1106
  H  H63  1  0.705900  0.701300  0.592200  1.0  0.0943
  H  H64  1  0.616200  0.679100  0.362800  1.0  0.101
  H  H65  1  0.570900  0.603200  0.295000  1.0  0.1035
  H  H66  1  0.566800  0.553500  0.192500  1.0  0.111
  H  H67  1  0.828900  0.524500  0.296200  1.0  0.1089
  H  H68  1  0.833600  0.575500  0.396600  1.0  0.1126
  H  H69  1  0.933200  0.639800  0.636300  1.0  0.1204
  H  H70  1  0.011900  0.625500  0.766600  1.0  0.1103
  H  H71  1  0.784500  0.591300  0.798900  1.0  0.0944
  H  H72  1  0.704800  0.610900  0.671200  1.0  0.1247
  H  H73  1  0.703700  0.784500  0.542700  1.0  0.1029
  H  H74  1  0.625800  0.857700  0.538600  1.0  0.1032
  H  H75  1  0.404900  0.792900  0.389500  1.0  0.1077
  H  H76  1  0.484200  0.720700  0.390000  1.0  0.1209
  H  H77  1  0.885900  0.518300  0.023800  1.0  0.4712
  H  H78  1  0.945500  0.502700  0.090500  1.0  0.4136
  H  H79  1  0.089200  0.666667  0.138000  1.0  0.3718
  H  H80  1  0.616400  0.680300  0.166400  1.0  0.1161
  H  H81  1  0.769700  0.787900  0.300200  1.0  0.0957
  H  H82  1  0.507400  0.783400  0.264300  1.0  0.1074
  H  H83  1  0.381800  0.756200  0.191800  1.0  0.1183
  H  H84  1  0.248900  0.712600  0.141700  1.0  0.1035
  H  H85  1  0.378700  0.595500  0.096100  1.0  0.0856
  H  H86  1  0.511200  0.637200  0.149700  1.0  0.1161
  H  H87  1  0.739200  0.637800  0.198500  1.0  0.0989
  H  H88  1  0.850100  0.606800  0.157100  1.0  0.1097
  H  H89  1  0.968800  0.743200  0.195800  1.0  0.1087
  H  H90  1  0.853700  0.774300  0.230800  1.0  0.1061
  H  H91  1  0.773300  0.824100  0.411800  1.0  0.1104
  H  H92  1  0.791300  0.897400  0.482100  1.0  0.1044
  H  H93  1  0.546800  0.942900  0.345900  1.0  0.1019
  H  H94  1  0.529900  0.870300  0.273500  1.0  0.1161
  H  H95  1  0.795500  0.915800  0.004700  1.0  0.1098
  H  H96  1  0.705900  0.798700  0.092200  1.0  0.0942
  H  H97  1  0.616200  0.820900  0.862800  1.0  0.1012
  H  H98  1  0.570900  0.896800  0.795000  1.0  0.1025
  H  H99  1  0.566800  0.946500  0.692500  1.0  0.1111
  H  H100  1  0.828900  0.975500  0.796200  1.0  0.1092
  H  H101  1  0.833600  0.924500  0.896600  1.0  0.1126
  H  H102  1  0.933200  0.860200  0.136300  1.0  0.1205
  H  H103  1  0.011900  0.874500  0.266600  1.0  0.1101
  H  H104  1  0.784500  0.908700  0.298900  1.0  0.0947
  H  H105  1  0.704800  0.889100  0.171200  1.0  0.1239
  H  H106  1  0.703700  0.715500  0.042700  1.0  0.1028
  H  H107  1  0.625800  0.642300  0.038600  1.0  0.1034
  H  H108  1  0.404900  0.707100  0.889500  1.0  0.1078
  H  H109  1  0.484200  0.779300  0.890000  1.0  0.1223
  H  H110  1  0.114100  0.018300  0.476200  1.0  0.472
  H  H111  1  0.054500  0.002700  0.409500  1.0  0.413
  H  H112  1  0.910800  0.166600  0.362000  1.0  0.3707
  H  H113  1  0.383600  0.180300  0.333600  1.0  0.1156
  H  H114  1  0.230300  0.287900  0.199800  1.0  0.0952
  H  H115  1  0.492600  0.283400  0.235700  1.0  0.1069
  H  H116  1  0.618200  0.256200  0.308200  1.0  0.1175
  H  H117  1  0.751100  0.212600  0.358300  1.0  0.1041
  H  H118  1  0.621300  0.095500  0.403900  1.0  0.0861
  H  H119  1  0.488800  0.137200  0.350300  1.0  0.1144
  H  H120  1  0.260800  0.137800  0.301500  1.0  0.0982
  H  H121  1  0.149900  0.106800  0.342900  1.0  0.1095
  H  H122  1  0.031200  0.243200  0.304200  1.0  0.1084
  H  H123  1  0.146300  0.274300  0.269200  1.0  0.1067
  H  H124  1  0.226700  0.324100  0.088200  1.0  0.1115
  H  H125  1  0.208700  0.397400  0.017900  1.0  0.1042
  H  H126  1  0.453200  0.442900  0.154100  1.0  0.1023
  H  H127  1  0.470100  0.370300  0.226500  1.0  0.1156
  H  H128  1  0.204500  0.415800  0.495300  1.0  0.1106
  H  H129  1  0.294100  0.298700  0.407800  1.0  0.095
  H  H130  1  0.383800  0.320900  0.637200  1.0  0.101
  H  H131  1  0.429100  0.396800  0.705000  1.0  0.1025
  H  H132  1  0.433200  0.446500  0.807500  1.0  0.1111
  H  H133  1  0.171100  0.475500  0.703800  1.0  0.1095
  H  H134  1  0.166400  0.424500  0.603400  1.0  0.1121
  H  H135  1  0.066800  0.360200  0.363700  1.0  0.1205
  H  H136  1  0.988100  0.374500  0.233400  1.0  0.1102
  H  H137  1  0.215500  0.408700  0.201100  1.0  0.0948
  H  H138  1  0.295200  0.389100  0.328800  1.0  0.1242
  H  H139  1  0.296300  0.215500  0.457300  1.0  0.1025
  H  H140  1  0.374200  0.142300  0.461400  1.0  0.1031
  H  H141  1  0.595100  0.207100  0.610500  1.0  0.1069
  H  H142  1  0.515800  0.279300  0.610000  1.0  0.1218
  C  C143  1  0.452100  0.272400  0.789500  1.0  -0.0411
  C  C144  1  0.377400  0.291260  0.801700  1.0  -0.1613
  C  C145  1  0.294200  0.269480  0.768400  1.0  -0.0257
  C  C146  1  0.286600  0.227170  0.723200  1.0  -0.154
  C  C147  1  0.360400  0.206510  0.711600  1.0  0.0383
  C  C148  1  0.442400  0.229930  0.744300  1.0  -0.1687
  C  C149  1  0.538900  0.299100  0.823600  1.0  -0.0045
  C  C150  1  0.618400  0.276740  0.827000  1.0  -0.1304
  C  C151  1  0.697700  0.302590  0.857700  1.0  -0.049
  C  C152  1  0.700100  0.349990  0.887300  1.0  -0.1314
  C  C153  1  0.621000  0.371870  0.884000  1.0  -0.0538
  C  C154  1  0.542300  0.346850  0.852400  1.0  -0.1282
  C  C155  1  0.784800  0.378350  0.922700  1.0  0.7243
  C  C156  1  0.217400  0.290150  0.785300  1.0  0.0344
  C  C157  1  0.215600  0.340470  0.804500  1.0  -0.1242
  C  C158  1  0.149000  0.359220  0.827900  1.0  -0.038
  C  C159  1  0.080500  0.327740  0.829100  1.0  -0.1541
  C  C160  1  0.079100  0.277950  0.805600  1.0  -0.0387
  C  C161  1  0.147300  0.259580  0.784500  1.0  -0.1124
  C  C162  1  0.012300  0.347470  0.857900  1.0  0.5744
  C  C163  1  0.350400  0.160580  0.664700  1.0  0.03
  C  C164  1  0.272600  0.151670  0.602000  1.0  -0.1169
  C  C165  1  0.261800  0.108130  0.560200  1.0  -0.0422
  C  C166  1  0.328300  0.072210  0.579600  1.0  -0.1484
  C  C167  1  0.406800  0.081000  0.641400  1.0  -0.0492
  C  C168  1  0.417200  0.124380  0.683900  1.0  -0.1328
  C  C169  1  0.315600  0.025850  0.533500  1.0  0.6836
  C  C170  1  0.295300  0.126100  0.076500  1.0  0.0227
  C  C171  1  0.241400  0.112790  0.002800  1.0  -0.105
  C  C172  1  0.240800  0.140910  0.939300  1.0  1e-04
  C  C173  1  0.293400  0.182590  0.950900  1.0  -0.1271
  C  C174  1  0.346100  0.198270  0.024700  1.0  -0.0214
  C  C175  1  0.347300  0.169400  0.086900  1.0  -0.1161
  C  C176  1  0.297800  0.094770  0.142400  1.0  0.0705
  C  C177  1  0.376400  0.087210  0.204700  1.0  -0.147
  C  C178  1  0.379200  0.057300  0.265500  1.0  -0.089
  C  C179  1  0.303600  0.032610  0.265800  1.0  -0.1654
  C  C180  1  0.223700  0.040460  0.203900  1.0  -0.0638
  C  C181  1  0.221000  0.070630  0.144400  1.0  -0.1497
  C  C182  1  0.304100  0.998790  0.329800  1.0  0.7102
  C  C183  1  0.188900  0.126080  0.859400  1.0  0.0616
  C  C184  1  0.097500  0.130690  0.830600  1.0  -0.1071
  C  C185  1  0.050600  0.121960  0.753100  1.0  -0.0543
  C  C186  1  0.095000  0.108150  0.704600  1.0  -0.1296
  C  C187  1  0.185200  0.102460  0.733600  1.0  -0.0502
  C  C188  1  0.232400  0.112870  0.810100  1.0  -0.1365
  C  C189  1  0.046500  0.099170  0.620500  1.0  0.672
  C  C190  1  0.397900  0.244950  0.032000  1.0  0.0482
  C  C191  1  0.357100  0.286300  0.988600  1.0  -0.1402
  C  C192  1  0.403400  0.329570  0.990400  1.0  -0.0822
  C  C193  1  0.493600  0.332330  0.035000  1.0  -0.1339
  C  C194  1  0.534200  0.291180  0.079400  1.0  -0.0364
  C  C195  1  0.487500  0.248180  0.078800  1.0  -0.1099
  C  C196  1  0.544600  0.378200  0.032400  1.0  0.6996
  C  C197  1  0.547900  0.772400  0.710500  1.0  -0.0424
  C  C198  1  0.622600  0.791260  0.698300  1.0  -0.1616
  C  C199  1  0.705800  0.769480  0.731600  1.0  -0.0248
  C  C200  1  0.713400  0.727170  0.776800  1.0  -0.1526
  C  C201  1  0.639600  0.706510  0.788400  1.0  0.0371
  C  C202  1  0.557600  0.729930  0.755700  1.0  -0.1704
  C  C203  1  0.461100  0.799100  0.676400  1.0  -0.0035
  C  C204  1  0.381600  0.776740  0.673000  1.0  -0.1287
  C  C205  1  0.302300  0.802590  0.642300  1.0  -0.0464
  C  C206  1  0.299900  0.849990  0.612700  1.0  -0.13
  C  C207  1  0.379000  0.871870  0.616000  1.0  -0.0538
  C  C208  1  0.457700  0.846850  0.647600  1.0  -0.1313
  C  C209  1  0.215200  0.878350  0.577300  1.0  0.7248
  C  C210  1  0.782600  0.790150  0.714700  1.0  0.0341
  C  C211  1  0.784400  0.840470  0.695500  1.0  -0.1244
  C  C212  1  0.851000  0.859220  0.672100  1.0  -0.0378
  C  C213  1  0.919500  0.827740  0.670900  1.0  -0.1543
  C  C214  1  0.920900  0.777950  0.694400  1.0  -0.0364
  C  C215  1  0.852700  0.759580  0.715500  1.0  -0.112
  C  C216  1  0.987700  0.847470  0.642100  1.0  0.5753
  C  C217  1  0.649600  0.660580  0.835300  1.0  0.0296
  C  C218  1  0.727400  0.651670  0.898000  1.0  -0.1186
  C  C219  1  0.738200  0.608130  0.939800  1.0  -0.0447
  C  C220  1  0.671700  0.572210  0.920400  1.0  -0.1488
  C  C221  1  0.593200  0.581000  0.858600  1.0  -0.0482
  C  C222  1  0.582800  0.624380  0.816100  1.0  -0.1328
  C  C223  1  0.684400  0.525850  0.966500  1.0  0.6844
  C  C224  1  0.704700  0.626100  0.423500  1.0  0.025
  C  C225  1  0.758600  0.612790  0.497200  1.0  -0.1061
  C  C226  1  0.759200  0.640910  0.560700  1.0  0.0004
  C  C227  1  0.706600  0.682590  0.549100  1.0  -0.1275
  C  C228  1  0.653900  0.698270  0.475300  1.0  -0.0219
  C  C229  1  0.652700  0.669400  0.413100  1.0  -0.1151
  C  C230  1  0.702200  0.594770  0.357600  1.0  0.0706
  C  C231  1  0.623600  0.587210  0.295300  1.0  -0.1457
  C  C232  1  0.620800  0.557300  0.234500  1.0  -0.0893
  C  C233  1  0.696400  0.532610  0.234200  1.0  -0.1658
  C  C234  1  0.776300  0.540460  0.296100  1.0  -0.0671
  C  C235  1  0.779000  0.570630  0.355600  1.0  -0.152
  C  C236  1  0.695900  0.498790  0.170200  1.0  0.7096
  C  C237  1  0.811100  0.626080  0.640600  1.0  0.0613
  C  C238  1  0.902500  0.630690  0.669400  1.0  -0.1072
  C  C239  1  0.949400  0.621960  0.746900  1.0  -0.0551
  C  C240  1  0.905000  0.608150  0.795400  1.0  -0.1295
  C  C241  1  0.814800  0.602460  0.766400  1.0  -0.0487
  C  C242  1  0.767600  0.612870  0.689900  1.0  -0.1367
  C  C243  1  0.953500  0.599170  0.879500  1.0  0.6734
  C  C244  1  0.602100  0.744950  0.468000  1.0  0.0471
  C  C245  1  0.642900  0.786300  0.511400  1.0  -0.1424
  C  C246  1  0.596600  0.829570  0.509600  1.0  -0.0835
  C  C247  1  0.506400  0.832330  0.465000  1.0  -0.1347
  C  C248  1  0.465800  0.791180  0.420600  1.0  -0.0355
  C  C249  1  0.512500  0.748180  0.421200  1.0  -0.1089
  C  C250  1  0.455400  0.878200  0.467600  1.0  0.6994
  C  C251  1  0.547900  0.727600  0.210500  1.0  -0.0425
  C  C252  1  0.622600  0.708740  0.198300  1.0  -0.1616
  C  C253  1  0.705800  0.730520  0.231600  1.0  -0.025
  C  C254  1  0.713400  0.772830  0.276800  1.0  -0.1528
  C  C255  1  0.639600  0.793490  0.288400  1.0  0.037
  C  C256  1  0.557600  0.770070  0.255700  1.0  -0.17
  C  C257  1  0.461100  0.700900  0.176400  1.0  -0.0034
  C  C258  1  0.381600  0.723260  0.173000  1.0  -0.1295
  C  C259  1  0.302300  0.697410  0.142300  1.0  -0.0477
  C  C260  1  0.299900  0.650010  0.112700  1.0  -0.1298
  C  C261  1  0.379000  0.628130  0.116000  1.0  -0.0559
  C  C262  1  0.457700  0.653150  0.147600  1.0  -0.131
  C  C263  1  0.215200  0.621650  0.077300  1.0  0.7251
  C  C264  1  0.782600  0.709850  0.214700  1.0  0.0342
  C  C265  1  0.784400  0.659530  0.195500  1.0  -0.1239
  C  C266  1  0.851000  0.640780  0.172100  1.0  -0.0382
  C  C267  1  0.919500  0.672260  0.170900  1.0  -0.1539
  C  C268  1  0.920900  0.722050  0.194400  1.0  -0.0359
  C  C269  1  0.852700  0.740420  0.215500  1.0  -0.1123
  C  C270  1  0.987700  0.652530  0.142100  1.0  0.5759
  C  C271  1  0.649600  0.839420  0.335300  1.0  0.029
  C  C272  1  0.727400  0.848330  0.398000  1.0  -0.1179
  C  C273  1  0.738200  0.891870  0.439800  1.0  -0.045
  C  C274  1  0.671700  0.927790  0.420400  1.0  -0.1478
  C  C275  1  0.593200  0.919000  0.358600  1.0  -0.0465
  C  C276  1  0.582800  0.875620  0.316100  1.0  -0.1329
  C  C277  1  0.684400  0.974150  0.466500  1.0  0.6841
  C  C278  1  0.704700  0.873900  0.923500  1.0  0.0254
  C  C279  1  0.758600  0.887210  0.997200  1.0  -0.1054
  C  C280  1  0.759200  0.859090  0.060700  1.0  -0.0003
  C  C281  1  0.706600  0.817410  0.049100  1.0  -0.1276
  C  C282  1  0.653900  0.801730  0.975300  1.0  -0.0222
  C  C283  1  0.652700  0.830600  0.913100  1.0  -0.1157
  C  C284  1  0.702200  0.905230  0.857600  1.0  0.0706
  C  C285  1  0.623600  0.912790  0.795300  1.0  -0.1458
  C  C286  1  0.620800  0.942700  0.734500  1.0  -0.0917
  C  C287  1  0.696400  0.967390  0.734200  1.0  -0.1631
  C  C288  1  0.776300  0.959540  0.796100  1.0  -0.0686
  C  C289  1  0.779000  0.929370  0.855600  1.0  -0.152
  C  C290  1  0.695900  0.001210  0.670200  1.0  0.7101
  C  C291  1  0.811100  0.873920  0.140600  1.0  0.0609
  C  C292  1  0.902500  0.869310  0.169400  1.0  -0.1073
  C  C293  1  0.949400  0.878040  0.246900  1.0  -0.0548
  C  C294  1  0.905000  0.891850  0.295400  1.0  -0.13
  C  C295  1  0.814800  0.897540  0.266400  1.0  -0.0481
  C  C296  1  0.767600  0.887130  0.189900  1.0  -0.1365
  C  C297  1  0.953500  0.900830  0.379500  1.0  0.6732
  C  C298  1  0.602100  0.755050  0.968000  1.0  0.0465
  C  C299  1  0.642900  0.713700  0.011400  1.0  -0.1426
  C  C300  1  0.596600  0.670430  0.009600  1.0  -0.0831
  C  C301  1  0.506400  0.667670  0.965000  1.0  -0.1345
  C  C302  1  0.465800  0.708820  0.920600  1.0  -0.0355
  C  C303  1  0.512500  0.751820  0.921200  1.0  -0.1076
  C  C304  1  0.455400  0.621800  0.967600  1.0  0.6985
  C  C305  1  0.452100  0.227600  0.289500  1.0  -0.0414
  C  C306  1  0.377400  0.208740  0.301700  1.0  -0.1613
  C  C307  1  0.294200  0.230520  0.268400  1.0  -0.026
  C  C308  1  0.286600  0.272830  0.223200  1.0  -0.154
  C  C309  1  0.360400  0.293490  0.211600  1.0  0.0381
  C  C310  1  0.442400  0.270070  0.244300  1.0  -0.1683
  C  C311  1  0.538900  0.200900  0.323600  1.0  -0.0038
  C  C312  1  0.618400  0.223260  0.327000  1.0  -0.1305
  C  C313  1  0.697700  0.197410  0.357700  1.0  -0.0487
  C  C314  1  0.700100  0.150010  0.387300  1.0  -0.1312
  C  C315  1  0.621000  0.128130  0.384000  1.0  -0.0546
  C  C316  1  0.542300  0.153150  0.352400  1.0  -0.1276
  C  C317  1  0.784800  0.121650  0.422700  1.0  0.724
  C  C318  1  0.217400  0.209850  0.285300  1.0  0.0344
  C  C319  1  0.215600  0.159530  0.304500  1.0  -0.1248
  C  C320  1  0.149000  0.140780  0.327900  1.0  -0.0373
  C  C321  1  0.080500  0.172260  0.329100  1.0  -0.1539
  C  C322  1  0.079100  0.222050  0.305600  1.0  -0.0392
  C  C323  1  0.147300  0.240420  0.284500  1.0  -0.1137
  C  C324  1  0.012300  0.152530  0.357900  1.0  0.5742
  C  C325  1  0.350400  0.339420  0.164700  1.0  0.0304
  C  C326  1  0.272600  0.348330  0.102000  1.0  -0.1163
  C  C327  1  0.261800  0.391870  0.060200  1.0  -0.0424
  C  C328  1  0.328300  0.427790  0.079600  1.0  -0.1476
  C  C329  1  0.406800  0.419000  0.141400  1.0  -0.0475
  C  C330  1  0.417200  0.375620  0.183900  1.0  -0.1325
  C  C331  1  0.315600  0.474150  0.033500  1.0  0.6833
  C  C332  1  0.295300  0.373900  0.576500  1.0  0.0232
  C  C333  1  0.241400  0.387210  0.502800  1.0  -0.1044
  C  C334  1  0.240800  0.359090  0.439300  1.0  1e-04
  C  C335  1  0.293400  0.317410  0.450900  1.0  -0.1274
  C  C336  1  0.346100  0.301730  0.524700  1.0  -0.0216
  C  C337  1  0.347300  0.330600  0.586900  1.0  -0.1164
  C  C338  1  0.297800  0.405230  0.642400  1.0  0.0697
  C  C339  1  0.376400  0.412790  0.704700  1.0  -0.1466
  C  C340  1  0.379200  0.442700  0.765500  1.0  -0.0904
  C  C341  1  0.303600  0.467390  0.765800  1.0  -0.1631
  C  C342  1  0.223700  0.459540  0.703900  1.0  -0.0664
  C  C343  1  0.221000  0.429370  0.644400  1.0  -0.1502
  C  C344  1  0.304100  0.501210  0.829800  1.0  0.7099
  C  C345  1  0.188900  0.373920  0.359400  1.0  0.0603
  C  C346  1  0.097500  0.369310  0.330600  1.0  -0.1083
  C  C347  1  0.050600  0.378040  0.253100  1.0  -0.0551
  C  C348  1  0.095000  0.391850  0.204600  1.0  -0.1288
  C  C349  1  0.185200  0.397540  0.233600  1.0  -0.0484
  C  C350  1  0.232400  0.387130  0.310100  1.0  -0.1359
  C  C351  1  0.046500  0.400830  0.120500  1.0  0.6721
  C  C352  1  0.397900  0.255050  0.532000  1.0  0.0477
  C  C353  1  0.357100  0.213700  0.488600  1.0  -0.1404
  C  C354  1  0.403400  0.170430  0.490400  1.0  -0.0819
  C  C355  1  0.493600  0.167670  0.535000  1.0  -0.1349
  C  C356  1  0.534200  0.208820  0.579400  1.0  -0.0373
  C  C357  1  0.487500  0.251820  0.578800  1.0  -0.1084
  C  C358  1  0.544600  0.121800  0.532400  1.0  0.6993
  O  O359  1  0.063070  0.493870  0.956420  1.0  -0.9315
  O  O360  1  0.852450  0.364840  0.908700  1.0  -0.7107
  O  O361  1  0.787520  0.414680  0.964820  1.0  -0.676
  O  O362  1  0.023820  0.384810  0.897720  1.0  -0.6715
  O  O363  1  0.938980  0.320730  0.836800  1.0  -0.5001
  O  O364  1  0.240760  0.016940  0.483780  1.0  -0.6227
  O  O365  1  0.380530  0.995250  0.545730  1.0  -0.7136
  O  O366  1  0.375900  0.993850  0.386630  1.0  -0.7848
  O  O367  1  0.234270  0.976780  0.324940  1.0  -0.6341
  O  O368  1  0.970410  0.117380  0.587570  1.0  -0.6169
  O  O369  1  0.084300  0.073990  0.584070  1.0  -0.6168
  O  O370  1  0.502630  0.415190  0.995540  1.0  -0.6664
  O  O371  1  0.626650  0.376790  0.066760  1.0  -0.6076
  O  O372  1  0.936930  0.993870  0.543580  1.0  -0.9318
  O  O373  1  0.147550  0.864840  0.591300  1.0  -0.7117
  O  O374  1  0.212480  0.914680  0.535180  1.0  -0.6781
  O  O375  1  0.976180  0.884810  0.602280  1.0  -0.6704
  O  O376  1  0.061020  0.820730  0.663200  1.0  -0.502
  O  O377  1  0.759240  0.516940  0.016220  1.0  -0.6216
  O  O378  1  0.619470  0.495250  0.954270  1.0  -0.7151
  O  O379  1  0.624100  0.493850  0.113370  1.0  -0.783
  O  O380  1  0.765730  0.476780  0.175060  1.0  -0.6339
  O  O381  1  0.029590  0.617380  0.912430  1.0  -0.6175
  O  O382  1  0.915700  0.573990  0.915930  1.0  -0.6167
  O  O383  1  0.497370  0.915190  0.504460  1.0  -0.6679
  O  O384  1  0.373350  0.876790  0.433240  1.0  -0.6112
  O  O385  1  0.936930  0.506130  0.043580  1.0  -0.9318
  O  O386  1  0.147550  0.635160  0.091300  1.0  -0.7123
  O  O387  1  0.212480  0.585320  0.035180  1.0  -0.6757
  O  O388  1  0.976180  0.615190  0.102280  1.0  -0.6696
  O  O389  1  0.061020  0.679270  0.163200  1.0  -0.5013
  O  O390  1  0.759240  0.983060  0.516220  1.0  -0.6226
  O  O391  1  0.619470  0.004750  0.454270  1.0  -0.7147
  O  O392  1  0.624100  0.006150  0.613370  1.0  -0.7825
  O  O393  1  0.765730  0.023220  0.675060  1.0  -0.6345
  O  O394  1  0.029590  0.882620  0.412430  1.0  -0.6176
  O  O395  1  0.915700  0.926010  0.415930  1.0  -0.6162
  O  O396  1  0.497370  0.584810  0.004460  1.0  -0.6675
  O  O397  1  0.373350  0.623210  0.933240  1.0  -0.6107
  O  O398  1  0.063070  0.006130  0.456420  1.0  -0.932
  O  O399  1  0.852450  0.135160  0.408700  1.0  -0.7106
  O  O400  1  0.787520  0.085320  0.464820  1.0  -0.6777
  O  O401  1  0.023820  0.115190  0.397720  1.0  -0.6708
  O  O402  1  0.938980  0.179270  0.336800  1.0  -0.4998
  O  O403  1  0.240760  0.483060  0.983780  1.0  -0.6231
  O  O404  1  0.380530  0.504750  0.045730  1.0  -0.7137
  O  O405  1  0.375900  0.506150  0.886630  1.0  -0.785
  O  O406  1  0.234270  0.523220  0.824940  1.0  -0.6346
  O  O407  1  0.970410  0.382620  0.087570  1.0  -0.6176
  O  O408  1  0.084300  0.426010  0.084070  1.0  -0.6167
  O  O409  1  0.502630  0.084810  0.495540  1.0  -0.6667
  O  O410  1  0.626650  0.123210  0.566760  1.0  -0.6086
