# generated using pymatgen
data_CdH11C19SN3O4
_symmetry_space_group_name_H-M   'P 1'
_cell_length_a   12.78000000
_cell_length_b   10.49400000
_cell_length_c   15.87000000
_cell_angle_alpha   90.00000000
_cell_angle_beta   109.31000000
_cell_angle_gamma   90.00000000
_symmetry_Int_Tables_number   1
_chemical_formula_structural   CdH11C19SN3O4
_chemical_formula_sum   'Cd4 H44 C76 S4 N12 O16'
_cell_volume   2008.64274083
_cell_formula_units_Z   4
loop_
 _symmetry_equiv_pos_site_id
 _symmetry_equiv_pos_as_xyz
  1  'x, y, z'
loop_
 _atom_site_type_symbol
 _atom_site_label
 _atom_site_symmetry_multiplicity
 _atom_site_fract_x
 _atom_site_fract_y
 _atom_site_fract_z
 _atom_site_occupancy
 _atom_site_charge
  Cd  Cd1  1  0.638800  0.532510  0.887540  1.0  0.9988
  Cd  Cd2  1  0.361200  0.032510  0.612460  1.0  1.0014
  Cd  Cd3  1  0.361200  0.467490  0.112460  1.0  1.0017
  Cd  Cd4  1  0.638800  0.967490  0.387540  1.0  0.9987
  H  H5  1  0.603300  0.648000  0.599600  1.0  0.0948
  H  H6  1  0.138500  0.858600  0.070800  1.0  0.0903
  H  H7  1  0.177500  0.072000  0.073500  1.0  0.1081
  H  H8  1  0.064700  0.296600  0.070800  1.0  0.0827
  H  H9  1  0.121000  0.282200  0.997500  1.0  0.111
  H  H10  1  0.112400  0.337500  0.849700  1.0  0.1125
  H  H11  1  0.078300  0.447700  0.717200  1.0  0.0807
  H  H12  1  0.920800  0.569900  0.658700  1.0  0.0757
  H  H13  1  0.793200  0.589600  0.732700  1.0  0.1154
  H  H14  1  0.935400  0.238800  0.117100  1.0  0.1164
  H  H15  1  0.641100  0.428900  0.106200  1.0  0.082
  H  H16  1  0.396700  0.148000  0.900400  1.0  0.0945
  H  H17  1  0.861500  0.358600  0.429200  1.0  0.089
  H  H18  1  0.822500  0.572000  0.426500  1.0  0.1076
  H  H19  1  0.935300  0.796600  0.429200  1.0  0.0827
  H  H20  1  0.879000  0.782200  0.502500  1.0  0.1114
  H  H21  1  0.887600  0.837500  0.650300  1.0  0.1119
  H  H22  1  0.921700  0.947700  0.782800  1.0  0.0803
  H  H23  1  0.079200  0.069900  0.841300  1.0  0.0768
  H  H24  1  0.206800  0.089600  0.767300  1.0  0.1152
  H  H25  1  0.064600  0.738800  0.382900  1.0  0.1164
  H  H26  1  0.358900  0.928900  0.393800  1.0  0.0813
  H  H27  1  0.396700  0.352000  0.400400  1.0  0.0944
  H  H28  1  0.861500  0.141400  0.929200  1.0  0.0894
  H  H29  1  0.822500  0.928000  0.926500  1.0  0.1075
  H  H30  1  0.935300  0.703400  0.929200  1.0  0.0831
  H  H31  1  0.879000  0.717800  0.002500  1.0  0.1107
  H  H32  1  0.887600  0.662500  0.150300  1.0  0.1126
  H  H33  1  0.921700  0.552300  0.282800  1.0  0.0811
  H  H34  1  0.079200  0.430100  0.341300  1.0  0.0768
  H  H35  1  0.206800  0.410400  0.267300  1.0  0.1151
  H  H36  1  0.064600  0.761200  0.882900  1.0  0.1164
  H  H37  1  0.358900  0.571100  0.893800  1.0  0.0812
  H  H38  1  0.603300  0.852000  0.099600  1.0  0.0939
  H  H39  1  0.138500  0.641400  0.570800  1.0  0.0901
  H  H40  1  0.177500  0.428000  0.573500  1.0  0.108
  H  H41  1  0.064700  0.203400  0.570800  1.0  0.0819
  H  H42  1  0.121000  0.217800  0.497500  1.0  0.1111
  H  H43  1  0.112400  0.162500  0.349700  1.0  0.1126
  H  H44  1  0.078300  0.052300  0.217200  1.0  0.0814
  H  H45  1  0.920800  0.930100  0.158700  1.0  0.076
  H  H46  1  0.793200  0.910400  0.232700  1.0  0.1156
  H  H47  1  0.935400  0.261200  0.617100  1.0  0.1156
  H  H48  1  0.641100  0.071100  0.606200  1.0  0.0818
  C  C49  1  0.567000  0.458200  0.692100  1.0  0.6997
  C  C50  1  0.528600  0.477700  0.592300  1.0  -0.1333
  C  C51  1  0.562100  0.588000  0.559100  1.0  -0.0628
  C  C52  1  0.463100  0.387700  0.531300  1.0  -0.0612
  C  C53  1  0.419500  0.266800  0.559600  1.0  0.6783
  C  C54  1  0.082300  0.915600  0.042100  1.0  -0.1117
  C  C55  1  0.105800  0.043600  0.043800  1.0  -0.1312
  C  C56  1  0.024000  0.130200  0.001900  1.0  0.0643
  C  C57  1  0.052100  0.270200  0.009700  1.0  -0.1075
  C  C58  1  0.971900  0.400800  0.870300  1.0  0.0693
  C  C59  1  0.049400  0.387800  0.826700  1.0  -0.1579
  C  C60  1  0.028000  0.453100  0.748000  1.0  -0.1047
  C  C61  1  0.932700  0.527600  0.712600  1.0  -0.091
  C  C62  1  0.856200  0.539500  0.756200  1.0  -0.1121
  C  C63  1  0.875500  0.475000  0.835500  1.0  0.1243
  C  C64  1  0.873600  0.395700  0.961600  1.0  0.2326
  C  C65  1  0.831900  0.369200  0.035100  1.0  0.1441
  C  C66  1  0.871300  0.287500  0.105300  1.0  -0.0536
  C  C67  1  0.704700  0.396500  0.097800  1.0  0.1872
  C  C68  1  0.433000  0.958200  0.807900  1.0  0.702
  C  C69  1  0.471400  0.977700  0.907700  1.0  -0.1349
  C  C70  1  0.437900  0.088000  0.940900  1.0  -0.0607
  C  C71  1  0.536900  0.887700  0.968700  1.0  -0.0623
  C  C72  1  0.580500  0.766800  0.940400  1.0  0.6773
  C  C73  1  0.917700  0.415600  0.457900  1.0  -0.1172
  C  C74  1  0.894200  0.543600  0.456200  1.0  -0.1247
  C  C75  1  0.976000  0.630200  0.498100  1.0  0.0638
  C  C76  1  0.947900  0.770200  0.490300  1.0  -0.108
  C  C77  1  0.028100  0.900800  0.629700  1.0  0.0677
  C  C78  1  0.950600  0.887800  0.673300  1.0  -0.1573
  C  C79  1  0.972000  0.953100  0.752000  1.0  -0.1101
  C  C80  1  0.067300  0.027600  0.787400  1.0  -0.0914
  C  C81  1  0.143800  0.039500  0.743800  1.0  -0.1076
  C  C82  1  0.124500  0.975000  0.664500  1.0  0.1238
  C  C83  1  0.126400  0.895700  0.538400  1.0  0.2318
  C  C84  1  0.168100  0.869200  0.464900  1.0  0.147
  C  C85  1  0.128700  0.787500  0.394700  1.0  -0.054
  C  C86  1  0.295300  0.896500  0.402200  1.0  0.1853
  C  C87  1  0.433000  0.541800  0.307900  1.0  0.7023
  C  C88  1  0.471400  0.522300  0.407700  1.0  -0.1346
  C  C89  1  0.437900  0.412000  0.440900  1.0  -0.0617
  C  C90  1  0.536900  0.612300  0.468700  1.0  -0.0618
  C  C91  1  0.580500  0.733200  0.440400  1.0  0.678
  C  C92  1  0.917700  0.084400  0.957900  1.0  -0.1094
  C  C93  1  0.894200  0.956400  0.956200  1.0  -0.1258
  C  C94  1  0.976000  0.869800  0.998100  1.0  0.0635
  C  C95  1  0.947900  0.729800  0.990300  1.0  -0.108
  C  C96  1  0.028100  0.599200  0.129700  1.0  0.0677
  C  C97  1  0.950600  0.612200  0.173300  1.0  -0.1582
  C  C98  1  0.972000  0.546900  0.252000  1.0  -0.1088
  C  C99  1  0.067300  0.472400  0.287400  1.0  -0.0909
  C  C100  1  0.143800  0.460500  0.243800  1.0  -0.1076
  C  C101  1  0.124500  0.525000  0.164500  1.0  0.1224
  C  C102  1  0.126400  0.604300  0.038400  1.0  0.2309
  C  C103  1  0.168100  0.630800  0.964900  1.0  0.1457
  C  C104  1  0.128700  0.712500  0.894700  1.0  -0.0547
  C  C105  1  0.295300  0.603500  0.902200  1.0  0.1852
  C  C106  1  0.567000  0.041800  0.192100  1.0  0.7006
  C  C107  1  0.528600  0.022300  0.092300  1.0  -0.1339
  C  C108  1  0.562100  0.912000  0.059100  1.0  -0.0626
  C  C109  1  0.463100  0.112300  0.031300  1.0  -0.061
  C  C110  1  0.419500  0.233200  0.059600  1.0  0.6803
  C  C111  1  0.082300  0.584400  0.542100  1.0  -0.1091
  C  C112  1  0.105800  0.456400  0.543800  1.0  -0.1301
  C  C113  1  0.024000  0.369800  0.501900  1.0  0.064
  C  C114  1  0.052100  0.229800  0.509700  1.0  -0.1073
  C  C115  1  0.971900  0.099200  0.370300  1.0  0.0713
  C  C116  1  0.049400  0.112200  0.326700  1.0  -0.1586
  C  C117  1  0.028000  0.046900  0.248000  1.0  -0.1051
  C  C118  1  0.932700  0.972400  0.212600  1.0  -0.0908
  C  C119  1  0.856200  0.960500  0.256200  1.0  -0.1123
  C  C120  1  0.875500  0.025000  0.335500  1.0  0.1254
  C  C121  1  0.873600  0.104300  0.461600  1.0  0.2315
  C  C122  1  0.831900  0.130800  0.535100  1.0  0.1442
  C  C123  1  0.871300  0.212500  0.605300  1.0  -0.0543
  C  C124  1  0.704700  0.103500  0.597800  1.0  0.1861
  S  S125  1  0.786800  0.287400  0.168270  1.0  0.1026
  S  S126  1  0.213200  0.787400  0.331730  1.0  0.1021
  S  S127  1  0.213200  0.712600  0.831730  1.0  0.1031
  S  S128  1  0.786800  0.212600  0.668270  1.0  0.103
  N  N129  1  0.736300  0.432100  0.031300  1.0  -0.2888
  N  N130  1  0.815000  0.469700  0.893600  1.0  -0.4639
  N  N131  1  0.968600  0.352800  0.950900  1.0  -0.0647
  N  N132  1  0.263700  0.932100  0.468700  1.0  -0.2801
  N  N133  1  0.185000  0.969700  0.606400  1.0  -0.4505
  N  N134  1  0.031400  0.852800  0.549100  1.0  -0.0682
  N  N135  1  0.263700  0.567900  0.968700  1.0  -0.2802
  N  N136  1  0.185000  0.530300  0.106400  1.0  -0.462
  N  N137  1  0.031400  0.647200  0.049100  1.0  -0.0671
  N  N138  1  0.736300  0.067900  0.531300  1.0  -0.2877
  N  N139  1  0.815000  0.030300  0.393600  1.0  -0.4683
  N  N140  1  0.968600  0.147200  0.450900  1.0  -0.0643
  O  O141  1  0.578700  0.555500  0.740200  1.0  -0.6196
  O  O142  1  0.587300  0.347000  0.719300  1.0  -0.5626
  O  O143  1  0.449500  0.163000  0.535200  1.0  -0.6481
  O  O144  1  0.351900  0.268800  0.600100  1.0  -0.6046
  O  O145  1  0.421300  0.055500  0.759800  1.0  -0.6195
  O  O146  1  0.412700  0.847000  0.780700  1.0  -0.5615
  O  O147  1  0.550500  0.663000  0.964800  1.0  -0.6468
  O  O148  1  0.648100  0.768800  0.899900  1.0  -0.6047
  O  O149  1  0.421300  0.444500  0.259800  1.0  -0.6188
  O  O150  1  0.412700  0.653000  0.280700  1.0  -0.5612
  O  O151  1  0.550500  0.837000  0.464800  1.0  -0.6488
  O  O152  1  0.648100  0.731200  0.399900  1.0  -0.6048
  O  O153  1  0.578700  0.944500  0.240200  1.0  -0.6169
  O  O154  1  0.587300  0.153000  0.219300  1.0  -0.5638
  O  O155  1  0.449500  0.337000  0.035200  1.0  -0.6484
  O  O156  1  0.351900  0.231200  0.100100  1.0  -0.6046
