# generated using pymatgen
data_Cu6H30C34N11
_symmetry_space_group_name_H-M   'P 1'
_cell_length_a   24.56100000
_cell_length_b   20.11800000
_cell_length_c   8.08450000
_cell_angle_alpha   90.00000000
_cell_angle_beta   106.17600000
_cell_angle_gamma   90.00000000
_symmetry_Int_Tables_number   1
_chemical_formula_structural   Cu6H30C34N11
_chemical_formula_sum   'Cu24 H120 C136 N44'
_cell_volume   3836.55031260
_cell_formula_units_Z   4
loop_
 _symmetry_equiv_pos_site_id
 _symmetry_equiv_pos_as_xyz
  1  'x, y, z'
loop_
 _atom_site_type_symbol
 _atom_site_label
 _atom_site_symmetry_multiplicity
 _atom_site_fract_x
 _atom_site_fract_y
 _atom_site_fract_z
 _atom_site_occupancy
 _atom_site_charge
  Cu  Cu1  1  0.050330  0.412610  0.666667  1.0  0.3064
  Cu  Cu2  1  0.315660  0.682500  0.220360  1.0  0.3917
  Cu  Cu3  1  0.949670  0.412610  0.833270  1.0  0.3063
  Cu  Cu4  1  0.684340  0.682500  0.279640  1.0  0.3908
  Cu  Cu5  1  0.449670  0.087390  0.333270  1.0  0.3063
  Cu  Cu6  1  0.184340  0.817500  0.779640  1.0  0.3904
  Cu  Cu7  1  0.550330  0.087390  0.166730  1.0  0.3063
  Cu  Cu8  1  0.815660  0.817500  0.720360  1.0  0.3917
  Cu  Cu9  1  0.000000  0.554150  0.750000  1.0  0.318
  Cu  Cu10  1  0.000000  0.910490  0.750000  1.0  0.5518
  Cu  Cu11  1  0.500000  0.945850  0.250000  1.0  0.3177
  Cu  Cu12  1  0.500000  0.589510  0.250000  1.0  0.5526
  Cu  Cu13  1  0.550330  0.912610  0.666667  1.0  0.3064
  Cu  Cu14  1  0.815660  0.182500  0.220360  1.0  0.3917
  Cu  Cu15  1  0.449670  0.912610  0.833270  1.0  0.3063
  Cu  Cu16  1  0.184340  0.182500  0.279640  1.0  0.3908
  Cu  Cu17  1  0.949670  0.587390  0.333270  1.0  0.3063
  Cu  Cu18  1  0.684340  0.317500  0.779640  1.0  0.3904
  Cu  Cu19  1  0.050330  0.587390  0.166730  1.0  0.3063
  Cu  Cu20  1  0.315660  0.317500  0.720360  1.0  0.3917
  Cu  Cu21  1  0.500000  0.054150  0.750000  1.0  0.318
  Cu  Cu22  1  0.500000  0.410490  0.750000  1.0  0.5518
  Cu  Cu23  1  0.000000  0.445850  0.250000  1.0  0.3177
  Cu  Cu24  1  0.000000  0.089510  0.250000  1.0  0.5526
  H  H25  1  0.085800  0.293900  0.538500  1.0  0.1174
  H  H26  1  0.056200  0.225200  0.483900  1.0  0.1163
  H  H27  1  0.106400  0.230800  0.652700  1.0  0.1096
  H  H28  1  0.077900  0.138100  0.728100  1.0  0.1027
  H  H29  1  0.074900  0.024200  0.726200  1.0  0.0676
  H  H30  1  0.198700  0.437300  0.647900  1.0  0.1141
  H  H31  1  0.177000  0.454300  0.451200  1.0  0.1146
  H  H32  1  0.142200  0.405800  0.534500  1.0  0.126
  H  H33  1  0.076600  0.695000  0.554900  1.0  0.1092
  H  H34  1  0.118600  0.691200  0.740400  1.0  0.1117
  H  H35  1  0.054200  0.675000  0.711600  1.0  0.1119
  H  H36  1  0.144300  0.684700  0.423300  1.0  0.0928
  H  H37  1  0.212000  0.727500  0.311000  1.0  0.0676
  H  H38  1  0.315700  0.585400  0.510600  1.0  0.0691
  H  H39  1  0.250700  0.536900  0.624900  1.0  0.1128
  H  H40  1  0.914200  0.293900  0.961500  1.0  0.1168
  H  H41  1  0.943800  0.225200  0.016100  1.0  0.1173
  H  H42  1  0.893600  0.230800  0.847300  1.0  0.1086
  H  H43  1  0.922100  0.138100  0.771900  1.0  0.1036
  H  H44  1  0.925100  0.024200  0.773800  1.0  0.068
  H  H45  1  0.801300  0.437300  0.852100  1.0  0.1126
  H  H46  1  0.823000  0.454300  0.048800  1.0  0.115
  H  H47  1  0.857800  0.405800  0.965500  1.0  0.1255
  H  H48  1  0.923400  0.695000  0.945100  1.0  0.1087
  H  H49  1  0.881400  0.691200  0.759600  1.0  0.1121
  H  H50  1  0.945800  0.675000  0.788400  1.0  0.1132
  H  H51  1  0.855700  0.684700  0.076700  1.0  0.0928
  H  H52  1  0.788000  0.727500  0.189000  1.0  0.068
  H  H53  1  0.684300  0.585400  0.989400  1.0  0.0693
  H  H54  1  0.749300  0.536900  0.875100  1.0  0.1124
  H  H55  1  0.414200  0.206100  0.461500  1.0  0.1171
  H  H56  1  0.443800  0.274800  0.516100  1.0  0.1163
  H  H57  1  0.393600  0.269200  0.347300  1.0  0.1087
  H  H58  1  0.422100  0.361900  0.271900  1.0  0.1031
  H  H59  1  0.425100  0.475800  0.273800  1.0  0.0675
  H  H60  1  0.301300  0.062700  0.352100  1.0  0.1126
  H  H61  1  0.323000  0.045700  0.548800  1.0  0.1149
  H  H62  1  0.357800  0.094200  0.465500  1.0  0.1253
  H  H63  1  0.423400  0.805000  0.445100  1.0  0.109
  H  H64  1  0.381400  0.808800  0.259600  1.0  0.1125
  H  H65  1  0.445800  0.825000  0.288400  1.0  0.1134
  H  H66  1  0.355700  0.815300  0.576700  1.0  0.0931
  H  H67  1  0.288000  0.772500  0.689000  1.0  0.0678
  H  H68  1  0.184300  0.914600  0.489400  1.0  0.069
  H  H69  1  0.249300  0.963100  0.375100  1.0  0.1125
  H  H70  1  0.585800  0.206100  0.038500  1.0  0.1173
  H  H71  1  0.556200  0.274800  0.983900  1.0  0.1158
  H  H72  1  0.606400  0.269200  0.152700  1.0  0.1092
  H  H73  1  0.577900  0.361900  0.228100  1.0  0.1029
  H  H74  1  0.574900  0.475800  0.226200  1.0  0.0669
  H  H75  1  0.698700  0.062700  0.147900  1.0  0.114
  H  H76  1  0.677000  0.045700  0.951200  1.0  0.1152
  H  H77  1  0.642200  0.094200  0.034500  1.0  0.1272
  H  H78  1  0.576600  0.805000  0.054900  1.0  0.1092
  H  H79  1  0.618600  0.808800  0.240400  1.0  0.1122
  H  H80  1  0.554200  0.825000  0.211600  1.0  0.1123
  H  H81  1  0.644300  0.815300  0.923300  1.0  0.0923
  H  H82  1  0.712000  0.772500  0.811000  1.0  0.0672
  H  H83  1  0.815700  0.914600  0.010600  1.0  0.069
  H  H84  1  0.750700  0.963100  0.124900  1.0  0.1126
  H  H85  1  0.585800  0.793900  0.538500  1.0  0.1174
  H  H86  1  0.556200  0.725200  0.483900  1.0  0.1163
  H  H87  1  0.606400  0.730800  0.652700  1.0  0.1096
  H  H88  1  0.577900  0.638100  0.728100  1.0  0.1027
  H  H89  1  0.574900  0.524200  0.726200  1.0  0.0676
  H  H90  1  0.698700  0.937300  0.647900  1.0  0.1141
  H  H91  1  0.677000  0.954300  0.451200  1.0  0.1146
  H  H92  1  0.642200  0.905800  0.534500  1.0  0.126
  H  H93  1  0.576600  0.195000  0.554900  1.0  0.1092
  H  H94  1  0.618600  0.191200  0.740400  1.0  0.1117
  H  H95  1  0.554200  0.175000  0.711600  1.0  0.1119
  H  H96  1  0.644300  0.184700  0.423300  1.0  0.0928
  H  H97  1  0.712000  0.227500  0.311000  1.0  0.0676
  H  H98  1  0.815700  0.085400  0.510600  1.0  0.0691
  H  H99  1  0.750700  0.036900  0.624900  1.0  0.1128
  H  H100  1  0.414200  0.793900  0.961500  1.0  0.1168
  H  H101  1  0.443800  0.725200  0.016100  1.0  0.1173
  H  H102  1  0.393600  0.730800  0.847300  1.0  0.1086
  H  H103  1  0.422100  0.638100  0.771900  1.0  0.1036
  H  H104  1  0.425100  0.524200  0.773800  1.0  0.068
  H  H105  1  0.301300  0.937300  0.852100  1.0  0.1126
  H  H106  1  0.323000  0.954300  0.048800  1.0  0.115
  H  H107  1  0.357800  0.905800  0.965500  1.0  0.1255
  H  H108  1  0.423400  0.195000  0.945100  1.0  0.1087
  H  H109  1  0.381400  0.191200  0.759600  1.0  0.1121
  H  H110  1  0.445800  0.175000  0.788400  1.0  0.1132
  H  H111  1  0.355700  0.184700  0.076700  1.0  0.0928
  H  H112  1  0.288000  0.227500  0.189000  1.0  0.068
  H  H113  1  0.184300  0.085400  0.989400  1.0  0.0693
  H  H114  1  0.249300  0.036900  0.875100  1.0  0.1124
  H  H115  1  0.914200  0.706100  0.461500  1.0  0.1171
  H  H116  1  0.943800  0.774800  0.516100  1.0  0.1163
  H  H117  1  0.893600  0.769200  0.347300  1.0  0.1087
  H  H118  1  0.922100  0.861900  0.271900  1.0  0.1031
  H  H119  1  0.925100  0.975800  0.273800  1.0  0.0675
  H  H120  1  0.801300  0.562700  0.352100  1.0  0.1126
  H  H121  1  0.823000  0.545700  0.548800  1.0  0.1149
  H  H122  1  0.857800  0.594200  0.465500  1.0  0.1253
  H  H123  1  0.923400  0.305000  0.445100  1.0  0.109
  H  H124  1  0.881400  0.308800  0.259600  1.0  0.1125
  H  H125  1  0.945800  0.325000  0.288400  1.0  0.1134
  H  H126  1  0.855700  0.315300  0.576700  1.0  0.0931
  H  H127  1  0.788000  0.272500  0.689000  1.0  0.0678
  H  H128  1  0.684300  0.414600  0.489400  1.0  0.069
  H  H129  1  0.749300  0.463100  0.375100  1.0  0.1125
  H  H130  1  0.085800  0.706100  0.038500  1.0  0.1173
  H  H131  1  0.056200  0.774800  0.983900  1.0  0.1158
  H  H132  1  0.106400  0.769200  0.152700  1.0  0.1092
  H  H133  1  0.077900  0.861900  0.228100  1.0  0.1029
  H  H134  1  0.074900  0.975800  0.226200  1.0  0.0669
  H  H135  1  0.198700  0.562700  0.147900  1.0  0.114
  H  H136  1  0.177000  0.545700  0.951200  1.0  0.1152
  H  H137  1  0.142200  0.594200  0.034500  1.0  0.1272
  H  H138  1  0.076600  0.305000  0.054900  1.0  0.1092
  H  H139  1  0.118600  0.308800  0.240400  1.0  0.1122
  H  H140  1  0.054200  0.325000  0.211600  1.0  0.1123
  H  H141  1  0.144300  0.315300  0.923300  1.0  0.0923
  H  H142  1  0.212000  0.272500  0.811000  1.0  0.0672
  H  H143  1  0.315700  0.414600  0.010600  1.0  0.069
  H  H144  1  0.250700  0.463100  0.124900  1.0  0.1126
  C  C145  1  0.266700  0.735700  0.054000  1.0  -0.0706
  C  C146  1  0.074000  0.253200  0.579900  1.0  -0.3814
  C  C147  1  0.033100  0.268200  0.679500  1.0  0.1932
  C  C148  1  0.045400  0.116400  0.736900  1.0  -0.2281
  C  C149  1  0.043200  0.047300  0.736700  1.0  0.1841
  C  C150  1  0.165600  0.444800  0.553100  1.0  -0.383
  C  C151  1  0.133000  0.502400  0.593300  1.0  0.2161
  C  C152  1  0.142390  0.570800  0.586600  1.0  -0.1386
  C  C153  1  0.096900  0.600300  0.634200  1.0  0.2086
  C  C154  1  0.085600  0.671800  0.662800  1.0  -0.3905
  C  C155  1  0.187200  0.603400  0.531100  1.0  0.0614
  C  C156  1  0.178500  0.662200  0.439900  1.0  -0.2074
  C  C157  1  0.219700  0.688100  0.373100  1.0  0.1656
  C  C158  1  0.280100  0.604800  0.489300  1.0  0.1641
  C  C159  1  0.241200  0.575300  0.559200  1.0  -0.2105
  C  C160  1  0.430900  0.621200  0.260500  1.0  -0.0803
  C  C161  1  0.733300  0.735700  0.446000  1.0  -0.0698
  C  C162  1  0.926000  0.253200  0.920100  1.0  -0.3813
  C  C163  1  0.966900  0.268200  0.820500  1.0  0.1936
  C  C164  1  0.954600  0.116400  0.763100  1.0  -0.2278
  C  C165  1  0.956800  0.047300  0.763300  1.0  0.1858
  C  C166  1  0.834400  0.444800  0.946900  1.0  -0.3817
  C  C167  1  0.867000  0.502400  0.906700  1.0  0.2163
  C  C168  1  0.857610  0.570800  0.913400  1.0  -0.1387
  C  C169  1  0.903100  0.600300  0.865800  1.0  0.2085
  C  C170  1  0.914400  0.671800  0.837200  1.0  -0.3901
  C  C171  1  0.812800  0.603400  0.968900  1.0  0.0605
  C  C172  1  0.821500  0.662200  0.060100  1.0  -0.2075
  C  C173  1  0.780300  0.688100  0.126900  1.0  0.1664
  C  C174  1  0.719900  0.604800  0.010700  1.0  0.1631
  C  C175  1  0.758800  0.575300  0.940800  1.0  -0.2093
  C  C176  1  0.569100  0.621200  0.239500  1.0  -0.0796
  C  C177  1  0.233300  0.764300  0.946000  1.0  -0.069
  C  C178  1  0.426000  0.246800  0.420100  1.0  -0.3811
  C  C179  1  0.466900  0.231800  0.320500  1.0  0.1924
  C  C180  1  0.454600  0.383600  0.263100  1.0  -0.228
  C  C181  1  0.456800  0.452700  0.263300  1.0  0.1837
  C  C182  1  0.334400  0.055200  0.446900  1.0  -0.3814
  C  C183  1  0.367000  0.997600  0.406700  1.0  0.2162
  C  C184  1  0.357610  0.929200  0.413400  1.0  -0.1388
  C  C185  1  0.403100  0.899700  0.365800  1.0  0.2087
  C  C186  1  0.414400  0.828200  0.337200  1.0  -0.3915
  C  C187  1  0.312800  0.896600  0.468900  1.0  0.0607
  C  C188  1  0.321500  0.837800  0.560100  1.0  -0.2079
  C  C189  1  0.280300  0.811900  0.626900  1.0  0.1663
  C  C190  1  0.219900  0.895200  0.510700  1.0  0.1629
  C  C191  1  0.258800  0.924700  0.440800  1.0  -0.2093
  C  C192  1  0.069100  0.878800  0.739500  1.0  -0.081
  C  C193  1  0.766700  0.764300  0.554000  1.0  -0.0701
  C  C194  1  0.574000  0.246800  0.079900  1.0  -0.3814
  C  C195  1  0.533100  0.231800  0.179500  1.0  0.1945
  C  C196  1  0.545400  0.383600  0.236900  1.0  -0.2279
  C  C197  1  0.543200  0.452700  0.236700  1.0  0.1854
  C  C198  1  0.665600  0.055200  0.053100  1.0  -0.3831
  C  C199  1  0.633000  0.997600  0.093300  1.0  0.2161
  C  C200  1  0.642390  0.929200  0.086600  1.0  -0.1385
  C  C201  1  0.596900  0.899700  0.134200  1.0  0.2087
  C  C202  1  0.585600  0.828200  0.162800  1.0  -0.392
  C  C203  1  0.687200  0.896600  0.031100  1.0  0.0608
  C  C204  1  0.678500  0.837800  0.939900  1.0  -0.2075
  C  C205  1  0.719700  0.811900  0.873100  1.0  0.1657
  C  C206  1  0.780100  0.895200  0.989300  1.0  0.1641
  C  C207  1  0.741200  0.924700  0.059200  1.0  -0.2097
  C  C208  1  0.930900  0.878800  0.760500  1.0  -0.082
  C  C209  1  0.000000  0.225800  0.750000  1.0  -0.2084
  C  C210  1  0.000000  0.151800  0.750000  1.0  0.0695
  C  C211  1  0.500000  0.274200  0.250000  1.0  -0.2079
  C  C212  1  0.500000  0.348200  0.250000  1.0  0.0682
  C  C213  1  0.766700  0.235700  0.054000  1.0  -0.0706
  C  C214  1  0.574000  0.753200  0.579900  1.0  -0.3812
  C  C215  1  0.533100  0.768200  0.679500  1.0  0.1932
  C  C216  1  0.545400  0.616400  0.736900  1.0  -0.2281
  C  C217  1  0.543200  0.547300  0.736700  1.0  0.1841
  C  C218  1  0.665600  0.944800  0.553100  1.0  -0.383
  C  C219  1  0.633000  0.002400  0.593300  1.0  0.2161
  C  C220  1  0.642390  0.070800  0.586600  1.0  -0.1386
  C  C221  1  0.596900  0.100300  0.634200  1.0  0.2086
  C  C222  1  0.585600  0.171800  0.662800  1.0  -0.3926
  C  C223  1  0.687200  0.103400  0.531100  1.0  0.0614
  C  C224  1  0.678500  0.162200  0.439900  1.0  -0.2074
  C  C225  1  0.719700  0.188100  0.373100  1.0  0.1656
  C  C226  1  0.780100  0.104800  0.489300  1.0  0.1641
  C  C227  1  0.741200  0.075300  0.559200  1.0  -0.2105
  C  C228  1  0.930900  0.121200  0.260500  1.0  -0.08
  C  C229  1  0.233300  0.235700  0.446000  1.0  -0.0698
  C  C230  1  0.426000  0.753200  0.920100  1.0  -0.3811
  C  C231  1  0.466900  0.768200  0.820500  1.0  0.1936
  C  C232  1  0.454600  0.616400  0.763100  1.0  -0.2278
  C  C233  1  0.456800  0.547300  0.763300  1.0  0.1858
  C  C234  1  0.334400  0.944800  0.946900  1.0  -0.3817
  C  C235  1  0.367000  0.002400  0.906700  1.0  0.2163
  C  C236  1  0.357610  0.070800  0.913400  1.0  -0.1387
  C  C237  1  0.403100  0.100300  0.865800  1.0  0.2085
  C  C238  1  0.414400  0.171800  0.837200  1.0  -0.3922
  C  C239  1  0.312800  0.103400  0.968900  1.0  0.0605
  C  C240  1  0.321500  0.162200  0.060100  1.0  -0.2075
  C  C241  1  0.280300  0.188100  0.126900  1.0  0.1664
  C  C242  1  0.219900  0.104800  0.010700  1.0  0.1631
  C  C243  1  0.258800  0.075300  0.940800  1.0  -0.2093
  C  C244  1  0.069100  0.121200  0.239500  1.0  -0.0794
  C  C245  1  0.733300  0.264300  0.946000  1.0  -0.069
  C  C246  1  0.926000  0.746800  0.420100  1.0  -0.3808
  C  C247  1  0.966900  0.731800  0.320500  1.0  0.1924
  C  C248  1  0.954600  0.883600  0.263100  1.0  -0.228
  C  C249  1  0.956800  0.952700  0.263300  1.0  0.1837
  C  C250  1  0.834400  0.555200  0.446900  1.0  -0.3814
  C  C251  1  0.867000  0.497600  0.406700  1.0  0.2162
  C  C252  1  0.857610  0.429200  0.413400  1.0  -0.1388
  C  C253  1  0.903100  0.399700  0.365800  1.0  0.2087
  C  C254  1  0.914400  0.328200  0.337200  1.0  -0.3937
  C  C255  1  0.812800  0.396600  0.468900  1.0  0.0607
  C  C256  1  0.821500  0.337800  0.560100  1.0  -0.2079
  C  C257  1  0.780300  0.311900  0.626900  1.0  0.1663
  C  C258  1  0.719900  0.395200  0.510700  1.0  0.1629
  C  C259  1  0.758800  0.424700  0.440800  1.0  -0.2093
  C  C260  1  0.569100  0.378800  0.739500  1.0  -0.081
  C  C261  1  0.266700  0.264300  0.554000  1.0  -0.0701
  C  C262  1  0.074000  0.746800  0.079900  1.0  -0.3811
  C  C263  1  0.033100  0.731800  0.179500  1.0  0.1945
  C  C264  1  0.045400  0.883600  0.236900  1.0  -0.2279
  C  C265  1  0.043200  0.952700  0.236700  1.0  0.1854
  C  C266  1  0.165600  0.555200  0.053100  1.0  -0.3831
  C  C267  1  0.133000  0.497600  0.093300  1.0  0.2161
  C  C268  1  0.142390  0.429200  0.086600  1.0  -0.1385
  C  C269  1  0.096900  0.399700  0.134200  1.0  0.2087
  C  C270  1  0.085600  0.328200  0.162800  1.0  -0.3942
  C  C271  1  0.187200  0.396600  0.031100  1.0  0.0608
  C  C272  1  0.178500  0.337800  0.939900  1.0  -0.2075
  C  C273  1  0.219700  0.311900  0.873100  1.0  0.1657
  C  C274  1  0.280100  0.395200  0.989300  1.0  0.1641
  C  C275  1  0.241200  0.424700  0.059200  1.0  -0.2097
  C  C276  1  0.430900  0.378800  0.760500  1.0  -0.082
  C  C277  1  0.500000  0.725800  0.750000  1.0  -0.2084
  C  C278  1  0.500000  0.651800  0.750000  1.0  0.0695
  C  C279  1  0.000000  0.774200  0.250000  1.0  -0.2079
  C  C280  1  0.000000  0.848200  0.250000  1.0  0.0682
  N  N281  1  0.020360  0.331320  0.707700  1.0  -0.2269
  N  N282  1  0.085260  0.491700  0.638200  1.0  -0.2902
  N  N283  1  0.063040  0.552590  0.665500  1.0  -0.3042
  N  N284  1  0.270040  0.659800  0.392400  1.0  -0.3292
  N  N285  1  0.386900  0.642600  0.256300  1.0  -0.4088
  N  N286  1  0.979640  0.331320  0.792300  1.0  -0.2271
  N  N287  1  0.914740  0.491700  0.861800  1.0  -0.2876
  N  N288  1  0.936960  0.552590  0.834500  1.0  -0.3035
  N  N289  1  0.729960  0.659800  0.107600  1.0  -0.3277
  N  N290  1  0.613100  0.642600  0.243700  1.0  -0.4082
  N  N291  1  0.479640  0.168680  0.292300  1.0  -0.2283
  N  N292  1  0.414740  0.008300  0.361800  1.0  -0.2885
  N  N293  1  0.436960  0.947410  0.334500  1.0  -0.3042
  N  N294  1  0.229960  0.840200  0.607600  1.0  -0.3268
  N  N295  1  0.113100  0.857400  0.743700  1.0  -0.4092
  N  N296  1  0.520360  0.168680  0.207700  1.0  -0.2284
  N  N297  1  0.585260  0.008300  0.138200  1.0  -0.2899
  N  N298  1  0.563040  0.947410  0.165500  1.0  -0.3047
  N  N299  1  0.770040  0.840200  0.892400  1.0  -0.3291
  N  N300  1  0.886900  0.857400  0.756300  1.0  -0.4103
  N  N301  1  0.000000  0.012800  0.750000  1.0  -0.3033
  N  N302  1  0.500000  0.487200  0.250000  1.0  -0.3029
  N  N303  1  0.520360  0.831320  0.707700  1.0  -0.2269
  N  N304  1  0.585260  0.991700  0.638200  1.0  -0.2902
  N  N305  1  0.563040  0.052590  0.665500  1.0  -0.3042
  N  N306  1  0.770040  0.159800  0.392400  1.0  -0.3292
  N  N307  1  0.886900  0.142600  0.256300  1.0  -0.4088
  N  N308  1  0.479640  0.831320  0.792300  1.0  -0.2271
  N  N309  1  0.414740  0.991700  0.861800  1.0  -0.2876
  N  N310  1  0.436960  0.052590  0.834500  1.0  -0.3035
  N  N311  1  0.229960  0.159800  0.107600  1.0  -0.3277
  N  N312  1  0.113100  0.142600  0.243700  1.0  -0.4082
  N  N313  1  0.979640  0.668680  0.292300  1.0  -0.2283
  N  N314  1  0.914740  0.508300  0.361800  1.0  -0.2885
  N  N315  1  0.936960  0.447410  0.334500  1.0  -0.3042
  N  N316  1  0.729960  0.340200  0.607600  1.0  -0.3268
  N  N317  1  0.613100  0.357400  0.743700  1.0  -0.4092
  N  N318  1  0.020360  0.668680  0.207700  1.0  -0.2284
  N  N319  1  0.085260  0.508300  0.138200  1.0  -0.2899
  N  N320  1  0.063040  0.447410  0.165500  1.0  -0.3047
  N  N321  1  0.270040  0.340200  0.892400  1.0  -0.3291
  N  N322  1  0.386900  0.357400  0.756300  1.0  -0.4103
  N  N323  1  0.500000  0.512800  0.750000  1.0  -0.3033
  N  N324  1  0.000000  0.987200  0.250000  1.0  -0.3029
