# generated using pymatgen
data_U3Zn(PO4)4
_symmetry_space_group_name_H-M   'P 1'
_cell_length_a   10.98000000
_cell_length_b   13.02900000
_cell_length_c   13.59900000
_cell_angle_alpha   62.31200000
_cell_angle_beta   70.92100000
_cell_angle_gamma   72.95400000
_symmetry_Int_Tables_number   1
_chemical_formula_structural   U3Zn(PO4)4
_chemical_formula_sum   'U6 Zn2 P8 O32'
_cell_volume   1604.69007877
_cell_formula_units_Z   2
loop_
 _symmetry_equiv_pos_site_id
 _symmetry_equiv_pos_as_xyz
  1  'x, y, z'
loop_
 _atom_site_type_symbol
 _atom_site_label
 _atom_site_symmetry_multiplicity
 _atom_site_fract_x
 _atom_site_fract_y
 _atom_site_fract_z
 _atom_site_occupancy
 _atom_site_charge
  U  U1  1  0.573530  0.379040  0.142960  1.0  1.842
  U  U2  1  0.676390  0.896690  0.477090  1.0  1.9341
  U  U3  1  0.674820  0.375050  0.517180  1.0  1.7257
  U  U4  1  0.426470  0.620960  0.857040  1.0  1.8431
  U  U5  1  0.323610  0.103310  0.522910  1.0  1.938
  U  U6  1  0.325180  0.624950  0.482820  1.0  1.7253
  Zn  Zn7  1  0.887540  0.474440  0.646760  1.0  1.1642
  Zn  Zn8  1  0.112460  0.525560  0.353240  1.0  1.1622
  P  P9  1  0.712600  0.373700  0.902600  1.0  1.4128
  P  P10  1  0.675400  0.160600  0.405700  1.0  1.6107
  P  P11  1  0.619500  0.595400  0.580100  1.0  1.7111
  P  P12  1  0.987700  0.701900  0.465700  1.0  1.6871
  P  P13  1  0.287400  0.626300  0.097400  1.0  1.4115
  P  P14  1  0.324600  0.839400  0.594300  1.0  1.6079
  P  P15  1  0.380500  0.404600  0.419900  1.0  1.7079
  P  P16  1  0.012300  0.298100  0.534300  1.0  1.6815
  O  O17  1  0.664100  0.293600  0.869200  1.0  -0.5709
  O  O18  1  0.825900  0.425700  0.810900  1.0  -0.7168
  O  O19  1  0.597000  0.463800  0.928700  1.0  -0.8715
  O  O20  1  0.745900  0.294800  0.019700  1.0  -0.7778
  O  O21  1  0.554300  0.097700  0.459900  1.0  -0.909
  O  O22  1  0.789100  0.056400  0.417300  1.0  -0.7918
  O  O23  1  0.681400  0.238400  0.281200  1.0  -0.8082
  O  O24  1  0.673100  0.226200  0.472700  1.0  -0.8639
  O  O25  1  0.739100  0.492900  0.584900  1.0  -0.8989
  O  O26  1  0.534900  0.566000  0.529500  1.0  -0.8974
  O  O27  1  0.662000  0.713800  0.496600  1.0  -0.8861
  O  O28  1  0.557400  0.593100  0.697200  1.0  -0.9574
  O  O29  1  0.945400  0.622600  0.593800  1.0  -0.7387
  O  O30  1  0.126200  0.724800  0.443200  1.0  -0.8155
  O  O31  1  0.982900  0.642400  0.393700  1.0  -0.7544
  O  O32  1  0.893400  0.818900  0.437100  1.0  -0.8275
  O  O33  1  0.335900  0.706400  0.130800  1.0  -0.572
  O  O34  1  0.174100  0.574300  0.189100  1.0  -0.7161
  O  O35  1  0.403000  0.536200  0.071300  1.0  -0.8704
  O  O36  1  0.254100  0.705200  0.980300  1.0  -0.7763
  O  O37  1  0.445700  0.902300  0.540100  1.0  -0.9095
  O  O38  1  0.210900  0.943600  0.582700  1.0  -0.7898
  O  O39  1  0.318600  0.761600  0.718800  1.0  -0.8101
  O  O40  1  0.326900  0.773800  0.527300  1.0  -0.8625
  O  O41  1  0.260900  0.507100  0.415100  1.0  -0.8983
  O  O42  1  0.465100  0.434000  0.470500  1.0  -0.8949
  O  O43  1  0.338000  0.286200  0.503400  1.0  -0.8854
  O  O44  1  0.442600  0.406900  0.302800  1.0  -0.9565
  O  O45  1  0.054600  0.377400  0.406200  1.0  -0.7421
  O  O46  1  0.873800  0.275200  0.556800  1.0  -0.8141
  O  O47  1  0.017100  0.357600  0.606300  1.0  -0.7552
  O  O48  1  0.106600  0.181100  0.562900  1.0  -0.8266
