# generated using pymatgen
data_NiHC4O3
_symmetry_space_group_name_H-M   'P 1'
_cell_length_a   6.74740000
_cell_length_b   15.05510000
_cell_length_c   15.05510000
_cell_angle_alpha   62.19120000
_cell_angle_beta   81.40820000
_cell_angle_gamma   98.59180000
_symmetry_Int_Tables_number   1
_chemical_formula_structural   NiHC4O3
_chemical_formula_sum   'Ni6 H6 C24 O18'
_cell_volume   1294.88644982
_cell_formula_units_Z   6
loop_
 _symmetry_equiv_pos_site_id
 _symmetry_equiv_pos_as_xyz
  1  'x, y, z'
loop_
 _atom_site_type_symbol
 _atom_site_label
 _atom_site_symmetry_multiplicity
 _atom_site_fract_x
 _atom_site_fract_y
 _atom_site_fract_z
 _atom_site_occupancy
 _atom_site_charge
  Ni  Ni1  1  0.383250  0.679360  0.588910  1.0  0.8874
  Ni  Ni2  1  0.972160  0.588910  0.731730  1.0  0.879
  Ni  Ni3  1  0.703890  0.731730  0.679360  1.0  0.8815
  Ni  Ni4  1  0.616750  0.320640  0.411090  1.0  0.8818
  Ni  Ni5  1  0.027840  0.411090  0.268270  1.0  0.8831
  Ni  Ni6  1  0.296110  0.268270  0.320640  1.0  0.8858
  H  H7  1  0.698190  0.537150  0.442830  1.0  0.1767
  H  H8  1  0.141020  0.442830  0.020020  1.0  0.1739
  H  H9  1  0.161040  0.020020  0.537150  1.0  0.1769
  H  H10  1  0.301810  0.462850  0.557170  1.0  0.1771
  H  H11  1  0.858980  0.557170  0.979980  1.0  0.1747
  H  H12  1  0.838960  0.979980  0.462850  1.0  0.1775
  C  C13  1  0.755400  0.605800  0.574300  1.0  0.6414
  C  C14  1  0.887400  0.555900  0.533100  1.0  -0.1162
  C  C15  1  0.076200  0.539900  0.563600  1.0  0.3062
  C  C16  1  0.822000  0.523500  0.466500  1.0  -0.0738
  C  C17  1  0.329700  0.574300  0.819900  1.0  0.6414
  C  C18  1  0.420500  0.533100  0.911000  1.0  -0.1152
  C  C19  1  0.639800  0.563600  0.896500  1.0  0.3069
  C  C20  1  0.288500  0.466500  0.010000  1.0  -0.0843
  C  C21  1  0.149600  0.819900  0.605800  1.0  0.6413
  C  C22  1  0.331500  0.911000  0.555900  1.0  -0.1151
  C  C23  1  0.536300  0.896500  0.539900  1.0  0.3059
  C  C24  1  0.298500  0.010000  0.523500  1.0  -0.0737
  C  C25  1  0.244600  0.394200  0.425700  1.0  0.6424
  C  C26  1  0.112600  0.444100  0.466900  1.0  -0.116
  C  C27  1  0.923800  0.460100  0.436400  1.0  0.3059
  C  C28  1  0.178000  0.476500  0.533500  1.0  -0.0723
  C  C29  1  0.670300  0.425700  0.180100  1.0  0.6418
  C  C30  1  0.579500  0.466900  0.089000  1.0  -0.1161
  C  C31  1  0.360200  0.436400  0.103500  1.0  0.307
  C  C32  1  0.711500  0.533500  0.990000  1.0  -0.0848
  C  C33  1  0.850400  0.180100  0.394200  1.0  0.6426
  C  C34  1  0.668500  0.089000  0.444100  1.0  -0.1157
  C  C35  1  0.463700  0.103500  0.460100  1.0  0.3063
  C  C36  1  0.701500  0.990000  0.476500  1.0  -0.0741
  O  O37  1  0.596100  0.627500  0.532700  1.0  -0.5584
  O  O38  1  0.786200  0.640500  0.630300  1.0  -0.6534
  O  O39  1  0.134500  0.554700  0.638100  1.0  -0.6015
  O  O40  1  0.128800  0.532700  0.839800  1.0  -0.5587
  O  O41  1  0.416500  0.630300  0.729200  1.0  -0.6515
  O  O42  1  0.772600  0.638100  0.807200  1.0  -0.6031
  O  O43  1  0.968600  0.839800  0.627500  1.0  -0.558
  O  O44  1  0.145700  0.729200  0.640500  1.0  -0.6538
  O  O45  1  0.579800  0.807200  0.554700  1.0  -0.6024
  O  O46  1  0.403900  0.372500  0.467300  1.0  -0.5603
  O  O47  1  0.213800  0.359500  0.369700  1.0  -0.6531
  O  O48  1  0.865500  0.445300  0.361900  1.0  -0.6044
  O  O49  1  0.871200  0.467300  0.160200  1.0  -0.5592
  O  O50  1  0.583500  0.369700  0.270800  1.0  -0.6534
  O  O51  1  0.227400  0.361900  0.192800  1.0  -0.6021
  O  O52  1  0.031400  0.160200  0.372500  1.0  -0.5591
  O  O53  1  0.854300  0.270800  0.359500  1.0  -0.653
  O  O54  1  0.420200  0.192800  0.445300  1.0  -0.6018
