# generated using pymatgen
data_Cd2H10C9(N3O2)2
_symmetry_space_group_name_H-M   'P 1'
_cell_length_a   8.64820000
_cell_length_b   10.32630000
_cell_length_c   12.91970000
_cell_angle_alpha   112.24800000
_cell_angle_beta   108.03500000
_cell_angle_gamma   93.59970000
_symmetry_Int_Tables_number   1
_chemical_formula_structural   Cd2H10C9(N3O2)2
_chemical_formula_sum   'Cd4 H20 C18 N12 O8'
_cell_volume   993.95130773
_cell_formula_units_Z   2
loop_
 _symmetry_equiv_pos_site_id
 _symmetry_equiv_pos_as_xyz
  1  'x, y, z'
loop_
 _atom_site_type_symbol
 _atom_site_label
 _atom_site_symmetry_multiplicity
 _atom_site_fract_x
 _atom_site_fract_y
 _atom_site_fract_z
 _atom_site_occupancy
 _atom_site_charge
  Cd  Cd1  1  0.955960  0.470520  0.213790  1.0  0.981
  Cd  Cd2  1  0.308650  0.289800  0.312370  1.0  0.94
  Cd  Cd3  1  0.242170  0.256730  0.786210  1.0  0.9834
  Cd  Cd4  1  0.496280  0.977430  0.687630  1.0  0.94
  H  H5  1  0.155900  0.790900  0.458000  1.0  0.0794
  H  H6  1  0.503700  0.610800  0.578200  1.0  0.062
  H  H7  1  0.076700  0.459700  0.983800  1.0  0.0734
  H  H8  1  0.400200  0.237000  0.057200  1.0  0.0665
  H  H9  1  0.880600  0.164300  0.395000  1.0  0.1141
  H  H10  1  0.715600  0.110900  0.283200  1.0  0.1112
  H  H11  1  0.007300  0.004000  0.279200  1.0  0.0828
  H  H12  1  0.840200  0.949300  0.168200  1.0  0.0801
  H  H13  1  0.874100  0.926800  0.382800  1.0  0.1055
  H  H14  1  0.709700  0.869700  0.270600  1.0  0.1057
  H  H15  1  0.197900  0.332900  0.542000  1.0  0.0795
  H  H16  1  0.425500  0.032600  0.421800  1.0  0.0608
  H  H17  1  0.592900  0.475900  0.016200  1.0  0.075
  H  H18  1  0.843000  0.179800  0.942800  1.0  0.0656
  H  H19  1  0.985600  0.769300  0.605000  1.0  0.1149
  H  H20  1  0.932400  0.827700  0.716800  1.0  0.1109
  H  H21  1  0.228100  0.724800  0.720800  1.0  0.0892
  H  H22  1  0.172000  0.781100  0.831800  1.0  0.0808
  H  H23  1  0.991300  0.544000  0.617200  1.0  0.1072
  H  H24  1  0.939100  0.599100  0.729400  1.0  0.1055
  C  C25  1  0.217880  0.722680  0.466560  1.0  0.2703
  C  C26  1  0.406480  0.625680  0.531760  1.0  0.2434
  C  C27  1  0.146320  0.413720  0.022240  1.0  0.2306
  C  C28  1  0.320810  0.293510  0.062020  1.0  0.2355
  C  C29  1  0.890310  0.243410  0.274420  1.0  0.7407
  C  C30  1  0.835720  0.128720  0.308240  1.0  -0.334
  C  C31  1  0.887310  0.988010  0.255020  1.0  -0.0632
  C  C32  1  0.829770  0.883970  0.295740  1.0  -0.3281
  C  C33  1  0.874890  0.738990  0.252580  1.0  0.7138
  C  C34  1  0.251320  0.256120  0.533440  1.0  0.2717
  C  C35  1  0.374720  0.093920  0.468240  1.0  0.2433
  C  C36  1  0.624080  0.391480  0.977760  1.0  0.2286
  C  C37  1  0.758790  0.231490  0.937980  1.0  0.2341
  C  C38  1  0.115890  0.968990  0.725580  1.0  0.7393
  C  C39  1  0.027480  0.820480  0.691760  1.0  -0.3308
  C  C40  1  0.132290  0.732990  0.744980  1.0  -0.0601
  C  C41  1  0.034030  0.588230  0.704260  1.0  -0.3344
  C  C42  1  0.122310  0.486410  0.747420  1.0  0.7176
  N  N43  1  0.294200  0.522100  0.435600  1.0  -0.2893
  N  N44  1  0.169970  0.586370  0.393540  1.0  -0.2551
  N  N45  1  0.366240  0.753740  0.555280  1.0  -0.4304
  N  N46  1  0.271080  0.339780  0.153360  1.0  -0.2487
  N  N47  1  0.156520  0.418920  0.127240  1.0  -0.2669
  N  N48  1  0.245650  0.335950  0.976300  1.0  -0.4192
  N  N49  1  0.358600  0.086500  0.564400  1.0  -0.2843
  N  N50  1  0.276430  0.192830  0.606460  1.0  -0.2532
  N  N51  1  0.310960  0.198460  0.444720  1.0  -0.4325
  N  N52  1  0.617720  0.186420  0.846640  1.0  -0.2533
  N  N53  1  0.529280  0.291680  0.872760  1.0  -0.2623
  N  N54  1  0.769350  0.359650  0.023700  1.0  -0.4206
  O  O55  1  0.004070  0.235070  0.232140  1.0  -0.7522
  O  O56  1  0.818940  0.346740  0.290680  1.0  -0.6188
  O  O57  1  0.978000  0.714400  0.201200  1.0  -0.614
  O  O58  1  0.809460  0.646560  0.275320  1.0  -0.6293
  O  O59  1  0.271930  0.002930  0.767860  1.0  -0.7515
  O  O60  1  0.028260  0.056060  0.709320  1.0  -0.6178
  O  O61  1  0.276800  0.513200  0.798800  1.0  -0.6086
  O  O62  1  0.034140  0.371240  0.724680  1.0  -0.6246
