# generated using pymatgen
data_MnH60C60(NO)6
_symmetry_space_group_name_H-M   'P 1'
_cell_length_a   11.52100000
_cell_length_b   11.66370000
_cell_length_c   11.85300000
_cell_angle_alpha   92.92600000
_cell_angle_beta   93.35000000
_cell_angle_gamma   113.61900000
_symmetry_Int_Tables_number   1
_chemical_formula_structural   MnH60C60(NO)6
_chemical_formula_sum   'Mn1 H60 C60 N6 O6'
_cell_volume   1452.02045546
_cell_formula_units_Z   1
loop_
 _symmetry_equiv_pos_site_id
 _symmetry_equiv_pos_as_xyz
  1  'x, y, z'
loop_
 _atom_site_type_symbol
 _atom_site_label
 _atom_site_symmetry_multiplicity
 _atom_site_fract_x
 _atom_site_fract_y
 _atom_site_fract_z
 _atom_site_occupancy
 _atom_site_charge
  Mn  Mn1  1  0.500000  0.000000  0.500000  1.0  0.9039
  H  H2  1  0.367100  0.189700  0.456500  1.0  0.0754
  H  H3  1  0.193000  0.282000  0.199300  1.0  0.1151
  H  H4  1  0.192400  0.116800  0.092600  1.0  0.07
  H  H5  1  0.302000  0.436200  0.368000  1.0  0.0767
  H  H6  1  0.384200  0.387700  0.475300  1.0  -0.0226
  H  H7  1  0.202300  0.343900  0.441500  1.0  0.1169
  H  H8  1  0.205200  0.920600  0.076400  1.0  0.1043
  H  H9  1  0.272100  0.879400  0.175300  1.0  0.0965
  H  H10  1  0.368100  0.102500  0.966400  1.0  0.0861
  H  H11  1  0.464900  0.867300  0.143700  1.0  0.0697
  H  H12  1  0.538900  0.716800  0.331600  1.0  0.0747
  H  H13  1  0.254400  0.527200  0.097800  1.0  0.1252
  H  H14  1  0.123800  0.587900  0.201300  1.0  0.0897
  H  H15  1  0.521100  0.617300  0.078200  1.0  0.113
  H  H16  1  0.452600  0.483000  0.119900  1.0  0.1067
  H  H17  1  0.572400  0.583200  0.191300  1.0  0.1035
  H  H18  1  0.106700  0.743600  0.336300  1.0  0.0782
  H  H19  1  0.203700  0.788500  0.444600  1.0  0.084
  H  H20  1  0.214900  0.600400  0.554700  1.0  0.0873
  H  H21  1  0.911900  0.573700  0.357200  1.0  0.0818
  H  H22  1  0.393500  0.808200  0.685700  1.0  0.0821
  H  H23  1  0.123400  0.711300  0.899900  1.0  0.111
  H  H24  1  0.071900  0.870600  0.849500  1.0  0.0924
  H  H25  1  0.245600  0.563700  0.806400  1.0  0.115
  H  H26  1  0.314800  0.646500  0.918300  1.0  0.1003
  H  H27  1  0.389000  0.656700  0.809900  1.0  0.1003
  H  H28  1  0.247100  0.113100  0.697600  1.0  0.1067
  H  H29  1  0.129100  0.062600  0.768800  1.0  0.1158
  H  H30  1  0.092700  0.194700  0.597900  1.0  0.0896
  H  H31  1  0.039900  0.835500  0.562200  1.0  0.067
  H  H32  1  0.632900  0.810300  0.543500  1.0  0.0757
  H  H33  1  0.807000  0.718000  0.800700  1.0  0.1151
  H  H34  1  0.807600  0.883200  0.907400  1.0  0.0697
  H  H35  1  0.698000  0.563800  0.632000  1.0  0.0767
  H  H36  1  0.615800  0.612300  0.524700  1.0  -0.019
  H  H37  1  0.797700  0.656100  0.558500  1.0  0.1168
  H  H38  1  0.794800  0.079400  0.923600  1.0  0.1039
  H  H39  1  0.727900  0.120600  0.824700  1.0  0.0964
  H  H40  1  0.631900  0.897500  0.033600  1.0  0.0862
  H  H41  1  0.535100  0.132700  0.856300  1.0  0.0698
  H  H42  1  0.461100  0.283200  0.668400  1.0  0.0741
  H  H43  1  0.745600  0.472800  0.902200  1.0  0.1247
  H  H44  1  0.876200  0.412100  0.798700  1.0  0.0909
  H  H45  1  0.478900  0.382700  0.921800  1.0  0.112
  H  H46  1  0.547400  0.517000  0.880100  1.0  0.1064
  H  H47  1  0.427600  0.416800  0.808700  1.0  0.1022
  H  H48  1  0.893300  0.256400  0.663700  1.0  0.0761
  H  H49  1  0.796300  0.211500  0.555400  1.0  0.0854
  H  H50  1  0.785100  0.399600  0.445300  1.0  0.0874
  H  H51  1  0.088100  0.426300  0.642800  1.0  0.082
  H  H52  1  0.606500  0.191800  0.314300  1.0  0.0821
  H  H53  1  0.876600  0.288700  0.100100  1.0  0.1113
  H  H54  1  0.928100  0.129400  0.150500  1.0  0.0935
  H  H55  1  0.754400  0.436300  0.193600  1.0  0.1159
  H  H56  1  0.685200  0.353500  0.081700  1.0  0.1006
  H  H57  1  0.611000  0.343300  0.190100  1.0  0.0982
  H  H58  1  0.752900  0.886900  0.302400  1.0  0.1046
  H  H59  1  0.870900  0.937400  0.231200  1.0  0.1153
  H  H60  1  0.907300  0.805300  0.402100  1.0  0.0898
  H  H61  1  0.960100  0.164500  0.437800  1.0  0.0672
  C  C62  1  0.337000  0.075100  0.315000  1.0  0.5759
  C  C63  1  0.333800  0.176100  0.381300  1.0  -0.1912
  C  C64  1  0.284300  0.255600  0.340700  1.0  0.0787
  C  C65  1  0.229400  0.230800  0.229400  1.0  -0.1945
  C  C66  1  0.229700  0.132700  0.166600  1.0  0.0732
  C  C67  1  0.284200  0.365900  0.413000  1.0  -0.1149
  C  C68  1  0.280100  0.948500  0.129800  1.0  -0.1116
  C  C69  1  0.395600  0.978100  0.064000  1.0  0.0651
  C  C70  1  0.420200  0.060100  0.979800  1.0  -0.1189
  C  C71  1  0.478000  0.920200  0.085200  1.0  -0.1091
  C  C72  1  0.375300  0.729900  0.369100  1.0  0.5682
  C  C73  1  0.453800  0.689900  0.305200  1.0  -0.2085
  C  C74  1  0.412700  0.615300  0.208700  1.0  0.0774
  C  C75  1  0.285400  0.576700  0.165800  1.0  -0.2023
  C  C76  1  0.208900  0.614600  0.227500  1.0  0.051
  C  C77  1  0.497400  0.570600  0.143600  1.0  -0.3979
  C  C78  1  0.159000  0.718800  0.388300  1.0  -0.0713
  C  C79  1  0.074400  0.604800  0.446700  1.0  0.0454
  C  C80  1  0.128300  0.560400  0.532400  1.0  -0.1185
  C  C81  1  0.948100  0.544400  0.415100  1.0  -0.1422
  C  C82  1  0.297700  0.921400  0.681600  1.0  0.5535
  C  C83  1  0.328500  0.822100  0.718800  1.0  -0.1891
  C  C84  1  0.268800  0.746400  0.799900  1.0  0.0415
  C  C85  1  0.168400  0.764200  0.847000  1.0  -0.1622
  C  C86  1  0.137100  0.857800  0.815800  1.0  0.0621
  C  C87  1  0.308100  0.644000  0.837000  1.0  -0.4104
  C  C88  1  0.168800  0.041100  0.705900  1.0  -0.1365
  C  C89  1  0.081400  0.017000  0.599400  1.0  0.0532
  C  C90  1  0.055600  0.115500  0.559000  1.0  -0.1842
  C  C91  1  0.024300  0.902900  0.537800  1.0  -0.1353
  C  C92  1  0.663000  0.924900  0.685000  1.0  0.5771
  C  C93  1  0.666200  0.823900  0.618700  1.0  -0.1989
  C  C94  1  0.715700  0.744400  0.659300  1.0  0.0787
  C  C95  1  0.770600  0.769200  0.770600  1.0  -0.2033
  C  C96  1  0.770300  0.867300  0.833400  1.0  0.0752
  C  C97  1  0.715800  0.634100  0.587000  1.0  -0.1183
  C  C98  1  0.719900  0.051500  0.870200  1.0  -0.1154
  C  C99  1  0.604400  0.021900  0.936000  1.0  0.0646
  C  C100  1  0.579800  0.939900  0.020200  1.0  -0.1198
  C  C101  1  0.522000  0.079800  0.914800  1.0  -0.1099
  C  C102  1  0.624700  0.270100  0.630900  1.0  0.5703
  C  C103  1  0.546200  0.310100  0.694800  1.0  -0.2132
  C  C104  1  0.587300  0.384700  0.791300  1.0  0.0774
  C  C105  1  0.714600  0.423300  0.834200  1.0  -0.2041
  C  C106  1  0.791100  0.385400  0.772500  1.0  0.0506
  C  C107  1  0.502600  0.429400  0.856400  1.0  -0.4006
  C  C108  1  0.841000  0.281200  0.611700  1.0  -0.0722
  C  C109  1  0.925600  0.395200  0.553300  1.0  0.0455
  C  C110  1  0.871700  0.439600  0.467600  1.0  -0.1185
  C  C111  1  0.051900  0.455600  0.584900  1.0  -0.1338
  C  C112  1  0.702300  0.078600  0.318400  1.0  0.5525
  C  C113  1  0.671500  0.177900  0.281200  1.0  -0.1966
  C  C114  1  0.731200  0.253600  0.200100  1.0  0.043
  C  C115  1  0.831600  0.235800  0.153000  1.0  -0.1645
  C  C116  1  0.862900  0.142200  0.184200  1.0  0.0625
  C  C117  1  0.691900  0.356000  0.163000  1.0  -0.4084
  C  C118  1  0.831200  0.958900  0.294100  1.0  -0.1355
  C  C119  1  0.918600  0.983000  0.400600  1.0  0.0543
  C  C120  1  0.944400  0.884500  0.441000  1.0  -0.1901
  C  C121  1  0.975700  0.097100  0.462200  1.0  -0.1401
  N  N122  1  0.281900  0.054900  0.205700  1.0  -0.1262
  N  N123  1  0.251800  0.689400  0.325400  1.0  0.0084
  N  N124  1  0.200100  0.936300  0.733700  1.0  -0.2099
  N  N125  1  0.718100  0.945100  0.794300  1.0  -0.1256
  N  N126  1  0.748200  0.310600  0.674600  1.0  0.01
  N  N127  1  0.799900  0.063700  0.266300  1.0  -0.2102
  O  O128  1  0.386200  0.001600  0.347800  1.0  -0.6227
  O  O129  1  0.410700  0.796300  0.462600  1.0  -0.6253
  O  O130  1  0.349900  0.992100  0.607500  1.0  -0.6164
  O  O131  1  0.613800  0.998400  0.652200  1.0  -0.6237
  O  O132  1  0.589300  0.203700  0.537400  1.0  -0.6249
  O  O133  1  0.650100  0.007900  0.392500  1.0  -0.6162
