# generated using pymatgen
data_Cd3H22(C7O2)6
_symmetry_space_group_name_H-M   'P 1'
_cell_length_a   19.52400000
_cell_length_b   10.04900000
_cell_length_c   25.35900000
_cell_angle_alpha   90.00000000
_cell_angle_beta   95.40900000
_cell_angle_gamma   90.00000000
_symmetry_Int_Tables_number   1
_chemical_formula_structural   Cd3H22(C7O2)6
_chemical_formula_sum   'Cd12 H88 C168 O48'
_cell_volume   4953.19711135
_cell_formula_units_Z   4
loop_
 _symmetry_equiv_pos_site_id
 _symmetry_equiv_pos_as_xyz
  1  'x, y, z'
loop_
 _atom_site_type_symbol
 _atom_site_label
 _atom_site_symmetry_multiplicity
 _atom_site_fract_x
 _atom_site_fract_y
 _atom_site_fract_z
 _atom_site_occupancy
 _atom_site_charge
  Cd  Cd1  1  0.589280  0.048700  0.983690  1.0  1.077
  Cd  Cd2  1  0.089280  0.548700  0.983690  1.0  1.077
  Cd  Cd3  1  0.410720  0.048700  0.516310  1.0  1.0775
  Cd  Cd4  1  0.910720  0.548700  0.516310  1.0  1.0775
  Cd  Cd5  1  0.410720  0.951300  0.016310  1.0  1.0774
  Cd  Cd6  1  0.910720  0.451300  0.016310  1.0  1.0774
  Cd  Cd7  1  0.589280  0.951300  0.483690  1.0  1.0767
  Cd  Cd8  1  0.089280  0.451300  0.483690  1.0  1.0767
  Cd  Cd9  1  0.750000  0.250000  0.000000  1.0  1.2372
  Cd  Cd10  1  0.250000  0.250000  0.500000  1.0  1.2372
  Cd  Cd11  1  0.250000  0.750000  0.000000  1.0  1.2372
  Cd  Cd12  1  0.750000  0.750000  0.500000  1.0  1.2372
  H  H13  1  0.642700  0.947500  0.804400  1.0  0.1309
  H  H14  1  0.713400  0.930300  0.737300  1.0  0.1149
  H  H15  1  0.860400  0.136600  0.821800  1.0  0.1195
  H  H16  1  0.788600  0.154600  0.889600  1.0  0.0945
  H  H17  1  0.797500  0.850900  0.694300  1.0  0.1076
  H  H18  1  0.871600  0.821800  0.630800  1.0  0.1105
  H  H19  1  0.971100  0.149200  0.681400  1.0  0.1065
  H  H20  1  0.897700  0.180200  0.745000  1.0  0.1329
  H  H21  1  0.976600  0.761900  0.604900  1.0  0.1131
  H  H22  1  0.114200  0.913400  0.515100  1.0  0.1114
  H  H23  1  0.004500  0.157600  0.598800  1.0  0.1163
  H  H24  1  0.142700  0.447500  0.804400  1.0  0.1309
  H  H25  1  0.213400  0.430300  0.737300  1.0  0.1149
  H  H26  1  0.360400  0.636600  0.821800  1.0  0.1195
  H  H27  1  0.288600  0.654600  0.889600  1.0  0.0945
  H  H28  1  0.297500  0.350900  0.694300  1.0  0.1076
  H  H29  1  0.371600  0.321800  0.630800  1.0  0.1105
  H  H30  1  0.471100  0.649200  0.681400  1.0  0.1065
  H  H31  1  0.397700  0.680200  0.745000  1.0  0.1329
  H  H32  1  0.476600  0.261900  0.604900  1.0  0.1131
  H  H33  1  0.614200  0.413400  0.515100  1.0  0.1114
  H  H34  1  0.504500  0.657600  0.598800  1.0  0.1163
  H  H35  1  0.357300  0.947500  0.695600  1.0  0.1307
  H  H36  1  0.286600  0.930300  0.762700  1.0  0.1149
  H  H37  1  0.139600  0.136600  0.678200  1.0  0.1195
  H  H38  1  0.211400  0.154600  0.610400  1.0  0.0944
  H  H39  1  0.202500  0.850900  0.805700  1.0  0.1075
  H  H40  1  0.128400  0.821800  0.869200  1.0  0.1116
  H  H41  1  0.028900  0.149200  0.818600  1.0  0.1068
  H  H42  1  0.102300  0.180200  0.755000  1.0  0.1331
  H  H43  1  0.023400  0.761900  0.895100  1.0  0.1128
  H  H44  1  0.885800  0.913400  0.984900  1.0  0.1113
  H  H45  1  0.995500  0.157600  0.901200  1.0  0.1162
  H  H46  1  0.857300  0.447500  0.695600  1.0  0.1307
  H  H47  1  0.786600  0.430300  0.762700  1.0  0.1149
  H  H48  1  0.639600  0.636600  0.678200  1.0  0.1195
  H  H49  1  0.711400  0.654600  0.610400  1.0  0.0944
  H  H50  1  0.702500  0.350900  0.805700  1.0  0.1075
  H  H51  1  0.628400  0.321800  0.869200  1.0  0.1116
  H  H52  1  0.528900  0.649200  0.818600  1.0  0.1068
  H  H53  1  0.602300  0.680200  0.755000  1.0  0.1331
  H  H54  1  0.523400  0.261900  0.895100  1.0  0.1128
  H  H55  1  0.385800  0.413400  0.984900  1.0  0.1113
  H  H56  1  0.495500  0.657600  0.901200  1.0  0.1162
  H  H57  1  0.357300  0.052500  0.195600  1.0  0.1306
  H  H58  1  0.286600  0.069700  0.262700  1.0  0.1147
  H  H59  1  0.139600  0.863400  0.178200  1.0  0.1193
  H  H60  1  0.211400  0.845400  0.110400  1.0  0.0943
  H  H61  1  0.202500  0.149100  0.305700  1.0  0.1073
  H  H62  1  0.128400  0.178200  0.369200  1.0  0.1108
  H  H63  1  0.028900  0.850800  0.318600  1.0  0.1065
  H  H64  1  0.102300  0.819800  0.255000  1.0  0.133
  H  H65  1  0.023400  0.238100  0.395100  1.0  0.113
  H  H66  1  0.885800  0.086600  0.484900  1.0  0.1111
  H  H67  1  0.995500  0.842400  0.401200  1.0  0.1163
  H  H68  1  0.857300  0.552500  0.195600  1.0  0.1306
  H  H69  1  0.786600  0.569700  0.262700  1.0  0.1147
  H  H70  1  0.639600  0.363400  0.178200  1.0  0.1193
  H  H71  1  0.711400  0.345400  0.110400  1.0  0.0943
  H  H72  1  0.702500  0.649100  0.305700  1.0  0.1073
  H  H73  1  0.628400  0.678200  0.369200  1.0  0.1108
  H  H74  1  0.528900  0.350800  0.318600  1.0  0.1065
  H  H75  1  0.602300  0.319800  0.255000  1.0  0.133
  H  H76  1  0.523400  0.738100  0.395100  1.0  0.113
  H  H77  1  0.385800  0.586600  0.484900  1.0  0.1111
  H  H78  1  0.495500  0.342400  0.401200  1.0  0.1163
  H  H79  1  0.642700  0.052500  0.304400  1.0  0.131
  H  H80  1  0.713400  0.069700  0.237300  1.0  0.1148
  H  H81  1  0.860400  0.863400  0.321800  1.0  0.1198
  H  H82  1  0.788600  0.845400  0.389600  1.0  0.095
  H  H83  1  0.797500  0.149100  0.194300  1.0  0.1077
  H  H84  1  0.871600  0.178200  0.130800  1.0  0.1112
  H  H85  1  0.971100  0.850800  0.181400  1.0  0.1069
  H  H86  1  0.897700  0.819800  0.245000  1.0  0.133
  H  H87  1  0.976600  0.238100  0.104900  1.0  0.1134
  H  H88  1  0.114200  0.086600  0.015100  1.0  0.1114
  H  H89  1  0.004500  0.842400  0.098800  1.0  0.1166
  H  H90  1  0.142700  0.552500  0.304400  1.0  0.131
  H  H91  1  0.213400  0.569700  0.237300  1.0  0.1148
  H  H92  1  0.360400  0.363400  0.321800  1.0  0.1198
  H  H93  1  0.288600  0.345400  0.389600  1.0  0.095
  H  H94  1  0.297500  0.649100  0.194300  1.0  0.1077
  H  H95  1  0.371600  0.678200  0.130800  1.0  0.1112
  H  H96  1  0.471100  0.350800  0.181400  1.0  0.1069
  H  H97  1  0.397700  0.319800  0.245000  1.0  0.133
  H  H98  1  0.476600  0.738100  0.104900  1.0  0.1134
  H  H99  1  0.614200  0.586600  0.015100  1.0  0.1114
  H  H100  1  0.504500  0.342400  0.098800  1.0  0.1166
  C  C101  1  0.665900  0.059800  0.899360  1.0  0.7099
  C  C102  1  0.709000  0.052000  0.854080  1.0  -0.1464
  C  C103  1  0.686400  0.985200  0.808310  1.0  -0.0639
  C  C104  1  0.729200  0.974800  0.768300  1.0  -0.1059
  C  C105  1  0.795400  0.028600  0.772460  1.0  0.0523
  C  C106  1  0.817100  0.097500  0.818100  1.0  -0.1145
  C  C107  1  0.773600  0.108500  0.858900  1.0  -0.041
  C  C108  1  0.841600  0.014700  0.728750  1.0  0.0632
  C  C109  1  0.833500  0.910600  0.692300  1.0  -0.1073
  C  C110  1  0.877500  0.894100  0.653740  1.0  -0.1339
  C  C111  1  0.931100  0.984300  0.648210  1.0  0.007
  C  C112  1  0.936000  0.087600  0.683800  1.0  -0.1039
  C  C113  1  0.892600  0.106400  0.722900  1.0  -0.1948
  C  C114  1  0.981300  0.963400  0.608520  1.0  0.0458
  C  C115  1  0.998000  0.835600  0.591570  1.0  -0.0675
  C  C116  1  0.046100  0.817300  0.555090  1.0  -0.1621
  C  C117  1  0.079700  0.925900  0.537490  1.0  0.002
  C  C118  1  0.063600  0.053900  0.552320  1.0  -0.1628
  C  C119  1  0.014900  0.071900  0.588160  1.0  -0.088
  C  C120  1  0.059900  0.680100  0.535440  1.0  0.6907
  C  C121  1  0.099300  0.170700  0.529760  1.0  0.706
  C  C122  1  0.165900  0.559800  0.899360  1.0  0.7099
  C  C123  1  0.209000  0.552000  0.854080  1.0  -0.1464
  C  C124  1  0.186400  0.485200  0.808310  1.0  -0.0639
  C  C125  1  0.229200  0.474800  0.768300  1.0  -0.1059
  C  C126  1  0.295400  0.528600  0.772460  1.0  0.0523
  C  C127  1  0.317100  0.597500  0.818100  1.0  -0.1145
  C  C128  1  0.273600  0.608500  0.858900  1.0  -0.041
  C  C129  1  0.341600  0.514700  0.728750  1.0  0.0632
  C  C130  1  0.333500  0.410600  0.692300  1.0  -0.1073
  C  C131  1  0.377500  0.394100  0.653740  1.0  -0.1339
  C  C132  1  0.431100  0.484300  0.648210  1.0  0.007
  C  C133  1  0.436000  0.587600  0.683800  1.0  -0.1039
  C  C134  1  0.392600  0.606400  0.722900  1.0  -0.1948
  C  C135  1  0.481300  0.463400  0.608520  1.0  0.0458
  C  C136  1  0.498000  0.335600  0.591570  1.0  -0.0675
  C  C137  1  0.546100  0.317300  0.555090  1.0  -0.1621
  C  C138  1  0.579700  0.425900  0.537490  1.0  0.002
  C  C139  1  0.563600  0.553900  0.552320  1.0  -0.1628
  C  C140  1  0.514900  0.571900  0.588160  1.0  -0.088
  C  C141  1  0.559900  0.180100  0.535440  1.0  0.6907
  C  C142  1  0.599300  0.670700  0.529760  1.0  0.706
  C  C143  1  0.334100  0.059800  0.600640  1.0  0.7071
  C  C144  1  0.291000  0.052000  0.645920  1.0  -0.1458
  C  C145  1  0.313600  0.985200  0.691690  1.0  -0.0648
  C  C146  1  0.270800  0.974800  0.731700  1.0  -0.107
  C  C147  1  0.204600  0.028600  0.727540  1.0  0.0529
  C  C148  1  0.182900  0.097500  0.681900  1.0  -0.1121
  C  C149  1  0.226400  0.108500  0.641100  1.0  -0.0403
  C  C150  1  0.158400  0.014700  0.771250  1.0  0.0627
  C  C151  1  0.166500  0.910600  0.807700  1.0  -0.1071
  C  C152  1  0.122500  0.894100  0.846260  1.0  -0.134
  C  C153  1  0.068900  0.984300  0.851790  1.0  0.0075
  C  C154  1  0.064000  0.087600  0.816200  1.0  -0.1031
  C  C155  1  0.107400  0.106400  0.777100  1.0  -0.194
  C  C156  1  0.018700  0.963400  0.891480  1.0  0.0455
  C  C157  1  0.002000  0.835600  0.908430  1.0  -0.0678
  C  C158  1  0.953900  0.817300  0.944910  1.0  -0.1617
  C  C159  1  0.920300  0.925900  0.962510  1.0  0.0037
  C  C160  1  0.936400  0.053900  0.947680  1.0  -0.1626
  C  C161  1  0.985100  0.071900  0.911840  1.0  -0.0879
  C  C162  1  0.940100  0.680100  0.964560  1.0  0.6913
  C  C163  1  0.900700  0.170700  0.970240  1.0  0.7058
  C  C164  1  0.834100  0.559800  0.600640  1.0  0.7071
  C  C165  1  0.791000  0.552000  0.645920  1.0  -0.1458
  C  C166  1  0.813600  0.485200  0.691690  1.0  -0.0648
  C  C167  1  0.770800  0.474800  0.731700  1.0  -0.107
  C  C168  1  0.704600  0.528600  0.727540  1.0  0.0529
  C  C169  1  0.682900  0.597500  0.681900  1.0  -0.1121
  C  C170  1  0.726400  0.608500  0.641100  1.0  -0.0403
  C  C171  1  0.658400  0.514700  0.771250  1.0  0.0627
  C  C172  1  0.666500  0.410600  0.807700  1.0  -0.1071
  C  C173  1  0.622500  0.394100  0.846260  1.0  -0.134
  C  C174  1  0.568900  0.484300  0.851790  1.0  0.0075
  C  C175  1  0.564000  0.587600  0.816200  1.0  -0.1031
  C  C176  1  0.607400  0.606400  0.777100  1.0  -0.194
  C  C177  1  0.518700  0.463400  0.891480  1.0  0.0455
  C  C178  1  0.502000  0.335600  0.908430  1.0  -0.0678
  C  C179  1  0.453900  0.317300  0.944910  1.0  -0.1617
  C  C180  1  0.420300  0.425900  0.962510  1.0  0.0037
  C  C181  1  0.436400  0.553900  0.947680  1.0  -0.1626
  C  C182  1  0.485100  0.571900  0.911840  1.0  -0.0879
  C  C183  1  0.440100  0.180100  0.964560  1.0  0.6913
  C  C184  1  0.400700  0.670700  0.970240  1.0  0.7058
  C  C185  1  0.334100  0.940200  0.100640  1.0  0.7071
  C  C186  1  0.291000  0.948000  0.145920  1.0  -0.1464
  C  C187  1  0.313600  0.014800  0.191690  1.0  -0.0652
  C  C188  1  0.270800  0.025200  0.231700  1.0  -0.1068
  C  C189  1  0.204600  0.971400  0.227540  1.0  0.0534
  C  C190  1  0.182900  0.902500  0.181900  1.0  -0.1123
  C  C191  1  0.226400  0.891500  0.141100  1.0  -0.041
  C  C192  1  0.158400  0.985300  0.271250  1.0  0.0627
  C  C193  1  0.166500  0.089400  0.307700  1.0  -0.1071
  C  C194  1  0.122500  0.105900  0.346260  1.0  -0.1339
  C  C195  1  0.068900  0.015700  0.351790  1.0  0.0075
  C  C196  1  0.064000  0.912400  0.316200  1.0  -0.1036
  C  C197  1  0.107400  0.893600  0.277100  1.0  -0.1936
  C  C198  1  0.018700  0.036600  0.391480  1.0  0.0455
  C  C199  1  0.002000  0.164400  0.408430  1.0  -0.0691
  C  C200  1  0.953900  0.182700  0.444910  1.0  -0.1621
  C  C201  1  0.920300  0.074100  0.462510  1.0  0.0035
  C  C202  1  0.936400  0.946100  0.447680  1.0  -0.1634
  C  C203  1  0.985100  0.928100  0.411840  1.0  -0.0869
  C  C204  1  0.940100  0.319900  0.464560  1.0  0.6926
  C  C205  1  0.900700  0.829300  0.470240  1.0  0.704
  C  C206  1  0.834100  0.440200  0.100640  1.0  0.7071
  C  C207  1  0.791000  0.448000  0.145920  1.0  -0.1464
  C  C208  1  0.813600  0.514800  0.191690  1.0  -0.0652
  C  C209  1  0.770800  0.525200  0.231700  1.0  -0.1068
  C  C210  1  0.704600  0.471400  0.227540  1.0  0.0534
  C  C211  1  0.682900  0.402500  0.181900  1.0  -0.1123
  C  C212  1  0.726400  0.391500  0.141100  1.0  -0.041
  C  C213  1  0.658400  0.485300  0.271250  1.0  0.0627
  C  C214  1  0.666500  0.589400  0.307700  1.0  -0.1071
  C  C215  1  0.622500  0.605900  0.346260  1.0  -0.1339
  C  C216  1  0.568900  0.515700  0.351790  1.0  0.0075
  C  C217  1  0.564000  0.412400  0.316200  1.0  -0.1036
  C  C218  1  0.607400  0.393600  0.277100  1.0  -0.1936
  C  C219  1  0.518700  0.536600  0.391480  1.0  0.0455
  C  C220  1  0.502000  0.664400  0.408430  1.0  -0.0691
  C  C221  1  0.453900  0.682700  0.444910  1.0  -0.1621
  C  C222  1  0.420300  0.574100  0.462510  1.0  0.0035
  C  C223  1  0.436400  0.446100  0.447680  1.0  -0.1634
  C  C224  1  0.485100  0.428100  0.411840  1.0  -0.0869
  C  C225  1  0.440100  0.819900  0.464560  1.0  0.6926
  C  C226  1  0.400700  0.329300  0.470240  1.0  0.704
  C  C227  1  0.665900  0.940200  0.399360  1.0  0.7086
  C  C228  1  0.709000  0.948000  0.354080  1.0  -0.1466
  C  C229  1  0.686400  0.014800  0.308310  1.0  -0.0642
  C  C230  1  0.729200  0.025200  0.268300  1.0  -0.1057
  C  C231  1  0.795400  0.971400  0.272460  1.0  0.0528
  C  C232  1  0.817100  0.902500  0.318100  1.0  -0.1145
  C  C233  1  0.773600  0.891500  0.358900  1.0  -0.0415
  C  C234  1  0.841600  0.985300  0.228750  1.0  0.0632
  C  C235  1  0.833500  0.089400  0.192300  1.0  -0.1075
  C  C236  1  0.877500  0.105900  0.153740  1.0  -0.1338
  C  C237  1  0.931100  0.015700  0.148210  1.0  0.0069
  C  C238  1  0.936000  0.912400  0.183800  1.0  -0.1043
  C  C239  1  0.892600  0.893600  0.222900  1.0  -0.1942
  C  C240  1  0.981300  0.036600  0.108520  1.0  0.0456
  C  C241  1  0.998000  0.164400  0.091570  1.0  -0.0689
  C  C242  1  0.046100  0.182700  0.055090  1.0  -0.1634
  C  C243  1  0.079700  0.074100  0.037490  1.0  0.0025
  C  C244  1  0.063600  0.946100  0.052320  1.0  -0.163
  C  C245  1  0.014900  0.928100  0.088160  1.0  -0.0876
  C  C246  1  0.059900  0.319900  0.035440  1.0  0.6907
  C  C247  1  0.099300  0.829300  0.029760  1.0  0.7046
  C  C248  1  0.165900  0.440200  0.399360  1.0  0.7086
  C  C249  1  0.209000  0.448000  0.354080  1.0  -0.1466
  C  C250  1  0.186400  0.514800  0.308310  1.0  -0.0642
  C  C251  1  0.229200  0.525200  0.268300  1.0  -0.1057
  C  C252  1  0.295400  0.471400  0.272460  1.0  0.0528
  C  C253  1  0.317100  0.402500  0.318100  1.0  -0.1145
  C  C254  1  0.273600  0.391500  0.358900  1.0  -0.0415
  C  C255  1  0.341600  0.485300  0.228750  1.0  0.0632
  C  C256  1  0.333500  0.589400  0.192300  1.0  -0.1075
  C  C257  1  0.377500  0.605900  0.153740  1.0  -0.1338
  C  C258  1  0.431100  0.515700  0.148210  1.0  0.0069
  C  C259  1  0.436000  0.412400  0.183800  1.0  -0.1043
  C  C260  1  0.392600  0.393600  0.222900  1.0  -0.1942
  C  C261  1  0.481300  0.536600  0.108520  1.0  0.0456
  C  C262  1  0.498000  0.664400  0.091570  1.0  -0.0689
  C  C263  1  0.546100  0.682700  0.055090  1.0  -0.1634
  C  C264  1  0.579700  0.574100  0.037490  1.0  0.0025
  C  C265  1  0.563600  0.446100  0.052320  1.0  -0.163
  C  C266  1  0.514900  0.428100  0.088160  1.0  -0.0876
  C  C267  1  0.559900  0.819900  0.035440  1.0  0.6907
  C  C268  1  0.599300  0.329300  0.029760  1.0  0.7046
  O  O269  1  0.688910  0.107200  0.942800  1.0  -0.6902
  O  O270  1  0.606740  0.012500  0.894240  1.0  -0.6113
  O  O271  1  0.024150  0.583200  0.547680  1.0  -0.6367
  O  O272  1  0.108230  0.667500  0.506620  1.0  -0.5803
  O  O273  1  0.074730  0.282400  0.535380  1.0  -0.5605
  O  O274  1  0.151800  0.143800  0.506770  1.0  -0.6587
  O  O275  1  0.188910  0.607200  0.942800  1.0  -0.6902
  O  O276  1  0.106740  0.512500  0.894240  1.0  -0.6113
  O  O277  1  0.524150  0.083200  0.547680  1.0  -0.6367
  O  O278  1  0.608230  0.167500  0.506620  1.0  -0.5803
  O  O279  1  0.574730  0.782400  0.535380  1.0  -0.5605
  O  O280  1  0.651800  0.643800  0.506770  1.0  -0.6587
  O  O281  1  0.311090  0.107200  0.557200  1.0  -0.6936
  O  O282  1  0.393260  0.012500  0.605760  1.0  -0.6105
  O  O283  1  0.975850  0.583200  0.952320  1.0  -0.6371
  O  O284  1  0.891770  0.667500  0.993380  1.0  -0.5801
  O  O285  1  0.925270  0.282400  0.964620  1.0  -0.5619
  O  O286  1  0.848200  0.143800  0.993230  1.0  -0.6563
  O  O287  1  0.811090  0.607200  0.557200  1.0  -0.6936
  O  O288  1  0.893260  0.512500  0.605760  1.0  -0.6105
  O  O289  1  0.475850  0.083200  0.952320  1.0  -0.6371
  O  O290  1  0.391770  0.167500  0.993380  1.0  -0.5801
  O  O291  1  0.425270  0.782400  0.964620  1.0  -0.5619
  O  O292  1  0.348200  0.643800  0.993230  1.0  -0.6563
  O  O293  1  0.311090  0.892800  0.057200  1.0  -0.6939
  O  O294  1  0.393260  0.987500  0.105760  1.0  -0.6107
  O  O295  1  0.975850  0.416800  0.452320  1.0  -0.6377
  O  O296  1  0.891770  0.332500  0.493380  1.0  -0.5807
  O  O297  1  0.925270  0.717600  0.464620  1.0  -0.5618
  O  O298  1  0.848200  0.856200  0.493230  1.0  -0.6566
  O  O299  1  0.811090  0.392800  0.057200  1.0  -0.6939
  O  O300  1  0.893260  0.487500  0.105760  1.0  -0.6107
  O  O301  1  0.475850  0.916800  0.452320  1.0  -0.6377
  O  O302  1  0.391770  0.832500  0.493380  1.0  -0.5807
  O  O303  1  0.425270  0.217600  0.464620  1.0  -0.5618
  O  O304  1  0.348200  0.356200  0.493230  1.0  -0.6566
  O  O305  1  0.688910  0.892800  0.442800  1.0  -0.6907
  O  O306  1  0.606740  0.987500  0.394240  1.0  -0.6112
  O  O307  1  0.024150  0.416800  0.047680  1.0  -0.6363
  O  O308  1  0.108230  0.332500  0.006620  1.0  -0.5803
  O  O309  1  0.074730  0.717600  0.035380  1.0  -0.5611
  O  O310  1  0.151800  0.856200  0.006770  1.0  -0.6575
  O  O311  1  0.188910  0.392800  0.442800  1.0  -0.6907
  O  O312  1  0.106740  0.487500  0.394240  1.0  -0.6112
  O  O313  1  0.524150  0.916800  0.047680  1.0  -0.6363
  O  O314  1  0.608230  0.832500  0.006620  1.0  -0.5803
  O  O315  1  0.574730  0.217600  0.035380  1.0  -0.5611
  O  O316  1  0.651800  0.356200  0.006770  1.0  -0.6575
