# generated using pymatgen
data_AgH6(C2N)3
_symmetry_space_group_name_H-M   'P 1'
_cell_length_a   43.52000000
_cell_length_b   12.54600000
_cell_length_c   21.89400000
_cell_angle_alpha   90.00000000
_cell_angle_beta   105.05300000
_cell_angle_gamma   90.00000000
_symmetry_Int_Tables_number   1
_chemical_formula_structural   AgH6(C2N)3
_chemical_formula_sum   'Ag32 H192 C192 N96'
_cell_volume   11543.97077244
_cell_formula_units_Z   32
loop_
 _symmetry_equiv_pos_site_id
 _symmetry_equiv_pos_as_xyz
  1  'x, y, z'
loop_
 _atom_site_type_symbol
 _atom_site_label
 _atom_site_symmetry_multiplicity
 _atom_site_fract_x
 _atom_site_fract_y
 _atom_site_fract_z
 _atom_site_occupancy
 _atom_site_charge
  Ag  Ag1  1  0.204640  0.886500  0.317170  1.0  0.227
  Ag  Ag2  1  0.052200  0.655900  0.189600  1.0  0.2086
  Ag  Ag3  1  0.309200  0.130500  0.596420  1.0  0.1904
  Ag  Ag4  1  0.465580  0.340700  0.609320  1.0  0.1932
  Ag  Ag5  1  0.809200  0.369500  0.096420  1.0  0.1906
  Ag  Ag6  1  0.965580  0.159300  0.109320  1.0  0.1933
  Ag  Ag7  1  0.704640  0.613500  0.817170  1.0  0.227
  Ag  Ag8  1  0.552200  0.844100  0.689600  1.0  0.2086
  Ag  Ag9  1  0.190800  0.630500  0.903580  1.0  0.1898
  Ag  Ag10  1  0.034420  0.840700  0.890680  1.0  0.1945
  Ag  Ag11  1  0.295360  0.386500  0.182830  1.0  0.2273
  Ag  Ag12  1  0.447800  0.155900  0.310400  1.0  0.2076
  Ag  Ag13  1  0.795360  0.113500  0.682830  1.0  0.2273
  Ag  Ag14  1  0.947800  0.344100  0.810400  1.0  0.2076
  Ag  Ag15  1  0.690800  0.869500  0.403580  1.0  0.1897
  Ag  Ag16  1  0.534420  0.659300  0.390680  1.0  0.1956
  Ag  Ag17  1  0.704640  0.386500  0.317170  1.0  0.227
  Ag  Ag18  1  0.552200  0.155900  0.189600  1.0  0.2086
  Ag  Ag19  1  0.809200  0.630500  0.596420  1.0  0.1904
  Ag  Ag20  1  0.965580  0.840700  0.609320  1.0  0.1932
  Ag  Ag21  1  0.309200  0.869500  0.096420  1.0  0.1906
  Ag  Ag22  1  0.465580  0.659300  0.109320  1.0  0.1933
  Ag  Ag23  1  0.204640  0.113500  0.817170  1.0  0.227
  Ag  Ag24  1  0.052200  0.344100  0.689600  1.0  0.2086
  Ag  Ag25  1  0.690800  0.130500  0.903580  1.0  0.1898
  Ag  Ag26  1  0.534420  0.340700  0.890680  1.0  0.1945
  Ag  Ag27  1  0.795360  0.886500  0.182830  1.0  0.2273
  Ag  Ag28  1  0.947800  0.655900  0.310400  1.0  0.2076
  Ag  Ag29  1  0.295360  0.613500  0.682830  1.0  0.2273
  Ag  Ag30  1  0.447800  0.844100  0.810400  1.0  0.2076
  Ag  Ag31  1  0.190800  0.369500  0.403580  1.0  0.1897
  Ag  Ag32  1  0.034420  0.159300  0.390680  1.0  0.1956
  H  H33  1  0.153800  0.843600  0.180600  1.0  0.0348
  H  H34  1  0.160500  0.703900  0.334500  1.0  0.049
  H  H35  1  0.048900  0.419400  0.247900  1.0  0.0515
  H  H36  1  0.114700  0.642900  0.296300  1.0  -0.0072
  H  H37  1  0.024700  0.256400  0.222700  1.0  0.0554
  H  H38  1  0.966900  0.405400  0.080100  1.0  0.0647
  H  H39  1  0.101800  0.781600  0.145800  1.0  0.0488
  H  H40  1  0.992300  0.558600  0.104800  1.0  0.0656
  H  H41  1  0.728000  0.244400  0.214800  1.0  0.0527
  H  H42  1  0.771200  0.232500  0.164800  1.0  0.0832
  H  H43  1  0.745800  0.564100  0.240900  1.0  0.0693
  H  H44  1  0.788000  0.537600  0.186100  1.0  0.0204
  H  H45  1  0.220500  0.874100  0.473200  1.0  0.0584
  H  H46  1  0.354800  0.311100  0.654200  1.0  0.0185
  H  H47  1  0.402900  0.372700  0.660700  1.0  0.038
  H  H48  1  0.246300  0.984400  0.559600  1.0  0.0239
  H  H49  1  0.363600  0.136600  0.525600  1.0  0.051
  H  H50  1  0.243000  0.083400  0.361400  1.0  0.0856
  H  H51  1  0.478300  0.733400  0.689500  1.0  0.0204
  H  H52  1  0.455000  0.568000  0.670300  1.0  0.0482
  H  H53  1  0.515500  0.492300  0.574800  1.0  0.0271
  H  H54  1  0.275700  0.166900  0.450000  1.0  0.0323
  H  H55  1  0.410800  0.210700  0.521600  1.0  0.0557
  H  H56  1  0.541200  0.655700  0.599400  1.0  0.0467
  H  H57  1  0.720500  0.625900  0.973200  1.0  0.0588
  H  H58  1  0.854800  0.188900  0.154200  1.0  0.0181
  H  H59  1  0.902900  0.127300  0.160700  1.0  0.0379
  H  H60  1  0.746300  0.515600  0.059600  1.0  0.0237
  H  H61  1  0.863600  0.363400  0.025600  1.0  0.0509
  H  H62  1  0.743000  0.416600  0.861400  1.0  0.086
  H  H63  1  0.978300  0.766600  0.189500  1.0  0.0203
  H  H64  1  0.955000  0.932000  0.170300  1.0  0.0481
  H  H65  1  0.015500  0.007700  0.074800  1.0  0.0279
  H  H66  1  0.775700  0.333100  0.950000  1.0  0.032
  H  H67  1  0.910800  0.289300  0.021600  1.0  0.0559
  H  H68  1  0.041200  0.844300  0.099400  1.0  0.0467
  H  H69  1  0.228000  0.255600  0.714800  1.0  0.0525
  H  H70  1  0.271200  0.267500  0.664800  1.0  0.0827
  H  H71  1  0.245800  0.935900  0.740900  1.0  0.0689
  H  H72  1  0.288000  0.962400  0.686100  1.0  0.0188
  H  H73  1  0.653800  0.656400  0.680600  1.0  0.0345
  H  H74  1  0.660500  0.796100  0.834500  1.0  0.0492
  H  H75  1  0.548900  0.080600  0.747900  1.0  0.0513
  H  H76  1  0.614700  0.857100  0.796300  1.0  -0.0079
  H  H77  1  0.524700  0.243600  0.722700  1.0  0.0553
  H  H78  1  0.466900  0.094600  0.580100  1.0  0.0644
  H  H79  1  0.601800  0.718400  0.645800  1.0  0.0485
  H  H80  1  0.492300  0.941400  0.604800  1.0  0.0655
  H  H81  1  0.279500  0.374100  0.026800  1.0  0.0588
  H  H82  1  0.145200  0.811100  0.845800  1.0  0.019
  H  H83  1  0.097100  0.872700  0.839300  1.0  0.0372
  H  H84  1  0.253700  0.484400  0.940400  1.0  0.0244
  H  H85  1  0.136400  0.636600  0.974400  1.0  0.053
  H  H86  1  0.257000  0.583400  0.138600  1.0  0.0865
  H  H87  1  0.021700  0.233400  0.810500  1.0  0.021
  H  H88  1  0.045000  0.068000  0.829700  1.0  0.0484
  H  H89  1  0.984500  0.992300  0.925200  1.0  0.0279
  H  H90  1  0.224300  0.666900  0.050000  1.0  0.0321
  H  H91  1  0.089200  0.710700  0.978400  1.0  0.0559
  H  H92  1  0.958800  0.155700  0.900600  1.0  0.0473
  H  H93  1  0.772000  0.744400  0.285200  1.0  0.0529
  H  H94  1  0.728800  0.732500  0.335200  1.0  0.0827
  H  H95  1  0.754200  0.064100  0.259100  1.0  0.0693
  H  H96  1  0.712000  0.037600  0.313900  1.0  0.0202
  H  H97  1  0.346200  0.343600  0.319400  1.0  0.0339
  H  H98  1  0.339500  0.203900  0.165500  1.0  0.0488
  H  H99  1  0.451100  0.919400  0.252100  1.0  0.0509
  H  H100  1  0.385300  0.142900  0.203700  1.0  -0.0088
  H  H101  1  0.475300  0.756400  0.277300  1.0  0.055
  H  H102  1  0.533100  0.905400  0.419900  1.0  0.0643
  H  H103  1  0.398200  0.281600  0.354200  1.0  0.0479
  H  H104  1  0.507700  0.058600  0.395200  1.0  0.0652
  H  H105  1  0.846200  0.156400  0.819400  1.0  0.0336
  H  H106  1  0.839500  0.296100  0.665500  1.0  0.0492
  H  H107  1  0.951100  0.580600  0.752100  1.0  0.0509
  H  H108  1  0.885300  0.357100  0.703700  1.0  -0.0093
  H  H109  1  0.975300  0.743600  0.777300  1.0  0.056
  H  H110  1  0.033100  0.594600  0.919900  1.0  0.0646
  H  H111  1  0.898200  0.218400  0.854200  1.0  0.0479
  H  H112  1  0.007700  0.441400  0.895200  1.0  0.0652
  H  H113  1  0.272000  0.755600  0.785200  1.0  0.0528
  H  H114  1  0.228800  0.767500  0.835200  1.0  0.0829
  H  H115  1  0.254200  0.435900  0.759100  1.0  0.0686
  H  H116  1  0.212000  0.462400  0.813900  1.0  0.0184
  H  H117  1  0.779500  0.125900  0.526800  1.0  0.0596
  H  H118  1  0.645200  0.688900  0.345800  1.0  0.019
  H  H119  1  0.597100  0.627300  0.339300  1.0  0.0371
  H  H120  1  0.753700  0.015600  0.440400  1.0  0.0248
  H  H121  1  0.636400  0.863400  0.474400  1.0  0.0528
  H  H122  1  0.757000  0.916600  0.638600  1.0  0.0865
  H  H123  1  0.521700  0.266600  0.310500  1.0  0.0209
  H  H124  1  0.545000  0.432000  0.329700  1.0  0.0483
  H  H125  1  0.484500  0.507700  0.425200  1.0  0.028
  H  H126  1  0.724300  0.833100  0.550000  1.0  0.0318
  H  H127  1  0.589200  0.789300  0.478400  1.0  0.0555
  H  H128  1  0.458800  0.344300  0.400600  1.0  0.0474
  H  H129  1  0.228000  0.744400  0.214800  1.0  0.0527
  H  H130  1  0.271200  0.732500  0.164800  1.0  0.0832
  H  H131  1  0.245800  0.064100  0.240900  1.0  0.0693
  H  H132  1  0.288000  0.037600  0.186100  1.0  0.0204
  H  H133  1  0.653800  0.343600  0.180600  1.0  0.0348
  H  H134  1  0.660500  0.203900  0.334500  1.0  0.049
  H  H135  1  0.548900  0.919400  0.247900  1.0  0.0515
  H  H136  1  0.614700  0.142900  0.296300  1.0  -0.0072
  H  H137  1  0.524700  0.756400  0.222700  1.0  0.0554
  H  H138  1  0.466900  0.905400  0.080100  1.0  0.0647
  H  H139  1  0.601800  0.281600  0.145800  1.0  0.0488
  H  H140  1  0.492300  0.058600  0.104800  1.0  0.0656
  H  H141  1  0.720500  0.374100  0.473200  1.0  0.0584
  H  H142  1  0.854800  0.811100  0.654200  1.0  0.0185
  H  H143  1  0.902900  0.872700  0.660700  1.0  0.038
  H  H144  1  0.746300  0.484400  0.559600  1.0  0.0239
  H  H145  1  0.863600  0.636600  0.525600  1.0  0.051
  H  H146  1  0.743000  0.583400  0.361400  1.0  0.0856
  H  H147  1  0.978300  0.233400  0.689500  1.0  0.0217
  H  H148  1  0.955000  0.068000  0.670300  1.0  0.0482
  H  H149  1  0.015500  0.992300  0.574800  1.0  0.0271
  H  H150  1  0.775700  0.666900  0.450000  1.0  0.0323
  H  H151  1  0.910800  0.710700  0.521600  1.0  0.0557
  H  H152  1  0.041200  0.155700  0.599400  1.0  0.0467
  H  H153  1  0.220500  0.125900  0.973200  1.0  0.0588
  H  H154  1  0.354800  0.688900  0.154200  1.0  0.0181
  H  H155  1  0.402900  0.627300  0.160700  1.0  0.0379
  H  H156  1  0.246300  0.015600  0.059600  1.0  0.0237
  H  H157  1  0.363600  0.863400  0.025600  1.0  0.0526
  H  H158  1  0.243000  0.916600  0.861400  1.0  0.086
  H  H159  1  0.478300  0.266600  0.189500  1.0  0.0216
  H  H160  1  0.455000  0.432000  0.170300  1.0  0.0481
  H  H161  1  0.515500  0.507700  0.074800  1.0  0.0279
  H  H162  1  0.275700  0.833100  0.950000  1.0  0.032
  H  H163  1  0.410800  0.789300  0.021600  1.0  0.0559
  H  H164  1  0.541200  0.344300  0.099400  1.0  0.0467
  H  H165  1  0.153800  0.156400  0.680600  1.0  0.0345
  H  H166  1  0.160500  0.296100  0.834500  1.0  0.0492
  H  H167  1  0.048900  0.580600  0.747900  1.0  0.0513
  H  H168  1  0.114700  0.357100  0.796300  1.0  -0.0079
  H  H169  1  0.024700  0.743600  0.722700  1.0  0.0553
  H  H170  1  0.966900  0.594600  0.580100  1.0  0.0644
  H  H171  1  0.101800  0.218400  0.645800  1.0  0.0485
  H  H172  1  0.992300  0.441400  0.604800  1.0  0.0655
  H  H173  1  0.728000  0.755600  0.714800  1.0  0.0525
  H  H174  1  0.771200  0.767500  0.664800  1.0  0.0827
  H  H175  1  0.745800  0.435900  0.740900  1.0  0.0689
  H  H176  1  0.788000  0.462400  0.686100  1.0  0.0202
  H  H177  1  0.779500  0.874100  0.026800  1.0  0.0588
  H  H178  1  0.645200  0.311100  0.845800  1.0  0.019
  H  H179  1  0.597100  0.372700  0.839300  1.0  0.0372
  H  H180  1  0.753700  0.984400  0.940400  1.0  0.0244
  H  H181  1  0.636400  0.136600  0.974400  1.0  0.0546
  H  H182  1  0.757000  0.083400  0.138600  1.0  0.0862
  H  H183  1  0.521700  0.733400  0.810500  1.0  0.0222
  H  H184  1  0.545000  0.568000  0.829700  1.0  0.0484
  H  H185  1  0.484500  0.492300  0.925200  1.0  0.0279
  H  H186  1  0.724300  0.166900  0.050000  1.0  0.0321
  H  H187  1  0.589200  0.210700  0.978400  1.0  0.0559
  H  H188  1  0.458800  0.655700  0.900600  1.0  0.0473
  H  H189  1  0.846200  0.843600  0.319400  1.0  0.0339
  H  H190  1  0.839500  0.703900  0.165500  1.0  0.0488
  H  H191  1  0.951100  0.419400  0.252100  1.0  0.0509
  H  H192  1  0.885300  0.642900  0.203700  1.0  -0.0088
  H  H193  1  0.975300  0.256400  0.277300  1.0  0.055
  H  H194  1  0.033100  0.405400  0.419900  1.0  0.0643
  H  H195  1  0.898200  0.781600  0.354200  1.0  0.0479
  H  H196  1  0.007700  0.558600  0.395200  1.0  0.0652
  H  H197  1  0.272000  0.244400  0.285200  1.0  0.0529
  H  H198  1  0.228800  0.232500  0.335200  1.0  0.0827
  H  H199  1  0.254200  0.564100  0.259100  1.0  0.0693
  H  H200  1  0.212000  0.537600  0.313900  1.0  0.0203
  H  H201  1  0.772000  0.255600  0.785200  1.0  0.0528
  H  H202  1  0.728800  0.267500  0.835200  1.0  0.0829
  H  H203  1  0.754200  0.935900  0.759100  1.0  0.0686
  H  H204  1  0.712000  0.962400  0.813900  1.0  0.0198
  H  H205  1  0.346200  0.656400  0.819400  1.0  0.0336
  H  H206  1  0.339500  0.796100  0.665500  1.0  0.0492
  H  H207  1  0.451100  0.080600  0.752100  1.0  0.0509
  H  H208  1  0.385300  0.857100  0.703700  1.0  -0.0093
  H  H209  1  0.475300  0.243600  0.777300  1.0  0.056
  H  H210  1  0.533100  0.094600  0.919900  1.0  0.0646
  H  H211  1  0.398200  0.718400  0.854200  1.0  0.0479
  H  H212  1  0.507700  0.941400  0.895200  1.0  0.0652
  H  H213  1  0.279500  0.625900  0.526800  1.0  0.0596
  H  H214  1  0.145200  0.188900  0.345800  1.0  0.019
  H  H215  1  0.097100  0.127300  0.339300  1.0  0.0371
  H  H216  1  0.253700  0.515600  0.440400  1.0  0.0248
  H  H217  1  0.136400  0.363400  0.474400  1.0  0.0528
  H  H218  1  0.257000  0.416600  0.638600  1.0  0.0862
  H  H219  1  0.021700  0.766600  0.310500  1.0  0.0221
  H  H220  1  0.045000  0.932000  0.329700  1.0  0.0483
  H  H221  1  0.984500  0.007700  0.425200  1.0  0.028
  H  H222  1  0.224300  0.333100  0.550000  1.0  0.0317
  H  H223  1  0.089200  0.289300  0.478400  1.0  0.0555
  H  H224  1  0.958800  0.844300  0.400600  1.0  0.0474
  C  C225  1  0.145500  0.803000  0.208100  1.0  0.0369
  C  C226  1  0.149700  0.725000  0.293900  1.0  0.0276
  C  C227  1  0.032000  0.417000  0.211700  1.0  0.1134
  C  C228  1  0.121600  0.694000  0.272000  1.0  0.0021
  C  C229  1  0.017300  0.314000  0.196500  1.0  0.0497
  C  C230  1  0.984700  0.404000  0.114400  1.0  0.0685
  C  C231  1  0.113600  0.768000  0.187000  1.0  0.0445
  C  C232  1  0.999400  0.499000  0.130000  1.0  0.0534
  C  C233  1  0.740100  0.304000  0.210400  1.0  -0.0462
  C  C234  1  0.764800  0.297000  0.177800  1.0  0.0857
  C  C235  1  0.750100  0.497000  0.226600  1.0  0.0926
  C  C236  1  0.775100  0.480000  0.190200  1.0  0.1474
  C  C237  1  0.229700  0.938000  0.465900  1.0  0.0489
  C  C238  1  0.365200  0.285000  0.625100  1.0  0.0994
  C  C239  1  0.395200  0.319000  0.631200  1.0  0.1072
  C  C240  1  0.247200  0.003000  0.518900  1.0  0.112
  C  C241  1  0.370800  0.193000  0.553400  1.0  -0.0252
  C  C242  1  0.243700  0.057000  0.401000  1.0  0.0619
  C  C243  1  0.487900  0.684000  0.669100  1.0  0.1132
  C  C244  1  0.473200  0.583000  0.656800  1.0  0.0437
  C  C245  1  0.508700  0.538000  0.602000  1.0  0.0889
  C  C246  1  0.263000  0.110000  0.455800  1.0  0.0916
  C  C247  1  0.401200  0.228000  0.554000  1.0  0.0769
  C  C248  1  0.524200  0.639000  0.616000  1.0  0.0439
  C  C249  1  0.729700  0.562000  0.965900  1.0  0.0505
  C  C250  1  0.865200  0.215000  0.125100  1.0  0.1001
  C  C251  1  0.895200  0.181000  0.131200  1.0  0.108
  C  C252  1  0.747200  0.497000  0.018900  1.0  0.1112
  C  C253  1  0.870800  0.307000  0.053400  1.0  -0.0246
  C  C254  1  0.743700  0.443000  0.901000  1.0  0.0628
  C  C255  1  0.987900  0.816000  0.169100  1.0  0.1135
  C  C256  1  0.973200  0.917000  0.156800  1.0  0.0434
  C  C257  1  0.008700  0.962000  0.102000  1.0  0.0902
  C  C258  1  0.763000  0.390000  0.955800  1.0  0.0919
  C  C259  1  0.901200  0.272000  0.054000  1.0  0.0775
  C  C260  1  0.024200  0.861000  0.116000  1.0  0.0441
  C  C261  1  0.240100  0.196000  0.710400  1.0  -0.047
  C  C262  1  0.264800  0.203000  0.677800  1.0  0.086
  C  C263  1  0.250100  0.003000  0.726600  1.0  0.0932
  C  C264  1  0.275100  0.020000  0.690200  1.0  0.1474
  C  C265  1  0.645500  0.697000  0.708100  1.0  0.0363
  C  C266  1  0.649700  0.775000  0.793900  1.0  0.0274
  C  C267  1  0.532000  0.083000  0.711700  1.0  0.1129
  C  C268  1  0.621600  0.806000  0.772000  1.0  -1e-04
  C  C269  1  0.517300  0.186000  0.696500  1.0  0.0489
  C  C270  1  0.484700  0.096000  0.614400  1.0  0.0691
  C  C271  1  0.613600  0.732000  0.687000  1.0  0.0439
  C  C272  1  0.499400  0.001000  0.630000  1.0  0.055
  C  C273  1  0.270300  0.438000  0.034100  1.0  0.0477
  C  C274  1  0.134800  0.785000  0.874900  1.0  0.1011
  C  C275  1  0.104800  0.819000  0.868800  1.0  0.107
  C  C276  1  0.252800  0.503000  0.981100  1.0  0.1107
  C  C277  1  0.129200  0.693000  0.946600  1.0  -0.0246
  C  C278  1  0.256300  0.557000  0.099000  1.0  0.0614
  C  C279  1  0.012100  0.184000  0.830900  1.0  0.1137
  C  C280  1  0.026800  0.083000  0.843200  1.0  0.0444
  C  C281  1  0.991300  0.038000  0.898000  1.0  0.0898
  C  C282  1  0.237000  0.610000  0.044200  1.0  0.091
  C  C283  1  0.098800  0.728000  0.946000  1.0  0.0748
  C  C284  1  0.975800  0.139000  0.884000  1.0  0.0442
  C  C285  1  0.759900  0.804000  0.289600  1.0  -0.0472
  C  C286  1  0.735200  0.797000  0.322200  1.0  0.0842
  C  C287  1  0.749900  0.997000  0.273400  1.0  0.0925
  C  C288  1  0.724900  0.980000  0.309800  1.0  0.1491
  C  C289  1  0.354500  0.303000  0.291900  1.0  0.0349
  C  C290  1  0.350300  0.225000  0.206100  1.0  0.0258
  C  C291  1  0.468000  0.917000  0.288300  1.0  0.1126
  C  C292  1  0.378400  0.194000  0.228000  1.0  0.0012
  C  C293  1  0.482700  0.814000  0.303500  1.0  0.0491
  C  C294  1  0.515300  0.904000  0.385600  1.0  0.0685
  C  C295  1  0.386400  0.268000  0.313000  1.0  0.0442
  C  C296  1  0.500600  0.999000  0.370000  1.0  0.0532
  C  C297  1  0.854500  0.197000  0.791900  1.0  0.0353
  C  C298  1  0.850300  0.275000  0.706100  1.0  0.0261
  C  C299  1  0.968000  0.583000  0.788300  1.0  0.1128
  C  C300  1  0.878400  0.306000  0.728000  1.0  -0.0003
  C  C301  1  0.982700  0.686000  0.803500  1.0  0.0495
  C  C302  1  0.015300  0.596000  0.885600  1.0  0.069
  C  C303  1  0.886400  0.232000  0.813000  1.0  0.0435
  C  C304  1  0.000600  0.501000  0.870000  1.0  0.0555
  C  C305  1  0.259900  0.696000  0.789600  1.0  -0.0487
  C  C306  1  0.235200  0.703000  0.822200  1.0  0.0853
  C  C307  1  0.249900  0.503000  0.773400  1.0  0.0933
  C  C308  1  0.224900  0.520000  0.809800  1.0  0.1496
  C  C309  1  0.770300  0.062000  0.534100  1.0  0.0503
  C  C310  1  0.634800  0.715000  0.374900  1.0  0.1019
  C  C311  1  0.604800  0.681000  0.368800  1.0  0.107
  C  C312  1  0.752800  0.997000  0.481100  1.0  0.1112
  C  C313  1  0.629200  0.807000  0.446600  1.0  -0.0233
  C  C314  1  0.756300  0.943000  0.599000  1.0  0.062
  C  C315  1  0.512100  0.316000  0.330900  1.0  0.1134
  C  C316  1  0.526800  0.417000  0.343200  1.0  0.0442
  C  C317  1  0.491300  0.462000  0.398000  1.0  0.0886
  C  C318  1  0.737000  0.890000  0.544200  1.0  0.0916
  C  C319  1  0.598800  0.772000  0.446000  1.0  0.0752
  C  C320  1  0.475800  0.361000  0.384000  1.0  0.0446
  C  C321  1  0.240100  0.804000  0.210400  1.0  -0.0462
  C  C322  1  0.264800  0.797000  0.177800  1.0  0.0857
  C  C323  1  0.250100  0.997000  0.226600  1.0  0.0924
  C  C324  1  0.275100  0.980000  0.190200  1.0  0.1474
  C  C325  1  0.645500  0.303000  0.208100  1.0  0.0369
  C  C326  1  0.649700  0.225000  0.293900  1.0  0.0276
  C  C327  1  0.532000  0.917000  0.211700  1.0  0.1134
  C  C328  1  0.621600  0.194000  0.272000  1.0  0.0021
  C  C329  1  0.517300  0.814000  0.196500  1.0  0.0497
  C  C330  1  0.484700  0.904000  0.114400  1.0  0.0685
  C  C331  1  0.613600  0.268000  0.187000  1.0  0.0445
  C  C332  1  0.499400  0.999000  0.130000  1.0  0.0534
  C  C333  1  0.729700  0.438000  0.465900  1.0  0.0489
  C  C334  1  0.865200  0.785000  0.625100  1.0  0.0994
  C  C335  1  0.895200  0.819000  0.631200  1.0  0.1072
  C  C336  1  0.747200  0.503000  0.518900  1.0  0.112
  C  C337  1  0.870800  0.693000  0.553400  1.0  -0.0252
  C  C338  1  0.743700  0.557000  0.401000  1.0  0.0619
  C  C339  1  0.987900  0.184000  0.669100  1.0  0.1132
  C  C340  1  0.973200  0.083000  0.656800  1.0  0.0437
  C  C341  1  0.008700  0.038000  0.602000  1.0  0.0889
  C  C342  1  0.763000  0.610000  0.455800  1.0  0.0916
  C  C343  1  0.901200  0.728000  0.554000  1.0  0.0769
  C  C344  1  0.024200  0.139000  0.616000  1.0  0.0439
  C  C345  1  0.229700  0.062000  0.965900  1.0  0.0505
  C  C346  1  0.365200  0.715000  0.125100  1.0  0.1001
  C  C347  1  0.395200  0.681000  0.131200  1.0  0.108
  C  C348  1  0.247200  0.997000  0.018900  1.0  0.1112
  C  C349  1  0.370800  0.807000  0.053400  1.0  -0.0246
  C  C350  1  0.243700  0.943000  0.901000  1.0  0.0628
  C  C351  1  0.487900  0.316000  0.169100  1.0  0.1135
  C  C352  1  0.473200  0.417000  0.156800  1.0  0.0434
  C  C353  1  0.508700  0.462000  0.102000  1.0  0.0902
  C  C354  1  0.263000  0.890000  0.955800  1.0  0.0919
  C  C355  1  0.401200  0.772000  0.054000  1.0  0.0775
  C  C356  1  0.524200  0.361000  0.116000  1.0  0.0441
  C  C357  1  0.145500  0.197000  0.708100  1.0  0.0363
  C  C358  1  0.149700  0.275000  0.793900  1.0  0.0274
  C  C359  1  0.032000  0.583000  0.711700  1.0  0.1129
  C  C360  1  0.121600  0.306000  0.772000  1.0  -1e-04
  C  C361  1  0.017300  0.686000  0.696500  1.0  0.0489
  C  C362  1  0.984700  0.596000  0.614400  1.0  0.0691
  C  C363  1  0.113600  0.232000  0.687000  1.0  0.0439
  C  C364  1  0.999400  0.501000  0.630000  1.0  0.055
  C  C365  1  0.740100  0.696000  0.710400  1.0  -0.047
  C  C366  1  0.764800  0.703000  0.677800  1.0  0.086
  C  C367  1  0.750100  0.503000  0.726600  1.0  0.0931
  C  C368  1  0.775100  0.520000  0.690200  1.0  0.1474
  C  C369  1  0.770300  0.938000  0.034100  1.0  0.0477
  C  C370  1  0.634800  0.285000  0.874900  1.0  0.1011
  C  C371  1  0.604800  0.319000  0.868800  1.0  0.107
  C  C372  1  0.752800  0.003000  0.981100  1.0  0.1107
  C  C373  1  0.629200  0.193000  0.946600  1.0  -0.0246
  C  C374  1  0.756300  0.057000  0.099000  1.0  0.0614
  C  C375  1  0.512100  0.684000  0.830900  1.0  0.1137
  C  C376  1  0.526800  0.583000  0.843200  1.0  0.0444
  C  C377  1  0.491300  0.538000  0.898000  1.0  0.0898
  C  C378  1  0.737000  0.110000  0.044200  1.0  0.091
  C  C379  1  0.598800  0.228000  0.946000  1.0  0.0748
  C  C380  1  0.475800  0.639000  0.884000  1.0  0.0442
  C  C381  1  0.854500  0.803000  0.291900  1.0  0.0349
  C  C382  1  0.850300  0.725000  0.206100  1.0  0.0258
  C  C383  1  0.968000  0.417000  0.288300  1.0  0.1126
  C  C384  1  0.878400  0.694000  0.228000  1.0  0.0012
  C  C385  1  0.982700  0.314000  0.303500  1.0  0.0491
  C  C386  1  0.015300  0.404000  0.385600  1.0  0.0685
  C  C387  1  0.886400  0.768000  0.313000  1.0  0.0442
  C  C388  1  0.000600  0.499000  0.370000  1.0  0.0532
  C  C389  1  0.259900  0.304000  0.289600  1.0  -0.0472
  C  C390  1  0.235200  0.297000  0.322200  1.0  0.0842
  C  C391  1  0.249900  0.497000  0.273400  1.0  0.0922
  C  C392  1  0.224900  0.480000  0.309800  1.0  0.1491
  C  C393  1  0.759900  0.196000  0.789600  1.0  -0.0487
  C  C394  1  0.735200  0.203000  0.822200  1.0  0.0853
  C  C395  1  0.749900  0.003000  0.773400  1.0  0.0931
  C  C396  1  0.724900  0.020000  0.809800  1.0  0.1496
  C  C397  1  0.354500  0.697000  0.791900  1.0  0.0353
  C  C398  1  0.350300  0.775000  0.706100  1.0  0.0261
  C  C399  1  0.468000  0.083000  0.788300  1.0  0.1128
  C  C400  1  0.378400  0.806000  0.728000  1.0  -0.0003
  C  C401  1  0.482700  0.186000  0.803500  1.0  0.0495
  C  C402  1  0.515300  0.096000  0.885600  1.0  0.069
  C  C403  1  0.386400  0.732000  0.813000  1.0  0.0435
  C  C404  1  0.500600  0.001000  0.870000  1.0  0.0555
  C  C405  1  0.270300  0.562000  0.534100  1.0  0.0503
  C  C406  1  0.134800  0.215000  0.374900  1.0  0.1019
  C  C407  1  0.104800  0.181000  0.368800  1.0  0.107
  C  C408  1  0.252800  0.497000  0.481100  1.0  0.1112
  C  C409  1  0.129200  0.307000  0.446600  1.0  -0.0233
  C  C410  1  0.256300  0.443000  0.599000  1.0  0.062
  C  C411  1  0.012100  0.816000  0.330900  1.0  0.1134
  C  C412  1  0.026800  0.917000  0.343200  1.0  0.0442
  C  C413  1  0.991300  0.962000  0.398000  1.0  0.0886
  C  C414  1  0.237000  0.390000  0.544200  1.0  0.0916
  C  C415  1  0.098800  0.272000  0.446000  1.0  0.0752
  C  C416  1  0.975800  0.861000  0.384000  1.0  0.0446
  N  N417  1  0.163500  0.782000  0.263600  1.0  -0.1717
  N  N418  1  0.101800  0.720000  0.223400  1.0  -0.0987
  N  N419  1  0.025000  0.507000  0.181700  1.0  -0.3684
  N  N420  1  0.992700  0.302000  0.143900  1.0  -0.3746
  N  N421  1  0.734800  0.409000  0.236700  1.0  -0.3632
  N  N422  1  0.779100  0.396000  0.166200  1.0  -0.352
  N  N423  1  0.263400  0.082000  0.511600  1.0  -0.2393
  N  N424  1  0.350200  0.223000  0.584900  1.0  -0.1975
  N  N425  1  0.414300  0.283000  0.598200  1.0  -0.1816
  N  N426  1  0.226900  0.971000  0.406000  1.0  -0.3795
  N  N427  1  0.485400  0.506000  0.625300  1.0  -0.3698
  N  N428  1  0.514200  0.714000  0.654100  1.0  -0.3704
  N  N429  1  0.763400  0.418000  0.011600  1.0  -0.2387
  N  N430  1  0.850200  0.277000  0.084900  1.0  -0.1961
  N  N431  1  0.914300  0.217000  0.098200  1.0  -0.1799
  N  N432  1  0.726900  0.529000  0.906000  1.0  -0.3782
  N  N433  1  0.985400  0.994000  0.125300  1.0  -0.3694
  N  N434  1  0.014200  0.786000  0.154100  1.0  -0.3684
  N  N435  1  0.234800  0.091000  0.736700  1.0  -0.3631
  N  N436  1  0.279100  0.104000  0.666200  1.0  -0.3519
  N  N437  1  0.663500  0.718000  0.763600  1.0  -0.1709
  N  N438  1  0.601800  0.780000  0.723400  1.0  -0.0983
  N  N439  1  0.525000  0.993000  0.681700  1.0  -0.3652
  N  N440  1  0.492700  0.198000  0.643900  1.0  -0.3767
  N  N441  1  0.236600  0.582000  0.988400  1.0  -0.2376
  N  N442  1  0.149800  0.723000  0.915100  1.0  -0.1873
  N  N443  1  0.085700  0.783000  0.901800  1.0  -0.1752
  N  N444  1  0.273100  0.471000  0.094000  1.0  -0.3799
  N  N445  1  0.014600  0.006000  0.874700  1.0  -0.3687
  N  N446  1  0.985800  0.214000  0.845900  1.0  -0.3696
  N  N447  1  0.765200  0.909000  0.263300  1.0  -0.3636
  N  N448  1  0.720900  0.896000  0.333800  1.0  -0.3511
  N  N449  1  0.336500  0.282000  0.236400  1.0  -0.1664
  N  N450  1  0.398200  0.220000  0.276600  1.0  -0.0973
  N  N451  1  0.475000  0.007000  0.318300  1.0  -0.3664
  N  N452  1  0.507300  0.802000  0.356100  1.0  -0.372
  N  N453  1  0.836500  0.218000  0.736400  1.0  -0.1682
  N  N454  1  0.898200  0.280000  0.776600  1.0  -0.0977
  N  N455  1  0.975000  0.493000  0.818300  1.0  -0.3657
  N  N456  1  0.007300  0.698000  0.856100  1.0  -0.3744
  N  N457  1  0.265200  0.591000  0.763300  1.0  -0.3633
  N  N458  1  0.220900  0.604000  0.833800  1.0  -0.3513
  N  N459  1  0.736600  0.918000  0.488400  1.0  -0.2391
  N  N460  1  0.649800  0.777000  0.415100  1.0  -0.1872
  N  N461  1  0.585700  0.717000  0.401800  1.0  -0.1757
  N  N462  1  0.773100  0.029000  0.594000  1.0  -0.3808
  N  N463  1  0.514600  0.494000  0.374700  1.0  -0.3694
  N  N464  1  0.485800  0.286000  0.345900  1.0  -0.3683
  N  N465  1  0.234800  0.909000  0.236700  1.0  -0.3632
  N  N466  1  0.279100  0.896000  0.166200  1.0  -0.352
  N  N467  1  0.663500  0.282000  0.263600  1.0  -0.1717
  N  N468  1  0.601800  0.220000  0.223400  1.0  -0.0987
  N  N469  1  0.525000  0.007000  0.181700  1.0  -0.3684
  N  N470  1  0.492700  0.802000  0.143900  1.0  -0.3746
  N  N471  1  0.763400  0.582000  0.511600  1.0  -0.2393
  N  N472  1  0.850200  0.723000  0.584900  1.0  -0.1975
  N  N473  1  0.914300  0.783000  0.598200  1.0  -0.1816
  N  N474  1  0.726900  0.471000  0.406000  1.0  -0.3795
  N  N475  1  0.985400  0.006000  0.625300  1.0  -0.3698
  N  N476  1  0.014200  0.214000  0.654100  1.0  -0.3704
  N  N477  1  0.263400  0.918000  0.011600  1.0  -0.2387
  N  N478  1  0.350200  0.777000  0.084900  1.0  -0.1961
  N  N479  1  0.414300  0.717000  0.098200  1.0  -0.1799
  N  N480  1  0.226900  0.029000  0.906000  1.0  -0.3782
  N  N481  1  0.485400  0.494000  0.125300  1.0  -0.3694
  N  N482  1  0.514200  0.286000  0.154100  1.0  -0.3684
  N  N483  1  0.163500  0.218000  0.763600  1.0  -0.1709
  N  N484  1  0.101800  0.280000  0.723400  1.0  -0.0983
  N  N485  1  0.025000  0.493000  0.681700  1.0  -0.3652
  N  N486  1  0.992700  0.698000  0.643900  1.0  -0.3767
  N  N487  1  0.734800  0.591000  0.736700  1.0  -0.3631
  N  N488  1  0.779100  0.604000  0.666200  1.0  -0.3519
  N  N489  1  0.736600  0.082000  0.988400  1.0  -0.2376
  N  N490  1  0.649800  0.223000  0.915100  1.0  -0.1873
  N  N491  1  0.585700  0.283000  0.901800  1.0  -0.1752
  N  N492  1  0.773100  0.971000  0.094000  1.0  -0.3799
  N  N493  1  0.514600  0.506000  0.874700  1.0  -0.3687
  N  N494  1  0.485800  0.714000  0.845900  1.0  -0.3696
  N  N495  1  0.836500  0.782000  0.236400  1.0  -0.1664
  N  N496  1  0.898200  0.720000  0.276600  1.0  -0.0973
  N  N497  1  0.975000  0.507000  0.318300  1.0  -0.3664
  N  N498  1  0.007300  0.302000  0.356100  1.0  -0.372
  N  N499  1  0.265200  0.409000  0.263300  1.0  -0.3636
  N  N500  1  0.220900  0.396000  0.333800  1.0  -0.3511
  N  N501  1  0.765200  0.091000  0.763300  1.0  -0.3633
  N  N502  1  0.720900  0.104000  0.833800  1.0  -0.3513
  N  N503  1  0.336500  0.718000  0.736400  1.0  -0.1682
  N  N504  1  0.398200  0.780000  0.776600  1.0  -0.0977
  N  N505  1  0.475000  0.993000  0.818300  1.0  -0.3657
  N  N506  1  0.507300  0.198000  0.856100  1.0  -0.3744
  N  N507  1  0.236600  0.418000  0.488400  1.0  -0.2391
  N  N508  1  0.149800  0.277000  0.415100  1.0  -0.1872
  N  N509  1  0.085700  0.217000  0.401800  1.0  -0.1757
  N  N510  1  0.273100  0.529000  0.594000  1.0  -0.3808
  N  N511  1  0.014600  0.994000  0.374700  1.0  -0.3694
  N  N512  1  0.985800  0.786000  0.345900  1.0  -0.3683
