# generated using pymatgen
data_ZnH11C19NO4
_symmetry_space_group_name_H-M   'P 1'
_cell_length_a   15.36450000
_cell_length_b   15.12750000
_cell_length_c   8.31100000
_cell_angle_alpha   90.00000000
_cell_angle_beta   91.85000000
_cell_angle_gamma   90.00000000
_symmetry_Int_Tables_number   1
_chemical_formula_structural   ZnH11C19NO4
_chemical_formula_sum   'Zn4 H44 C76 N4 O16'
_cell_volume   1930.68956275
_cell_formula_units_Z   4
loop_
 _symmetry_equiv_pos_site_id
 _symmetry_equiv_pos_as_xyz
  1  'x, y, z'
loop_
 _atom_site_type_symbol
 _atom_site_label
 _atom_site_symmetry_multiplicity
 _atom_site_fract_x
 _atom_site_fract_y
 _atom_site_fract_z
 _atom_site_occupancy
 _atom_site_charge
  Zn  Zn1  1  0.254100  0.267280  0.012960  1.0  0.9127
  Zn  Zn2  1  0.745900  0.767280  0.487040  1.0  0.9126
  Zn  Zn3  1  0.745900  0.732720  0.987040  1.0  0.9119
  Zn  Zn4  1  0.254100  0.232720  0.512960  1.0  0.9119
  H  H5  1  0.365400  0.116800  0.907500  1.0  0.0812
  H  H6  1  0.246900  0.886900  0.993900  1.0  0.1068
  H  H7  1  0.141200  0.118000  0.116500  1.0  0.0966
  H  H8  1  0.431700  0.038900  0.714900  1.0  0.115
  H  H9  1  0.551000  0.964100  0.621400  1.0  0.0953
  H  H10  1  0.508800  0.765100  0.928200  1.0  0.0914
  H  H11  1  0.387800  0.838000  0.019300  1.0  0.1069
  H  H12  1  0.067400  0.035800  0.292000  1.0  0.112
  H  H13  1  0.945500  0.961200  0.375000  1.0  0.0975
  H  H14  1  0.983100  0.772800  0.045000  1.0  0.0904
  H  H15  1  0.104600  0.846700  0.959500  1.0  0.1095
  H  H16  1  0.634600  0.616800  0.592500  1.0  0.0811
  H  H17  1  0.753100  0.386900  0.506100  1.0  0.1069
  H  H18  1  0.858800  0.618000  0.383500  1.0  0.0962
  H  H19  1  0.568300  0.538900  0.785100  1.0  0.1153
  H  H20  1  0.449000  0.464100  0.878600  1.0  0.0945
  H  H21  1  0.491200  0.265100  0.571800  1.0  0.0916
  H  H22  1  0.612200  0.338000  0.480700  1.0  0.1061
  H  H23  1  0.932600  0.535800  0.208000  1.0  0.1117
  H  H24  1  0.054500  0.461200  0.125000  1.0  0.0979
  H  H25  1  0.016900  0.272800  0.455000  1.0  0.0902
  H  H26  1  0.895400  0.346700  0.540500  1.0  0.1099
  H  H27  1  0.634600  0.883200  0.092500  1.0  0.0811
  H  H28  1  0.753100  0.113100  0.006100  1.0  0.1065
  H  H29  1  0.858800  0.882000  0.883500  1.0  0.0965
  H  H30  1  0.568300  0.961100  0.285100  1.0  0.1145
  H  H31  1  0.449000  0.035900  0.378600  1.0  0.0948
  H  H32  1  0.491200  0.234900  0.071800  1.0  0.0916
  H  H33  1  0.612200  0.162000  0.980700  1.0  0.1061
  H  H34  1  0.932600  0.964200  0.708000  1.0  0.1103
  H  H35  1  0.054500  0.038800  0.625000  1.0  0.0979
  H  H36  1  0.016900  0.227200  0.955000  1.0  0.09
  H  H37  1  0.895400  0.153300  0.040500  1.0  0.1097
  H  H38  1  0.365400  0.383200  0.407500  1.0  0.081
  H  H39  1  0.246900  0.613100  0.493900  1.0  0.1063
  H  H40  1  0.141200  0.382000  0.616500  1.0  0.0966
  H  H41  1  0.431700  0.461100  0.214900  1.0  0.1141
  H  H42  1  0.551000  0.535900  0.121400  1.0  0.0954
  H  H43  1  0.508800  0.734900  0.428200  1.0  0.0911
  H  H44  1  0.387800  0.662000  0.519300  1.0  0.1069
  H  H45  1  0.067400  0.464200  0.792000  1.0  0.1113
  H  H46  1  0.945500  0.538800  0.875000  1.0  0.0977
  H  H47  1  0.983100  0.727200  0.545000  1.0  0.0904
  H  H48  1  0.104600  0.653300  0.459500  1.0  0.1091
  C  C49  1  0.318910  0.085660  0.948500  1.0  0.1549
  C  C50  1  0.320460  0.993690  0.941800  1.0  0.0286
  C  C51  1  0.248560  0.948270  0.998600  1.0  -0.0929
  C  C52  1  0.179200  0.994660  0.062400  1.0  0.0296
  C  C53  1  0.185640  0.086430  0.069600  1.0  0.1574
  C  C54  1  0.397080  0.946690  0.878900  1.0  0.0343
  C  C55  1  0.446770  0.984020  0.757800  1.0  -0.1378
  C  C56  1  0.518500  0.939010  0.702100  1.0  -0.0187
  C  C57  1  0.542620  0.857110  0.764500  1.0  -0.1759
  C  C58  1  0.493210  0.819800  0.884900  1.0  -0.0253
  C  C59  1  0.420890  0.863910  0.940200  1.0  -0.1132
  C  C60  1  0.622200  0.809320  0.709100  1.0  0.6813
  C  C61  1  0.099820  0.948910  0.117300  1.0  0.0323
  C  C62  1  0.050870  0.983050  0.242300  1.0  -0.1123
  C  C63  1  0.977690  0.938190  0.291900  1.0  -0.0171
  C  C64  1  0.951660  0.859210  0.219100  1.0  -0.1613
  C  C65  1  0.999980  0.825490  0.094500  1.0  -0.0147
  C  C66  1  0.073090  0.869730  0.043400  1.0  -0.1203
  C  C67  1  0.871290  0.811020  0.270400  1.0  0.6771
  C  C68  1  0.681090  0.585660  0.551500  1.0  0.1555
  C  C69  1  0.679540  0.493690  0.558200  1.0  0.0288
  C  C70  1  0.751440  0.448270  0.501400  1.0  -0.093
  C  C71  1  0.820800  0.494660  0.437600  1.0  0.0284
  C  C72  1  0.814360  0.586430  0.430400  1.0  0.1566
  C  C73  1  0.602920  0.446690  0.621100  1.0  0.034
  C  C74  1  0.553230  0.484020  0.742200  1.0  -0.1361
  C  C75  1  0.481500  0.439010  0.797900  1.0  -0.0171
  C  C76  1  0.457380  0.357110  0.735500  1.0  -0.1736
  C  C77  1  0.506790  0.319800  0.615100  1.0  -0.0228
  C  C78  1  0.579110  0.363910  0.559800  1.0  -0.1132
  C  C79  1  0.377800  0.309320  0.790900  1.0  0.6819
  C  C80  1  0.900180  0.448910  0.382700  1.0  0.032
  C  C81  1  0.949130  0.483050  0.257700  1.0  -0.1142
  C  C82  1  0.022310  0.438190  0.208100  1.0  -0.0181
  C  C83  1  0.048340  0.359210  0.280900  1.0  -0.1641
  C  C84  1  0.000020  0.325490  0.405500  1.0  -0.018
  C  C85  1  0.926910  0.369730  0.456600  1.0  -0.1202
  C  C86  1  0.128710  0.311020  0.229600  1.0  0.6766
  C  C87  1  0.681090  0.914340  0.051500  1.0  0.1549
  C  C88  1  0.679540  0.006310  0.058200  1.0  0.0285
  C  C89  1  0.751440  0.051730  0.001400  1.0  -0.0944
  C  C90  1  0.820800  0.005340  0.937600  1.0  0.0287
  C  C91  1  0.814360  0.913570  0.930400  1.0  0.156
  C  C92  1  0.602920  0.053310  0.121100  1.0  0.0344
  C  C93  1  0.553230  0.015980  0.242200  1.0  -0.1354
  C  C94  1  0.481500  0.060990  0.297900  1.0  -0.0167
  C  C95  1  0.457380  0.142890  0.235500  1.0  -0.1741
  C  C96  1  0.506790  0.180200  0.115100  1.0  -0.0237
  C  C97  1  0.579110  0.136090  0.059800  1.0  -0.113
  C  C98  1  0.377800  0.190680  0.290900  1.0  0.6819
  C  C99  1  0.900180  0.051090  0.882700  1.0  0.0322
  C  C100  1  0.949130  0.016950  0.757700  1.0  -0.1134
  C  C101  1  0.022310  0.061810  0.708100  1.0  -0.0176
  C  C102  1  0.048340  0.140790  0.780900  1.0  -0.1626
  C  C103  1  0.000020  0.174510  0.905500  1.0  -0.0169
  C  C104  1  0.926910  0.130270  0.956600  1.0  -0.1202
  C  C105  1  0.128710  0.188980  0.729600  1.0  0.6768
  C  C106  1  0.318910  0.414340  0.448500  1.0  0.1546
  C  C107  1  0.320460  0.506310  0.441800  1.0  0.0285
  C  C108  1  0.248560  0.551730  0.498600  1.0  -0.0942
  C  C109  1  0.179200  0.505340  0.562400  1.0  0.0288
  C  C110  1  0.185640  0.413570  0.569600  1.0  0.1566
  C  C111  1  0.397080  0.553310  0.378900  1.0  0.0346
  C  C112  1  0.446770  0.515980  0.257800  1.0  -0.1366
  C  C113  1  0.518500  0.560990  0.202100  1.0  -0.0181
  C  C114  1  0.542620  0.642890  0.264500  1.0  -0.1748
  C  C115  1  0.493210  0.680200  0.384900  1.0  -0.0249
  C  C116  1  0.420890  0.636090  0.440200  1.0  -0.1137
  C  C117  1  0.622200  0.690680  0.209100  1.0  0.6815
  C  C118  1  0.099820  0.551090  0.617300  1.0  0.0325
  C  C119  1  0.050870  0.516950  0.742300  1.0  -0.1123
  C  C120  1  0.977690  0.561810  0.791900  1.0  -0.0167
  C  C121  1  0.951660  0.640790  0.719100  1.0  -0.162
  C  C122  1  0.999980  0.674510  0.594500  1.0  -0.015
  C  C123  1  0.073090  0.630270  0.543400  1.0  -0.1204
  C  C124  1  0.871290  0.688980  0.770400  1.0  0.677
  N  N125  1  0.253310  0.131390  0.011610  1.0  -0.3286
  N  N126  1  0.746690  0.631390  0.488390  1.0  -0.3284
  N  N127  1  0.746690  0.868610  0.988390  1.0  -0.3254
  N  N128  1  0.253310  0.368610  0.511610  1.0  -0.3255
  O  O129  1  0.832270  0.842310  0.388900  1.0  -0.6
  O  O130  1  0.847790  0.742590  0.194900  1.0  -0.6544
  O  O131  1  0.659940  0.841460  0.589700  1.0  -0.5822
  O  O132  1  0.646500  0.740450  0.782200  1.0  -0.6551
  O  O133  1  0.167730  0.342310  0.111100  1.0  -0.6011
  O  O134  1  0.152210  0.242590  0.305100  1.0  -0.6542
  O  O135  1  0.340060  0.341460  0.910300  1.0  -0.581
  O  O136  1  0.353500  0.240450  0.717800  1.0  -0.6557
  O  O137  1  0.167730  0.157690  0.611100  1.0  -0.6001
  O  O138  1  0.152210  0.257410  0.805100  1.0  -0.6549
  O  O139  1  0.340060  0.158540  0.410300  1.0  -0.58
  O  O140  1  0.353500  0.259550  0.217800  1.0  -0.6557
  O  O141  1  0.832270  0.657690  0.888900  1.0  -0.5989
  O  O142  1  0.847790  0.757410  0.694900  1.0  -0.6542
  O  O143  1  0.659940  0.658540  0.089700  1.0  -0.5809
  O  O144  1  0.646500  0.759550  0.282200  1.0  -0.6557
