# generated using pymatgen
data_Ni3H46C70(N4O7)2
_symmetry_space_group_name_H-M   'P 1'
_cell_length_a   9.33590000
_cell_length_b   11.26840000
_cell_length_c   18.85080000
_cell_angle_alpha   79.41500000
_cell_angle_beta   79.41400000
_cell_angle_gamma   66.27000000
_symmetry_Int_Tables_number   1
_chemical_formula_structural   Ni3H46C70(N4O7)2
_chemical_formula_sum   'Ni3 H46 C70 N8 O14'
_cell_volume   1771.22418599
_cell_formula_units_Z   1
loop_
 _symmetry_equiv_pos_site_id
 _symmetry_equiv_pos_as_xyz
  1  'x, y, z'
loop_
 _atom_site_type_symbol
 _atom_site_label
 _atom_site_symmetry_multiplicity
 _atom_site_fract_x
 _atom_site_fract_y
 _atom_site_fract_z
 _atom_site_occupancy
 _atom_site_charge
  Ni  Ni1  1  0.393830  0.687330  0.783610  1.0  0.5156
  Ni  Ni2  1  0.606170  0.312670  0.216390  1.0  0.5129
  Ni  Ni3  1  0.000000  0.500000  0.500000  1.0  0.5534
  H  H4  1  0.773500  0.370500  0.496900  1.0  0.0794
  H  H5  1  0.225100  0.221600  0.496400  1.0  0.0843
  H  H6  1  0.766800  0.169300  0.499300  1.0  0.1273
  H  H7  1  0.232900  0.016500  0.496700  1.0  0.1264
  H  H8  1  0.906200  0.644500  0.214400  1.0  0.1111
  H  H9  1  0.421900  0.929900  0.306100  1.0  0.1158
  H  H10  1  0.513300  0.957100  0.182900  1.0  0.1188
  H  H11  1  0.547800  0.754000  0.107600  1.0  0.1153
  H  H12  1  0.863700  0.890300  0.988600  1.0  0.1219
  H  H13  1  0.472600  0.733800  0.000700  1.0  0.0972
  H  H14  1  0.791500  0.866600  0.883400  1.0  0.0991
  H  H15  1  0.531000  0.447000  0.699600  1.0  0.0787
  H  H16  1  0.642100  0.488000  0.878500  1.0  0.0718
  H  H17  1  0.133700  0.584000  0.799000  1.0  0.0886
  H  H18  1  0.338400  0.621600  0.948800  1.0  0.0813
  H  H19  1  0.737100  0.251400  0.692800  1.0  0.1215
  H  H20  1  0.845000  0.289500  0.879600  1.0  0.1177
  H  H21  1  0.967100  0.512800  0.883700  1.0  0.1201
  H  H22  1  0.181800  0.546400  0.037600  1.0  0.1124
  H  H23  1  0.010300  0.121600  0.675200  1.0  0.1224
  H  H24  1  0.953600  0.066400  0.892700  1.0  0.1269
  H  H25  1  0.219000  0.924700  0.676500  1.0  0.0763
  H  H26  1  0.166600  0.874400  0.887300  1.0  0.0761
  H  H27  1  0.226500  0.629500  0.503100  1.0  0.0792
  H  H28  1  0.774900  0.778400  0.503600  1.0  0.0853
  H  H29  1  0.233200  0.830700  0.500700  1.0  0.1272
  H  H30  1  0.767100  0.983500  0.503300  1.0  0.1276
  H  H31  1  0.093800  0.355500  0.785600  1.0  0.1107
  H  H32  1  0.578100  0.070100  0.693900  1.0  0.1155
  H  H33  1  0.486700  0.042900  0.817100  1.0  0.1181
  H  H34  1  0.452200  0.246000  0.892400  1.0  0.1152
  H  H35  1  0.136300  0.109700  0.011400  1.0  0.122
  H  H36  1  0.527400  0.266200  0.999300  1.0  0.0979
  H  H37  1  0.208500  0.133400  0.116600  1.0  0.0989
  H  H38  1  0.469000  0.553000  0.300400  1.0  0.0786
  H  H39  1  0.357900  0.512000  0.121500  1.0  0.072
  H  H40  1  0.866300  0.416000  0.201000  1.0  0.0877
  H  H41  1  0.661600  0.378400  0.051200  1.0  0.0812
  H  H42  1  0.262900  0.748600  0.307200  1.0  0.1208
  H  H43  1  0.155000  0.710500  0.120400  1.0  0.1175
  H  H44  1  0.032900  0.487200  0.116300  1.0  0.1202
  H  H45  1  0.818200  0.453600  0.962400  1.0  0.1104
  H  H46  1  0.989700  0.878400  0.324800  1.0  0.1227
  H  H47  1  0.046400  0.933600  0.107300  1.0  0.1275
  H  H48  1  0.781000  0.075300  0.323500  1.0  0.0765
  H  H49  1  0.833400  0.125600  0.112700  1.0  0.0767
  C  C50  1  0.867800  0.297900  0.497500  1.0  0.1759
  C  C51  1  0.131000  0.211200  0.497000  1.0  0.1869
  C  C52  1  0.873800  0.579300  0.355140  1.0  0.6948
  C  C53  1  0.862800  0.176500  0.498700  1.0  -0.1888
  C  C54  1  0.136500  0.087000  0.497500  1.0  -0.1896
  C  C55  1  0.757500  0.683700  0.307250  1.0  -0.1133
  C  C56  1  0.999600  0.066400  0.499110  1.0  0.0974
  C  C57  1  0.808500  0.701400  0.233310  1.0  -0.1061
  C  C58  1  0.609800  0.769900  0.334410  1.0  -0.0512
  C  C59  1  0.715600  0.802500  0.187860  1.0  0.2849
  C  C60  1  0.519600  0.871800  0.287930  1.0  -0.0412
  C  C61  1  0.539800  0.756700  0.413230  1.0  0.7125
  C  C62  1  0.573900  0.888200  0.213800  1.0  -0.1874
  C  C63  1  0.718000  0.818700  0.058010  1.0  0.3083
  C  C64  1  0.598000  0.775100  0.062650  1.0  -0.1732
  C  C65  1  0.787200  0.856100  0.991160  1.0  -0.1998
  C  C66  1  0.553400  0.763200  0.998160  1.0  -0.0027
  C  C67  1  0.742900  0.842800  0.928210  1.0  0.0015
  C  C68  1  0.626100  0.794100  0.931010  1.0  -0.1653
  C  C69  1  0.591500  0.769300  0.861340  1.0  0.6918
  C  C70  1  0.597800  0.416800  0.735540  1.0  0.1815
  C  C71  1  0.661600  0.440200  0.840110  1.0  0.1791
  C  C72  1  0.142500  0.578900  0.847910  1.0  0.1936
  C  C73  1  0.262000  0.600000  0.935080  1.0  0.1731
  C  C74  1  0.720500  0.297600  0.731720  1.0  -0.1956
  C  C75  1  0.784800  0.320400  0.841030  1.0  -0.2019
  C  C76  1  0.041800  0.534700  0.898730  1.0  -0.198
  C  C77  1  0.167300  0.555000  0.989170  1.0  -0.1847
  C  C78  1  0.819300  0.246000  0.785370  1.0  0.0999
  C  C79  1  0.053300  0.523200  0.971740  1.0  0.0413
  C  C80  1  0.954700  0.118300  0.783860  1.0  0.0895
  C  C81  1  0.038700  0.072500  0.719350  1.0  -0.1749
  C  C82  1  0.005600  0.040300  0.847830  1.0  -0.1912
  C  C83  1  0.164900  0.953700  0.720560  1.0  0.1665
  C  C84  1  0.133400  0.924200  0.843930  1.0  0.1878
  C  C85  1  0.132200  0.702100  0.502500  1.0  0.1749
  C  C86  1  0.869000  0.788800  0.503000  1.0  0.1865
  C  C87  1  0.126200  0.420700  0.644860  1.0  0.6968
  C  C88  1  0.137200  0.823500  0.501300  1.0  -0.1878
  C  C89  1  0.863500  0.913000  0.502500  1.0  -0.1908
  C  C90  1  0.242500  0.316300  0.692750  1.0  -0.1145
  C  C91  1  0.000400  0.933600  0.500890  1.0  0.0968
  C  C92  1  0.191500  0.298600  0.766690  1.0  -0.1077
  C  C93  1  0.390200  0.230100  0.665590  1.0  -0.0512
  C  C94  1  0.284400  0.197500  0.812140  1.0  0.2854
  C  C95  1  0.480400  0.128200  0.712070  1.0  -0.0424
  C  C96  1  0.460200  0.243300  0.586770  1.0  0.7136
  C  C97  1  0.426100  0.111800  0.786200  1.0  -0.1869
  C  C98  1  0.282000  0.181300  0.941990  1.0  0.3083
  C  C99  1  0.402000  0.224900  0.937350  1.0  -0.1716
  C  C100  1  0.212800  0.143900  0.008840  1.0  -0.1997
  C  C101  1  0.446600  0.236800  0.001840  1.0  -0.0023
  C  C102  1  0.257100  0.157200  0.071790  1.0  0.0028
  C  C103  1  0.373900  0.205900  0.068990  1.0  -0.1652
  C  C104  1  0.408500  0.230700  0.138660  1.0  0.6897
  C  C105  1  0.402200  0.583200  0.264460  1.0  0.1804
  C  C106  1  0.338400  0.559800  0.159890  1.0  0.1783
  C  C107  1  0.857500  0.421100  0.152090  1.0  0.1931
  C  C108  1  0.738000  0.400000  0.064920  1.0  0.1733
  C  C109  1  0.279500  0.702400  0.268280  1.0  -0.1953
  C  C110  1  0.215200  0.679600  0.158970  1.0  -0.2014
  C  C111  1  0.958200  0.465300  0.101270  1.0  -0.1942
  C  C112  1  0.832700  0.445000  0.010830  1.0  -0.1778
  C  C113  1  0.180700  0.754000  0.214630  1.0  0.1002
  C  C114  1  0.946700  0.476800  0.028260  1.0  0.0409
  C  C115  1  0.045300  0.881700  0.216140  1.0  0.0898
  C  C116  1  0.961300  0.927500  0.280650  1.0  -0.1752
  C  C117  1  0.994400  0.959700  0.152170  1.0  -0.1917
  C  C118  1  0.835100  0.046300  0.279440  1.0  0.1653
  C  C119  1  0.866600  0.075800  0.156070  1.0  0.1868
  N  N120  1  0.998800  0.316400  0.497250  1.0  -0.3228
  N  N121  1  0.568700  0.491600  0.787380  1.0  -0.3556
  N  N122  1  0.249400  0.614100  0.864190  1.0  -0.3106
  N  N123  1  0.213000  0.878500  0.781860  1.0  -0.3345
  N  N124  1  0.001200  0.683600  0.502750  1.0  -0.3225
  N  N125  1  0.431300  0.508400  0.212620  1.0  -0.357
  N  N126  1  0.750600  0.385900  0.135810  1.0  -0.3108
  N  N127  1  0.787000  0.121500  0.218140  1.0  -0.3345
  O  O128  1  0.847300  0.587990  0.421490  1.0  -0.5908
  O  O129  1  0.991700  0.496000  0.323790  1.0  -0.5968
  O  O130  1  0.784800  0.823000  0.116350  1.0  -0.2599
  O  O131  1  0.500500  0.661100  0.435620  1.0  -0.5491
  O  O132  1  0.516100  0.847000  0.449270  1.0  -0.5769
  O  O133  1  0.481500  0.727470  0.866060  1.0  -0.5917
  O  O134  1  0.674400  0.788300  0.804180  1.0  -0.5914
  O  O135  1  0.152700  0.412010  0.578510  1.0  -0.5916
  O  O136  1  0.008300  0.504000  0.676210  1.0  -0.5997
  O  O137  1  0.215200  0.177000  0.883650  1.0  -0.2607
  O  O138  1  0.499500  0.338900  0.564380  1.0  -0.5516
  O  O139  1  0.483900  0.153000  0.550730  1.0  -0.5768
  O  O140  1  0.518500  0.272530  0.133940  1.0  -0.5933
  O  O141  1  0.325600  0.211700  0.195820  1.0  -0.5917
