# generated using pymatgen
data_Mn3H14(C15O7)2
_symmetry_space_group_name_H-M   'P 1'
_cell_length_a   19.70200000
_cell_length_b   18.11810000
_cell_length_c   14.31850000
_cell_angle_alpha   90.00000000
_cell_angle_beta   97.58300000
_cell_angle_gamma   90.00000000
_symmetry_Int_Tables_number   1
_chemical_formula_structural   Mn3H14(C15O7)2
_chemical_formula_sum   'Mn12 H56 C120 O56'
_cell_volume   5066.47340222
_cell_formula_units_Z   4
loop_
 _symmetry_equiv_pos_site_id
 _symmetry_equiv_pos_as_xyz
  1  'x, y, z'
loop_
 _atom_site_type_symbol
 _atom_site_label
 _atom_site_symmetry_multiplicity
 _atom_site_fract_x
 _atom_site_fract_y
 _atom_site_fract_z
 _atom_site_occupancy
 _atom_site_charge
  Mn  Mn1  1  0.247800  0.855540  0.057810  1.0  1.1158
  Mn  Mn2  1  0.292840  0.856590  0.393120  1.0  1.1499
  Mn  Mn3  1  0.273250  0.990250  0.227960  1.0  1.1489
  Mn  Mn4  1  0.752200  0.355540  0.442190  1.0  1.1146
  Mn  Mn5  1  0.707160  0.356590  0.106880  1.0  1.1508
  Mn  Mn6  1  0.726750  0.490250  0.272040  1.0  1.1504
  Mn  Mn7  1  0.752200  0.144460  0.942190  1.0  1.1182
  Mn  Mn8  1  0.707160  0.143410  0.606880  1.0  1.1544
  Mn  Mn9  1  0.726750  0.009750  0.772040  1.0  1.1549
  Mn  Mn10  1  0.247800  0.644460  0.557810  1.0  1.1176
  Mn  Mn11  1  0.292840  0.643410  0.893120  1.0  1.1499
  Mn  Mn12  1  0.273250  0.509750  0.727960  1.0  1.1541
  H  H13  1  0.885800  0.058700  0.055100  1.0  0.1102
  H  H14  1  0.901800  0.859600  0.938100  1.0  0.1135
  H  H15  1  0.979800  0.030600  0.165600  1.0  0.136
  H  H16  1  0.991000  0.831700  0.055000  1.0  0.116
  H  H17  1  0.947500  0.864900  0.260200  1.0  0.1281
  H  H18  1  0.950600  0.771200  0.372600  1.0  0.1184
  H  H19  1  0.052300  0.717700  0.430300  1.0  0.0986
  H  H20  1  0.581800  0.056300  0.488300  1.0  0.1013
  H  H21  1  0.647700  0.846600  0.504000  1.0  0.1137
  H  H22  1  0.510600  0.028400  0.353500  1.0  0.1311
  H  H23  1  0.569700  0.818300  0.371800  1.0  0.1186
  H  H24  1  0.593100  0.854200  0.202400  1.0  0.1335
  H  H25  1  0.590500  0.763700  0.088600  1.0  0.1051
  H  H26  1  0.489600  0.708800  0.028700  1.0  0.1053
  H  H27  1  0.114200  0.558700  0.444900  1.0  0.1106
  H  H28  1  0.098200  0.359600  0.561900  1.0  0.1141
  H  H29  1  0.020200  0.530600  0.334400  1.0  0.1367
  H  H30  1  0.009000  0.331700  0.445000  1.0  0.1164
  H  H31  1  0.052500  0.364900  0.239800  1.0  0.1273
  H  H32  1  0.049400  0.271200  0.127400  1.0  0.119
  H  H33  1  0.947700  0.217700  0.069700  1.0  0.099
  H  H34  1  0.418200  0.556300  0.011700  1.0  0.1015
  H  H35  1  0.352300  0.346600  0.996000  1.0  0.1132
  H  H36  1  0.489400  0.528400  0.146500  1.0  0.1311
  H  H37  1  0.430300  0.318300  0.128200  1.0  0.1186
  H  H38  1  0.406900  0.354200  0.297600  1.0  0.1334
  H  H39  1  0.409500  0.263700  0.411400  1.0  0.1047
  H  H40  1  0.510400  0.208800  0.471300  1.0  0.105
  H  H41  1  0.114200  0.941300  0.944900  1.0  0.1104
  H  H42  1  0.098200  0.140400  0.061900  1.0  0.1139
  H  H43  1  0.020200  0.969400  0.834400  1.0  0.136
  H  H44  1  0.009000  0.168300  0.945000  1.0  0.116
  H  H45  1  0.052500  0.135100  0.739800  1.0  0.1277
  H  H46  1  0.049400  0.228800  0.627400  1.0  0.1191
  H  H47  1  0.947700  0.282300  0.569700  1.0  0.0989
  H  H48  1  0.418200  0.943700  0.511700  1.0  0.1015
  H  H49  1  0.352300  0.153400  0.496000  1.0  0.1143
  H  H50  1  0.489400  0.971600  0.646500  1.0  0.1313
  H  H51  1  0.430300  0.181700  0.628200  1.0  0.1187
  H  H52  1  0.406900  0.145800  0.797600  1.0  0.1337
  H  H53  1  0.409500  0.236300  0.911400  1.0  0.1049
  H  H54  1  0.510400  0.291200  0.971300  1.0  0.1051
  H  H55  1  0.885800  0.441300  0.555100  1.0  0.1102
  H  H56  1  0.901800  0.640400  0.438100  1.0  0.1137
  H  H57  1  0.979800  0.469400  0.665600  1.0  0.1359
  H  H58  1  0.991000  0.668300  0.555000  1.0  0.116
  H  H59  1  0.947500  0.635100  0.760200  1.0  0.1289
  H  H60  1  0.950600  0.728800  0.872600  1.0  0.119
  H  H61  1  0.052300  0.782300  0.930300  1.0  0.0988
  H  H62  1  0.581800  0.443700  0.988300  1.0  0.1011
  H  H63  1  0.647700  0.653400  0.004000  1.0  0.114
  H  H64  1  0.510600  0.471600  0.853500  1.0  0.1308
  H  H65  1  0.569700  0.681700  0.871800  1.0  0.1183
  H  H66  1  0.593100  0.645800  0.702400  1.0  0.1333
  H  H67  1  0.590500  0.736300  0.588600  1.0  0.1055
  H  H68  1  0.489600  0.791200  0.528700  1.0  0.1053
  C  C69  1  0.826000  0.980600  0.911100  1.0  0.6823
  C  C70  1  0.884000  0.962000  0.985800  1.0  -0.129
  C  C71  1  0.907200  0.013100  0.053700  1.0  -0.0103
  C  C72  1  0.916300  0.893900  0.984700  1.0  -0.0248
  C  C73  1  0.963200  0.996000  0.120400  1.0  -0.193
  C  C74  1  0.970300  0.877900  0.053600  1.0  -0.1956
  C  C75  1  0.993000  0.929500  0.119200  1.0  0.314
  C  C76  1  0.048700  0.860100  0.247900  1.0  0.2486
  C  C77  1  0.988400  0.841300  0.282100  1.0  -0.1744
  C  C78  1  0.111100  0.827200  0.281800  1.0  -0.0783
  C  C79  1  0.173300  0.851700  0.236900  1.0  0.6802
  C  C80  1  0.990700  0.786100  0.350300  1.0  -0.1322
  C  C81  1  0.111800  0.774300  0.352100  1.0  -0.1539
  C  C82  1  0.177200  0.736700  0.393500  1.0  0.7037
  C  C83  1  0.051500  0.754100  0.384300  1.0  -0.0219
  C  C84  1  0.665700  0.972600  0.600000  1.0  0.6409
  C  C85  1  0.621700  0.955500  0.512100  1.0  -0.1117
  C  C86  1  0.580600  0.008300  0.465100  1.0  -0.0227
  C  C87  1  0.619100  0.883100  0.475000  1.0  -0.0506
  C  C88  1  0.537800  0.991700  0.384500  1.0  -0.1803
  C  C89  1  0.573500  0.866500  0.394400  1.0  -0.2165
  C  C90  1  0.534800  0.921200  0.349200  1.0  0.3137
  C  C91  1  0.491600  0.852500  0.209900  1.0  0.2218
  C  C92  1  0.551900  0.832100  0.178200  1.0  -0.1463
  C  C93  1  0.429000  0.822000  0.173200  1.0  -0.0525
  C  C94  1  0.366700  0.847100  0.214800  1.0  0.7097
  C  C95  1  0.550100  0.778400  0.110000  1.0  -0.1011
  C  C96  1  0.428900  0.768600  0.101900  1.0  -0.1357
  C  C97  1  0.362800  0.733800  0.057300  1.0  0.7314
  C  C98  1  0.489700  0.746100  0.073300  1.0  -0.0594
  C  C99  1  0.174000  0.480600  0.588900  1.0  0.6836
  C  C100  1  0.116000  0.462000  0.514200  1.0  -0.1275
  C  C101  1  0.092800  0.513100  0.446300  1.0  -0.0094
  C  C102  1  0.083700  0.393900  0.515300  1.0  -0.0266
  C  C103  1  0.036800  0.496000  0.379600  1.0  -0.194
  C  C104  1  0.029700  0.377900  0.446400  1.0  -0.1938
  C  C105  1  0.007000  0.429500  0.380800  1.0  0.3144
  C  C106  1  0.951300  0.360100  0.252100  1.0  0.2502
  C  C107  1  0.011600  0.341300  0.217900  1.0  -0.173
  C  C108  1  0.888900  0.327200  0.218200  1.0  -0.0784
  C  C109  1  0.826700  0.351700  0.263100  1.0  0.6803
  C  C110  1  0.009300  0.286100  0.149700  1.0  -0.1299
  C  C111  1  0.888200  0.274300  0.147900  1.0  -0.1535
  C  C112  1  0.822800  0.236700  0.106500  1.0  0.7047
  C  C113  1  0.948500  0.254100  0.115700  1.0  -0.0222
  C  C114  1  0.334300  0.472600  0.900000  1.0  0.6436
  C  C115  1  0.378300  0.455500  0.987900  1.0  -0.1121
  C  C116  1  0.419400  0.508300  0.034900  1.0  -0.0222
  C  C117  1  0.380900  0.383100  0.025000  1.0  -0.0514
  C  C118  1  0.462200  0.491700  0.115500  1.0  -0.1807
  C  C119  1  0.426500  0.366500  0.105600  1.0  -0.2171
  C  C120  1  0.465200  0.421200  0.150800  1.0  0.3124
  C  C121  1  0.508400  0.352500  0.290100  1.0  0.2208
  C  C122  1  0.448100  0.332100  0.321800  1.0  -0.1477
  C  C123  1  0.571000  0.322000  0.326800  1.0  -0.0521
  C  C124  1  0.633300  0.347100  0.285200  1.0  0.7087
  C  C125  1  0.449900  0.278400  0.390000  1.0  -0.1039
  C  C126  1  0.571100  0.268600  0.398100  1.0  -0.1363
  C  C127  1  0.637200  0.233800  0.442700  1.0  0.731
  C  C128  1  0.510300  0.246100  0.426700  1.0  -0.0601
  C  C129  1  0.174000  0.019400  0.088900  1.0  0.6842
  C  C130  1  0.116000  0.038000  0.014200  1.0  -0.1277
  C  C131  1  0.092800  0.986900  0.946300  1.0  -0.0108
  C  C132  1  0.083700  0.106100  0.015300  1.0  -0.0247
  C  C133  1  0.036800  0.004000  0.879600  1.0  -0.1955
  C  C134  1  0.029700  0.122100  0.946400  1.0  -0.195
  C  C135  1  0.007000  0.070500  0.880800  1.0  0.3145
  C  C136  1  0.951300  0.139900  0.752100  1.0  0.2503
  C  C137  1  0.011600  0.158700  0.717900  1.0  -0.1728
  C  C138  1  0.888900  0.172800  0.718200  1.0  -0.0783
  C  C139  1  0.826700  0.148300  0.763100  1.0  0.6798
  C  C140  1  0.009300  0.213900  0.649700  1.0  -0.1302
  C  C141  1  0.888200  0.225700  0.647900  1.0  -0.1532
  C  C142  1  0.822800  0.263300  0.606500  1.0  0.7046
  C  C143  1  0.948500  0.245900  0.615700  1.0  -0.0221
  C  C144  1  0.334300  0.027400  0.400000  1.0  0.6433
  C  C145  1  0.378300  0.044500  0.487900  1.0  -0.1119
  C  C146  1  0.419400  0.991700  0.534900  1.0  -0.0228
  C  C147  1  0.380900  0.116900  0.525000  1.0  -0.0519
  C  C148  1  0.462200  0.008300  0.615500  1.0  -0.1813
  C  C149  1  0.426500  0.133500  0.605600  1.0  -0.2168
  C  C150  1  0.465200  0.078800  0.650800  1.0  0.3127
  C  C151  1  0.508400  0.147500  0.790100  1.0  0.221
  C  C152  1  0.448100  0.167900  0.821800  1.0  -0.147
  C  C153  1  0.571000  0.178000  0.826800  1.0  -0.052
  C  C154  1  0.633300  0.152900  0.785200  1.0  0.7088
  C  C155  1  0.449900  0.221600  0.890000  1.0  -0.104
  C  C156  1  0.571100  0.231400  0.898100  1.0  -0.1362
  C  C157  1  0.637200  0.266200  0.942700  1.0  0.7303
  C  C158  1  0.510300  0.253900  0.926700  1.0  -0.0599
  C  C159  1  0.826000  0.519400  0.411100  1.0  0.6824
  C  C160  1  0.884000  0.538000  0.485800  1.0  -0.1291
  C  C161  1  0.907200  0.486900  0.553700  1.0  -0.0095
  C  C162  1  0.916300  0.606100  0.484700  1.0  -0.0232
  C  C163  1  0.963200  0.504000  0.620400  1.0  -0.1926
  C  C164  1  0.970300  0.622100  0.553600  1.0  -0.1948
  C  C165  1  0.993000  0.570500  0.619200  1.0  0.314
  C  C166  1  0.048700  0.639900  0.747900  1.0  0.2488
  C  C167  1  0.988400  0.658700  0.782100  1.0  -0.174
  C  C168  1  0.111100  0.672800  0.781800  1.0  -0.0783
  C  C169  1  0.173300  0.648300  0.736900  1.0  0.6798
  C  C170  1  0.990700  0.713900  0.850300  1.0  -0.1323
  C  C171  1  0.111800  0.725700  0.852100  1.0  -0.154
  C  C172  1  0.177200  0.763300  0.893500  1.0  0.7038
  C  C173  1  0.051500  0.745900  0.884300  1.0  -0.022
  C  C174  1  0.665700  0.527400  0.100000  1.0  0.6406
  C  C175  1  0.621700  0.544500  0.012100  1.0  -0.112
  C  C176  1  0.580600  0.491700  0.965100  1.0  -0.0219
  C  C177  1  0.619100  0.616900  0.975000  1.0  -0.0507
  C  C178  1  0.537800  0.508300  0.884500  1.0  -0.1807
  C  C179  1  0.573500  0.633500  0.894400  1.0  -0.2165
  C  C180  1  0.534800  0.578800  0.849200  1.0  0.314
  C  C181  1  0.491600  0.647500  0.709900  1.0  0.2214
  C  C182  1  0.551900  0.667900  0.678200  1.0  -0.1461
  C  C183  1  0.429000  0.678000  0.673200  1.0  -0.0525
  C  C184  1  0.366700  0.652900  0.714800  1.0  0.7097
  C  C185  1  0.550100  0.721600  0.610000  1.0  -0.101
  C  C186  1  0.428900  0.731400  0.601900  1.0  -0.1355
  C  C187  1  0.362800  0.766200  0.557300  1.0  0.7311
  C  C188  1  0.489700  0.753900  0.573300  1.0  -0.0591
  O  O189  1  0.789000  0.035100  0.923900  1.0  -0.668
  O  O190  1  0.813800  0.941900  0.838300  1.0  -0.5734
  O  O191  1  0.051300  0.916600  0.183300  1.0  -0.273
  O  O192  1  0.182300  0.822400  0.161800  1.0  -0.5838
  O  O193  1  0.209180  0.903000  0.279700  1.0  -0.6806
  O  O194  1  0.233550  0.760000  0.369400  1.0  -0.6638
  O  O195  1  0.171800  0.685600  0.452100  1.0  -0.6181
  O  O196  1  0.703200  0.926500  0.644500  1.0  -0.6068
  O  O197  1  0.664700  0.037500  0.633200  1.0  -0.6779
  O  O198  1  0.487200  0.911600  0.270900  1.0  -0.2734
  O  O199  1  0.356560  0.819200  0.289300  1.0  -0.5711
  O  O200  1  0.331510  0.898800  0.171400  1.0  -0.686
  O  O201  1  0.307030  0.757800  0.080200  1.0  -0.652
  O  O202  1  0.368100  0.684100  0.998500  1.0  -0.5781
  O  O203  1  0.211000  0.535100  0.576100  1.0  -0.6684
  O  O204  1  0.186200  0.441900  0.661700  1.0  -0.5751
  O  O205  1  0.948700  0.416600  0.316700  1.0  -0.271
  O  O206  1  0.817700  0.322400  0.338200  1.0  -0.5836
  O  O207  1  0.790820  0.403000  0.220300  1.0  -0.6802
  O  O208  1  0.766450  0.260000  0.130600  1.0  -0.6653
  O  O209  1  0.828200  0.185600  0.047900  1.0  -0.6193
  O  O210  1  0.296800  0.426500  0.855500  1.0  -0.6042
  O  O211  1  0.335300  0.537500  0.866800  1.0  -0.678
  O  O212  1  0.512800  0.411600  0.229100  1.0  -0.2752
  O  O213  1  0.643440  0.319200  0.210700  1.0  -0.5719
  O  O214  1  0.668490  0.398800  0.328600  1.0  -0.6863
  O  O215  1  0.692970  0.257800  0.419800  1.0  -0.6519
  O  O216  1  0.631900  0.184100  0.501500  1.0  -0.5782
  O  O217  1  0.211000  0.964900  0.076100  1.0  -0.6687
  O  O218  1  0.186200  0.058100  0.161700  1.0  -0.5738
  O  O219  1  0.948700  0.083400  0.816700  1.0  -0.2713
  O  O220  1  0.817700  0.177600  0.838200  1.0  -0.5817
  O  O221  1  0.790820  0.097000  0.720300  1.0  -0.6805
  O  O222  1  0.766450  0.240000  0.630600  1.0  -0.6657
  O  O223  1  0.828200  0.314400  0.547900  1.0  -0.6192
  O  O224  1  0.296800  0.073500  0.355500  1.0  -0.6066
  O  O225  1  0.335300  0.962500  0.366800  1.0  -0.6784
  O  O226  1  0.512800  0.088400  0.729100  1.0  -0.2754
  O  O227  1  0.643440  0.180800  0.710700  1.0  -0.5712
  O  O228  1  0.668490  0.101200  0.828600  1.0  -0.6866
  O  O229  1  0.692970  0.242200  0.919800  1.0  -0.6507
  O  O230  1  0.631900  0.315900  0.001500  1.0  -0.5781
  O  O231  1  0.789000  0.464900  0.423900  1.0  -0.6687
  O  O232  1  0.813800  0.558100  0.338300  1.0  -0.576
  O  O233  1  0.051300  0.583400  0.683300  1.0  -0.2724
  O  O234  1  0.182300  0.677600  0.661800  1.0  -0.5818
  O  O235  1  0.209180  0.597000  0.779700  1.0  -0.6801
  O  O236  1  0.233550  0.740000  0.869400  1.0  -0.6639
  O  O237  1  0.171800  0.814400  0.952100  1.0  -0.618
  O  O238  1  0.703200  0.573500  0.144500  1.0  -0.6071
  O  O239  1  0.664700  0.462500  0.133200  1.0  -0.679
  O  O240  1  0.487200  0.588400  0.770900  1.0  -0.2747
  O  O241  1  0.356560  0.680800  0.789300  1.0  -0.5707
  O  O242  1  0.331510  0.601200  0.671400  1.0  -0.6858
  O  O243  1  0.307030  0.742200  0.580200  1.0  -0.6519
  O  O244  1  0.368100  0.815900  0.498500  1.0  -0.5779
