# generated using pymatgen
data_Ni3H50C70(NO2)8
_symmetry_space_group_name_H-M   'P 1'
_cell_length_a   9.32280000
_cell_length_b   11.25200000
_cell_length_c   18.82500000
_cell_angle_alpha   79.40900000
_cell_angle_beta   79.47900000
_cell_angle_gamma   66.27500000
_symmetry_Int_Tables_number   1
_chemical_formula_structural   Ni3H50C70(NO2)8
_chemical_formula_sum   'Ni3 H50 C70 N8 O16'
_cell_volume   1764.05673533
_cell_formula_units_Z   1
loop_
 _symmetry_equiv_pos_site_id
 _symmetry_equiv_pos_as_xyz
  1  'x, y, z'
loop_
 _atom_site_type_symbol
 _atom_site_label
 _atom_site_symmetry_multiplicity
 _atom_site_fract_x
 _atom_site_fract_y
 _atom_site_fract_z
 _atom_site_occupancy
 _atom_site_charge
  Ni  Ni1  1  0.605850  0.313140  0.216630  1.0  0.469
  Ni  Ni2  1  0.394150  0.686860  0.783370  1.0  0.4701
  Ni  Ni3  1  0.000000  0.500000  0.500000  1.0  0.6391
  H  H4  1  0.990500  0.877700  0.325000  1.0  0.121
  H  H5  1  0.482500  0.044800  0.818100  1.0  0.1149
  H  H6  1  0.526100  0.267500  0.998700  1.0  0.1008
  H  H7  1  0.042600  0.934500  0.106400  1.0  0.1308
  H  H8  1  0.157800  0.711900  0.119200  1.0  0.1212
  H  H9  1  0.661500  0.378600  0.051000  1.0  0.0791
  H  H10  1  0.226600  0.629100  0.501000  1.0  0.0997
  H  H11  1  0.833000  0.125300  0.112500  1.0  0.0748
  H  H12  1  0.576900  0.070200  0.695400  1.0  0.1225
  H  H13  1  0.234100  0.830700  0.499700  1.0  0.1316
  H  H14  1  0.779500  0.074800  0.323900  1.0  0.0813
  H  H15  1  0.093400  0.356500  0.786100  1.0  0.1109
  H  H16  1  0.032400  0.488600  0.115100  1.0  0.1166
  H  H17  1  0.458300  0.239300  0.892800  1.0  0.1247
  H  H18  1  0.816600  0.452900  0.962200  1.0  0.1148
  H  H19  1  0.262600  0.751300  0.306500  1.0  0.1273
  H  H20  1  0.358300  0.512500  0.121400  1.0  0.0695
  H  H21  1  0.208600  0.130600  0.115700  1.0  0.1001
  H  H22  1  0.465300  0.553100  0.301500  1.0  0.0799
  H  H23  1  0.768300  0.984300  0.505900  1.0  0.1239
  H  H24  1  0.866500  0.416500  0.200600  1.0  0.0858
  H  H25  1  0.133800  0.110000  0.009800  1.0  0.1332
  H  H26  1  0.775200  0.779800  0.501600  1.0  0.0865
  H  H27  1  0.864800  0.532400  0.612500  1.0  0.4123
  H  H28  1  0.854500  0.477000  0.555500  1.0  0.1334
  H  H29  1  0.009500  0.122300  0.675000  1.0  0.1212
  H  H30  1  0.517500  0.955200  0.181900  1.0  0.1151
  H  H31  1  0.473900  0.732500  0.001300  1.0  0.1003
  H  H32  1  0.957400  0.065500  0.893600  1.0  0.1303
  H  H33  1  0.842200  0.288100  0.880800  1.0  0.1208
  H  H34  1  0.338500  0.621400  0.949000  1.0  0.0789
  H  H35  1  0.773400  0.370900  0.499000  1.0  0.0995
  H  H36  1  0.167000  0.874700  0.887500  1.0  0.074
  H  H37  1  0.423100  0.929800  0.304600  1.0  0.1233
  H  H38  1  0.765900  0.169300  0.500300  1.0  0.133
  H  H39  1  0.220500  0.925200  0.676100  1.0  0.0813
  H  H40  1  0.906600  0.643500  0.213900  1.0  0.1121
  H  H41  1  0.967600  0.511400  0.884900  1.0  0.116
  H  H42  1  0.541700  0.760700  0.107200  1.0  0.1247
  H  H43  1  0.183400  0.547100  0.037800  1.0  0.116
  H  H44  1  0.737400  0.248700  0.693500  1.0  0.1286
  H  H45  1  0.641700  0.487500  0.878600  1.0  0.0702
  H  H46  1  0.791400  0.869400  0.884300  1.0  0.1005
  H  H47  1  0.534700  0.446900  0.698500  1.0  0.0804
  H  H48  1  0.231700  0.015700  0.494100  1.0  0.1229
  H  H49  1  0.133500  0.583500  0.799400  1.0  0.0856
  H  H50  1  0.866200  0.890000  0.990200  1.0  0.1332
  H  H51  1  0.224800  0.220200  0.498400  1.0  0.0859
  H  H52  1  0.135200  0.467600  0.387500  1.0  0.4163
  H  H53  1  0.145500  0.523000  0.444500  1.0  0.1318
  C  C54  1  0.000300  0.933400  0.500700  1.0  0.0573
  C  C55  1  0.962000  0.927300  0.280800  1.0  -0.1568
  C  C56  1  0.422300  0.113800  0.786900  1.0  -0.1209
  C  C57  1  0.446700  0.236200  0.001400  1.0  -0.0133
  C  C58  1  0.407500  0.231400  0.138400  1.0  0.6954
  C  C59  1  0.461600  0.242800  0.586700  1.0  0.7188
  C  C60  1  0.992500  0.960900  0.151500  1.0  -0.184
  C  C61  1  0.216700  0.680100  0.158300  1.0  -0.1897
  C  C62  1  0.390800  0.229900  0.665400  1.0  -0.0703
  C  C63  1  0.046900  0.882000  0.215900  1.0  0.1012
  C  C64  1  0.241100  0.316300  0.693100  1.0  -0.1241
  C  C65  1  0.737900  0.400200  0.064900  1.0  0.1669
  C  C66  1  0.374500  0.205800  0.068600  1.0  -0.1231
  C  C67  1  0.180900  0.753600  0.215200  1.0  0.1013
  C  C68  1  0.132200  0.701900  0.501500  1.0  0.1346
  C  C69  1  0.947200  0.476700  0.027700  1.0  0.0512
  C  C70  1  0.867000  0.075300  0.155900  1.0  0.1898
  C  C71  1  0.478800  0.128900  0.712800  1.0  -0.0673
  C  C72  1  0.138000  0.823400  0.500500  1.0  -0.1973
  C  C73  1  0.127200  0.420200  0.643600  1.0  0.7038
  C  C74  1  0.834700  0.046400  0.279800  1.0  0.167
  C  C75  1  0.282700  0.180500  0.942700  1.0  0.3214
  C  C76  1  0.190800  0.298800  0.767200  1.0  -0.0735
  C  C77  1  0.957900  0.466100  0.100100  1.0  -0.193
  C  C78  1  0.405100  0.221700  0.937800  1.0  -0.2023
  C  C79  1  0.831800  0.444600  0.010600  1.0  -0.1987
  C  C80  1  0.278300  0.704200  0.268100  1.0  -0.1921
  C  C81  1  0.282100  0.198300  0.812700  1.0  0.2881
  C  C82  1  0.338900  0.560800  0.159600  1.0  0.1737
  C  C83  1  0.256300  0.155500  0.070900  1.0  -0.006
  C  C84  1  0.400400  0.583900  0.264600  1.0  0.1827
  C  C85  1  0.864800  0.913800  0.503400  1.0  -0.1748
  C  C86  1  0.856900  0.421500  0.151700  1.0  0.1911
  C  C87  1  0.211300  0.143100  0.008000  1.0  -0.2029
  C  C88  1  0.869300  0.789400  0.502500  1.0  0.1572
  C  C89  1  0.999700  0.066600  0.499300  1.0  0.0569
  C  C90  1  0.038000  0.072700  0.719200  1.0  -0.1578
  C  C91  1  0.577700  0.886200  0.213100  1.0  -0.1222
  C  C92  1  0.553300  0.763800  0.998600  1.0  -0.0114
  C  C93  1  0.592500  0.768600  0.861600  1.0  0.6856
  C  C94  1  0.538400  0.757200  0.413300  1.0  0.7168
  C  C95  1  0.007500  0.039100  0.848500  1.0  -0.1837
  C  C96  1  0.783300  0.319900  0.841700  1.0  -0.191
  C  C97  1  0.609200  0.770100  0.334600  1.0  -0.0704
  C  C98  1  0.953100  0.118000  0.784100  1.0  0.1005
  C  C99  1  0.758900  0.683700  0.306900  1.0  -0.1254
  C  C100  1  0.262100  0.599800  0.935100  1.0  0.1664
  C  C101  1  0.625500  0.794200  0.931400  1.0  -0.123
  C  C102  1  0.819100  0.246400  0.784800  1.0  0.1007
  C  C103  1  0.867800  0.298100  0.498500  1.0  0.1328
  C  C104  1  0.052800  0.523300  0.972300  1.0  0.0518
  C  C105  1  0.133000  0.924700  0.844100  1.0  0.19
  C  C106  1  0.521200  0.871100  0.287200  1.0  -0.064
  C  C107  1  0.862000  0.176600  0.499500  1.0  -0.1991
  C  C108  1  0.872800  0.579800  0.356400  1.0  0.7047
  C  C109  1  0.165300  0.953600  0.720200  1.0  0.1685
  C  C110  1  0.717300  0.819500  0.057300  1.0  0.3208
  C  C111  1  0.809200  0.701200  0.232800  1.0  -0.0726
  C  C112  1  0.042100  0.533900  0.899900  1.0  -0.1877
  C  C113  1  0.594900  0.778300  0.062200  1.0  -0.2033
  C  C114  1  0.168200  0.555400  0.989400  1.0  -0.2001
  C  C115  1  0.721700  0.295800  0.731900  1.0  -0.1926
  C  C116  1  0.717900  0.801700  0.187300  1.0  0.2873
  C  C117  1  0.661100  0.439200  0.840400  1.0  0.1737
  C  C118  1  0.743700  0.844500  0.929100  1.0  -0.007
  C  C119  1  0.599600  0.416100  0.735400  1.0  0.1819
  C  C120  1  0.135200  0.086200  0.496600  1.0  -0.1686
  C  C121  1  0.143100  0.578500  0.848300  1.0  0.1907
  C  C122  1  0.788700  0.856900  0.992000  1.0  -0.2052
  C  C123  1  0.130700  0.210600  0.497500  1.0  0.1552
  N  N124  1  0.432400  0.509100  0.212800  1.0  -0.3552
  N  N125  1  0.001400  0.683700  0.503000  1.0  -0.3018
  N  N126  1  0.748800  0.386000  0.136000  1.0  -0.3032
  N  N127  1  0.788200  0.121800  0.218300  1.0  -0.3246
  N  N128  1  0.567600  0.490900  0.787200  1.0  -0.355
  N  N129  1  0.998600  0.316300  0.497000  1.0  -0.3019
  N  N130  1  0.251200  0.614000  0.864000  1.0  -0.3015
  N  N131  1  0.211800  0.878200  0.781700  1.0  -0.3241
  O  O132  1  0.518800  0.273100  0.133800  1.0  -0.5879
  O  O133  1  0.153500  0.412000  0.577700  1.0  -0.5496
  O  O134  1  0.500300  0.338700  0.564200  1.0  -0.5615
  O  O135  1  0.805400  0.538800  0.581600  1.0  -0.7206
  O  O136  1  0.484100  0.152900  0.550400  1.0  -0.5729
  O  O137  1  0.324300  0.211200  0.196000  1.0  -0.5839
  O  O138  1  0.215400  0.176300  0.883800  1.0  -0.2416
  O  O139  1  0.009000  0.504200  0.675200  1.0  -0.5952
  O  O140  1  0.481200  0.726900  0.866200  1.0  -0.5872
  O  O141  1  0.846500  0.588000  0.422300  1.0  -0.5499
  O  O142  1  0.499700  0.661300  0.435800  1.0  -0.5603
  O  O143  1  0.194600  0.461200  0.418400  1.0  -0.7158
  O  O144  1  0.515900  0.847100  0.449600  1.0  -0.573
  O  O145  1  0.675700  0.788800  0.804000  1.0  -0.5839
  O  O146  1  0.784600  0.823700  0.116200  1.0  -0.2416
  O  O147  1  0.991000  0.495800  0.324800  1.0  -0.5954
