# generated using pymatgen
data_Co3H38C58(N5O4)2
_symmetry_space_group_name_H-M   'P 1'
_cell_length_a   11.56180000
_cell_length_b   11.84930000
_cell_length_c   15.72060000
_cell_angle_alpha   76.32500000
_cell_angle_beta   71.24600000
_cell_angle_gamma   65.33000000
_symmetry_Int_Tables_number   1
_chemical_formula_structural   Co3H38C58(N5O4)2
_chemical_formula_sum   'Co3 H38 C58 N10 O8'
_cell_volume   1840.10249154
_cell_formula_units_Z   1
loop_
 _symmetry_equiv_pos_site_id
 _symmetry_equiv_pos_as_xyz
  1  'x, y, z'
loop_
 _atom_site_type_symbol
 _atom_site_label
 _atom_site_symmetry_multiplicity
 _atom_site_fract_x
 _atom_site_fract_y
 _atom_site_fract_z
 _atom_site_occupancy
 _atom_site_charge
  Co  Co1  1  0.500000  0.500000  0.000000  1.0  0.7134
  Co  Co2  1  0.000000  0.500000  0.000000  1.0  0.9966
  Co  Co3  1  0.000000  0.000000  0.000000  1.0  0.6304
  H  H4  1  0.412100  0.551900  0.202600  1.0  0.0863
  H  H5  1  0.954100  0.686500  0.553300  1.0  0.1084
  H  H6  1  0.382000  0.450900  0.345900  1.0  0.111
  H  H7  1  0.322600  0.099900  0.377500  1.0  0.1167
  H  H8  1  0.158200  0.337900  0.143600  1.0  0.0879
  H  H9  1  0.299500  0.805900  0.057000  1.0  0.0866
  H  H10  1  0.158200  0.331200  0.291100  1.0  0.1162
  H  H11  1  0.124000  0.330400  0.848900  1.0  0.0743
  H  H12  1  0.130800  0.326300  0.702100  1.0  0.1098
  H  H13  1  0.904800  0.939500  0.343700  1.0  0.1163
  H  H14  1  0.987600  0.021300  0.804900  1.0  0.0893
  H  H15  1  0.458400  0.304400  0.464700  1.0  0.1202
  H  H16  1  0.379100  0.077100  0.741900  1.0  0.1179
  H  H17  1  0.012400  0.978700  0.195100  1.0  0.0893
  H  H18  1  0.045900  0.313500  0.446700  1.0  0.1082
  H  H19  1  0.611300  0.778300  0.386700  1.0  0.1196
  H  H20  1  0.026700  0.313700  0.599000  1.0  0.1088
  H  H21  1  0.487400  0.247400  0.101100  1.0  0.0877
  H  H22  1  0.268200  0.034100  0.888800  1.0  0.0904
  H  H23  1  0.677400  0.900100  0.622500  1.0  0.1168
  H  H24  1  0.456800  0.139200  0.242200  1.0  0.1187
  H  H25  1  0.841800  0.662100  0.856400  1.0  0.0873
  H  H26  1  0.620900  0.922900  0.258100  1.0  0.1169
  H  H27  1  0.095200  0.060500  0.656300  1.0  0.1156
  H  H28  1  0.257500  0.015700  0.526000  1.0  0.1099
  H  H29  1  0.731800  0.965900  0.111200  1.0  0.0907
  H  H30  1  0.618000  0.549100  0.654100  1.0  0.1113
  H  H31  1  0.512600  0.752600  0.898900  1.0  0.0867
  H  H32  1  0.587900  0.448100  0.797400  1.0  0.0865
  H  H33  1  0.543200  0.860800  0.757800  1.0  0.1188
  H  H34  1  0.841800  0.668800  0.708900  1.0  0.1172
  H  H35  1  0.876000  0.669600  0.151100  1.0  0.0745
  H  H36  1  0.700500  0.194100  0.943000  1.0  0.0886
  H  H37  1  0.973300  0.686300  0.401000  1.0  0.1092
  H  H38  1  0.541600  0.695600  0.535300  1.0  0.1202
  H  H39  1  0.869200  0.673700  0.297900  1.0  0.109
  H  H40  1  0.742500  0.984300  0.474000  1.0  0.1109
  H  H41  1  0.388700  0.221700  0.613300  1.0  0.1201
  C  C42  1  0.271000  0.497000  0.965000  1.0  0.665
  C  C43  1  0.229200  0.623900  0.993500  1.0  -0.0206
  C  C44  1  0.701600  0.933800  0.246800  1.0  -0.1905
  C  C45  1  0.751600  0.923800  0.318800  1.0  0.095
  C  C46  1  0.934500  0.599400  0.179900  1.0  0.1876
  C  C47  1  0.311400  0.114600  0.584600  1.0  0.0482
  C  C48  1  0.881700  0.266700  0.006500  1.0  -0.033
  C  C49  1  0.465300  0.289500  0.151900  1.0  0.1634
  C  C50  1  0.867800  0.943100  0.296800  1.0  -0.1747
  C  C51  1  0.447400  0.224100  0.236100  1.0  -0.2191
  C  C52  1  0.929500  0.602700  0.268000  1.0  -0.2136
  C  C53  1  0.973600  0.610600  0.531600  1.0  -0.1143
  C  C54  1  0.768300  0.959400  0.159200  1.0  0.1654
  C  C55  1  0.013100  0.501700  0.313100  1.0  0.1107
  C  C56  1  0.688600  0.885400  0.415400  1.0  0.049
  C  C57  1  0.421900  0.466700  0.210600  1.0  0.1431
  C  C58  1  0.992400  0.499800  0.591100  1.0  0.0348
  C  C59  1  0.729000  0.503000  0.035000  1.0  0.6653
  C  C60  1  0.259800  0.765300  0.036300  1.0  0.2805
  C  C61  1  0.740200  0.234700  0.963700  1.0  0.2817
  C  C62  1  0.989700  0.771600  0.972100  1.0  0.6959
  C  C63  1  0.413800  0.248500  0.477000  1.0  -0.145
  C  C64  1  0.586200  0.751500  0.523000  1.0  -0.1489
  C  C65  1  0.132200  0.056900  0.703200  1.0  -0.1747
  C  C66  1  0.068400  0.032600  0.792200  1.0  0.1568
  C  C67  1  0.983200  0.610900  0.441200  1.0  -0.1355
  C  C68  1  0.596500  0.593200  0.703700  1.0  -0.2024
  C  C69  1  0.098800  0.402500  0.263800  1.0  -0.2069
  C  C70  1  0.016800  0.389100  0.558800  1.0  -0.1344
  C  C71  1  0.010300  0.228400  0.027900  1.0  0.6982
  C  C72  1  0.295500  0.077000  0.513900  1.0  -0.1533
  C  C73  1  0.986900  0.498300  0.686900  1.0  0.1108
  C  C74  1  0.931600  0.967400  0.207800  1.0  0.1562
  C  C75  1  0.611100  0.782900  0.594300  1.0  0.0533
  C  C76  1  0.070500  0.397300  0.732000  1.0  -0.2132
  C  C77  1  0.334000  0.127300  0.425300  1.0  -0.1195
  C  C78  1  0.901200  0.597500  0.736200  1.0  -0.2076
  C  C79  1  0.118300  0.733300  0.993500  1.0  -0.0343
  C  C80  1  0.298400  0.066200  0.753200  1.0  -0.1928
  C  C81  1  0.584500  0.719100  0.687100  1.0  0.1001
  C  C82  1  0.578100  0.533300  0.789400  1.0  0.1422
  C  C83  1  0.534700  0.710500  0.848100  1.0  0.1667
  C  C84  1  0.248400  0.076200  0.681200  1.0  0.0947
  C  C85  1  0.552600  0.775900  0.763900  1.0  -0.2181
  C  C86  1  0.373400  0.198200  0.565400  1.0  -0.1125
  C  C87  1  0.065500  0.400600  0.820100  1.0  0.1877
  C  C88  1  0.415500  0.280900  0.312900  1.0  0.0992
  C  C89  1  0.704500  0.923000  0.486100  1.0  -0.1533
  C  C90  1  0.770800  0.376100  0.006500  1.0  -0.0202
  C  C91  1  0.902100  0.593000  0.824300  1.0  0.1657
  C  C92  1  0.097900  0.407000  0.175700  1.0  0.1641
  C  C93  1  0.231700  0.040600  0.840800  1.0  0.1649
  C  C94  1  0.007600  0.500200  0.408900  1.0  0.035
  C  C95  1  0.026400  0.389400  0.468400  1.0  -0.1134
  C  C96  1  0.403500  0.406800  0.296300  1.0  -0.2016
  C  C97  1  0.666000  0.872700  0.574700  1.0  -0.1192
  C  C98  1  0.388900  0.217100  0.405700  1.0  0.054
  C  C99  1  0.626600  0.801800  0.434600  1.0  -0.1122
  N  N100  1  0.016000  0.504100  0.132400  1.0  -0.339
  N  N101  1  0.682200  0.354500  0.979200  1.0  -0.4332
  N  N102  1  0.883000  0.975700  0.138900  1.0  -0.3283
  N  N103  1  0.317800  0.645500  0.020800  1.0  -0.4332
  N  N104  1  0.984000  0.495900  0.867600  1.0  -0.3389
  N  N105  1  0.117000  0.024300  0.861100  1.0  -0.3283
  N  N106  1  0.139900  0.823100  0.019900  1.0  -0.4428
  N  N107  1  0.453300  0.411000  0.136600  1.0  -0.3274
  N  N108  1  0.860100  0.176900  0.980100  1.0  -0.4421
  N  N109  1  0.546700  0.589000  0.863400  1.0  -0.3273
  O  O110  1  0.194600  0.468100  0.942200  1.0  -0.5769
  O  O111  1  0.055000  0.306100  0.032100  1.0  -0.6012
  O  O112  1  0.389500  0.425400  0.962900  1.0  -0.5543
  O  O113  1  0.945000  0.693900  0.967900  1.0  -0.6016
  O  O114  1  0.805400  0.531900  0.057800  1.0  -0.5777
  O  O115  1  0.074200  0.109800  0.038900  1.0  -0.5704
  O  O116  1  0.925800  0.890200  0.961100  1.0  -0.5704
  O  O117  1  0.610500  0.574600  0.037100  1.0  -0.5518
