# generated using pymatgen
data_Co3H50C76(N5O4)2
_symmetry_space_group_name_H-M   'P 1'
_cell_length_a   11.47120000
_cell_length_b   11.61470000
_cell_length_c   19.87810000
_cell_angle_alpha   81.15600000
_cell_angle_beta   74.92100000
_cell_angle_gamma   65.98700000
_symmetry_Int_Tables_number   1
_chemical_formula_structural   Co3H50C76(N5O4)2
_chemical_formula_sum   'Co3 H50 C76 N10 O8'
_cell_volume   2332.49151724
_cell_formula_units_Z   1
loop_
 _symmetry_equiv_pos_site_id
 _symmetry_equiv_pos_as_xyz
  1  'x, y, z'
loop_
 _atom_site_type_symbol
 _atom_site_label
 _atom_site_symmetry_multiplicity
 _atom_site_fract_x
 _atom_site_fract_y
 _atom_site_fract_z
 _atom_site_occupancy
 _atom_site_charge
  Co  Co1  1  0.500000  0.500000  0.000000  1.0  0.6952
  Co  Co2  1  0.000000  0.500000  0.000000  1.0  0.9776
  Co  Co3  1  0.000000  0.000000  0.000000  1.0  0.6706
  H  H4  1  0.306800  0.814600  0.040700  1.0  0.087
  H  H5  1  0.410900  0.580500  0.150200  1.0  0.0846
  H  H6  1  0.388100  0.502800  0.264100  1.0  0.122
  H  H7  1  0.475600  0.163500  0.194100  1.0  0.1212
  H  H8  1  0.493700  0.253500  0.082300  1.0  0.0972
  H  H9  1  0.448700  0.398500  0.356500  1.0  0.1176
  H  H10  1  0.419400  0.318700  0.473000  1.0  0.1216
  H  H11  1  0.346100  0.044800  0.415100  1.0  0.1113
  H  H12  1  0.373900  0.125500  0.300600  1.0  0.109
  H  H13  1  0.427500  0.225900  0.570300  1.0  0.1087
  H  H14  1  0.365500  0.174700  0.687200  1.0  0.1256
  H  H15  1  0.192500  0.971500  0.637100  1.0  0.1056
  H  H16  1  0.253100  0.023000  0.519800  1.0  0.1274
  H  H17  1  0.355100  0.054200  0.791300  1.0  0.1175
  H  H18  1  0.262100  0.021200  0.906800  1.0  0.0893
  H  H19  1  0.041500  0.045100  0.738900  1.0  0.127
  H  H20  1  0.955600  0.020800  0.855900  1.0  0.0802
  H  H21  1  0.180800  0.366900  0.101000  1.0  0.0811
  H  H22  1  0.185700  0.356900  0.216000  1.0  0.1118
  H  H23  1  0.875700  0.689300  0.234600  1.0  0.102
  H  H24  1  0.876700  0.684500  0.119900  1.0  0.0755
  H  H25  1  0.096700  0.325000  0.330800  1.0  0.1099
  H  H26  1  0.077600  0.314800  0.450000  1.0  0.1187
  H  H27  1  0.958600  0.686600  0.445400  1.0  0.1122
  H  H28  1  0.979800  0.696400  0.326800  1.0  0.0805
  H  H29  1  0.693200  0.185400  0.959300  1.0  0.0865
  H  H30  1  0.589100  0.419500  0.849800  1.0  0.0846
  H  H31  1  0.611900  0.497200  0.735900  1.0  0.1214
  H  H32  1  0.524400  0.836500  0.805900  1.0  0.121
  H  H33  1  0.506300  0.746500  0.917700  1.0  0.0969
  H  H34  1  0.551300  0.601500  0.643500  1.0  0.1169
  H  H35  1  0.580600  0.681300  0.527000  1.0  0.1221
  H  H36  1  0.653900  0.955200  0.584900  1.0  0.1124
  H  H37  1  0.626100  0.874500  0.699400  1.0  0.1087
  H  H38  1  0.572500  0.774100  0.429700  1.0  0.1083
  H  H39  1  0.634500  0.825300  0.312800  1.0  0.1251
  H  H40  1  0.807500  0.028500  0.362900  1.0  0.1057
  H  H41  1  0.746900  0.977000  0.480200  1.0  0.1285
  H  H42  1  0.644900  0.945800  0.208700  1.0  0.118
  H  H43  1  0.737900  0.978800  0.093200  1.0  0.0907
  H  H44  1  0.958500  0.954900  0.261100  1.0  0.1266
  H  H45  1  0.044400  0.979200  0.144100  1.0  0.0819
  H  H46  1  0.819200  0.633100  0.899000  1.0  0.0809
  H  H47  1  0.814300  0.643100  0.784000  1.0  0.1118
  H  H48  1  0.124300  0.310700  0.765400  1.0  0.1018
  H  H49  1  0.123300  0.315500  0.880100  1.0  0.0758
  H  H50  1  0.903300  0.675000  0.669200  1.0  0.1103
  H  H51  1  0.922400  0.685200  0.550000  1.0  0.1195
  H  H52  1  0.041400  0.313400  0.554600  1.0  0.1124
  H  H53  1  0.020200  0.303600  0.673200  1.0  0.0805
  C  C54  1  0.272400  0.490000  0.971400  1.0  0.6838
  C  C55  1  0.231800  0.621500  0.992100  1.0  -0.044
  C  C56  1  0.121600  0.731600  0.992600  1.0  -0.0442
  C  C57  1  0.265600  0.770900  0.024900  1.0  0.2864
  C  C58  1  0.990700  0.768200  0.975900  1.0  0.677
  C  C59  1  0.424600  0.493800  0.159400  1.0  0.1722
  C  C60  1  0.411200  0.447800  0.227900  1.0  -0.218
  C  C61  1  0.431200  0.322200  0.244000  1.0  0.1121
  C  C62  1  0.462000  0.250300  0.186800  1.0  -0.2099
  C  C63  1  0.472700  0.304400  0.120200  1.0  0.1703
  C  C64  1  0.415100  0.268800  0.316800  1.0  0.0231
  C  C65  1  0.427300  0.325900  0.368100  1.0  -0.1402
  C  C66  1  0.408500  0.278700  0.438100  1.0  -0.1346
  C  C67  1  0.374500  0.174400  0.456800  1.0  0.0573
  C  C68  1  0.365400  0.118500  0.404500  1.0  -0.1865
  C  C69  1  0.383700  0.166200  0.335500  1.0  -0.1394
  C  C70  1  0.343300  0.133600  0.532000  1.0  0.0449
  C  C71  1  0.377300  0.175000  0.583800  1.0  -0.1188
  C  C72  1  0.340700  0.144700  0.653500  1.0  -0.1866
  C  C73  1  0.267000  0.069900  0.674800  1.0  0.0487
  C  C74  1  0.239100  0.025800  0.623700  1.0  -0.1268
  C  C75  1  0.275300  0.056000  0.553300  1.0  -0.1945
  C  C76  1  0.213500  0.047200  0.749200  1.0  0.0883
  C  C77  1  0.274000  0.044200  0.802700  1.0  -0.2069
  C  C78  1  0.216800  0.026800  0.871900  1.0  0.1697
  C  C79  1  0.090300  0.040000  0.772100  1.0  -0.2114
  C  C80  1  0.039400  0.025500  0.842200  1.0  0.1739
  C  C81  1  0.115600  0.432000  0.129400  1.0  0.1708
  C  C82  1  0.120300  0.426300  0.197900  1.0  -0.2192
  C  C83  1  0.030500  0.521000  0.241000  1.0  0.11
  C  C84  1  0.938900  0.619800  0.208600  1.0  -0.1913
  C  C85  1  0.940200  0.616400  0.140100  1.0  0.1757
  C  C86  1  0.027200  0.517300  0.316100  1.0  0.1133
  C  C87  1  0.063900  0.400900  0.354300  1.0  -0.1443
  C  C88  1  0.053100  0.394800  0.425300  1.0  -0.1301
  C  C89  1  0.007200  0.503600  0.461300  1.0  0.0521
  C  C90  1  0.984100  0.610700  0.423100  1.0  -0.1429
  C  C91  1  0.995600  0.616600  0.351500  1.0  -0.1656
  C  C92  1  0.727600  0.510000  0.028600  1.0  0.6849
  C  C93  1  0.768200  0.378500  0.007900  1.0  -0.0441
  C  C94  1  0.878400  0.268400  0.007400  1.0  -0.0416
  C  C95  1  0.734400  0.229100  0.975100  1.0  0.2868
  C  C96  1  0.009300  0.231800  0.024100  1.0  0.6786
  C  C97  1  0.575400  0.506200  0.840600  1.0  0.1711
  C  C98  1  0.588800  0.552200  0.772100  1.0  -0.2179
  C  C99  1  0.568800  0.677800  0.756000  1.0  0.1125
  C  C100  1  0.538000  0.749700  0.813200  1.0  -0.2114
  C  C101  1  0.527300  0.695600  0.879800  1.0  0.1697
  C  C102  1  0.584900  0.731200  0.683200  1.0  0.0245
  C  C103  1  0.572700  0.674100  0.631900  1.0  -0.1384
  C  C104  1  0.591500  0.721300  0.561900  1.0  -0.134
  C  C105  1  0.625500  0.825600  0.543200  1.0  0.0577
  C  C106  1  0.634600  0.881500  0.595500  1.0  -0.1857
  C  C107  1  0.616300  0.833800  0.664500  1.0  -0.1415
  C  C108  1  0.656700  0.866400  0.468000  1.0  0.0448
  C  C109  1  0.622700  0.825000  0.416200  1.0  -0.117
  C  C110  1  0.659300  0.855300  0.346500  1.0  -0.187
  C  C111  1  0.733000  0.930100  0.325200  1.0  0.0502
  C  C112  1  0.760900  0.974200  0.376300  1.0  -0.1269
  C  C113  1  0.724700  0.944000  0.446700  1.0  -0.1926
  C  C114  1  0.786500  0.952800  0.250800  1.0  0.0883
  C  C115  1  0.726000  0.955800  0.197300  1.0  -0.2055
  C  C116  1  0.783200  0.973200  0.128100  1.0  0.1699
  C  C117  1  0.909700  0.960000  0.227900  1.0  -0.2104
  C  C118  1  0.960600  0.974500  0.157800  1.0  0.1742
  C  C119  1  0.884400  0.568000  0.870600  1.0  0.1707
  C  C120  1  0.879700  0.573700  0.802100  1.0  -0.2174
  C  C121  1  0.969500  0.479000  0.759000  1.0  0.1098
  C  C122  1  0.061100  0.380200  0.791400  1.0  -0.1903
  C  C123  1  0.059800  0.383600  0.859900  1.0  0.1757
  C  C124  1  0.972800  0.482700  0.683900  1.0  0.1123
  C  C125  1  0.936100  0.599100  0.645700  1.0  -0.1465
  C  C126  1  0.946900  0.605200  0.574700  1.0  -0.132
  C  C127  1  0.992800  0.496400  0.538700  1.0  0.0512
  C  C128  1  0.015900  0.389300  0.576900  1.0  -0.143
  C  C129  1  0.004400  0.383400  0.648500  1.0  -0.1659
  N  N130  1  0.322100  0.648700  0.012900  1.0  -0.398
  N  N131  1  0.145700  0.826100  0.012600  1.0  -0.4013
  N  N132  1  0.454700  0.426000  0.106900  1.0  -0.2876
  N  N133  1  0.100500  0.017700  0.891100  1.0  -0.2896
  N  N134  1  0.025100  0.523400  0.100500  1.0  -0.315
  N  N135  1  0.677900  0.351300  0.987100  1.0  -0.3965
  N  N136  1  0.854300  0.173900  0.987400  1.0  -0.3996
  N  N137  1  0.545300  0.574000  0.893100  1.0  -0.2865
  N  N138  1  0.899500  0.982300  0.108900  1.0  -0.2897
  N  N139  1  0.974900  0.476600  0.899500  1.0  -0.3144
  O  O140  1  0.392100  0.419500  0.968900  1.0  -0.568
  O  O141  1  0.195000  0.454800  0.955000  1.0  -0.5797
  O  O142  1  0.952000  0.687000  0.967400  1.0  -0.6029
  O  O143  1  0.923600  0.885500  0.971900  1.0  -0.5586
  O  O144  1  0.607900  0.580500  0.031100  1.0  -0.5643
  O  O145  1  0.805000  0.545200  0.045000  1.0  -0.5795
  O  O146  1  0.048000  0.313000  0.032600  1.0  -0.6029
  O  O147  1  0.076400  0.114500  0.028100  1.0  -0.5602
