# generated using pymatgen
data_InH2C5NO8
_symmetry_space_group_name_H-M   'P 1'
_cell_length_a   8.66880000
_cell_length_b   9.03550000
_cell_length_c   16.18280000
_cell_angle_alpha   82.61790000
_cell_angle_beta   74.46410000
_cell_angle_gamma   61.33370000
_symmetry_Int_Tables_number   1
_chemical_formula_structural   InH2C5NO8
_chemical_formula_sum   'In4 H8 C20 N4 O32'
_cell_volume   1071.54773093
_cell_formula_units_Z   4
loop_
 _symmetry_equiv_pos_site_id
 _symmetry_equiv_pos_as_xyz
  1  'x, y, z'
loop_
 _atom_site_type_symbol
 _atom_site_label
 _atom_site_symmetry_multiplicity
 _atom_site_fract_x
 _atom_site_fract_y
 _atom_site_fract_z
 _atom_site_occupancy
 _atom_site_charge
  In  In1  1  0.440790  0.027170  0.629530  1.0  1.5878
  In  In2  1  0.097490  0.972830  0.370470  1.0  1.5885
  In  In3  1  0.320320  0.527170  0.870470  1.0  1.5876
  In  In4  1  0.717960  0.472830  0.129530  1.0  1.5881
  H  H5  1  0.766700  0.510400  0.427400  1.0  0.1796
  H  H6  1  0.765300  0.662400  0.465000  1.0  0.1816
  H  H7  1  0.704500  0.489600  0.572600  1.0  0.1736
  H  H8  1  0.892700  0.337600  0.535000  1.0  0.1822
  H  H9  1  0.444100  0.010400  0.072600  1.0  0.1741
  H  H10  1  0.480300  0.162400  0.035000  1.0  0.1815
  H  H11  1  0.527100  0.989600  0.927400  1.0  0.1792
  H  H12  1  0.677700  0.837600  0.965000  1.0  0.1822
  C  C13  1  0.326320  0.876600  0.508760  1.0  0.6403
  C  C14  1  0.276420  0.847600  0.766360  1.0  0.6046
  C  C15  1  0.239990  0.066200  0.497420  1.0  0.7092
  C  C16  1  0.479450  0.725600  0.748500  1.0  0.6788
  C  C17  1  0.711680  0.123400  0.491240  1.0  0.6397
  C  C18  1  0.890380  0.152400  0.233640  1.0  0.6063
  C  C19  1  0.803610  0.933800  0.502580  1.0  0.7094
  C  C20  1  0.953550  0.274400  0.251500  1.0  0.6801
  C  C21  1  0.085080  0.376600  0.991240  1.0  0.6401
  C  C22  1  0.292780  0.347600  0.733640  1.0  0.6073
  C  C23  1  0.987410  0.566200  0.002580  1.0  0.709
  C  C24  1  0.477950  0.225600  0.751500  1.0  0.6797
  C  C25  1  0.452920  0.623400  0.008760  1.0  0.6397
  C  C26  1  0.374020  0.652400  0.266360  1.0  0.6041
  C  C27  1  0.556190  0.433800  0.997420  1.0  0.7096
  C  C28  1  0.455050  0.774400  0.248500  1.0  0.6789
  C  C29  1  0.830500  0.541000  0.457200  1.0  -0.0637
  C  C30  1  0.828700  0.459000  0.542800  1.0  -0.0641
  C  C31  1  0.537700  0.041000  0.042800  1.0  -0.0637
  C  C32  1  0.621500  0.959000  0.957200  1.0  -0.0634
  N  N33  1  0.016650  0.494200  0.402300  1.0  -0.2336
  N  N34  1  0.913150  0.505800  0.597700  1.0  -0.2325
  N  N35  1  0.668950  0.994200  0.097700  1.0  -0.2324
  N  N36  1  0.760850  0.005800  0.902300  1.0  -0.233
  O  O37  1  0.173210  0.797820  0.816760  1.0  -0.5404
  O  O38  1  0.147520  0.128940  0.442020  1.0  -0.5539
  O  O39  1  0.296620  0.796800  0.462560  1.0  -0.5141
  O  O40  1  0.527080  0.582480  0.783360  1.0  -0.5325
  O  O41  1  0.228890  0.990320  0.730300  1.0  -0.5385
  O  O42  1  0.582460  0.776040  0.700840  1.0  -0.5371
  O  O43  1  0.258630  0.153040  0.544900  1.0  -0.526
  O  O44  1  0.421070  0.818600  0.563060  1.0  -0.5398
  O  O45  1  0.787790  0.202180  0.183240  1.0  -0.5407
  O  O46  1  0.718480  0.871060  0.557980  1.0  -0.5537
  O  O47  1  0.555980  0.203200  0.537440  1.0  -0.5164
  O  O48  1  0.892920  0.417520  0.216640  1.0  -0.5344
  O  O49  1  0.949510  0.009680  0.269700  1.0  -0.5372
  O  O50  1  0.059340  0.223960  0.299160  1.0  -0.5386
  O  O51  1  0.956570  0.846960  0.455100  1.0  -0.5255
  O  O52  1  0.802730  0.181400  0.436940  1.0  -0.5407
  O  O53  1  0.239970  0.297820  0.683240  1.0  -0.5397
  O  O54  1  0.839540  0.628940  0.057980  1.0  -0.5532
  O  O55  1  0.009180  0.296800  0.037440  1.0  -0.5135
  O  O56  1  0.560440  0.082480  0.716640  1.0  -0.5333
  O  O57  1  0.209190  0.490320  0.769700  1.0  -0.5378
  O  O58  1  0.533300  0.276040  0.799160  1.0  -0.5383
  O  O59  1  0.053530  0.653040  0.955100  1.0  -0.5252
  O  O60  1  0.234130  0.318600  0.936940  1.0  -0.5414
  O  O61  1  0.221030  0.702180  0.316760  1.0  -0.5401
  O  O62  1  0.526460  0.371060  0.942020  1.0  -0.5544
  O  O63  1  0.343420  0.703200  0.962560  1.0  -0.5148
  O  O64  1  0.359560  0.917520  0.283360  1.0  -0.5341
  O  O65  1  0.469210  0.509680  0.230300  1.0  -0.5377
  O  O66  1  0.608500  0.723960  0.200840  1.0  -0.5374
  O  O67  1  0.661670  0.346960  0.044900  1.0  -0.5262
  O  O68  1  0.489670  0.681400  0.063060  1.0  -0.5397
