# generated using pymatgen
data_InH5C5NO8
_symmetry_space_group_name_H-M   'P 1'
_cell_length_a   8.66180000
_cell_length_b   9.03110000
_cell_length_c   16.17280000
_cell_angle_alpha   82.62170000
_cell_angle_beta   74.46720000
_cell_angle_gamma   61.34370000
_symmetry_Int_Tables_number   1
_chemical_formula_structural   InH5C5NO8
_chemical_formula_sum   'In4 H20 C20 N4 O32'
_cell_volume   1069.61790208
_cell_formula_units_Z   4
loop_
 _symmetry_equiv_pos_site_id
 _symmetry_equiv_pos_as_xyz
  1  'x, y, z'
loop_
 _atom_site_type_symbol
 _atom_site_label
 _atom_site_symmetry_multiplicity
 _atom_site_fract_x
 _atom_site_fract_y
 _atom_site_fract_z
 _atom_site_occupancy
 _atom_site_charge
  In  In1  1  0.968340  0.027380  0.370630  1.0  1.5732
  In  In2  1  0.366350  0.972610  0.629380  1.0  1.573
  In  In3  1  0.088960  0.527390  0.129370  1.0  1.5724
  In  In4  1  0.745720  0.472620  0.870620  1.0  1.5733
  H  H5  1  0.326400  0.337400  0.464800  1.0  0.095
  H  H6  1  0.175200  0.488800  0.427200  1.0  0.1172
  H  H7  1  0.382700  0.607000  0.417400  1.0  0.3339
  H  H8  1  0.404400  0.506800  0.347600  1.0  0.3495
  H  H9  1  0.516400  0.430000  0.409200  1.0  0.3307
  H  H10  1  0.128600  0.662600  0.535200  1.0  0.0949
  H  H11  1  0.091200  0.511200  0.572800  1.0  0.122
  H  H12  1  0.407100  0.393000  0.582600  1.0  0.3377
  H  H13  1  0.258800  0.493200  0.652400  1.0  0.3509
  H  H14  1  0.355600  0.570000  0.590800  1.0  0.3217
  H  H15  1  0.541200  0.837400  0.035200  1.0  0.0948
  H  H16  1  0.352400  0.988800  0.072800  1.0  0.1214
  H  H17  1  0.550100  0.107000  0.082600  1.0  0.3328
  H  H18  1  0.502000  0.006800  0.152400  1.0  0.3515
  H  H19  1  0.675600  0.930000  0.090800  1.0  0.3256
  H  H20  1  0.413800  0.162600  0.964800  1.0  0.0948
  H  H21  1  0.414000  0.011200  0.927200  1.0  0.1187
  H  H22  1  0.739700  0.893000  0.917400  1.0  0.3395
  H  H23  1  0.661200  0.993200  0.847600  1.0  0.3497
  H  H24  1  0.696400  0.070000  0.909200  1.0  0.3279
  C  C25  1  0.202830  0.933200  0.497740  1.0  0.5434
  C  C26  1  0.101220  0.124000  0.508960  1.0  0.5395
  C  C27  1  0.127090  0.225600  0.248820  1.0  0.5438
  C  C28  1  0.922850  0.348000  0.267100  1.0  0.5477
  C  C29  1  0.633770  0.066800  0.502260  1.0  0.5445
  C  C30  1  0.734180  0.876000  0.491040  1.0  0.5424
  C  C31  1  0.601510  0.774400  0.751180  1.0  0.5417
  C  C32  1  0.537950  0.652000  0.732900  1.0  0.5468
  C  C33  1  0.450570  0.433200  0.002260  1.0  0.5437
  C  C34  1  0.360180  0.624000  0.991040  1.0  0.5394
  C  C35  1  0.125910  0.725600  0.251180  1.0  0.5431
  C  C36  1  0.939950  0.848000  0.232900  1.0  0.5466
  C  C37  1  0.886030  0.566800  0.997740  1.0  0.5442
  C  C38  1  0.975220  0.376000  0.008960  1.0  0.5427
  C  C39  1  0.102690  0.274400  0.748820  1.0  0.5427
  C  C40  1  0.020850  0.152000  0.767100  1.0  0.5483
  C  C41  1  0.269800  0.458800  0.457000  1.0  -0.0109
  C  C42  1  0.185600  0.541200  0.543000  1.0  -0.0105
  C  C43  1  0.476800  0.958800  0.043000  1.0  -0.0104
  C  C44  1  0.478600  0.041200  0.957000  1.0  -0.0114
  N  N45  1  0.406930  0.505400  0.402340  1.0  -0.4003
  N  N46  1  0.314670  0.494600  0.597660  1.0  -0.4002
  N  N47  1  0.559270  0.005400  0.097660  1.0  -0.4001
  N  N48  1  0.662330  0.994600  0.902340  1.0  -0.4003
  O  O49  1  0.174830  0.871020  0.442720  1.0  -0.5501
  O  O50  1  0.991960  0.203300  0.462780  1.0  -0.5652
  O  O51  1  0.175100  0.083040  0.283560  1.0  -0.5771
  O  O52  1  0.821230  0.298400  0.316540  1.0  -0.552
  O  O53  1  0.310710  0.846160  0.544620  1.0  -0.58
  O  O54  1  0.139510  0.180500  0.562880  1.0  -0.5762
  O  O55  1  0.230690  0.276760  0.201460  1.0  -0.5661
  O  O56  1  0.877180  0.490600  0.230040  1.0  -0.5959
  O  O57  1  0.488570  0.128980  0.557280  1.0  -0.5507
  O  O58  1  0.658040  0.796700  0.537220  1.0  -0.5643
  O  O59  1  0.541700  0.916960  0.716440  1.0  -0.577
  O  O60  1  0.436170  0.701600  0.683460  1.0  -0.5527
  O  O61  1  0.701490  0.153840  0.455380  1.0  -0.5817
  O  O62  1  0.882890  0.819500  0.437120  1.0  -0.5785
  O  O63  1  0.708910  0.723240  0.798540  1.0  -0.5682
  O  O64  1  0.597820  0.509400  0.769960  1.0  -0.594
  O  O65  1  0.367550  0.371020  0.057280  1.0  -0.5502
  O  O66  1  0.204740  0.703300  0.037220  1.0  -0.5639
  O  O67  1  0.208660  0.583040  0.216440  1.0  -0.5763
  O  O68  1  0.887770  0.798400  0.183460  1.0  -0.5522
  O  O69  1  0.605330  0.346160  0.955380  1.0  -0.5817
  O  O70  1  0.452390  0.680500  0.937120  1.0  -0.5781
  O  O71  1  0.182150  0.776760  0.298540  1.0  -0.5682
  O  O72  1  0.857220  0.990600  0.269960  1.0  -0.5952
  O  O73  1  0.795850  0.628980  0.942720  1.0  -0.5513
  O  O74  1  0.945260  0.296700  0.962780  1.0  -0.5653
  O  O75  1  0.008140  0.416960  0.783560  1.0  -0.5778
  O  O76  1  0.869630  0.201600  0.816540  1.0  -0.5512
  O  O77  1  0.906870  0.653840  0.044620  1.0  -0.5798
  O  O78  1  0.070010  0.319500  0.062880  1.0  -0.5766
  O  O79  1  0.257450  0.223240  0.701460  1.0  -0.5662
  O  O80  1  0.117780  0.009400  0.730040  1.0  -0.5949
