# generated using pymatgen
data_Ca3Ce2H22C42(N3O13)2
_symmetry_space_group_name_H-M   'P 1'
_cell_length_a   9.43300000
_cell_length_b   16.26400000
_cell_length_c   24.12400000
_cell_angle_alpha   108.31200000
_cell_angle_beta   90.00000000
_cell_angle_gamma   90.00000000
_symmetry_Int_Tables_number   1
_chemical_formula_structural   Ca3Ce2H22C42(N3O13)2
_chemical_formula_sum   'Ca6 Ce4 H44 C84 N12 O52'
_cell_volume   3513.64037913
_cell_formula_units_Z   2
loop_
 _symmetry_equiv_pos_site_id
 _symmetry_equiv_pos_as_xyz
  1  'x, y, z'
loop_
 _atom_site_type_symbol
 _atom_site_label
 _atom_site_symmetry_multiplicity
 _atom_site_fract_x
 _atom_site_fract_y
 _atom_site_fract_z
 _atom_site_occupancy
 _atom_site_charge
  Ca  Ca1  1  0.994150  0.500000  0.750000  1.0  1.5061
  Ca  Ca2  1  0.000000  0.500000  0.500000  1.0  1.5557
  Ca  Ca3  1  0.000000  0.000000  0.000000  1.0  1.5149
  Ca  Ca4  1  0.000000  0.500000  0.000000  1.0  1.5557
  Ca  Ca5  1  0.005850  0.500000  0.250000  1.0  1.5045
  Ca  Ca6  1  0.000000  0.000000  0.500000  1.0  1.5149
  Ce  Ce7  1  0.508830  0.702290  0.403310  1.0  2.1721
  Ce  Ce8  1  0.508830  0.297710  0.096690  1.0  2.172
  Ce  Ce9  1  0.491170  0.297710  0.596690  1.0  2.1721
  Ce  Ce10  1  0.491170  0.702290  0.903310  1.0  2.1721
  H  H11  1  0.367000  0.575000  0.033000  1.0  0.0899
  H  H12  1  0.585000  0.172000  0.817000  1.0  0.0926
  H  H13  1  0.136000  0.363000  0.690000  1.0  0.4139
  H  H14  1  0.281100  0.290200  0.304100  1.0  0.1207
  H  H15  1  0.472000  0.976000  0.364000  1.0  0.1008
  H  H16  1  0.002000  0.630000  0.291000  1.0  0.3296
  H  H17  1  0.321000  0.903000  0.127000  1.0  0.1109
  H  H18  1  0.711000  0.636000  0.143000  1.0  0.1107
  H  H19  1  0.528000  0.024000  0.636000  1.0  0.1011
  H  H20  1  0.585000  0.828000  0.683000  1.0  0.0923
  H  H21  1  0.472000  0.024000  0.136000  1.0  0.101
  H  H22  1  0.370000  0.979000  0.934000  1.0  0.1098
  H  H23  1  0.679000  0.097000  0.873000  1.0  0.1113
  H  H24  1  0.718900  0.709800  0.695900  1.0  0.1212
  H  H25  1  0.370000  0.021000  0.566000  1.0  0.1107
  H  H26  1  0.281100  0.709800  0.195900  1.0  0.1211
  H  H27  1  0.377000  0.875000  0.746000  1.0  0.1096
  H  H28  1  0.533600  0.682100  0.093100  1.0  0.1
  H  H29  1  0.377000  0.125000  0.754000  1.0  0.1088
  H  H30  1  0.289000  0.364000  0.857000  1.0  0.1111
  H  H31  1  0.998000  0.630000  0.791000  1.0  0.3347
  H  H32  1  0.623000  0.875000  0.246000  1.0  0.1099
  H  H33  1  0.679000  0.903000  0.627000  1.0  0.1117
  H  H34  1  0.630000  0.979000  0.434000  1.0  0.11
  H  H35  1  0.136000  0.637000  0.810000  1.0  0.4126
  H  H36  1  0.633000  0.425000  0.967000  1.0  0.0909
  H  H37  1  0.466400  0.317900  0.906900  1.0  0.1002
  H  H38  1  0.718900  0.290200  0.804100  1.0  0.1205
  H  H39  1  0.466400  0.682100  0.593100  1.0  0.1001
  H  H40  1  0.864000  0.637000  0.310000  1.0  0.4134
  H  H41  1  0.321000  0.097000  0.373000  1.0  0.1108
  H  H42  1  0.415000  0.172000  0.317000  1.0  0.0926
  H  H43  1  0.864000  0.363000  0.190000  1.0  0.4125
  H  H44  1  0.998000  0.370000  0.709000  1.0  0.3339
  H  H45  1  0.289000  0.636000  0.643000  1.0  0.1108
  H  H46  1  0.623000  0.125000  0.254000  1.0  0.109
  H  H47  1  0.711000  0.364000  0.357000  1.0  0.1113
  H  H48  1  0.533600  0.317900  0.406900  1.0  0.0999
  H  H49  1  0.002000  0.370000  0.209000  1.0  0.3296
  H  H50  1  0.633000  0.575000  0.533000  1.0  0.0905
  H  H51  1  0.367000  0.425000  0.467000  1.0  0.0903
  H  H52  1  0.528000  0.976000  0.864000  1.0  0.1007
  H  H53  1  0.630000  0.021000  0.066000  1.0  0.1106
  H  H54  1  0.415000  0.828000  0.183000  1.0  0.0924
  C  C55  1  0.688400  0.833700  0.340800  1.0  0.5941
  C  C56  1  0.286500  0.526200  0.838000  1.0  0.6741
  C  C57  1  0.294800  0.361500  0.216400  1.0  0.6754
  C  C58  1  0.559300  0.795900  0.711400  1.0  -0.1247
  C  C59  1  0.530800  0.973000  0.601700  1.0  -0.0767
  C  C60  1  0.383200  0.294800  0.231700  1.0  0.1386
  C  C61  1  0.616800  0.705200  0.768300  1.0  0.1393
  C  C62  1  0.356000  0.733200  0.221000  1.0  -0.0817
  C  C63  1  0.377100  0.402600  0.872300  1.0  -0.133
  C  C64  1  0.688400  0.166300  0.159200  1.0  0.5941
  C  C65  1  0.579400  0.104000  0.488900  1.0  0.1413
  C  C66  1  0.426200  0.031100  0.940000  1.0  -0.0864
  C  C67  1  0.611500  0.834200  0.542700  1.0  0.1459
  C  C68  1  0.553400  0.171100  0.251000  1.0  -0.0885
  C  C69  1  0.427500  0.201400  0.704300  1.0  0.125
  C  C70  1  0.388500  0.165800  0.457300  1.0  0.1453
  C  C71  1  0.472100  0.625800  0.594600  1.0  -0.0995
  C  C72  1  0.553400  0.828900  0.249000  1.0  -0.0892
  C  C73  1  0.423100  0.570300  0.063400  1.0  -0.0926
  C  C74  1  0.420100  0.486700  0.066500  1.0  0.0991
  C  C75  1  0.644000  0.266800  0.779000  1.0  -0.0802
  C  C76  1  0.313000  0.885700  0.463700  1.0  0.6909
  C  C77  1  0.622900  0.597400  0.127700  1.0  -0.1301
  C  C78  1  0.313600  0.420700  0.033600  1.0  0.7036
  C  C79  1  0.388500  0.834200  0.042700  1.0  0.1452
  C  C80  1  0.311600  0.833700  0.840800  1.0  0.5936
  C  C81  1  0.624300  0.904600  0.592900  1.0  -0.1001
  C  C82  1  0.446600  0.828900  0.749000  1.0  -0.0891
  C  C83  1  0.527900  0.374200  0.405400  1.0  -0.1035
  C  C84  1  0.387700  0.487300  0.871500  1.0  0.1382
  C  C85  1  0.420600  0.896000  0.511100  1.0  0.142
  C  C86  1  0.427500  0.798600  0.795700  1.0  0.1264
  C  C87  1  0.576900  0.429700  0.936600  1.0  -0.091
  C  C88  1  0.530800  0.027000  0.898300  1.0  -0.0772
  C  C89  1  0.440700  0.204100  0.288600  1.0  -0.1257
  C  C90  1  0.687000  0.114300  0.536300  1.0  0.6935
  C  C91  1  0.579400  0.896000  0.011100  1.0  0.1414
  C  C92  1  0.573800  0.031100  0.440000  1.0  -0.0865
  C  C93  1  0.612300  0.512700  0.128500  1.0  0.1372
  C  C94  1  0.686400  0.579300  0.966400  1.0  0.7048
  C  C95  1  0.527900  0.625800  0.094600  1.0  -0.1009
  C  C96  1  0.286500  0.473800  0.662000  1.0  0.6747
  C  C97  1  0.612300  0.487300  0.371500  1.0  0.1385
  C  C98  1  0.576900  0.570300  0.563400  1.0  -0.092
  C  C99  1  0.573800  0.968900  0.060000  1.0  -0.0856
  C  C100  1  0.579900  0.513300  0.933500  1.0  0.1024
  C  C101  1  0.687000  0.885700  0.963700  1.0  0.6943
  C  C102  1  0.713500  0.526200  0.338000  1.0  0.6752
  C  C103  1  0.440700  0.795900  0.211400  1.0  -0.1254
  C  C104  1  0.420100  0.513300  0.433500  1.0  0.103
  C  C105  1  0.387700  0.512700  0.628500  1.0  0.137
  C  C106  1  0.706400  0.244000  0.970700  1.0  0.6613
  C  C107  1  0.611500  0.165800  0.957300  1.0  0.1454
  C  C108  1  0.472100  0.374200  0.905400  1.0  -0.101
  C  C109  1  0.420600  0.104000  0.988900  1.0  0.1418
  C  C110  1  0.686400  0.420700  0.533600  1.0  0.704
  C  C111  1  0.616800  0.294800  0.731700  1.0  0.1384
  C  C112  1  0.579900  0.486700  0.566500  1.0  0.1044
  C  C113  1  0.426200  0.968900  0.560000  1.0  -0.0863
  C  C114  1  0.446600  0.171100  0.751000  1.0  -0.0893
  C  C115  1  0.706400  0.756000  0.529300  1.0  0.6609
  C  C116  1  0.383200  0.705200  0.268300  1.0  0.1379
  C  C117  1  0.375700  0.904600  0.092900  1.0  -0.1022
  C  C118  1  0.313000  0.114300  0.036300  1.0  0.6905
  C  C119  1  0.469200  0.027000  0.398300  1.0  -0.0762
  C  C120  1  0.423100  0.429700  0.436600  1.0  -0.0899
  C  C121  1  0.294800  0.638500  0.283600  1.0  0.676
  C  C122  1  0.356000  0.266800  0.279000  1.0  -0.0788
  C  C123  1  0.572500  0.798600  0.295700  1.0  0.1248
  C  C124  1  0.559300  0.204100  0.788600  1.0  -0.1236
  C  C125  1  0.705200  0.361500  0.716400  1.0  0.6758
  C  C126  1  0.313600  0.579300  0.466400  1.0  0.7046
  C  C127  1  0.377100  0.597400  0.627700  1.0  -0.1319
  C  C128  1  0.375700  0.095400  0.407100  1.0  -0.1033
  C  C129  1  0.644000  0.733200  0.721000  1.0  -0.0809
  C  C130  1  0.622900  0.402600  0.372300  1.0  -0.1302
  C  C131  1  0.713500  0.473800  0.162000  1.0  0.6757
  C  C132  1  0.293600  0.756000  0.029300  1.0  0.6609
  C  C133  1  0.293600  0.244000  0.470700  1.0  0.6612
  C  C134  1  0.469200  0.973000  0.101700  1.0  -0.076
  C  C135  1  0.311600  0.166300  0.659200  1.0  0.5933
  C  C136  1  0.705200  0.638500  0.783600  1.0  0.6769
  C  C137  1  0.572500  0.201400  0.204300  1.0  0.1252
  C  C138  1  0.624300  0.095400  0.907100  1.0  -0.102
  N  N139  1  0.486100  0.541700  0.902200  1.0  -0.4496
  N  N140  1  0.487000  0.830500  0.001900  1.0  -0.4544
  N  N141  1  0.510600  0.262000  0.694400  1.0  -0.44
  N  N142  1  0.513900  0.541700  0.402200  1.0  -0.45
  N  N143  1  0.513000  0.830500  0.501900  1.0  -0.4541
  N  N144  1  0.487000  0.169500  0.498100  1.0  -0.4529
  N  N145  1  0.513900  0.458300  0.097800  1.0  -0.4486
  N  N146  1  0.513000  0.169500  0.998100  1.0  -0.4528
  N  N147  1  0.489400  0.262000  0.194400  1.0  -0.4393
  N  N148  1  0.510600  0.738000  0.805600  1.0  -0.441
  N  N149  1  0.486100  0.458300  0.597800  1.0  -0.4482
  N  N150  1  0.489400  0.738000  0.305600  1.0  -0.4409
  O  O151  1  0.076700  0.650900  0.790700  1.0  -0.785
  O  O152  1  0.211100  0.250000  0.431800  1.0  -0.5345
  O  O153  1  0.923300  0.650900  0.290700  1.0  -0.7864
  O  O154  1  0.773600  0.885500  0.332100  1.0  -0.5248
  O  O155  1  0.685600  0.193000  0.114650  1.0  -0.6929
  O  O156  1  0.797300  0.400700  0.751290  1.0  -0.6153
  O  O157  1  0.809100  0.519400  0.190750  1.0  -0.6895
  O  O158  1  0.809100  0.480600  0.309250  1.0  -0.6885
  O  O159  1  0.773600  0.114500  0.167900  1.0  -0.5262
  O  O160  1  0.692900  0.299200  0.020800  1.0  -0.6901
  O  O161  1  0.923300  0.349100  0.209300  1.0  -0.784
  O  O162  1  0.788900  0.750000  0.568200  1.0  -0.5347
  O  O163  1  0.797300  0.599300  0.748710  1.0  -0.615
  O  O164  1  0.321900  0.372400  0.167880  1.0  -0.6958
  O  O165  1  0.331700  0.343900  0.034900  1.0  -0.6996
  O  O166  1  0.190900  0.480600  0.809250  1.0  -0.6889
  O  O167  1  0.685600  0.807000  0.385350  1.0  -0.6933
  O  O168  1  0.331700  0.656100  0.465100  1.0  -0.7012
  O  O169  1  0.217800  0.940700  0.471400  1.0  -0.7381
  O  O170  1  0.308300  0.605000  0.842700  1.0  -0.6241
  O  O171  1  0.217600  0.444100  0.007090  1.0  -0.7488
  O  O172  1  0.226400  0.885500  0.832100  1.0  -0.5215
  O  O173  1  0.226400  0.114500  0.667900  1.0  -0.5213
  O  O174  1  0.202700  0.599300  0.248710  1.0  -0.615
  O  O175  1  0.327700  0.821100  0.418580  1.0  -0.6899
  O  O176  1  0.202700  0.400700  0.251290  1.0  -0.6158
  O  O177  1  0.668300  0.656100  0.965100  1.0  -0.6992
  O  O178  1  0.217800  0.059300  0.028600  1.0  -0.7374
  O  O179  1  0.672300  0.821100  0.918580  1.0  -0.6888
  O  O180  1  0.307100  0.299200  0.520800  1.0  -0.6878
  O  O181  1  0.211100  0.750000  0.068200  1.0  -0.5347
  O  O182  1  0.692900  0.700800  0.479200  1.0  -0.6894
  O  O183  1  0.782200  0.940700  0.971400  1.0  -0.7353
  O  O184  1  0.678100  0.372400  0.667880  1.0  -0.6958
  O  O185  1  0.076700  0.349100  0.709300  1.0  -0.7835
  O  O186  1  0.782400  0.555900  0.992910  1.0  -0.7428
  O  O187  1  0.314400  0.807000  0.885350  1.0  -0.6901
  O  O188  1  0.217600  0.555900  0.492910  1.0  -0.7474
  O  O189  1  0.691700  0.605000  0.342700  1.0  -0.6233
  O  O190  1  0.307100  0.700800  0.979200  1.0  -0.6882
  O  O191  1  0.788900  0.250000  0.931800  1.0  -0.5313
  O  O192  1  0.782400  0.444100  0.507090  1.0  -0.7453
  O  O193  1  0.691700  0.395000  0.157300  1.0  -0.6238
  O  O194  1  0.672300  0.178900  0.581420  1.0  -0.6889
  O  O195  1  0.327700  0.178900  0.081420  1.0  -0.6902
  O  O196  1  0.321900  0.627600  0.332120  1.0  -0.6956
  O  O197  1  0.190900  0.519400  0.690750  1.0  -0.6887
  O  O198  1  0.678100  0.627600  0.832120  1.0  -0.6958
  O  O199  1  0.668300  0.343900  0.534900  1.0  -0.7028
  O  O200  1  0.308300  0.395000  0.657300  1.0  -0.6237
  O  O201  1  0.314400  0.193000  0.614650  1.0  -0.692
  O  O202  1  0.782200  0.059300  0.528600  1.0  -0.7343
