# generated using pymatgen
data_Ba2CeH13C21N4O17
_symmetry_space_group_name_H-M   'P 1'
_cell_length_a   10.17190000
_cell_length_b   11.55570000
_cell_length_c   15.20810000
_cell_angle_alpha   106.02100000
_cell_angle_beta   109.25100000
_cell_angle_gamma   90.59700000
_symmetry_Int_Tables_number   1
_chemical_formula_structural   Ba2CeH13C21N4O17
_chemical_formula_sum   'Ba4 Ce2 H26 C42 N8 O34'
_cell_volume   1611.94461968
_cell_formula_units_Z   2
loop_
 _symmetry_equiv_pos_site_id
 _symmetry_equiv_pos_as_xyz
  1  'x, y, z'
loop_
 _atom_site_type_symbol
 _atom_site_label
 _atom_site_symmetry_multiplicity
 _atom_site_fract_x
 _atom_site_fract_y
 _atom_site_fract_z
 _atom_site_occupancy
 _atom_site_charge
  Ba  Ba1  1  0.593410  0.752560  0.340170  1.0  1.6314
  Ba  Ba2  1  0.888540  0.328300  0.884230  1.0  1.629
  Ba  Ba3  1  0.406600  0.247440  0.659830  1.0  1.6321
  Ba  Ba4  1  0.111460  0.671700  0.115770  1.0  1.6282
  Ce  Ce5  1  0.635820  0.790840  0.770420  1.0  2.1925
  Ce  Ce6  1  0.364180  0.209160  0.229580  1.0  2.1923
  H  H7  1  0.606100  0.902500  0.137500  1.0  0.1099
  H  H8  1  0.878200  0.423500  0.199800  1.0  0.1191
  H  H9  1  0.099500  0.875100  0.875400  1.0  0.1015
  H  H10  1  0.591000  0.209000  0.879000  1.0  0.4519
  H  H11  1  0.770300  0.506700  0.551300  1.0  0.0998
  H  H12  1  0.667000  0.439000  0.712000  1.0  0.4558
  H  H13  1  0.010200  0.718500  0.576300  1.0  0.1081
  H  H14  1  0.792100  0.056300  0.217200  1.0  0.1104
  H  H15  1  0.412000  0.879000  0.197000  1.0  0.4459
  H  H16  1  0.900500  0.124900  0.124600  1.0  0.1018
  H  H17  1  0.207900  0.943700  0.782800  1.0  0.1105
  H  H18  1  0.842900  0.156900  0.508900  1.0  0.1197
  H  H19  1  0.835900  0.386100  0.331600  1.0  0.1054
  H  H20  1  0.409000  0.791000  0.121000  1.0  0.4549
  H  H21  1  0.989800  0.281500  0.423700  1.0  0.107
  H  H22  1  0.393900  0.097500  0.862500  1.0  0.1114
  H  H23  1  0.121800  0.576500  0.800200  1.0  0.1196
  H  H24  1  0.229700  0.493300  0.448700  1.0  0.0998
  H  H25  1  0.275000  0.654000  0.326000  1.0  0.4724
  H  H26  1  0.333000  0.561000  0.288000  1.0  0.4561
  H  H27  1  0.092400  0.638900  0.398200  1.0  0.11
  H  H28  1  0.907600  0.361100  0.601800  1.0  0.1093
  H  H29  1  0.725000  0.346000  0.674000  1.0  0.4724
  H  H30  1  0.588000  0.121000  0.803000  1.0  0.4456
  H  H31  1  0.157100  0.843100  0.491100  1.0  0.1197
  H  H32  1  0.164100  0.613900  0.668400  1.0  0.1056
  C  C33  1  0.229400  0.192800  0.403310  1.0  0.6327
  C  C34  1  0.652600  0.929800  0.102400  1.0  -0.0994
  C  C35  1  0.323800  0.810600  0.595700  1.0  0.139
  C  C36  1  0.791700  0.217200  0.489400  1.0  -0.1042
  C  C37  1  0.218700  0.992600  0.004800  1.0  0.1321
  C  C38  1  0.942800  0.656500  0.781100  1.0  0.1751
  C  C39  1  0.781300  0.007400  0.995200  1.0  0.1337
  C  C40  1  0.845600  0.045800  0.929680  1.0  0.6537
  C  C41  1  0.371900  0.938700  0.662820  1.0  0.6417
  C  C42  1  0.154400  0.954200  0.070320  1.0  0.6539
  C  C43  1  0.829000  0.338800  0.545200  1.0  -0.0716
  C  C44  1  0.463600  0.522600  0.606620  1.0  0.6315
  C  C45  1  0.086100  0.640200  0.683800  1.0  -0.0883
  C  C46  1  0.632200  0.388600  0.430360  1.0  0.1422
  C  C47  1  0.500200  0.227900  0.054500  1.0  0.6249
  C  C48  1  0.005400  0.297600  0.371100  1.0  -0.0899
  C  C49  1  0.994600  0.702400  0.628900  1.0  -0.0894
  C  C50  1  0.171000  0.661200  0.454800  1.0  -0.0716
  C  C51  1  0.676200  0.189400  0.404300  1.0  0.1377
  C  C52  1  0.499800  0.772100  0.945500  1.0  0.6237
  C  C53  1  0.172500  0.937600  0.904900  1.0  -0.0783
  C  C54  1  0.770600  0.807200  0.596690  1.0  0.6325
  C  C55  1  0.237400  0.977800  0.850100  1.0  -0.0827
  C  C56  1  0.252300  0.574600  0.484800  1.0  -0.0973
  C  C57  1  0.879100  0.740600  0.653620  1.0  0.1511
  C  C58  1  0.057200  0.343500  0.218900  1.0  0.1754
  C  C59  1  0.060900  0.617300  0.761800  1.0  -0.1043
  C  C60  1  0.387100  0.121200  0.997080  1.0  0.1292
  C  C61  1  0.612900  0.878800  0.002920  1.0  0.1286
  C  C62  1  0.367800  0.611400  0.569640  1.0  0.142
  C  C63  1  0.902500  0.635100  0.863490  1.0  0.6299
  C  C64  1  0.628100  0.061300  0.337180  1.0  0.6411
  C  C65  1  0.347400  0.070200  0.897600  1.0  -0.0982
  C  C66  1  0.208300  0.782800  0.510600  1.0  -0.1034
  C  C67  1  0.536400  0.477400  0.393380  1.0  0.6297
  C  C68  1  0.120900  0.259400  0.346380  1.0  0.1514
  C  C69  1  0.939100  0.382700  0.238200  1.0  -0.1039
  C  C70  1  0.097500  0.364900  0.136510  1.0  0.6311
  C  C71  1  0.913900  0.359800  0.316200  1.0  -0.0855
  C  C72  1  0.762600  0.022200  0.149900  1.0  -0.0814
  C  C73  1  0.747700  0.425400  0.515200  1.0  -0.0951
  C  C74  1  0.827500  0.062400  0.095100  1.0  -0.0822
  N  N75  1  0.598100  0.273500  0.375480  1.0  -0.4533
  N  N76  1  0.677100  0.917000  0.949990  1.0  -0.4653
  N  N77  1  0.854600  0.717820  0.728870  1.0  -0.4702
  N  N78  1  0.322900  0.083000  0.050010  1.0  -0.4646
  N  N79  1  0.401900  0.726500  0.624520  1.0  -0.4507
  N  N80  1  0.136000  0.310100  0.728200  1.0  0.8261
  N  N81  1  0.864000  0.689900  0.271800  1.0  0.8255
  N  N82  1  0.145400  0.282180  0.271130  1.0  -0.4728
  O  O83  1  0.811000  0.974970  0.843120  1.0  -0.6987
  O  O84  1  0.778100  0.752270  0.229860  1.0  -0.716
  O  O85  1  0.607000  0.194710  0.828520  1.0  -0.8564
  O  O86  1  0.303600  0.627610  0.280230  1.0  -0.8694
  O  O87  1  0.924000  0.142140  0.963190  1.0  -0.6162
  O  O88  1  0.393000  0.805290  0.171480  1.0  -0.8586
  O  O89  1  0.027000  0.428970  0.088440  1.0  -0.6939
  O  O90  1  0.487600  0.725170  0.856650  1.0  -0.703
  O  O91  1  0.973000  0.571030  0.911560  1.0  -0.6936
  O  O92  1  0.300100  0.020500  0.643370  1.0  -0.6261
  O  O93  1  0.575900  0.569100  0.677850  1.0  -0.6375
  O  O94  1  0.569000  0.262110  0.010730  1.0  -0.5958
  O  O95  1  0.424100  0.430900  0.322150  1.0  -0.6366
  O  O96  1  0.211000  0.170260  0.474120  1.0  -0.6309
  O  O97  1  0.797110  0.684140  0.876360  1.0  -0.6977
  O  O98  1  0.515530  0.047390  0.264940  1.0  -0.5977
  O  O99  1  0.189000  0.025030  0.156880  1.0  -0.6989
  O  O100  1  0.696400  0.372390  0.719770  1.0  -0.8693
  O  O101  1  0.844600  0.656000  0.338230  1.0  -0.6372
  O  O102  1  0.699900  0.979500  0.356630  1.0  -0.6273
  O  O103  1  0.076000  0.857860  0.036810  1.0  -0.6153
  O  O104  1  0.967900  0.661590  0.247010  1.0  -0.6593
  O  O105  1  0.155400  0.344000  0.661770  1.0  -0.6386
  O  O106  1  0.330200  0.165960  0.373630  1.0  -0.6882
  O  O107  1  0.512400  0.274830  0.143350  1.0  -0.7048
  O  O108  1  0.484470  0.952610  0.735060  1.0  -0.5973
  O  O109  1  0.431000  0.737890  0.989270  1.0  -0.5936
  O  O110  1  0.202890  0.315860  0.123640  1.0  -0.6975
  O  O111  1  0.425700  0.412920  0.565980  1.0  -0.6463
  O  O112  1  0.221900  0.247730  0.770140  1.0  -0.7146
  O  O113  1  0.032100  0.338410  0.752990  1.0  -0.6596
  O  O114  1  0.789000  0.829740  0.525880  1.0  -0.6307
  O  O115  1  0.669800  0.834040  0.626370  1.0  -0.6872
  O  O116  1  0.574300  0.587080  0.434020  1.0  -0.6476
