# generated using pymatgen
data_BaZnH16(CO)10
_symmetry_space_group_name_H-M   'P 1'
_cell_length_a   27.81900000
_cell_length_b   27.81900000
_cell_length_c   12.61300000
_cell_angle_alpha   90.00000000
_cell_angle_beta   90.00000000
_cell_angle_gamma   120.00000000
_symmetry_Int_Tables_number   1
_chemical_formula_structural   BaZnH16(CO)10
_chemical_formula_sum   'Ba18 Zn18 H288 C180 O180'
_cell_volume   8453.41239746
_cell_formula_units_Z   18
loop_
 _symmetry_equiv_pos_site_id
 _symmetry_equiv_pos_as_xyz
  1  'x, y, z'
loop_
 _atom_site_type_symbol
 _atom_site_label
 _atom_site_symmetry_multiplicity
 _atom_site_fract_x
 _atom_site_fract_y
 _atom_site_fract_z
 _atom_site_occupancy
 _atom_site_charge
  Ba  Ba1  1  0.666667  0.039620  0.333333  1.0  1.5681
  Ba  Ba2  1  0.960380  0.627040  0.333333  1.0  1.5682
  Ba  Ba3  1  0.372960  0.333333  0.333333  1.0  1.5694
  Ba  Ba4  1  0.039620  0.666667  0.666667  1.0  1.5694
  Ba  Ba5  1  0.706290  0.000000  0.000000  1.0  1.5697
  Ba  Ba6  1  0.627040  0.960380  0.666667  1.0  1.5685
  Ba  Ba7  1  0.293710  0.293710  0.000000  1.0  1.5687
  Ba  Ba8  1  0.333333  0.372960  0.666667  1.0  1.5682
  Ba  Ba9  1  0.000000  0.706290  0.000000  1.0  1.5682
  Ba  Ba10  1  0.333333  0.960380  0.666667  1.0  1.5693
  Ba  Ba11  1  0.000000  0.293710  0.000000  1.0  1.5698
  Ba  Ba12  1  0.039620  0.372960  0.666667  1.0  1.5691
  Ba  Ba13  1  0.706290  0.706290  0.000000  1.0  1.5694
  Ba  Ba14  1  0.627040  0.666667  0.666667  1.0  1.5687
  Ba  Ba15  1  0.293710  0.000000  0.000000  1.0  1.5689
  Ba  Ba16  1  0.960380  0.333333  0.333333  1.0  1.5687
  Ba  Ba17  1  0.372960  0.039620  0.333333  1.0  1.5689
  Ba  Ba18  1  0.666667  0.627040  0.333333  1.0  1.5694
  Zn  Zn19  1  0.537750  0.075500  0.193460  1.0  0.8815
  Zn  Zn20  1  0.204420  0.408830  0.526790  1.0  0.8815
  Zn  Zn21  1  0.871080  0.742170  0.860130  1.0  0.8814
  Zn  Zn22  1  0.924500  0.462250  0.193460  1.0  0.8881
  Zn  Zn23  1  0.591170  0.795580  0.526790  1.0  0.8881
  Zn  Zn24  1  0.257830  0.128920  0.860130  1.0  0.888
  Zn  Zn25  1  0.537750  0.462250  0.193460  1.0  0.884
  Zn  Zn26  1  0.204420  0.795580  0.526790  1.0  0.8841
  Zn  Zn27  1  0.871080  0.128920  0.860130  1.0  0.8841
  Zn  Zn28  1  0.075500  0.537750  0.806540  1.0  0.8841
  Zn  Zn29  1  0.742170  0.871080  0.139870  1.0  0.8841
  Zn  Zn30  1  0.408830  0.204420  0.473210  1.0  0.8841
  Zn  Zn31  1  0.462250  0.924500  0.806540  1.0  0.8791
  Zn  Zn32  1  0.128920  0.257830  0.139870  1.0  0.879
  Zn  Zn33  1  0.795580  0.591170  0.473210  1.0  0.8791
  Zn  Zn34  1  0.462250  0.537750  0.806540  1.0  0.8871
  Zn  Zn35  1  0.128920  0.871080  0.139870  1.0  0.8872
  Zn  Zn36  1  0.795580  0.204420  0.473210  1.0  0.8872
  H  H37  1  0.622200  0.040600  0.107000  1.0  0.4593
  H  H38  1  0.595800  0.982800  0.112000  1.0  0.4378
  H  H39  1  0.559900  0.176200  0.827000  1.0  0.1114
  H  H40  1  0.634200  0.212100  0.014000  1.0  0.1142
  H  H41  1  0.605200  0.154100  0.581000  1.0  0.1143
  H  H42  1  0.573600  0.203600  0.407100  1.0  0.1131
  H  H43  1  0.288870  0.373930  0.440330  1.0  0.4593
  H  H44  1  0.262470  0.316130  0.445330  1.0  0.4379
  H  H45  1  0.226570  0.509530  0.160330  1.0  0.1114
  H  H46  1  0.300870  0.545430  0.347330  1.0  0.1142
  H  H47  1  0.271870  0.487430  0.914330  1.0  0.1143
  H  H48  1  0.240270  0.536930  0.740430  1.0  0.1131
  H  H49  1  0.955530  0.707270  0.773670  1.0  0.4593
  H  H50  1  0.929130  0.649470  0.778670  1.0  0.4379
  H  H51  1  0.893230  0.842870  0.493670  1.0  0.1118
  H  H52  1  0.967530  0.878770  0.680670  1.0  0.1214
  H  H53  1  0.938530  0.820770  0.247670  1.0  0.1128
  H  H54  1  0.906930  0.870270  0.073770  1.0  0.1127
  H  H55  1  0.959400  0.581600  0.107000  1.0  0.4617
  H  H56  1  0.017200  0.613000  0.112000  1.0  0.439
  H  H57  1  0.823800  0.383700  0.827000  1.0  0.1144
  H  H58  1  0.787900  0.422100  0.014000  1.0  0.1174
  H  H59  1  0.845900  0.451100  0.581000  1.0  0.1123
  H  H60  1  0.796400  0.370000  0.407100  1.0  0.1079
  H  H61  1  0.626070  0.914930  0.440330  1.0  0.4617
  H  H62  1  0.683870  0.946330  0.445330  1.0  0.439
  H  H63  1  0.490470  0.717030  0.160330  1.0  0.1144
  H  H64  1  0.454570  0.755430  0.347330  1.0  0.1174
  H  H65  1  0.512570  0.784430  0.914330  1.0  0.1123
  H  H66  1  0.463070  0.703330  0.740430  1.0  0.1079
  H  H67  1  0.292730  0.248270  0.773670  1.0  0.4617
  H  H68  1  0.350530  0.279670  0.778670  1.0  0.439
  H  H69  1  0.157130  0.050370  0.493670  1.0  0.1142
  H  H70  1  0.121230  0.088770  0.680670  1.0  0.1172
  H  H71  1  0.179230  0.117770  0.247670  1.0  0.113
  H  H72  1  0.129730  0.036670  0.073770  1.0  0.1117
  H  H73  1  0.418400  0.377800  0.107000  1.0  0.4634
  H  H74  1  0.387000  0.404200  0.112000  1.0  0.437
  H  H75  1  0.616300  0.440100  0.827000  1.0  0.1129
  H  H76  1  0.577900  0.365800  0.014000  1.0  0.1189
  H  H77  1  0.548900  0.394800  0.581000  1.0  0.1169
  H  H78  1  0.630000  0.426400  0.407100  1.0  0.1131
  H  H79  1  0.085070  0.711130  0.440330  1.0  0.4634
  H  H80  1  0.053670  0.737530  0.445330  1.0  0.4371
  H  H81  1  0.282970  0.773430  0.160330  1.0  0.1129
  H  H82  1  0.244570  0.699130  0.347330  1.0  0.1189
  H  H83  1  0.215570  0.728130  0.914330  1.0  0.1169
  H  H84  1  0.296670  0.759730  0.740430  1.0  0.1131
  H  H85  1  0.751730  0.044470  0.773670  1.0  0.4634
  H  H86  1  0.720330  0.070870  0.778670  1.0  0.437
  H  H87  1  0.949630  0.106770  0.493670  1.0  0.1129
  H  H88  1  0.911230  0.032470  0.680670  1.0  0.1169
  H  H89  1  0.882230  0.061470  0.247670  1.0  0.117
  H  H90  1  0.963330  0.093070  0.073770  1.0  0.1088
  H  H91  1  0.040600  0.622200  0.893000  1.0  0.4629
  H  H92  1  0.982800  0.595800  0.888000  1.0  0.4383
  H  H93  1  0.176200  0.559900  0.173000  1.0  0.1122
  H  H94  1  0.212100  0.634200  0.986000  1.0  0.1166
  H  H95  1  0.154100  0.605200  0.419000  1.0  0.1175
  H  H96  1  0.203600  0.573600  0.592900  1.0  0.1141
  H  H97  1  0.707270  0.955530  0.226330  1.0  0.4629
  H  H98  1  0.649470  0.929130  0.221330  1.0  0.4384
  H  H99  1  0.842870  0.893230  0.506330  1.0  0.1121
  H  H100  1  0.878770  0.967530  0.319330  1.0  0.123
  H  H101  1  0.820770  0.938530  0.752330  1.0  0.1165
  H  H102  1  0.870270  0.906930  0.926230  1.0  0.1138
  H  H103  1  0.373930  0.288870  0.559670  1.0  0.4629
  H  H104  1  0.316130  0.262470  0.554670  1.0  0.4384
  H  H105  1  0.509530  0.226570  0.839670  1.0  0.1122
  H  H106  1  0.545430  0.300870  0.652670  1.0  0.1166
  H  H107  1  0.487430  0.271870  0.085670  1.0  0.1175
  H  H108  1  0.536930  0.240270  0.259570  1.0  0.1141
  H  H109  1  0.581600  0.959400  0.893000  1.0  0.46
  H  H110  1  0.613000  0.017200  0.888000  1.0  0.437
  H  H111  1  0.383700  0.823800  0.173000  1.0  0.1119
  H  H112  1  0.422100  0.787900  0.986000  1.0  0.1189
  H  H113  1  0.451100  0.845900  0.419000  1.0  0.1132
  H  H114  1  0.370000  0.796400  0.592900  1.0  0.1111
  H  H115  1  0.248270  0.292730  0.226330  1.0  0.46
  H  H116  1  0.279670  0.350530  0.221330  1.0  0.437
  H  H117  1  0.050370  0.157130  0.506330  1.0  0.1114
  H  H118  1  0.088770  0.121230  0.319330  1.0  0.1181
  H  H119  1  0.117770  0.179230  0.752330  1.0  0.1139
  H  H120  1  0.036670  0.129730  0.926230  1.0  0.1137
  H  H121  1  0.914930  0.626070  0.559670  1.0  0.46
  H  H122  1  0.946330  0.683870  0.554670  1.0  0.437
  H  H123  1  0.717030  0.490470  0.839670  1.0  0.1119
  H  H124  1  0.755430  0.454570  0.652670  1.0  0.1189
  H  H125  1  0.784430  0.512570  0.085670  1.0  0.1132
  H  H126  1  0.703330  0.463070  0.259570  1.0  0.1111
  H  H127  1  0.377800  0.418400  0.893000  1.0  0.4599
  H  H128  1  0.404200  0.387000  0.888000  1.0  0.4396
  H  H129  1  0.440100  0.616300  0.173000  1.0  0.1149
  H  H130  1  0.365800  0.577900  0.986000  1.0  0.117
  H  H131  1  0.394800  0.548900  0.419000  1.0  0.1132
  H  H132  1  0.426400  0.630000  0.592900  1.0  0.1145
  H  H133  1  0.044470  0.751730  0.226330  1.0  0.4599
  H  H134  1  0.070870  0.720330  0.221330  1.0  0.4395
  H  H135  1  0.106770  0.949630  0.506330  1.0  0.1149
  H  H136  1  0.032470  0.911230  0.319330  1.0  0.1139
  H  H137  1  0.061470  0.882230  0.752330  1.0  0.1133
  H  H138  1  0.093070  0.963330  0.926230  1.0  0.1116
  H  H139  1  0.711130  0.085070  0.559670  1.0  0.4599
  H  H140  1  0.737530  0.053670  0.554670  1.0  0.4396
  H  H141  1  0.773430  0.282970  0.839670  1.0  0.1149
  H  H142  1  0.699130  0.244570  0.652670  1.0  0.117
  H  H143  1  0.728130  0.215570  0.085670  1.0  0.1133
  H  H144  1  0.759730  0.296670  0.259570  1.0  0.1145
  H  H145  1  0.377800  0.959400  0.893000  1.0  0.4623
  H  H146  1  0.404200  0.017200  0.888000  1.0  0.4372
  H  H147  1  0.440100  0.823800  0.173000  1.0  0.113
  H  H148  1  0.365800  0.787900  0.986000  1.0  0.1133
  H  H149  1  0.394800  0.845900  0.419000  1.0  0.1127
  H  H150  1  0.426400  0.796400  0.592900  1.0  0.113
  H  H151  1  0.044470  0.292730  0.226330  1.0  0.4623
  H  H152  1  0.070870  0.350530  0.221330  1.0  0.4373
  H  H153  1  0.106770  0.157130  0.506330  1.0  0.1127
  H  H154  1  0.032470  0.121230  0.319330  1.0  0.1198
  H  H155  1  0.061470  0.179230  0.752330  1.0  0.1112
  H  H156  1  0.093070  0.129730  0.926230  1.0  0.1124
  H  H157  1  0.711130  0.626070  0.559670  1.0  0.4623
  H  H158  1  0.737530  0.683870  0.554670  1.0  0.4373
  H  H159  1  0.773430  0.490470  0.839670  1.0  0.113
  H  H160  1  0.699130  0.454570  0.652670  1.0  0.1133
  H  H161  1  0.728130  0.512570  0.085670  1.0  0.1127
  H  H162  1  0.759730  0.463070  0.259570  1.0  0.113
  H  H163  1  0.040600  0.418400  0.893000  1.0  0.4614
  H  H164  1  0.982800  0.387000  0.888000  1.0  0.4416
  H  H165  1  0.176200  0.616300  0.173000  1.0  0.1143
  H  H166  1  0.212100  0.577900  0.986000  1.0  0.1177
  H  H167  1  0.154100  0.548900  0.419000  1.0  0.1136
  H  H168  1  0.203600  0.630000  0.592900  1.0  0.1114
  H  H169  1  0.707270  0.751730  0.226330  1.0  0.4614
  H  H170  1  0.649470  0.720330  0.221330  1.0  0.4416
  H  H171  1  0.842870  0.949630  0.506330  1.0  0.1144
  H  H172  1  0.878770  0.911230  0.319330  1.0  0.1172
  H  H173  1  0.820770  0.882230  0.752330  1.0  0.1143
  H  H174  1  0.870270  0.963330  0.926230  1.0  0.1143
  H  H175  1  0.373930  0.085070  0.559670  1.0  0.4614
  H  H176  1  0.316130  0.053670  0.554670  1.0  0.4416
  H  H177  1  0.509530  0.282970  0.839670  1.0  0.1143
  H  H178  1  0.545430  0.244570  0.652670  1.0  0.1177
  H  H179  1  0.487430  0.215570  0.085670  1.0  0.1136
  H  H180  1  0.536930  0.296670  0.259570  1.0  0.1114
  H  H181  1  0.581600  0.622200  0.893000  1.0  0.462
  H  H182  1  0.613000  0.595800  0.888000  1.0  0.4377
  H  H183  1  0.383700  0.559900  0.173000  1.0  0.1088
  H  H184  1  0.422100  0.634200  0.986000  1.0  0.1201
  H  H185  1  0.451100  0.605200  0.419000  1.0  0.1177
  H  H186  1  0.370000  0.573600  0.592900  1.0  0.1138
  H  H187  1  0.248270  0.955530  0.226330  1.0  0.462
  H  H188  1  0.279670  0.929130  0.221330  1.0  0.4376
  H  H189  1  0.050370  0.893230  0.506330  1.0  0.1088
  H  H190  1  0.088770  0.967530  0.319330  1.0  0.1173
  H  H191  1  0.117770  0.938530  0.752330  1.0  0.1178
  H  H192  1  0.036670  0.906930  0.926230  1.0  0.1069
  H  H193  1  0.914930  0.288870  0.559670  1.0  0.462
  H  H194  1  0.946330  0.262470  0.554670  1.0  0.4377
  H  H195  1  0.717030  0.226570  0.839670  1.0  0.1088
  H  H196  1  0.755430  0.300870  0.652670  1.0  0.1201
  H  H197  1  0.784430  0.271870  0.085670  1.0  0.1177
  H  H198  1  0.703330  0.240270  0.259570  1.0  0.1138
  H  H199  1  0.959400  0.377800  0.107000  1.0  0.4618
  H  H200  1  0.017200  0.404200  0.112000  1.0  0.436
  H  H201  1  0.823800  0.440100  0.827000  1.0  0.1098
  H  H202  1  0.787900  0.365800  0.014000  1.0  0.1164
  H  H203  1  0.845900  0.394800  0.581000  1.0  0.117
  H  H204  1  0.796400  0.426400  0.407100  1.0  0.1124
  H  H205  1  0.626070  0.711130  0.440330  1.0  0.4618
  H  H206  1  0.683870  0.737530  0.445330  1.0  0.4361
  H  H207  1  0.490470  0.773430  0.160330  1.0  0.1098
  H  H208  1  0.454570  0.699130  0.347330  1.0  0.1164
  H  H209  1  0.512570  0.728130  0.914330  1.0  0.117
  H  H210  1  0.463070  0.759730  0.740430  1.0  0.1124
  H  H211  1  0.292730  0.044470  0.773670  1.0  0.4618
  H  H212  1  0.350530  0.070870  0.778670  1.0  0.4362
  H  H213  1  0.157130  0.106770  0.493670  1.0  0.109
  H  H214  1  0.121230  0.032470  0.680670  1.0  0.1228
  H  H215  1  0.179230  0.061470  0.247670  1.0  0.1163
  H  H216  1  0.129730  0.093070  0.073770  1.0  0.1117
  H  H217  1  0.418400  0.040600  0.107000  1.0  0.4608
  H  H218  1  0.387000  0.982800  0.112000  1.0  0.4385
  H  H219  1  0.616300  0.176200  0.827000  1.0  0.1129
  H  H220  1  0.577900  0.212100  0.014000  1.0  0.1173
  H  H221  1  0.548900  0.154100  0.581000  1.0  0.1117
  H  H222  1  0.630000  0.203600  0.407100  1.0  0.1109
  H  H223  1  0.085070  0.373930  0.440330  1.0  0.4608
  H  H224  1  0.053670  0.316130  0.445330  1.0  0.4386
  H  H225  1  0.282970  0.509530  0.160330  1.0  0.1129
  H  H226  1  0.244570  0.545430  0.347330  1.0  0.1173
  H  H227  1  0.215570  0.487430  0.914330  1.0  0.1117
  H  H228  1  0.296670  0.536930  0.740430  1.0  0.1109
  H  H229  1  0.751730  0.707270  0.773670  1.0  0.4608
  H  H230  1  0.720330  0.649470  0.778670  1.0  0.4386
  H  H231  1  0.949630  0.842870  0.493670  1.0  0.113
  H  H232  1  0.911230  0.878770  0.680670  1.0  0.1168
  H  H233  1  0.882230  0.820770  0.247670  1.0  0.1124
  H  H234  1  0.963330  0.870270  0.073770  1.0  0.1132
  H  H235  1  0.622200  0.581600  0.107000  1.0  0.4619
  H  H236  1  0.595800  0.613000  0.112000  1.0  0.4414
  H  H237  1  0.559900  0.383700  0.827000  1.0  0.1149
  H  H238  1  0.634200  0.422100  0.014000  1.0  0.1167
  H  H239  1  0.605200  0.451100  0.581000  1.0  0.1147
  H  H240  1  0.573600  0.370000  0.407100  1.0  0.1132
  H  H241  1  0.288870  0.914930  0.440330  1.0  0.4619
  H  H242  1  0.262470  0.946330  0.445330  1.0  0.4414
  H  H243  1  0.226570  0.717030  0.160330  1.0  0.1149
  H  H244  1  0.300870  0.755430  0.347330  1.0  0.1167
  H  H245  1  0.271870  0.784430  0.914330  1.0  0.1147
  H  H246  1  0.240270  0.703330  0.740430  1.0  0.1132
  H  H247  1  0.955530  0.248270  0.773670  1.0  0.4619
  H  H248  1  0.929130  0.279670  0.778670  1.0  0.4413
  H  H249  1  0.893230  0.050370  0.493670  1.0  0.1149
  H  H250  1  0.967530  0.088770  0.680670  1.0  0.113
  H  H251  1  0.938530  0.117770  0.247670  1.0  0.1147
  H  H252  1  0.906930  0.036670  0.073770  1.0  0.1103
  H  H253  1  0.560950  0.121900  0.798800  1.0  0.1055
  H  H254  1  0.589850  0.179700  0.102100  1.0  0.1064
  H  H255  1  0.549050  0.098100  0.594200  1.0  0.1138
  H  H256  1  0.589200  0.178400  0.310700  1.0  0.1099
  H  H257  1  0.227620  0.455230  0.132130  1.0  0.1055
  H  H258  1  0.256520  0.513030  0.435430  1.0  0.1064
  H  H259  1  0.215720  0.431430  0.927530  1.0  0.1138
  H  H260  1  0.255870  0.511730  0.644030  1.0  0.1099
  H  H261  1  0.894280  0.788570  0.465470  1.0  0.1055
  H  H262  1  0.923180  0.846370  0.768770  1.0  0.1064
  H  H263  1  0.882380  0.764770  0.260870  1.0  0.1138
  H  H264  1  0.922530  0.845070  0.977370  1.0  0.1098
  H  H265  1  0.878100  0.439050  0.798800  1.0  0.106
  H  H266  1  0.820300  0.410150  0.102100  1.0  0.1087
  H  H267  1  0.901900  0.450950  0.594200  1.0  0.1143
  H  H268  1  0.821600  0.410800  0.310700  1.0  0.1107
  H  H269  1  0.544770  0.772380  0.132130  1.0  0.106
  H  H270  1  0.486970  0.743480  0.435430  1.0  0.1087
  H  H271  1  0.568570  0.784280  0.927530  1.0  0.1143
  H  H272  1  0.488270  0.744130  0.644030  1.0  0.1107
  H  H273  1  0.211430  0.105720  0.465470  1.0  0.106
  H  H274  1  0.153630  0.076820  0.768770  1.0  0.1088
  H  H275  1  0.235230  0.117620  0.260870  1.0  0.1143
  H  H276  1  0.154930  0.077470  0.977370  1.0  0.1107
  H  H277  1  0.560950  0.439050  0.798800  1.0  0.1068
  H  H278  1  0.589850  0.410150  0.102100  1.0  0.1092
  H  H279  1  0.549050  0.450950  0.594200  1.0  0.1143
  H  H280  1  0.589200  0.410800  0.310700  1.0  0.11
  H  H281  1  0.227620  0.772380  0.132130  1.0  0.1068
  H  H282  1  0.256520  0.743480  0.435430  1.0  0.1092
  H  H283  1  0.215720  0.784280  0.927530  1.0  0.1143
  H  H284  1  0.255870  0.744130  0.644030  1.0  0.11
  H  H285  1  0.894280  0.105720  0.465470  1.0  0.1068
  H  H286  1  0.923180  0.076820  0.768770  1.0  0.1092
  H  H287  1  0.882380  0.117620  0.260870  1.0  0.1143
  H  H288  1  0.922530  0.077470  0.977370  1.0  0.1101
  H  H289  1  0.121900  0.560950  0.201200  1.0  0.1066
  H  H290  1  0.179700  0.589850  0.897900  1.0  0.1081
  H  H291  1  0.098100  0.549050  0.405800  1.0  0.1137
  H  H292  1  0.178400  0.589200  0.689300  1.0  0.1092
  H  H293  1  0.788570  0.894280  0.534530  1.0  0.1066
  H  H294  1  0.846370  0.923180  0.231230  1.0  0.1082
  H  H295  1  0.764770  0.882380  0.739130  1.0  0.1137
  H  H296  1  0.845070  0.922530  0.022630  1.0  0.1091
  H  H297  1  0.455230  0.227620  0.867870  1.0  0.1066
  H  H298  1  0.513030  0.256520  0.564570  1.0  0.1081
  H  H299  1  0.431430  0.215720  0.072470  1.0  0.1137
  H  H300  1  0.511730  0.255870  0.355970  1.0  0.1092
  H  H301  1  0.439050  0.878100  0.201200  1.0  0.1059
  H  H302  1  0.410150  0.820300  0.897900  1.0  0.1073
  H  H303  1  0.450950  0.901900  0.405800  1.0  0.1137
  H  H304  1  0.410800  0.821600  0.689300  1.0  0.1091
  H  H305  1  0.105720  0.211430  0.534530  1.0  0.1059
  H  H306  1  0.076820  0.153630  0.231230  1.0  0.1074
  H  H307  1  0.117620  0.235230  0.739130  1.0  0.1137
  H  H308  1  0.077470  0.154930  0.022630  1.0  0.109
  H  H309  1  0.772380  0.544770  0.867870  1.0  0.1059
  H  H310  1  0.743480  0.486970  0.564570  1.0  0.1073
  H  H311  1  0.784280  0.568570  0.072470  1.0  0.1137
  H  H312  1  0.744130  0.488270  0.355970  1.0  0.1091
  H  H313  1  0.439050  0.560950  0.201200  1.0  0.1056
  H  H314  1  0.410150  0.589850  0.897900  1.0  0.1118
  H  H315  1  0.450950  0.549050  0.405800  1.0  0.1144
  H  H316  1  0.410800  0.589200  0.689300  1.0  0.1103
  H  H317  1  0.105720  0.894280  0.534530  1.0  0.1056
  H  H318  1  0.076820  0.923180  0.231230  1.0  0.1118
  H  H319  1  0.117620  0.882380  0.739130  1.0  0.1144
  H  H320  1  0.077470  0.922530  0.022630  1.0  0.1103
  H  H321  1  0.772380  0.227620  0.867870  1.0  0.1056
  H  H322  1  0.743480  0.256520  0.564570  1.0  0.1118
  H  H323  1  0.784280  0.215720  0.072470  1.0  0.1144
  H  H324  1  0.744130  0.255870  0.355970  1.0  0.1103
  C  C325  1  0.596560  0.103500  0.985300  1.0  0.6769
  C  C326  1  0.591040  0.092950  0.403500  1.0  0.6901
  C  C327  1  0.263230  0.436830  0.318630  1.0  0.6769
  C  C328  1  0.257710  0.426280  0.736830  1.0  0.6901
  C  C329  1  0.929890  0.770170  0.651970  1.0  0.6769
  C  C330  1  0.924370  0.759620  0.070170  1.0  0.6901
  C  C331  1  0.896500  0.493060  0.985300  1.0  0.678
  C  C332  1  0.907050  0.498090  0.403500  1.0  0.6924
  C  C333  1  0.563170  0.826390  0.318630  1.0  0.678
  C  C334  1  0.573720  0.831420  0.736830  1.0  0.6924
  C  C335  1  0.229830  0.159730  0.651970  1.0  0.6781
  C  C336  1  0.240380  0.164760  0.070170  1.0  0.6924
  C  C337  1  0.506940  0.403440  0.985300  1.0  0.6785
  C  C338  1  0.501910  0.408960  0.403500  1.0  0.6945
  C  C339  1  0.173610  0.736770  0.318630  1.0  0.6785
  C  C340  1  0.168580  0.742290  0.736830  1.0  0.6945
  C  C341  1  0.840270  0.070110  0.651970  1.0  0.6784
  C  C342  1  0.835240  0.075630  0.070170  1.0  0.6945
  C  C343  1  0.103500  0.596560  0.014700  1.0  0.6784
  C  C344  1  0.092950  0.591040  0.596500  1.0  0.6947
  C  C345  1  0.770170  0.929890  0.348030  1.0  0.6784
  C  C346  1  0.759620  0.924370  0.929830  1.0  0.6948
  C  C347  1  0.436830  0.263230  0.681370  1.0  0.6784
  C  C348  1  0.426280  0.257710  0.263170  1.0  0.6948
  C  C349  1  0.493060  0.896500  0.014700  1.0  0.6768
  C  C350  1  0.498090  0.907050  0.596500  1.0  0.6902
  C  C351  1  0.159730  0.229830  0.348030  1.0  0.6768
  C  C352  1  0.164760  0.240380  0.929830  1.0  0.6901
  C  C353  1  0.826390  0.563170  0.681370  1.0  0.6768
  C  C354  1  0.831420  0.573720  0.263170  1.0  0.6902
  C  C355  1  0.403440  0.506940  0.014700  1.0  0.6789
  C  C356  1  0.408960  0.501910  0.596500  1.0  0.6945
  C  C357  1  0.070110  0.840270  0.348030  1.0  0.6788
  C  C358  1  0.075630  0.835240  0.929830  1.0  0.6944
  C  C359  1  0.736770  0.173610  0.681370  1.0  0.6789
  C  C360  1  0.742290  0.168580  0.263170  1.0  0.6944
  C  C361  1  0.403440  0.896500  0.014700  1.0  0.6778
  C  C362  1  0.408960  0.907050  0.596500  1.0  0.6916
  C  C363  1  0.070110  0.229830  0.348030  1.0  0.6778
  C  C364  1  0.075630  0.240380  0.929830  1.0  0.6916
  C  C365  1  0.736770  0.563170  0.681370  1.0  0.6778
  C  C366  1  0.742290  0.573720  0.263170  1.0  0.6916
  C  C367  1  0.103500  0.506940  0.014700  1.0  0.6789
  C  C368  1  0.092950  0.501910  0.596500  1.0  0.6935
  C  C369  1  0.770170  0.840270  0.348030  1.0  0.6789
  C  C370  1  0.759620  0.835240  0.929830  1.0  0.6934
  C  C371  1  0.436830  0.173610  0.681370  1.0  0.6789
  C  C372  1  0.426280  0.168580  0.263170  1.0  0.6934
  C  C373  1  0.493060  0.596560  0.014700  1.0  0.6771
  C  C374  1  0.498090  0.591040  0.596500  1.0  0.6967
  C  C375  1  0.159730  0.929890  0.348030  1.0  0.6769
  C  C376  1  0.164760  0.924370  0.929830  1.0  0.6967
  C  C377  1  0.826390  0.263230  0.681370  1.0  0.6771
  C  C378  1  0.831420  0.257710  0.263170  1.0  0.6967
  C  C379  1  0.896500  0.403440  0.985300  1.0  0.6778
  C  C380  1  0.907050  0.408960  0.403500  1.0  0.6962
  C  C381  1  0.563170  0.736770  0.318630  1.0  0.6778
  C  C382  1  0.573720  0.742290  0.736830  1.0  0.6962
  C  C383  1  0.229830  0.070110  0.651970  1.0  0.6778
  C  C384  1  0.240380  0.075630  0.070170  1.0  0.6962
  C  C385  1  0.506940  0.103500  0.985300  1.0  0.6777
  C  C386  1  0.501910  0.092950  0.403500  1.0  0.6903
  C  C387  1  0.173610  0.436830  0.318630  1.0  0.6777
  C  C388  1  0.168580  0.426280  0.736830  1.0  0.6903
  C  C389  1  0.840270  0.770170  0.651970  1.0  0.6778
  C  C390  1  0.835240  0.759620  0.070170  1.0  0.6903
  C  C391  1  0.596560  0.493060  0.985300  1.0  0.6783
  C  C392  1  0.591040  0.498090  0.403500  1.0  0.6938
  C  C393  1  0.263230  0.826390  0.318630  1.0  0.6783
  C  C394  1  0.257710  0.831420  0.736830  1.0  0.6938
  C  C395  1  0.929890  0.159730  0.651970  1.0  0.6782
  C  C396  1  0.924370  0.164760  0.070170  1.0  0.6938
  C  C397  1  0.569050  0.138100  0.958600  1.0  -0.1094
  C  C398  1  0.577350  0.154700  0.842100  1.0  -0.3314
  C  C399  1  0.595200  0.190400  0.028800  1.0  -0.3225
  C  C400  1  0.563050  0.126100  0.440800  1.0  -0.0957
  C  C401  1  0.566900  0.133800  0.560200  1.0  -0.3257
  C  C402  1  0.591650  0.183300  0.386300  1.0  -0.3264
  C  C403  1  0.235720  0.471430  0.291930  1.0  -0.1094
  C  C404  1  0.244020  0.488030  0.175430  1.0  -0.3314
  C  C405  1  0.261870  0.523730  0.362130  1.0  -0.3225
  C  C406  1  0.229720  0.459430  0.774130  1.0  -0.0957
  C  C407  1  0.233570  0.467130  0.893530  1.0  -0.3257
  C  C408  1  0.258320  0.516630  0.719630  1.0  -0.3264
  C  C409  1  0.902380  0.804770  0.625270  1.0  -0.1094
  C  C410  1  0.910680  0.821370  0.508770  1.0  -0.3314
  C  C411  1  0.928530  0.857070  0.695470  1.0  -0.3225
  C  C412  1  0.896380  0.792770  0.107470  1.0  -0.0957
  C  C413  1  0.900230  0.800470  0.226870  1.0  -0.3257
  C  C414  1  0.924980  0.849970  0.052970  1.0  -0.3264
  C  C415  1  0.861900  0.430950  0.958600  1.0  -0.1096
  C  C416  1  0.845300  0.422650  0.842100  1.0  -0.3317
  C  C417  1  0.809600  0.404800  0.028800  1.0  -0.3244
  C  C418  1  0.873900  0.436950  0.440800  1.0  -0.0948
  C  C419  1  0.866200  0.433100  0.560200  1.0  -0.3264
  C  C420  1  0.816700  0.408350  0.386300  1.0  -0.3263
  C  C421  1  0.528570  0.764280  0.291930  1.0  -0.1096
  C  C422  1  0.511970  0.755980  0.175430  1.0  -0.3317
  C  C423  1  0.476270  0.738130  0.362130  1.0  -0.3244
  C  C424  1  0.540570  0.770280  0.774130  1.0  -0.0948
  C  C425  1  0.532870  0.766430  0.893530  1.0  -0.3264
  C  C426  1  0.483370  0.741680  0.719630  1.0  -0.3263
  C  C427  1  0.195230  0.097620  0.625270  1.0  -0.1096
  C  C428  1  0.178630  0.089320  0.508770  1.0  -0.3317
  C  C429  1  0.142930  0.071470  0.695470  1.0  -0.3244
  C  C430  1  0.207230  0.103620  0.107470  1.0  -0.0948
  C  C431  1  0.199530  0.099770  0.226870  1.0  -0.3264
  C  C432  1  0.150030  0.075020  0.052970  1.0  -0.3263
  C  C433  1  0.569050  0.430950  0.958600  1.0  -0.1073
  C  C434  1  0.577350  0.422650  0.842100  1.0  -0.3317
  C  C435  1  0.595200  0.404800  0.028800  1.0  -0.3237
  C  C436  1  0.563050  0.436950  0.440800  1.0  -0.0936
  C  C437  1  0.566900  0.433100  0.560200  1.0  -0.327
  C  C438  1  0.591650  0.408350  0.386300  1.0  -0.3268
  C  C439  1  0.235720  0.764280  0.291930  1.0  -0.1073
  C  C440  1  0.244020  0.755980  0.175430  1.0  -0.3317
  C  C441  1  0.261870  0.738130  0.362130  1.0  -0.3237
  C  C442  1  0.229720  0.770280  0.774130  1.0  -0.0936
  C  C443  1  0.233570  0.766430  0.893530  1.0  -0.327
  C  C444  1  0.258320  0.741680  0.719630  1.0  -0.3268
  C  C445  1  0.902380  0.097620  0.625270  1.0  -0.1073
  C  C446  1  0.910680  0.089320  0.508770  1.0  -0.3317
  C  C447  1  0.928530  0.071470  0.695470  1.0  -0.3237
  C  C448  1  0.896380  0.103620  0.107470  1.0  -0.0936
  C  C449  1  0.900230  0.099770  0.226870  1.0  -0.327
  C  C450  1  0.924980  0.075020  0.052970  1.0  -0.3268
  C  C451  1  0.138100  0.569050  0.041400  1.0  -0.1078
  C  C452  1  0.154700  0.577350  0.157900  1.0  -0.3314
  C  C453  1  0.190400  0.595200  0.971200  1.0  -0.3239
  C  C454  1  0.126100  0.563050  0.559200  1.0  -0.0948
  C  C455  1  0.133800  0.566900  0.439800  1.0  -0.3261
  C  C456  1  0.183300  0.591650  0.613700  1.0  -0.3256
  C  C457  1  0.804770  0.902380  0.374730  1.0  -0.1078
  C  C458  1  0.821370  0.910680  0.491230  1.0  -0.3314
  C  C459  1  0.857070  0.928530  0.304530  1.0  -0.3239
  C  C460  1  0.792770  0.896380  0.892530  1.0  -0.0948
  C  C461  1  0.800470  0.900230  0.773130  1.0  -0.3261
  C  C462  1  0.849970  0.924980  0.947030  1.0  -0.3256
  C  C463  1  0.471430  0.235720  0.708070  1.0  -0.1078
  C  C464  1  0.488030  0.244020  0.824570  1.0  -0.3314
  C  C465  1  0.523730  0.261870  0.637870  1.0  -0.3239
  C  C466  1  0.459430  0.229720  0.225870  1.0  -0.0948
  C  C467  1  0.467130  0.233570  0.106470  1.0  -0.3261
  C  C468  1  0.516630  0.258320  0.280370  1.0  -0.3256
  C  C469  1  0.430950  0.861900  0.041400  1.0  -0.1081
  C  C470  1  0.422650  0.845300  0.157900  1.0  -0.3311
  C  C471  1  0.404800  0.809600  0.971200  1.0  -0.3236
  C  C472  1  0.436950  0.873900  0.559200  1.0  -0.0949
  C  C473  1  0.433100  0.866200  0.439800  1.0  -0.3253
  C  C474  1  0.408350  0.816700  0.613700  1.0  -0.3274
  C  C475  1  0.097620  0.195230  0.374730  1.0  -0.1081
  C  C476  1  0.089320  0.178630  0.491230  1.0  -0.3311
  C  C477  1  0.071470  0.142930  0.304530  1.0  -0.3236
  C  C478  1  0.103620  0.207230  0.892530  1.0  -0.0949
  C  C479  1  0.099770  0.199530  0.773130  1.0  -0.3253
  C  C480  1  0.075020  0.150030  0.947030  1.0  -0.3274
  C  C481  1  0.764280  0.528570  0.708070  1.0  -0.1081
  C  C482  1  0.755980  0.511970  0.824570  1.0  -0.3311
  C  C483  1  0.738130  0.476270  0.637870  1.0  -0.3236
  C  C484  1  0.770280  0.540570  0.225870  1.0  -0.0949
  C  C485  1  0.766430  0.532870  0.106470  1.0  -0.3253
  C  C486  1  0.741680  0.483370  0.280370  1.0  -0.3274
  C  C487  1  0.430950  0.569050  0.041400  1.0  -0.1102
  C  C488  1  0.422650  0.577350  0.157900  1.0  -0.3314
  C  C489  1  0.404800  0.595200  0.971200  1.0  -0.3238
  C  C490  1  0.436950  0.563050  0.559200  1.0  -0.0957
  C  C491  1  0.433100  0.566900  0.439800  1.0  -0.3257
  C  C492  1  0.408350  0.591650  0.613700  1.0  -0.3259
  C  C493  1  0.097620  0.902380  0.374730  1.0  -0.1102
  C  C494  1  0.089320  0.910680  0.491230  1.0  -0.3314
  C  C495  1  0.071470  0.928530  0.304530  1.0  -0.3238
  C  C496  1  0.103620  0.896380  0.892530  1.0  -0.0957
  C  C497  1  0.099770  0.900230  0.773130  1.0  -0.3257
  C  C498  1  0.075020  0.924980  0.947030  1.0  -0.326
  C  C499  1  0.764280  0.235720  0.708070  1.0  -0.1102
  C  C500  1  0.755980  0.244020  0.824570  1.0  -0.3314
  C  C501  1  0.738130  0.261870  0.637870  1.0  -0.3238
  C  C502  1  0.770280  0.229720  0.225870  1.0  -0.0957
  C  C503  1  0.766430  0.233570  0.106470  1.0  -0.3257
  C  C504  1  0.741680  0.258320  0.280370  1.0  -0.3259
  O  O505  1  0.594140  0.087910  0.081300  1.0  -0.6267
  O  O506  1  0.620800  0.092800  0.915300  1.0  -0.5852
  O  O507  1  0.595970  0.088150  0.304600  1.0  -0.6674
  O  O508  1  0.608710  0.072910  0.470100  1.0  -0.6245
  O  O509  1  0.625600  0.012890  0.121800  1.0  -0.9119
  O  O510  1  0.260810  0.421240  0.414630  1.0  -0.6267
  O  O511  1  0.287470  0.426130  0.248630  1.0  -0.5852
  O  O512  1  0.262640  0.421480  0.637930  1.0  -0.6676
  O  O513  1  0.275380  0.406240  0.803430  1.0  -0.6245
  O  O514  1  0.292270  0.346220  0.455130  1.0  -0.9121
  O  O515  1  0.927470  0.754580  0.747970  1.0  -0.6267
  O  O516  1  0.954130  0.759470  0.581970  1.0  -0.5855
  O  O517  1  0.929300  0.754820  0.971270  1.0  -0.6674
  O  O518  1  0.942040  0.739580  0.136770  1.0  -0.6244
  O  O519  1  0.958930  0.679560  0.788470  1.0  -0.9122
  O  O520  1  0.912090  0.506230  0.081300  1.0  -0.6284
  O  O521  1  0.907200  0.528000  0.915300  1.0  -0.585
  O  O522  1  0.911850  0.507820  0.304600  1.0  -0.6676
  O  O523  1  0.927090  0.535800  0.470100  1.0  -0.6236
  O  O524  1  0.987110  0.612710  0.121800  1.0  -0.914
  O  O525  1  0.578760  0.839560  0.414630  1.0  -0.6284
  O  O526  1  0.573870  0.861330  0.248630  1.0  -0.585
  O  O527  1  0.578520  0.841150  0.637930  1.0  -0.6676
  O  O528  1  0.593760  0.869130  0.803430  1.0  -0.6236
  O  O529  1  0.653780  0.946040  0.455130  1.0  -0.9143
  O  O530  1  0.245420  0.172900  0.747970  1.0  -0.6284
  O  O531  1  0.240530  0.194670  0.581970  1.0  -0.5847
  O  O532  1  0.245180  0.174490  0.971270  1.0  -0.6678
  O  O533  1  0.260420  0.202470  0.136770  1.0  -0.6236
  O  O534  1  0.320440  0.279380  0.788470  1.0  -0.9143
  O  O535  1  0.493770  0.405860  0.081300  1.0  -0.6269
  O  O536  1  0.472000  0.379200  0.915300  1.0  -0.5853
  O  O537  1  0.492180  0.404030  0.304600  1.0  -0.6641
  O  O538  1  0.464200  0.391290  0.470100  1.0  -0.6256
  O  O539  1  0.387290  0.374400  0.121800  1.0  -0.9138
  O  O540  1  0.160440  0.739190  0.414630  1.0  -0.6269
  O  O541  1  0.138670  0.712530  0.248630  1.0  -0.5853
  O  O542  1  0.158850  0.737360  0.637930  1.0  -0.664
  O  O543  1  0.130870  0.724620  0.803430  1.0  -0.6256
  O  O544  1  0.053960  0.707730  0.455130  1.0  -0.9136
  O  O545  1  0.827100  0.072530  0.747970  1.0  -0.6269
  O  O546  1  0.805330  0.045870  0.581970  1.0  -0.5855
  O  O547  1  0.825510  0.070700  0.971270  1.0  -0.664
  O  O548  1  0.797530  0.057960  0.136770  1.0  -0.6256
  O  O549  1  0.720620  0.041070  0.788470  1.0  -0.9136
  O  O550  1  0.087910  0.594140  0.918700  1.0  -0.6272
  O  O551  1  0.092800  0.620800  0.084700  1.0  -0.584
  O  O552  1  0.088150  0.595970  0.695400  1.0  -0.6637
  O  O553  1  0.072910  0.608710  0.529900  1.0  -0.626
  O  O554  1  0.012890  0.625600  0.878200  1.0  -0.9116
  O  O555  1  0.754580  0.927470  0.252030  1.0  -0.6272
  O  O556  1  0.759470  0.954130  0.418030  1.0  -0.5843
  O  O557  1  0.754820  0.929300  0.028730  1.0  -0.6637
  O  O558  1  0.739580  0.942040  0.863230  1.0  -0.626
  O  O559  1  0.679560  0.958930  0.211530  1.0  -0.9119
  O  O560  1  0.421240  0.260810  0.585370  1.0  -0.6272
  O  O561  1  0.426130  0.287470  0.751370  1.0  -0.584
  O  O562  1  0.421480  0.262640  0.362070  1.0  -0.6639
  O  O563  1  0.406240  0.275380  0.196570  1.0  -0.626
  O  O564  1  0.346220  0.292270  0.544870  1.0  -0.9118
  O  O565  1  0.506230  0.912090  0.918700  1.0  -0.6274
  O  O566  1  0.528000  0.907200  0.084700  1.0  -0.5844
  O  O567  1  0.507820  0.911850  0.695400  1.0  -0.6682
  O  O568  1  0.535800  0.927090  0.529900  1.0  -0.6264
  O  O569  1  0.612710  0.987110  0.878200  1.0  -0.9118
  O  O570  1  0.172900  0.245420  0.252030  1.0  -0.6274
  O  O571  1  0.194670  0.240530  0.418030  1.0  -0.5842
  O  O572  1  0.174490  0.245180  0.028730  1.0  -0.6683
  O  O573  1  0.202470  0.260420  0.863230  1.0  -0.6264
  O  O574  1  0.279380  0.320440  0.211530  1.0  -0.9121
  O  O575  1  0.839560  0.578760  0.585370  1.0  -0.6274
  O  O576  1  0.861330  0.573870  0.751370  1.0  -0.5844
  O  O577  1  0.841150  0.578520  0.362070  1.0  -0.6682
  O  O578  1  0.869130  0.593760  0.196570  1.0  -0.6264
  O  O579  1  0.946040  0.653780  0.544870  1.0  -0.9116
  O  O580  1  0.405860  0.493770  0.918700  1.0  -0.628
  O  O581  1  0.379200  0.472000  0.084700  1.0  -0.584
  O  O582  1  0.404030  0.492180  0.695400  1.0  -0.6671
  O  O583  1  0.391290  0.464200  0.529900  1.0  -0.6266
  O  O584  1  0.374400  0.387290  0.878200  1.0  -0.9163
  O  O585  1  0.072530  0.827100  0.252030  1.0  -0.628
  O  O586  1  0.045870  0.805330  0.418030  1.0  -0.5842
  O  O587  1  0.070700  0.825510  0.028730  1.0  -0.667
  O  O588  1  0.057960  0.797530  0.863230  1.0  -0.6266
  O  O589  1  0.041070  0.720620  0.211530  1.0  -0.916
  O  O590  1  0.739190  0.160440  0.585370  1.0  -0.628
  O  O591  1  0.712530  0.138670  0.751370  1.0  -0.584
  O  O592  1  0.737360  0.158850  0.362070  1.0  -0.667
  O  O593  1  0.724620  0.130870  0.196570  1.0  -0.6266
  O  O594  1  0.707730  0.053960  0.544870  1.0  -0.916
  O  O595  1  0.405860  0.912090  0.918700  1.0  -0.6278
  O  O596  1  0.379200  0.907200  0.084700  1.0  -0.5843
  O  O597  1  0.404030  0.911850  0.695400  1.0  -0.6678
  O  O598  1  0.391290  0.927090  0.529900  1.0  -0.6254
  O  O599  1  0.374400  0.987110  0.878200  1.0  -0.9135
  O  O600  1  0.072530  0.245420  0.252030  1.0  -0.6278
  O  O601  1  0.045870  0.240530  0.418030  1.0  -0.5845
  O  O602  1  0.070700  0.245180  0.028730  1.0  -0.6678
  O  O603  1  0.057960  0.260420  0.863230  1.0  -0.6252
  O  O604  1  0.041070  0.320440  0.211530  1.0  -0.9138
  O  O605  1  0.739190  0.578760  0.585370  1.0  -0.6278
  O  O606  1  0.712530  0.573870  0.751370  1.0  -0.5843
  O  O607  1  0.737360  0.578520  0.362070  1.0  -0.6679
  O  O608  1  0.724620  0.593760  0.196570  1.0  -0.6254
  O  O609  1  0.707730  0.653780  0.544870  1.0  -0.9138
  O  O610  1  0.087910  0.493770  0.918700  1.0  -0.6285
  O  O611  1  0.092800  0.472000  0.084700  1.0  -0.5845
  O  O612  1  0.088150  0.492180  0.695400  1.0  -0.6673
  O  O613  1  0.072910  0.464200  0.529900  1.0  -0.6269
  O  O614  1  0.012890  0.387290  0.878200  1.0  -0.9149
  O  O615  1  0.754580  0.827100  0.252030  1.0  -0.6285
  O  O616  1  0.759470  0.805330  0.418030  1.0  -0.5843
  O  O617  1  0.754820  0.825510  0.028730  1.0  -0.6674
  O  O618  1  0.739580  0.797530  0.863230  1.0  -0.6269
  O  O619  1  0.679560  0.720620  0.211530  1.0  -0.915
  O  O620  1  0.421240  0.160440  0.585370  1.0  -0.6285
  O  O621  1  0.426130  0.138670  0.751370  1.0  -0.5845
  O  O622  1  0.421480  0.158850  0.362070  1.0  -0.6673
  O  O623  1  0.406240  0.130870  0.196570  1.0  -0.6269
  O  O624  1  0.346220  0.053960  0.544870  1.0  -0.915
  O  O625  1  0.506230  0.594140  0.918700  1.0  -0.6275
  O  O626  1  0.528000  0.620800  0.084700  1.0  -0.5838
  O  O627  1  0.507820  0.595970  0.695400  1.0  -0.6644
  O  O628  1  0.535800  0.608710  0.529900  1.0  -0.6248
  O  O629  1  0.612710  0.625600  0.878200  1.0  -0.9126
  O  O630  1  0.172900  0.927470  0.252030  1.0  -0.6275
  O  O631  1  0.194670  0.954130  0.418030  1.0  -0.5841
  O  O632  1  0.174490  0.929300  0.028730  1.0  -0.6643
  O  O633  1  0.202470  0.942040  0.863230  1.0  -0.6248
  O  O634  1  0.279380  0.958930  0.211530  1.0  -0.9123
  O  O635  1  0.839560  0.260810  0.585370  1.0  -0.6275
  O  O636  1  0.861330  0.287470  0.751370  1.0  -0.5838
  O  O637  1  0.841150  0.262640  0.362070  1.0  -0.6643
  O  O638  1  0.869130  0.275380  0.196570  1.0  -0.6248
  O  O639  1  0.946040  0.292270  0.544870  1.0  -0.9123
  O  O640  1  0.912090  0.405860  0.081300  1.0  -0.6274
  O  O641  1  0.907200  0.379200  0.915300  1.0  -0.5851
  O  O642  1  0.911850  0.404030  0.304600  1.0  -0.6649
  O  O643  1  0.927090  0.391290  0.470100  1.0  -0.6244
  O  O644  1  0.987110  0.374400  0.121800  1.0  -0.9135
  O  O645  1  0.578760  0.739190  0.414630  1.0  -0.6274
  O  O646  1  0.573870  0.712530  0.248630  1.0  -0.5851
  O  O647  1  0.578520  0.737360  0.637930  1.0  -0.665
  O  O648  1  0.593760  0.724620  0.803430  1.0  -0.6244
  O  O649  1  0.653780  0.707730  0.455130  1.0  -0.9138
  O  O650  1  0.245420  0.072530  0.747970  1.0  -0.6274
  O  O651  1  0.240530  0.045870  0.581970  1.0  -0.5854
  O  O652  1  0.245180  0.070700  0.971270  1.0  -0.6649
  O  O653  1  0.260420  0.057960  0.136770  1.0  -0.6242
  O  O654  1  0.320440  0.041070  0.788470  1.0  -0.9139
  O  O655  1  0.493770  0.087910  0.081300  1.0  -0.6271
  O  O656  1  0.472000  0.092800  0.915300  1.0  -0.5854
  O  O657  1  0.492180  0.088150  0.304600  1.0  -0.6674
  O  O658  1  0.464200  0.072910  0.470100  1.0  -0.6245
  O  O659  1  0.387290  0.012890  0.121800  1.0  -0.914
  O  O660  1  0.160440  0.421240  0.414630  1.0  -0.6271
  O  O661  1  0.138670  0.426130  0.248630  1.0  -0.5854
  O  O662  1  0.158850  0.421480  0.637930  1.0  -0.6674
  O  O663  1  0.130870  0.406240  0.803430  1.0  -0.6245
  O  O664  1  0.053960  0.346220  0.455130  1.0  -0.9139
  O  O665  1  0.827100  0.754580  0.747970  1.0  -0.6271
  O  O666  1  0.805330  0.759470  0.581970  1.0  -0.5851
  O  O667  1  0.825510  0.754820  0.971270  1.0  -0.6676
  O  O668  1  0.797530  0.739580  0.136770  1.0  -0.6245
  O  O669  1  0.720620  0.679560  0.788470  1.0  -0.9142
  O  O670  1  0.594140  0.506230  0.081300  1.0  -0.629
  O  O671  1  0.620800  0.528000  0.915300  1.0  -0.5852
  O  O672  1  0.595970  0.507820  0.304600  1.0  -0.6685
  O  O673  1  0.608710  0.535800  0.470100  1.0  -0.6256
  O  O674  1  0.625600  0.612710  0.121800  1.0  -0.9143
  O  O675  1  0.260810  0.839560  0.414630  1.0  -0.629
  O  O676  1  0.287470  0.861330  0.248630  1.0  -0.5852
  O  O677  1  0.262640  0.841150  0.637930  1.0  -0.6685
  O  O678  1  0.275380  0.869130  0.803430  1.0  -0.6256
  O  O679  1  0.292270  0.946040  0.455130  1.0  -0.914
  O  O680  1  0.927470  0.172900  0.747970  1.0  -0.629
  O  O681  1  0.954130  0.194670  0.581970  1.0  -0.5854
  O  O682  1  0.929300  0.174490  0.971270  1.0  -0.6685
  O  O683  1  0.942040  0.202470  0.136770  1.0  -0.6255
  O  O684  1  0.958930  0.279380  0.788470  1.0  -0.914
