# generated using pymatgen
data_BaCoH10(CO)10
_symmetry_space_group_name_H-M   'P 1'
_cell_length_a   12.62050000
_cell_length_b   16.55830000
_cell_length_c   16.55830000
_cell_angle_alpha   66.22290000
_cell_angle_beta   75.28210000
_cell_angle_gamma   104.71800000
_symmetry_Int_Tables_number   1
_chemical_formula_structural   BaCoH10(CO)10
_chemical_formula_sum   'Ba6 Co6 H60 C60 O60'
_cell_volume   2803.24244687
_cell_formula_units_Z   6
loop_
 _symmetry_equiv_pos_site_id
 _symmetry_equiv_pos_as_xyz
  1  'x, y, z'
loop_
 _atom_site_type_symbol
 _atom_site_label
 _atom_site_symmetry_multiplicity
 _atom_site_fract_x
 _atom_site_fract_y
 _atom_site_fract_z
 _atom_site_occupancy
 _atom_site_charge
  Ba  Ba1  1  0.293970  0.293970  0.412060  1.0  1.5492
  Ba  Ba2  1  0.000000  0.706030  0.706030  1.0  1.549
  Ba  Ba3  1  0.706030  0.412060  0.293970  1.0  1.5486
  Ba  Ba4  1  0.293970  0.587940  0.706030  1.0  1.5485
  Ba  Ba5  1  0.706030  0.706030  0.587940  1.0  1.5486
  Ba  Ba6  1  0.000000  0.293970  0.293970  1.0  1.5488
  Co  Co7  1  0.268360  0.381670  0.000000  1.0  0.8594
  Co  Co8  1  0.731640  0.618330  0.000000  1.0  0.8603
  Co  Co9  1  0.113310  0.381670  0.618330  1.0  0.8538
  Co  Co10  1  0.268360  0.000000  0.618330  1.0  0.8613
  Co  Co11  1  0.731640  0.000000  0.381670  1.0  0.861
  Co  Co12  1  0.886690  0.618330  0.381670  1.0  0.8542
  H  H13  1  0.964100  0.939800  0.835000  1.0  0.1469
  H  H14  1  0.035900  0.835000  0.939800  1.0  0.1469
  H  H15  1  0.130300  0.630600  0.580700  1.0  0.4274
  H  H16  1  0.215500  0.798900  0.149200  1.0  0.1667
  H  H17  1  0.524000  0.804000  0.546000  1.0  0.4264
  H  H18  1  0.416600  0.051900  0.798900  1.0  0.1634
  H  H19  1  0.975700  0.774800  0.060200  1.0  0.1463
  H  H20  1  0.799100  0.774800  0.165000  1.0  0.149
  H  H21  1  0.524000  0.454000  0.196000  1.0  0.4258
  H  H22  1  0.364700  0.948100  0.850800  1.0  0.1673
  H  H23  1  0.280000  0.804000  0.650000  1.0  0.427
  H  H24  1  0.558400  0.200700  0.049100  1.0  0.1634
  H  H25  1  0.607500  0.049100  0.750200  1.0  0.1587
  H  H26  1  0.930000  0.454000  0.350000  1.0  0.4258
  H  H27  1  0.200900  0.165000  0.774800  1.0  0.1464
  H  H28  1  0.583400  0.948100  0.201100  1.0  0.1638
  H  H29  1  0.799100  0.835000  0.225200  1.0  0.147
  H  H30  1  0.392500  0.750200  0.049100  1.0  0.1605
  H  H31  1  0.711000  0.580700  0.788700  1.0  0.4276
  H  H32  1  0.784500  0.149200  0.798900  1.0  0.163
  H  H33  1  0.364700  0.149200  0.051900  1.0  0.1671
  H  H34  1  0.869700  0.369400  0.419300  1.0  0.4265
  H  H35  1  0.416600  0.201100  0.948100  1.0  0.1673
  H  H36  1  0.975700  0.939800  0.225200  1.0  0.1434
  H  H37  1  0.357700  0.799300  0.249800  1.0  0.1635
  H  H38  1  0.607500  0.249800  0.950900  1.0  0.159
  H  H39  1  0.869700  0.580700  0.630600  1.0  0.4283
  H  H40  1  0.784500  0.201100  0.850800  1.0  0.1664
  H  H41  1  0.441600  0.799300  0.950900  1.0  0.163
  H  H42  1  0.476000  0.196000  0.454000  1.0  0.4265
  H  H43  1  0.070000  0.350000  0.454000  1.0  0.4258
  H  H44  1  0.289000  0.788700  0.580700  1.0  0.4267
  H  H45  1  0.635300  0.051900  0.149200  1.0  0.1659
  H  H46  1  0.035900  0.060200  0.165000  1.0  0.1467
  H  H47  1  0.215500  0.850800  0.201100  1.0  0.1626
  H  H48  1  0.280000  0.350000  0.196000  1.0  0.4251
  H  H49  1  0.499700  0.369400  0.211300  1.0  0.4264
  H  H50  1  0.392500  0.950900  0.249800  1.0  0.1585
  H  H51  1  0.642300  0.200700  0.750200  1.0  0.1623
  H  H52  1  0.476000  0.546000  0.804000  1.0  0.4258
  H  H53  1  0.441600  0.049100  0.200700  1.0  0.1627
  H  H54  1  0.558400  0.950900  0.799300  1.0  0.1625
  H  H55  1  0.499700  0.788700  0.630600  1.0  0.4258
  H  H56  1  0.024300  0.225200  0.939800  1.0  0.1486
  H  H57  1  0.200900  0.225200  0.835000  1.0  0.1489
  H  H58  1  0.070000  0.546000  0.650000  1.0  0.4255
  H  H59  1  0.930000  0.650000  0.546000  1.0  0.4255
  H  H60  1  0.289000  0.419300  0.211300  1.0  0.4292
  H  H61  1  0.720000  0.650000  0.804000  1.0  0.4256
  H  H62  1  0.130300  0.419300  0.369400  1.0  0.4287
  H  H63  1  0.500300  0.211300  0.369400  1.0  0.4265
  H  H64  1  0.711000  0.211300  0.419300  1.0  0.4254
  H  H65  1  0.357700  0.750200  0.200700  1.0  0.1593
  H  H66  1  0.024300  0.060200  0.774800  1.0  0.1437
  H  H67  1  0.500300  0.630600  0.788700  1.0  0.4266
  H  H68  1  0.720000  0.196000  0.350000  1.0  0.4259
  H  H69  1  0.642300  0.249800  0.799300  1.0  0.1606
  H  H70  1  0.635300  0.850800  0.948100  1.0  0.1656
  H  H71  1  0.964100  0.165000  0.060200  1.0  0.1464
  H  H72  1  0.583400  0.798900  0.051900  1.0  0.1659
  C  C73  1  0.415550  0.731850  0.000000  1.0  -0.1905
  C  C74  1  0.689050  0.594710  0.314760  1.0  0.6708
  C  C75  1  0.832600  0.212500  0.787500  1.0  -0.2291
  C  C76  1  0.128650  0.000000  0.299650  1.0  -0.1011
  C  C77  1  0.796400  0.775650  0.224350  1.0  0.0063
  C  C78  1  0.379900  0.000000  0.787500  1.0  -0.238
  C  C79  1  0.584450  0.268150  0.000000  1.0  -0.1804
  C  C80  1  0.419040  0.299080  0.092160  1.0  0.6358
  C  C81  1  0.003810  0.909470  0.685240  1.0  0.6711
  C  C82  1  0.475450  0.291550  0.000000  1.0  -0.0949
  C  C83  1  0.119960  0.608760  0.299080  1.0  0.6368
  C  C84  1  0.905660  0.909470  0.405290  1.0  0.6719
  C  C85  1  0.979250  0.000000  0.224350  1.0  0.0051
  C  C86  1  0.683700  0.268150  0.731850  1.0  -0.1866
  C  C87  1  0.428300  0.299650  0.700350  1.0  -0.1039
  C  C88  1  0.584450  0.000000  0.731850  1.0  -0.183
  C  C89  1  0.580960  0.700920  0.907840  1.0  0.6363
  C  C90  1  0.004200  0.689100  0.000000  1.0  -0.1114
  C  C91  1  0.620100  0.000000  0.212500  1.0  -0.2358
  C  C92  1  0.524550  0.708450  0.000000  1.0  -0.0953
  C  C93  1  0.003810  0.314760  0.090530  1.0  0.6729
  C  C94  1  0.571700  0.700350  0.299650  1.0  -0.099
  C  C95  1  0.871350  0.299650  0.000000  1.0  -0.0977
  C  C96  1  0.020750  0.224350  0.000000  1.0  0.0035
  C  C97  1  0.183900  0.708450  0.291550  1.0  -0.0979
  C  C98  1  0.995800  0.310900  0.000000  1.0  -0.1113
  C  C99  1  0.816100  0.291550  0.708450  1.0  -0.0948
  C  C100  1  0.315100  0.310900  0.689100  1.0  -0.1118
  C  C101  1  0.488800  0.608760  0.092160  1.0  0.6362
  C  C102  1  0.094340  0.405290  0.909470  1.0  0.6695
  C  C103  1  0.689050  0.685240  0.405290  1.0  0.6724
  C  C104  1  0.871350  0.000000  0.700350  1.0  -0.0971
  C  C105  1  0.419040  0.907840  0.700920  1.0  0.6363
  C  C106  1  0.316300  0.731850  0.268150  1.0  -0.1901
  C  C107  1  0.996190  0.090530  0.314760  1.0  0.6713
  C  C108  1  0.379900  0.212500  0.000000  1.0  -0.2336
  C  C109  1  0.475450  0.000000  0.708450  1.0  -0.0977
  C  C110  1  0.119960  0.700920  0.391240  1.0  0.636
  C  C111  1  0.004200  0.000000  0.310900  1.0  -0.1111
  C  C112  1  0.880040  0.391240  0.700920  1.0  0.6354
  C  C113  1  0.979250  0.775650  0.000000  1.0  0.0075
  C  C114  1  0.511200  0.391240  0.907840  1.0  0.6352
  C  C115  1  0.310950  0.314760  0.594710  1.0  0.6762
  C  C116  1  0.995800  0.000000  0.689100  1.0  -0.1129
  C  C117  1  0.580960  0.092160  0.299080  1.0  0.6354
  C  C118  1  0.905660  0.594710  0.090530  1.0  0.6697
  C  C119  1  0.128650  0.700350  0.000000  1.0  -0.101
  C  C120  1  0.415550  0.000000  0.268150  1.0  -0.18
  C  C121  1  0.880040  0.299080  0.608760  1.0  0.6356
  C  C122  1  0.203600  0.224350  0.775650  1.0  0.0073
  C  C123  1  0.511200  0.092160  0.608760  1.0  0.6348
  C  C124  1  0.020750  0.000000  0.775650  1.0  0.0071
  C  C125  1  0.310950  0.405290  0.685240  1.0  0.6688
  C  C126  1  0.524550  0.000000  0.291550  1.0  -0.0977
  C  C127  1  0.167400  0.787500  0.212500  1.0  -0.2364
  C  C128  1  0.488800  0.907840  0.391240  1.0  0.6368
  C  C129  1  0.684900  0.689100  0.310900  1.0  -0.1114
  C  C130  1  0.094340  0.090530  0.594710  1.0  0.6712
  C  C131  1  0.996190  0.685240  0.909470  1.0  0.6763
  C  C132  1  0.620100  0.787500  0.000000  1.0  -0.2304
  O  O133  1  0.920530  0.318640  0.145050  1.0  -0.6362
  O  O134  1  0.216380  0.315140  0.581200  1.0  -0.6839
  O  O135  1  0.325020  0.898730  0.683470  1.0  -0.6464
  O  O136  1  0.615360  0.435800  0.850520  1.0  -0.5769
  O  O137  1  0.065580  0.145050  0.536310  1.0  -0.6362
  O  O138  1  0.573710  0.582200  0.101270  1.0  -0.6374
  O  O139  1  0.534120  0.713680  0.850520  1.0  -0.5714
  O  O140  1  0.797580  0.896340  0.418800  1.0  -0.6915
  O  O141  1  0.601890  0.681360  0.463690  1.0  -0.634
  O  O142  1  0.109220  0.361190  0.400330  1.0  -0.9425
  O  O143  1  0.065580  0.463690  0.854950  1.0  -0.6372
  O  O144  1  0.934420  0.536310  0.145050  1.0  -0.6372
  O  O145  1  0.674980  0.101270  0.316530  1.0  -0.6447
  O  O146  1  0.398110  0.463690  0.681360  1.0  -0.6357
  O  O147  1  0.674980  0.683470  0.898730  1.0  -0.6449
  O  O148  1  0.251970  0.761520  0.638810  1.0  -0.9416
  O  O149  1  0.509550  0.761520  0.599670  1.0  -0.9421
  O  O150  1  0.098760  0.896340  0.684860  1.0  -0.6848
  O  O151  1  0.920530  0.854950  0.681360  1.0  -0.6218
  O  O152  1  0.534120  0.149480  0.286320  1.0  -0.5686
  O  O153  1  0.901240  0.684860  0.896340  1.0  -0.6845
  O  O154  1  0.820440  0.286320  0.564200  1.0  -0.5689
  O  O155  1  0.384640  0.850520  0.435800  1.0  -0.5778
  O  O156  1  0.509550  0.400330  0.238480  1.0  -0.9408
  O  O157  1  0.890780  0.400330  0.361190  1.0  -0.938
  O  O158  1  0.179560  0.564200  0.286320  1.0  -0.577
  O  O159  1  0.426290  0.101270  0.582200  1.0  -0.6389
  O  O160  1  0.991510  0.316530  0.582200  1.0  -0.6396
  O  O161  1  0.098760  0.315140  0.103660  1.0  -0.6853
  O  O162  1  0.465880  0.286320  0.149480  1.0  -0.5695
  O  O163  1  0.783620  0.684860  0.418800  1.0  -0.6849
  O  O164  1  0.384640  0.564200  0.149480  1.0  -0.5779
  O  O165  1  0.008490  0.582200  0.316530  1.0  -0.6392
  O  O166  1  0.079470  0.681360  0.854950  1.0  -0.6365
  O  O167  1  0.901240  0.103660  0.315140  1.0  -0.6839
  O  O168  1  0.601890  0.536310  0.318640  1.0  -0.6345
  O  O169  1  0.202420  0.103660  0.581200  1.0  -0.691
  O  O170  1  0.991510  0.417800  0.683470  1.0  -0.6378
  O  O171  1  0.490450  0.599670  0.761520  1.0  -0.9385
  O  O172  1  0.934420  0.854950  0.463690  1.0  -0.6347
  O  O173  1  0.426290  0.417800  0.898730  1.0  -0.6373
  O  O174  1  0.398110  0.318640  0.536310  1.0  -0.6347
  O  O175  1  0.465880  0.850520  0.713680  1.0  -0.5689
  O  O176  1  0.890780  0.638810  0.599670  1.0  -0.9447
  O  O177  1  0.202420  0.418800  0.896340  1.0  -0.6924
  O  O178  1  0.216380  0.418800  0.684860  1.0  -0.691
  O  O179  1  0.783620  0.581200  0.315140  1.0  -0.6919
  O  O180  1  0.615360  0.149480  0.564200  1.0  -0.5765
  O  O181  1  0.490450  0.238480  0.400330  1.0  -0.941
  O  O182  1  0.325020  0.316530  0.101270  1.0  -0.6464
  O  O183  1  0.820440  0.435800  0.713680  1.0  -0.578
  O  O184  1  0.748030  0.638810  0.761520  1.0  -0.9434
  O  O185  1  0.748030  0.238480  0.361190  1.0  -0.9418
  O  O186  1  0.251970  0.361190  0.238480  1.0  -0.9441
  O  O187  1  0.573710  0.898730  0.417800  1.0  -0.637
  O  O188  1  0.079470  0.145050  0.318640  1.0  -0.6213
  O  O189  1  0.008490  0.683470  0.417800  1.0  -0.6411
  O  O190  1  0.797580  0.581200  0.103660  1.0  -0.6914
  O  O191  1  0.109220  0.599670  0.638810  1.0  -0.9411
  O  O192  1  0.179560  0.713680  0.435800  1.0  -0.5671
