# generated using pymatgen
data_Cd2H43C64(NO4)3
_symmetry_space_group_name_H-M   'P 1'
_cell_length_a   14.60500000
_cell_length_b   14.93100000
_cell_length_c   16.94600000
_cell_angle_alpha   112.16000000
_cell_angle_beta   103.19800000
_cell_angle_gamma   100.39000000
_symmetry_Int_Tables_number   1
_chemical_formula_structural   Cd2H43C64(NO4)3
_chemical_formula_sum   'Cd4 H86 C128 N6 O24'
_cell_volume   3183.18477889
_cell_formula_units_Z   2
loop_
 _symmetry_equiv_pos_site_id
 _symmetry_equiv_pos_as_xyz
  1  'x, y, z'
loop_
 _atom_site_type_symbol
 _atom_site_label
 _atom_site_symmetry_multiplicity
 _atom_site_fract_x
 _atom_site_fract_y
 _atom_site_fract_z
 _atom_site_occupancy
 _atom_site_charge
  Cd  Cd1  1  0.360240  0.441220  0.594630  1.0  0.9199
  Cd  Cd2  1  0.639760  0.558780  0.405370  1.0  0.9151
  Cd  Cd3  1  0.072680  0.126230  0.134010  1.0  1.0136
  Cd  Cd4  1  0.927320  0.873770  0.865990  1.0  1.0115
  H  H5  1  0.119600  0.466200  0.117400  1.0  0.1224
  H  H6  1  0.874400  0.124800  0.345900  1.0  0.1193
  H  H7  1  0.151200  0.342500  0.158000  1.0  0.0769
  H  H8  1  0.733300  0.011300  0.653400  1.0  0.3849
  H  H9  1  0.691200  0.314800  0.892200  1.0  0.0978
  H  H10  1  0.128200  0.064500  0.430000  1.0  0.117
  H  H11  1  0.910100  0.435900  0.942300  1.0  0.0978
  H  H12  1  0.520300  0.865200  0.180600  1.0  0.1077
  H  H13  1  0.914200  0.768000  0.342200  1.0  0.1061
  H  H14  1  0.276000  0.223600  0.050500  1.0  0.3773
  H  H15  1  0.908300  0.146000  0.977600  1.0  0.086
  H  H16  1  0.510600  0.006300  0.428600  1.0  0.1241
  H  H17  1  0.870200  0.264500  0.931900  1.0  0.1174
  H  H18  1  0.583400  0.721000  0.144200  1.0  0.1236
  H  H19  1  0.724000  0.776400  0.949500  1.0  0.3761
  H  H20  1  0.418100  0.962300  0.214000  1.0  0.1085
  H  H21  1  0.471600  0.140000  0.399400  1.0  0.1376
  H  H22  1  0.490700  0.526100  0.850800  1.0  0.3955
  H  H23  1  0.357700  0.173400  0.724600  1.0  0.1246
  H  H24  1  0.479700  0.134800  0.819400  1.0  0.1079
  H  H25  1  0.231800  0.617600  0.505200  1.0  0.3513
  H  H26  1  0.528400  0.860000  0.600600  1.0  0.1364
  H  H27  1  0.699800  0.955400  0.417900  1.0  0.1082
  H  H28  1  0.122900  0.938700  0.809100  1.0  0.1159
  H  H29  1  0.209900  0.463200  0.883100  1.0  0.1202
  H  H30  1  0.990200  0.057400  0.579900  1.0  0.0976
  H  H31  1  0.245400  0.203700  0.452700  1.0  0.076
  H  H32  1  0.800200  0.632000  0.328600  1.0  0.0712
  H  H33  1  0.815300  0.105400  0.452500  1.0  0.1137
  H  H34  1  0.848800  0.657500  0.842000  1.0  0.0775
  H  H35  1  0.653600  0.552800  0.848600  1.0  0.1067
  H  H36  1  0.183100  0.764600  0.427800  1.0  0.1219
  H  H37  1  0.496300  0.834900  0.352600  1.0  0.111
  H  H38  1  0.719800  0.312500  0.154800  1.0  0.1144
  H  H39  1  0.720300  0.055600  0.896900  1.0  0.1231
  H  H40  1  0.271200  0.822100  0.410800  1.0  0.1404
  H  H41  1  0.308800  0.685200  0.107800  1.0  0.099
  H  H42  1  0.898000  0.495800  0.212800  1.0  0.1199
  H  H43  1  0.503700  0.165100  0.647400  1.0  0.1111
  H  H44  1  0.509300  0.473900  0.149200  1.0  0.3959
  H  H45  1  0.266700  0.988700  0.346600  1.0  0.3859
  H  H46  1  0.323600  0.433600  0.286000  1.0  0.122
  H  H47  1  0.441200  0.292600  0.443700  1.0  0.0846
  H  H48  1  0.091700  0.854000  0.022400  1.0  0.086
  H  H49  1  0.768200  0.382400  0.494800  1.0  0.3527
  H  H50  1  0.676400  0.566400  0.714000  1.0  0.1218
  H  H51  1  0.880400  0.533800  0.882600  1.0  0.1221
  H  H52  1  0.642300  0.826600  0.275400  1.0  0.1237
  H  H53  1  0.160300  0.311400  0.889500  1.0  0.1053
  H  H54  1  0.051000  0.601000  0.298500  1.0  0.1075
  H  H55  1  0.102000  0.504200  0.787200  1.0  0.12
  H  H56  1  0.877100  0.061300  0.190900  1.0  0.1159
  H  H57  1  0.816900  0.235400  0.572200  1.0  0.1206
  H  H58  1  0.129800  0.735500  0.068100  1.0  0.1171
  H  H59  1  0.300200  0.044600  0.582100  1.0  0.108
  H  H60  1  0.558800  0.707400  0.556300  1.0  0.0842
  H  H61  1  0.949000  0.399000  0.701500  1.0  0.1058
  H  H62  1  0.243700  0.826900  0.957600  1.0  0.1151
  H  H63  1  0.348100  0.533200  0.064400  1.0  0.1177
  H  H64  1  0.346400  0.447200  0.151400  1.0  0.1055
  H  H65  1  0.280200  0.687500  0.845200  1.0  0.1132
  H  H66  1  0.089900  0.564100  0.057700  1.0  0.0979
  H  H67  1  0.489400  0.993700  0.571400  1.0  0.1233
  H  H68  1  0.416600  0.279000  0.855800  1.0  0.1227
  H  H69  1  0.790100  0.536800  0.116900  1.0  0.1205
  H  H70  1  0.651900  0.466800  0.935600  1.0  0.1168
  H  H71  1  0.279700  0.944400  0.103100  1.0  0.1233
  H  H72  1  0.378100  0.333200  0.934600  1.0  0.1383
  H  H73  1  0.471800  0.319000  0.685300  1.0  0.0789
  H  H74  1  0.754600  0.796300  0.547300  1.0  0.0761
  H  H75  1  0.125600  0.875200  0.654100  1.0  0.1191
  H  H76  1  0.621900  0.666800  0.065400  1.0  0.1373
  H  H77  1  0.581900  0.037700  0.786000  1.0  0.1095
  H  H78  1  0.736400  0.252300  0.766300  1.0  0.102
  H  H79  1  0.966500  0.850600  0.160600  1.0  0.1019
  H  H80  1  0.728800  0.177900  0.589200  1.0  0.1413
  H  H81  1  0.528200  0.681000  0.314700  1.0  0.0781
  H  H82  1  0.871800  0.935500  0.570000  1.0  0.1175
  H  H83  1  0.184700  0.894600  0.547500  1.0  0.1138
  H  H84  1  0.199800  0.368000  0.671400  1.0  0.0709
  H  H85  1  0.263600  0.747700  0.233700  1.0  0.1026
  H  H86  1  0.009800  0.942600  0.420100  1.0  0.0988
  H  H87  1  0.839700  0.688600  0.110500  1.0  0.105
  H  H88  1  0.756300  0.173100  0.042400  1.0  0.1152
  H  H89  1  0.085800  0.232000  0.657800  1.0  0.1051
  H  H90  1  0.033500  0.149400  0.839400  1.0  0.1016
  C  C91  1  0.898100  0.100720  0.752150  1.0  -0.1849
  C  C92  1  0.304900  0.492590  0.302310  1.0  -0.115
  C  C93  1  0.719420  0.472150  0.620450  1.0  -0.1934
  C  C94  1  0.827000  0.064900  0.330700  1.0  -0.0909
  C  C95  1  0.983200  0.954100  0.466700  1.0  -0.0924
  C  C96  1  0.207400  0.946600  0.605700  1.0  -0.1105
  C  C97  1  0.990100  0.380000  0.738900  1.0  -0.1259
  C  C98  1  0.687500  0.886600  0.287600  1.0  -0.1511
  C  C99  1  0.471600  0.635700  0.936800  1.0  0.1642
  C  C100  1  0.091500  0.131500  0.541700  1.0  0.1469
  C  C101  1  0.141900  0.125400  0.480270  1.0  -0.1887
  C  C102  1  0.045300  0.714790  0.259800  1.0  -0.0043
  C  C103  1  0.882600  0.671600  0.148400  1.0  -0.0756
  C  C104  1  0.167900  0.874160  0.306640  1.0  0.1762
  C  C105  1  0.093600  0.326700  0.111900  1.0  0.1903
  C  C106  1  0.048600  0.788620  0.993730  1.0  0.2003
  C  C107  1  0.510300  0.810900  0.395900  1.0  -0.1751
  C  C108  1  0.832100  0.125840  0.693360  1.0  0.1758
  C  C109  1  0.720900  0.313000  0.782210  1.0  -0.1376
  C  C110  1  0.859700  0.216370  0.686650  1.0  -0.0263
  C  C111  1  0.464500  0.855390  0.135180  1.0  -0.108
  C  C112  1  0.277300  0.036700  0.626700  1.0  -0.0822
  C  C113  1  0.281000  0.103200  0.783390  1.0  -0.0413
  C  C114  1  0.147300  0.418800  0.848000  1.0  -0.1104
  C  C115  1  0.306400  0.649600  0.142300  1.0  -0.0788
  C  C116  1  0.249000  0.616900  0.402780  1.0  0.1689
  C  C117  1  0.846100  0.943850  0.022360  1.0  0.715
  C  C118  1  0.470900  0.173900  0.457900  1.0  -0.2283
  C  C119  1  0.280580  0.527850  0.379550  1.0  -0.1916
  C  C120  1  0.529100  0.826100  0.542100  1.0  -0.2275
  C  C121  1  0.866300  0.005280  0.762970  1.0  0.7047
  C  C122  1  0.169900  0.999000  0.824920  1.0  -0.0637
  C  C123  1  0.201040  0.073040  0.911820  1.0  -0.2495
  C  C124  1  0.830100  0.001000  0.175080  1.0  -0.068
  C  C125  1  0.133700  0.994720  0.237030  1.0  0.7048
  C  C126  1  0.016800  0.045900  0.533300  1.0  -0.0919
  C  C127  1  0.598600  0.724230  0.092310  1.0  -0.2494
  C  C128  1  0.489700  0.189100  0.604100  1.0  -0.1757
  C  C129  1  0.883700  0.775800  0.385800  1.0  -0.1979
  C  C130  1  0.302360  0.543640  0.246680  1.0  0.022
  C  C131  1  0.556000  0.220980  0.954190  1.0  0.0574
  C  C132  1  0.212300  0.764600  0.381760  1.0  -0.2199
  C  C133  1  0.918100  0.556800  0.209800  1.0  -0.0978
  C  C134  1  0.990200  0.166620  0.801990  1.0  -0.0611
  C  C135  1  0.081900  0.443200  0.790200  1.0  -0.0978
  C  C136  1  0.009900  0.620000  0.261100  1.0  -0.1256
  C  C137  1  0.611600  0.373240  0.131810  1.0  -0.1661
  C  C138  1  0.452600  0.266000  0.485400  1.0  0.1708
  C  C139  1  0.117400  0.328400  0.851600  1.0  -0.0715
  C  C140  1  0.298500  0.832800  0.002100  1.0  -0.0772
  C  C141  1  0.970500  0.454460  0.986140  1.0  -0.1241
  C  C142  1  0.719000  0.896800  0.216610  1.0  -0.0412
  C  C143  1  0.401400  0.275770  0.907690  1.0  -0.2327
  C  C144  1  0.529600  0.717950  0.373300  1.0  0.1904
  C  C145  1  0.793100  0.988300  0.240710  1.0  0.0359
  C  C146  1  0.954700  0.285210  0.740200  1.0  -0.0052
  C  C147  1  0.751000  0.383100  0.597220  1.0  0.1677
  C  C148  1  0.707960  0.524230  0.559940  1.0  0.7096
  C  C149  1  0.009800  0.833380  0.198010  1.0  -0.0633
  C  C150  1  0.755600  0.331090  0.649920  1.0  0.013
  C  C151  1  0.153900  0.056150  0.977640  1.0  0.7165
  C  C152  1  0.275090  0.164500  0.935720  1.0  0.2187
  C  C153  1  0.511700  0.867700  0.482800  1.0  0.1173
  C  C154  1  0.363700  0.552600  0.771500  1.0  0.6705
  C  C155  1  0.787700  0.235400  0.618240  1.0  -0.2222
  C  C156  1  0.906400  0.673300  0.888100  1.0  0.1909
  C  C157  1  0.722700  0.963300  0.373300  1.0  -0.0855
  C  C158  1  0.488300  0.132300  0.517200  1.0  0.1183
  C  C159  1  0.813800  0.694100  0.377400  1.0  0.2026
  C  C160  1  0.496600  0.286680  0.976050  1.0  -0.0088
  C  C161  1  0.292040  0.475770  0.440060  1.0  0.711
  C  C162  1  0.858100  0.874600  0.519730  1.0  -0.1892
  C  C163  1  0.535500  0.144610  0.864820  1.0  -0.1063
  C  C164  1  0.724910  0.835500  0.064280  1.0  0.2237
  C  C165  1  0.274110  0.634270  0.272290  1.0  0.0079
  C  C166  1  0.679800  0.096400  0.911400  1.0  -0.1395
  C  C167  1  0.528400  0.364300  0.063200  1.0  0.1639
  C  C168  1  0.798960  0.926960  0.088180  1.0  -0.2489
  C  C169  1  0.991400  0.379730  0.017980  1.0  0.1289
  C  C170  1  0.693600  0.350400  0.857700  1.0  -0.0783
  C  C171  1  0.329400  0.507100  0.168160  1.0  -0.1563
  C  C172  1  0.116300  0.224200  0.614200  1.0  -0.1921
  C  C173  1  0.500400  0.029100  0.484200  1.0  -0.0721
  C  C174  1  0.071500  0.717700  0.021870  1.0  -0.2118
  C  C175  1  0.279100  0.687000  0.217790  1.0  -0.1382
  C  C176  1  0.503400  0.713320  0.023950  1.0  -0.0093
  C  C177  1  0.334100  0.692600  0.889970  1.0  -0.0156
  C  C178  1  0.924600  0.598600  0.912700  1.0  -0.1967
  C  C179  1  0.330900  0.558400  0.116400  1.0  -0.1028
  C  C180  1  0.186200  0.305900  0.622600  1.0  0.204
  C  C181  1  0.075400  0.401400  0.087300  1.0  -0.1954
  C  C182  1  0.977900  0.739600  0.201300  1.0  -0.0035
  C  C183  1  0.596400  0.085800  0.844900  1.0  -0.0561
  C  C184  1  0.403600  0.914200  0.155100  1.0  -0.0544
  C  C185  1  0.787900  0.790170  0.505740  1.0  0.188
  C  C186  1  0.444000  0.779020  0.045810  1.0  0.0561
  C  C187  1  0.642000  0.231950  0.021070  1.0  0.0344
  C  C188  1  0.244400  0.668910  0.350080  1.0  0.0125
  C  C189  1  0.008600  0.620270  0.982020  1.0  0.1282
  C  C190  1  0.547400  0.734000  0.514600  1.0  0.1728
  C  C191  1  0.101900  0.899280  0.247850  1.0  -0.1847
  C  C192  1  0.928500  0.282300  0.978130  1.0  -0.1981
  C  C193  1  0.665900  0.307400  0.110030  1.0  -0.0121
  C  C194  1  0.022100  0.260400  0.798700  1.0  -0.0036
  C  C195  1  0.206900  0.011700  0.759290  1.0  0.035
  C  C196  1  0.173000  0.935100  0.669300  1.0  -0.093
  C  C197  1  0.951400  0.211380  0.006270  1.0  0.2008
  C  C198  1  0.908500  0.868500  0.458300  1.0  0.147
  C  C199  1  0.697640  0.456360  0.753320  1.0  0.0222
  C  C200  1  0.701500  0.167200  0.997900  1.0  -0.0771
  C  C201  1  0.695100  0.507410  0.697690  1.0  -0.1145
  C  C202  1  0.318600  0.179370  0.875090  1.0  0.0106
  C  C203  1  0.320200  0.903600  0.088600  1.0  -0.1378
  C  C204  1  0.852700  0.581200  0.152000  1.0  -0.1081
  C  C205  1  0.792600  0.053400  0.394300  1.0  -0.113
  C  C206  1  0.470400  0.282050  0.626700  1.0  0.1897
  C  C207  1  0.312500  0.113400  0.712400  1.0  -0.1506
  C  C208  1  0.670600  0.492900  0.831840  1.0  -0.1548
  C  C209  1  0.029500  0.545540  0.013860  1.0  -0.1225
  C  C210  1  0.636300  0.447400  0.228500  1.0  0.6698
  C  C211  1  0.140300  0.783630  0.313350  1.0  -0.0263
  C  C212  1  0.212100  0.209830  0.494260  1.0  0.187
  C  C213  1  0.499600  0.970900  0.515800  1.0  -0.0753
  C  C214  1  0.725890  0.365730  0.727710  1.0  0.0073
  C  C215  1  0.669100  0.441600  0.883600  1.0  -0.1011
  C  C216  1  0.358000  0.768050  0.978930  1.0  0.0308
  C  C217  1  0.388400  0.626760  0.868190  1.0  -0.1657
  C  C218  1  0.681400  0.820630  0.124910  1.0  0.0108
  N  N219  1  0.235100  0.300460  0.564510  1.0  -0.3402
  N  N220  1  0.032790  0.232900  0.072860  1.0  -0.3389
  N  N221  1  0.550160  0.680030  0.432810  1.0  -0.3571
  N  N222  1  0.764900  0.699540  0.435490  1.0  -0.3404
  N  N223  1  0.449840  0.319970  0.567190  1.0  -0.3586
  N  N224  1  0.967210  0.767100  0.927140  1.0  -0.3399
  O  O225  1  0.325770  0.401110  0.420480  1.0  -0.6345
  O  O226  1  0.814850  0.873270  0.942760  1.0  -0.6669
  O  O227  1  0.088850  0.975790  0.953610  1.0  -0.7071
  O  O228  1  0.417600  0.494230  0.752260  1.0  -0.6511
  O  O229  1  0.295800  0.550640  0.711020  1.0  -0.6398
  O  O230  1  0.259430  0.939310  0.357490  1.0  -0.5006
  O  O231  1  0.729730  0.489380  0.488190  1.0  -0.6761
  O  O232  1  0.478340  0.433690  0.081490  1.0  -0.4865
  O  O233  1  0.740570  0.060690  0.642510  1.0  -0.5034
  O  O234  1  0.223220  0.652750  0.478460  1.0  -0.5041
  O  O235  1  0.582400  0.505770  0.247740  1.0  -0.6518
  O  O236  1  0.781620  0.944370  0.714490  1.0  -0.5803
  O  O237  1  0.674230  0.598890  0.579520  1.0  -0.6338
  O  O238  1  0.185150  0.126730  0.057240  1.0  -0.6664
  O  O239  1  0.776780  0.347250  0.521540  1.0  -0.5014
  O  O240  1  0.704200  0.449360  0.288980  1.0  -0.6404
  O  O241  1  0.305240  0.240650  0.020080  1.0  -0.4877
  O  O242  1  0.694760  0.759350  0.979920  1.0  -0.4863
  O  O243  1  0.270270  0.510620  0.511810  1.0  -0.6776
  O  O244  1  0.521660  0.566310  0.918510  1.0  -0.4879
  O  O245  1  0.073030  0.006510  0.179160  1.0  -0.6182
  O  O246  1  0.218380  0.055630  0.285510  1.0  -0.5798
  O  O247  1  0.911150  0.024210  0.046390  1.0  -0.7072
  O  O248  1  0.926970  0.993490  0.820840  1.0  -0.6185
