# generated using pymatgen
data_UP2H4C6O8F
_symmetry_space_group_name_H-M   'P 1'
_cell_length_a   15.95840000
_cell_length_b   8.23760000
_cell_length_c   16.25540000
_cell_angle_alpha   90.00000000
_cell_angle_beta   105.36800000
_cell_angle_gamma   90.00000000
_symmetry_Int_Tables_number   1
_chemical_formula_structural   UP2H4C6O8F
_chemical_formula_sum   'U4 P8 H16 C24 O32 F4'
_cell_volume   2060.50872464
_cell_formula_units_Z   4
loop_
 _symmetry_equiv_pos_site_id
 _symmetry_equiv_pos_as_xyz
  1  'x, y, z'
loop_
 _atom_site_type_symbol
 _atom_site_label
 _atom_site_symmetry_multiplicity
 _atom_site_fract_x
 _atom_site_fract_y
 _atom_site_fract_z
 _atom_site_occupancy
 _atom_site_charge
  U  U1  1  0.707520  0.122660  0.258690  1.0  1.811
  U  U2  1  0.792480  0.622660  0.241310  1.0  1.8114
  U  U3  1  0.292480  0.877340  0.741310  1.0  1.8113
  U  U4  1  0.207520  0.377340  0.758690  1.0  1.8109
  P  P5  1  0.932450  0.983100  0.296390  1.0  1.5214
  P  P6  1  0.503450  0.974350  0.303730  1.0  1.4431
  P  P7  1  0.567550  0.483100  0.203610  1.0  1.5216
  P  P8  1  0.996550  0.474350  0.196270  1.0  1.4439
  P  P9  1  0.067550  0.016900  0.703610  1.0  1.5213
  P  P10  1  0.496550  0.025650  0.696270  1.0  1.4437
  P  P11  1  0.432450  0.516900  0.796390  1.0  1.5215
  P  P12  1  0.003450  0.525650  0.803730  1.0  1.4428
  H  H13  1  0.933200  0.275100  0.361800  1.0  0.4032
  H  H14  1  0.391800  0.784700  0.347900  1.0  0.4201
  H  H15  1  0.977400  0.749300  0.430700  1.0  0.1263
  H  H16  1  0.600100  0.147400  0.448700  1.0  0.1276
  H  H17  1  0.566800  0.775100  0.138200  1.0  0.405
  H  H18  1  0.108200  0.284700  0.152100  1.0  0.4205
  H  H19  1  0.522600  0.249300  0.069300  1.0  0.1253
  H  H20  1  0.899900  0.647400  0.051300  1.0  0.1266
  H  H21  1  0.066800  0.724900  0.638200  1.0  0.4049
  H  H22  1  0.608200  0.215300  0.652100  1.0  0.4209
  H  H23  1  0.022600  0.250700  0.569300  1.0  0.1258
  H  H24  1  0.399900  0.852600  0.551300  1.0  0.1266
  H  H25  1  0.433200  0.224900  0.861800  1.0  0.4041
  H  H26  1  0.891800  0.715300  0.847900  1.0  0.4206
  H  H27  1  0.477400  0.750700  0.930700  1.0  0.1263
  H  H28  1  0.100100  0.352600  0.948700  1.0  0.1268
  C  C29  1  0.966640  0.993400  0.410860  1.0  -0.2625
  C  C30  1  0.980000  0.143500  0.453100  1.0  0.281
  C  C31  1  0.986700  0.851400  0.458800  1.0  -0.0738
  C  C32  1  0.501340  0.984000  0.414150  1.0  -0.1741
  C  C33  1  0.441600  0.896000  0.445800  1.0  0.3068
  C  C34  1  0.559200  0.087200  0.469500  1.0  -0.0795
  C  C35  1  0.533360  0.493400  0.089140  1.0  -0.264
  C  C36  1  0.520000  0.643500  0.046900  1.0  0.2811
  C  C37  1  0.513300  0.351400  0.041200  1.0  -0.0743
  C  C38  1  0.998660  0.484000  0.085850  1.0  -0.1752
  C  C39  1  0.058400  0.396000  0.054200  1.0  0.306
  C  C40  1  0.940800  0.587200  0.030500  1.0  -0.0805
  C  C41  1  0.033360  0.006600  0.589140  1.0  -0.2653
  C  C42  1  0.020000  0.856500  0.546900  1.0  0.2812
  C  C43  1  0.013300  0.148600  0.541200  1.0  -0.076
  C  C44  1  0.498660  0.016000  0.585850  1.0  -0.1778
  C  C45  1  0.558400  0.104000  0.554200  1.0  0.3063
  C  C46  1  0.440800  0.912800  0.530500  1.0  -0.0807
  C  C47  1  0.466640  0.506600  0.910860  1.0  -0.2636
  C  C48  1  0.480000  0.356500  0.953100  1.0  0.281
  C  C49  1  0.486700  0.648600  0.958800  1.0  -0.0757
  C  C50  1  0.001340  0.516000  0.914150  1.0  -0.1766
  C  C51  1  0.941600  0.604000  0.945800  1.0  0.3071
  C  C52  1  0.059200  0.412800  0.969500  1.0  -0.08
  O  O53  1  0.858580  0.099900  0.263590  1.0  -0.7925
  O  O54  1  0.013500  0.035100  0.265530  1.0  -0.5347
  O  O55  1  0.915800  0.807100  0.269890  1.0  -0.8575
  O  O56  1  0.965180  0.289400  0.411380  1.0  -0.4981
  O  O57  1  0.595880  0.982800  0.298470  1.0  -0.8586
  O  O58  1  0.454340  0.131500  0.260400  1.0  -0.5971
  O  O59  1  0.450470  0.827800  0.266120  1.0  -0.6242
  O  O60  1  0.382250  0.793000  0.396160  1.0  -0.4826
  O  O61  1  0.641420  0.599900  0.236410  1.0  -0.7945
  O  O62  1  0.486500  0.535100  0.234470  1.0  -0.5348
  O  O63  1  0.584200  0.307100  0.230110  1.0  -0.8573
  O  O64  1  0.534820  0.789400  0.088620  1.0  -0.4978
  O  O65  1  0.904120  0.482800  0.201530  1.0  -0.8604
  O  O66  1  0.045660  0.631500  0.239600  1.0  -0.5958
  O  O67  1  0.049530  0.327800  0.233880  1.0  -0.6267
  O  O68  1  0.117750  0.293000  0.103840  1.0  -0.4834
  O  O69  1  0.141420  0.900100  0.736410  1.0  -0.7951
  O  O70  1  0.986500  0.964900  0.734470  1.0  -0.5346
  O  O71  1  0.084200  0.192900  0.730110  1.0  -0.8556
  O  O72  1  0.034820  0.710600  0.588620  1.0  -0.4986
  O  O73  1  0.404120  0.017200  0.701530  1.0  -0.8602
  O  O74  1  0.545660  0.868500  0.739600  1.0  -0.5958
  O  O75  1  0.549530  0.172200  0.733880  1.0  -0.6265
  O  O76  1  0.617750  0.207000  0.603840  1.0  -0.4831
  O  O77  1  0.358580  0.400100  0.763590  1.0  -0.7932
  O  O78  1  0.513500  0.464900  0.765530  1.0  -0.5351
  O  O79  1  0.415800  0.692900  0.769890  1.0  -0.8554
  O  O80  1  0.465180  0.210600  0.911380  1.0  -0.4977
  O  O81  1  0.095880  0.517200  0.798470  1.0  -0.8587
  O  O82  1  0.954340  0.368500  0.760400  1.0  -0.5956
  O  O83  1  0.950470  0.672200  0.766120  1.0  -0.6235
  O  O84  1  0.882250  0.707000  0.896160  1.0  -0.4829
  F  F85  1  0.754710  0.859500  0.298130  1.0  -0.5994
  F  F86  1  0.745290  0.359500  0.201870  1.0  -0.5998
  F  F87  1  0.245290  0.140500  0.701870  1.0  -0.5993
  F  F88  1  0.254710  0.640500  0.798130  1.0  -0.5993
