# generated using pymatgen
data_UP2H4C6O8F
_symmetry_space_group_name_H-M   'P 1'
_cell_length_a   15.05200000
_cell_length_b   8.14700000
_cell_length_c   16.16400000
_cell_angle_alpha   90.00000000
_cell_angle_beta   102.84300000
_cell_angle_gamma   90.00000000
_symmetry_Int_Tables_number   1
_chemical_formula_structural   UP2H4C6O8F
_chemical_formula_sum   'U4 P8 H16 C24 O32 F4'
_cell_volume   1932.58109193
_cell_formula_units_Z   4
loop_
 _symmetry_equiv_pos_site_id
 _symmetry_equiv_pos_as_xyz
  1  'x, y, z'
loop_
 _atom_site_type_symbol
 _atom_site_label
 _atom_site_symmetry_multiplicity
 _atom_site_fract_x
 _atom_site_fract_y
 _atom_site_fract_z
 _atom_site_occupancy
 _atom_site_charge
  U  U1  1  0.203980  0.131980  0.258070  1.0  2.0237
  U  U2  1  0.296020  0.631980  0.241930  1.0  2.0236
  U  U3  1  0.796020  0.868020  0.741930  1.0  2.0235
  U  U4  1  0.703980  0.368020  0.758070  1.0  2.0235
  P  P5  1  0.984130  0.985000  0.299260  1.0  1.4415
  P  P6  1  0.441470  0.995600  0.297440  1.0  1.4808
  P  P7  1  0.515870  0.485000  0.200740  1.0  1.4402
  P  P8  1  0.058530  0.495600  0.202560  1.0  1.4826
  P  P9  1  0.015870  0.015000  0.700740  1.0  1.4401
  P  P10  1  0.558530  0.004400  0.702560  1.0  1.483
  P  P11  1  0.484130  0.515000  0.799260  1.0  1.4411
  P  P12  1  0.941470  0.504400  0.797440  1.0  1.4811
  H  H13  1  0.873500  0.793100  0.355700  1.0  0.4059
  H  H14  1  0.424500  0.284900  0.367800  1.0  0.3789
  H  H15  1  0.098400  0.149400  0.437400  1.0  0.0969
  H  H16  1  0.491000  0.753000  0.426300  1.0  0.1027
  H  H17  1  0.626500  0.293100  0.144300  1.0  0.4068
  H  H18  1  0.075500  0.784900  0.132200  1.0  0.3804
  H  H19  1  0.401600  0.649400  0.062600  1.0  0.0963
  H  H20  1  0.009000  0.253000  0.073700  1.0  0.1022
  H  H21  1  0.126500  0.206900  0.644300  1.0  0.4074
  H  H22  1  0.575500  0.715100  0.632200  1.0  0.3799
  H  H23  1  0.901600  0.850600  0.562600  1.0  0.0963
  H  H24  1  0.509000  0.247000  0.573700  1.0  0.1021
  H  H25  1  0.373500  0.706900  0.855700  1.0  0.4064
  H  H26  1  0.924500  0.215100  0.867800  1.0  0.3794
  H  H27  1  0.598400  0.350600  0.937400  1.0  0.096
  H  H28  1  0.991000  0.747000  0.926300  1.0  0.1024
  C  C29  1  0.990900  0.993500  0.411500  1.0  -0.1923
  C  C30  1  0.933600  0.903300  0.451100  1.0  0.3284
  C  C31  1  0.057600  0.088400  0.462700  1.0  -0.0912
  C  C32  1  0.471000  0.000000  0.412400  1.0  -0.1498
  C  C33  1  0.475600  0.146000  0.454900  1.0  0.2476
  C  C34  1  0.494800  0.853600  0.456500  1.0  -0.0841
  C  C35  1  0.509100  0.493500  0.088500  1.0  -0.193
  C  C36  1  0.566400  0.403300  0.048900  1.0  0.3266
  C  C37  1  0.442400  0.588400  0.037300  1.0  -0.0921
  C  C38  1  0.029000  0.500000  0.087600  1.0  -0.1494
  C  C39  1  0.024400  0.646000  0.045100  1.0  0.2474
  C  C40  1  0.005200  0.353600  0.043500  1.0  -0.0842
  C  C41  1  0.009100  0.006500  0.588500  1.0  -0.1924
  C  C42  1  0.066400  0.096700  0.548900  1.0  0.3263
  C  C43  1  0.942400  0.911600  0.537300  1.0  -0.0913
  C  C44  1  0.529000  0.000000  0.587600  1.0  -0.149
  C  C45  1  0.524400  0.854000  0.545100  1.0  0.2471
  C  C46  1  0.505200  0.146400  0.543500  1.0  -0.0844
  C  C47  1  0.490900  0.506500  0.911500  1.0  -0.1914
  C  C48  1  0.433600  0.596700  0.951100  1.0  0.3286
  C  C49  1  0.557600  0.411600  0.962700  1.0  -0.0904
  C  C50  1  0.971000  0.500000  0.912400  1.0  -0.1493
  C  C51  1  0.975600  0.354000  0.954900  1.0  0.2472
  C  C52  1  0.994800  0.646400  0.956500  1.0  -0.0844
  O  O53  1  0.080000  0.987400  0.284900  1.0  -0.8944
  O  O54  1  0.932800  0.145900  0.260200  1.0  -0.5974
  O  O55  1  0.926300  0.839100  0.264800  1.0  -0.6515
  O  O56  1  0.867500  0.800300  0.406000  1.0  -0.5149
  O  O57  1  0.364900  0.116700  0.266700  1.0  -0.7559
  O  O58  1  0.528800  0.049500  0.267000  1.0  -0.5452
  O  O59  1  0.424200  0.820000  0.268700  1.0  -0.8698
  O  O60  1  0.454000  0.297300  0.418000  1.0  -0.5228
  O  O61  1  0.420000  0.487400  0.215100  1.0  -0.8955
  O  O62  1  0.567200  0.645900  0.239800  1.0  -0.5964
  O  O63  1  0.573700  0.339100  0.235200  1.0  -0.6544
  O  O64  1  0.632500  0.300300  0.094000  1.0  -0.5171
  O  O65  1  0.135100  0.616700  0.233300  1.0  -0.7577
  O  O66  1  0.971200  0.549500  0.233000  1.0  -0.5439
  O  O67  1  0.075800  0.320000  0.231300  1.0  -0.8706
  O  O68  1  0.046000  0.797300  0.082000  1.0  -0.5229
  O  O69  1  0.920000  0.012600  0.715100  1.0  -0.8957
  O  O70  1  0.067200  0.854100  0.739800  1.0  -0.5967
  O  O71  1  0.073700  0.160900  0.735200  1.0  -0.6541
  O  O72  1  0.132500  0.199700  0.594000  1.0  -0.5174
  O  O73  1  0.635100  0.883300  0.733300  1.0  -0.7573
  O  O74  1  0.471200  0.950500  0.733000  1.0  -0.5437
  O  O75  1  0.575800  0.180000  0.731300  1.0  -0.8685
  O  O76  1  0.546000  0.702700  0.582000  1.0  -0.5235
  O  O77  1  0.580000  0.512600  0.784900  1.0  -0.8943
  O  O78  1  0.432800  0.354100  0.760200  1.0  -0.5959
  O  O79  1  0.426300  0.660900  0.764800  1.0  -0.6506
  O  O80  1  0.367500  0.699700  0.906000  1.0  -0.5155
  O  O81  1  0.864900  0.383300  0.766700  1.0  -0.7562
  O  O82  1  0.028800  0.450500  0.767000  1.0  -0.545
  O  O83  1  0.924200  0.680000  0.768700  1.0  -0.8688
  O  O84  1  0.954000  0.202700  0.918000  1.0  -0.5218
  F  F85  1  0.253400  0.870700  0.298800  1.0  -0.6346
  F  F86  1  0.246600  0.370700  0.201200  1.0  -0.6347
  F  F87  1  0.746600  0.129300  0.701200  1.0  -0.6345
  F  F88  1  0.753400  0.629300  0.798800  1.0  -0.6353
