# generated using pymatgen
data_MgH4(C4O3)2
_symmetry_space_group_name_H-M   'P 1'
_cell_length_a   13.51040000
_cell_length_b   14.11070000
_cell_length_c   8.80000000
_cell_angle_alpha   90.00000000
_cell_angle_beta   114.61700000
_cell_angle_gamma   90.00000000
_symmetry_Int_Tables_number   1
_chemical_formula_structural   MgH4(C4O3)2
_chemical_formula_sum   'Mg4 H16 C32 O24'
_cell_volume   1525.16592607
_cell_formula_units_Z   4
loop_
 _symmetry_equiv_pos_site_id
 _symmetry_equiv_pos_as_xyz
  1  'x, y, z'
loop_
 _atom_site_type_symbol
 _atom_site_label
 _atom_site_symmetry_multiplicity
 _atom_site_fract_x
 _atom_site_fract_y
 _atom_site_fract_z
 _atom_site_occupancy
 _atom_site_charge
  Mg  Mg1  1  0.000000  0.578670  0.250000  1.0  1.5949
  Mg  Mg2  1  0.500000  0.078670  0.250000  1.0  1.5949
  Mg  Mg3  1  0.000000  0.421330  0.750000  1.0  1.5925
  Mg  Mg4  1  0.500000  0.921330  0.750000  1.0  1.5923
  H  H5  1  0.151000  0.584500  0.739800  1.0  0.3772
  H  H6  1  0.197100  0.725300  0.216400  1.0  0.1105
  H  H7  1  0.651000  0.084500  0.739800  1.0  0.3772
  H  H8  1  0.697100  0.225300  0.216400  1.0  0.1105
  H  H9  1  0.849000  0.584500  0.760200  1.0  0.3785
  H  H10  1  0.802900  0.725300  0.283600  1.0  0.1114
  H  H11  1  0.349000  0.084500  0.760200  1.0  0.3785
  H  H12  1  0.302900  0.225300  0.283600  1.0  0.1114
  H  H13  1  0.849000  0.415500  0.260200  1.0  0.3785
  H  H14  1  0.802900  0.274700  0.783600  1.0  0.1114
  H  H15  1  0.349000  0.915500  0.260200  1.0  0.3785
  H  H16  1  0.302900  0.774700  0.783600  1.0  0.1114
  H  H17  1  0.151000  0.415500  0.239800  1.0  0.3781
  H  H18  1  0.197100  0.274700  0.716400  1.0  0.1106
  H  H19  1  0.651000  0.915500  0.239800  1.0  0.3781
  H  H20  1  0.697100  0.774700  0.716400  1.0  0.1106
  C  C21  1  0.122470  0.584600  0.001450  1.0  0.7189
  C  C22  1  0.187960  0.669900  0.998660  1.0  -0.2872
  C  C23  1  0.218460  0.735080  0.129850  1.0  -0.1285
  C  C24  1  0.219850  0.685690  0.867200  1.0  0.2839
  C  C25  1  0.622470  0.084600  0.001450  1.0  0.7189
  C  C26  1  0.687960  0.169900  0.998660  1.0  -0.2872
  C  C27  1  0.718460  0.235080  0.129850  1.0  -0.1285
  C  C28  1  0.719850  0.185690  0.867200  1.0  0.2839
  C  C29  1  0.877530  0.584600  0.498550  1.0  0.7182
  C  C30  1  0.812040  0.669900  0.501340  1.0  -0.2876
  C  C31  1  0.781540  0.735080  0.370150  1.0  -0.1306
  C  C32  1  0.780150  0.685690  0.632800  1.0  0.2845
  C  C33  1  0.377530  0.084600  0.498550  1.0  0.7182
  C  C34  1  0.312040  0.169900  0.501340  1.0  -0.2876
  C  C35  1  0.281540  0.235080  0.370150  1.0  -0.1306
  C  C36  1  0.280150  0.185690  0.632800  1.0  0.2845
  C  C37  1  0.877530  0.415400  0.998550  1.0  0.7187
  C  C38  1  0.812040  0.330100  0.001340  1.0  -0.287
  C  C39  1  0.781540  0.264920  0.870150  1.0  -0.1306
  C  C40  1  0.780150  0.314310  0.132800  1.0  0.2844
  C  C41  1  0.377530  0.915400  0.998550  1.0  0.7187
  C  C42  1  0.312040  0.830100  0.001340  1.0  -0.287
  C  C43  1  0.281540  0.764920  0.870150  1.0  -0.1306
  C  C44  1  0.280150  0.814310  0.132800  1.0  0.2844
  C  C45  1  0.122470  0.415400  0.501450  1.0  0.7189
  C  C46  1  0.187960  0.330100  0.498660  1.0  -0.2866
  C  C47  1  0.218460  0.264920  0.629850  1.0  -0.129
  C  C48  1  0.219850  0.314310  0.367200  1.0  0.2845
  C  C49  1  0.622470  0.915400  0.501450  1.0  0.7189
  C  C50  1  0.687960  0.830100  0.498660  1.0  -0.2866
  C  C51  1  0.718460  0.764920  0.629850  1.0  -0.129
  C  C52  1  0.719850  0.814310  0.367200  1.0  0.2845
  O  O53  1  0.091860  0.575970  0.115420  1.0  -0.6733
  O  O54  1  0.105150  0.524470  0.885400  1.0  -0.668
  O  O55  1  0.193280  0.624810  0.734950  1.0  -0.5303
  O  O56  1  0.591860  0.075970  0.115420  1.0  -0.6733
  O  O57  1  0.605150  0.024470  0.885400  1.0  -0.668
  O  O58  1  0.693280  0.124810  0.734950  1.0  -0.5303
  O  O59  1  0.908140  0.575970  0.384580  1.0  -0.6729
  O  O60  1  0.894850  0.524470  0.614600  1.0  -0.6675
  O  O61  1  0.806720  0.624810  0.765050  1.0  -0.5307
  O  O62  1  0.408140  0.075970  0.384580  1.0  -0.6729
  O  O63  1  0.394850  0.024470  0.614600  1.0  -0.6675
  O  O64  1  0.306720  0.124810  0.765050  1.0  -0.5307
  O  O65  1  0.908140  0.424030  0.884580  1.0  -0.6729
  O  O66  1  0.894850  0.475530  0.114600  1.0  -0.6698
  O  O67  1  0.806720  0.375190  0.265050  1.0  -0.5308
  O  O68  1  0.408140  0.924030  0.884580  1.0  -0.6729
  O  O69  1  0.394850  0.975530  0.114600  1.0  -0.6698
  O  O70  1  0.306720  0.875190  0.265050  1.0  -0.5308
  O  O71  1  0.091860  0.424030  0.615420  1.0  -0.6724
  O  O72  1  0.105150  0.475530  0.385400  1.0  -0.6697
  O  O73  1  0.193280  0.375190  0.234950  1.0  -0.53
  O  O74  1  0.591860  0.924030  0.615420  1.0  -0.6724
  O  O75  1  0.605150  0.975530  0.385400  1.0  -0.6697
  O  O76  1  0.693280  0.875190  0.234950  1.0  -0.53
