# generated using pymatgen
data_MgH4(C4O3)2
_symmetry_space_group_name_H-M   'P 1'
_cell_length_a   13.74100000
_cell_length_b   13.97200000
_cell_length_c   8.80450000
_cell_angle_alpha   90.00000000
_cell_angle_beta   113.76000000
_cell_angle_gamma   90.00000000
_symmetry_Int_Tables_number   1
_chemical_formula_structural   MgH4(C4O3)2
_chemical_formula_sum   'Mg4 H16 C32 O24'
_cell_volume   1547.09564366
_cell_formula_units_Z   4
loop_
 _symmetry_equiv_pos_site_id
 _symmetry_equiv_pos_as_xyz
  1  'x, y, z'
loop_
 _atom_site_type_symbol
 _atom_site_label
 _atom_site_symmetry_multiplicity
 _atom_site_fract_x
 _atom_site_fract_y
 _atom_site_fract_z
 _atom_site_occupancy
 _atom_site_charge
  Mg  Mg1  1  0.000000  0.577800  0.250000  1.0  1.5972
  Mg  Mg2  1  0.500000  0.077800  0.250000  1.0  1.5972
  Mg  Mg3  1  0.000000  0.422200  0.750000  1.0  1.5999
  Mg  Mg4  1  0.500000  0.922200  0.750000  1.0  1.5999
  H  H5  1  0.147200  0.586900  0.737900  1.0  0.3694
  H  H6  1  0.200200  0.724400  0.218200  1.0  0.105
  H  H7  1  0.647200  0.086900  0.737900  1.0  0.3694
  H  H8  1  0.700200  0.224400  0.218200  1.0  0.105
  H  H9  1  0.852800  0.586900  0.762100  1.0  0.3708
  H  H10  1  0.799800  0.724400  0.281800  1.0  0.106
  H  H11  1  0.352800  0.086900  0.762100  1.0  0.3708
  H  H12  1  0.299800  0.224400  0.281800  1.0  0.106
  H  H13  1  0.852800  0.413100  0.262100  1.0  0.3706
  H  H14  1  0.799800  0.275600  0.781800  1.0  0.1062
  H  H15  1  0.352800  0.913100  0.262100  1.0  0.3706
  H  H16  1  0.299800  0.775600  0.781800  1.0  0.1062
  H  H17  1  0.147200  0.413100  0.237900  1.0  0.3696
  H  H18  1  0.200200  0.275600  0.718200  1.0  0.1052
  H  H19  1  0.647200  0.913100  0.237900  1.0  0.3696
  H  H20  1  0.700200  0.775600  0.718200  1.0  0.1052
  C  C21  1  0.120890  0.585760  0.001000  1.0  0.7225
  C  C22  1  0.186950  0.670770  0.998500  1.0  -0.2872
  C  C23  1  0.220130  0.734560  0.130400  1.0  -0.1265
  C  C24  1  0.217660  0.687040  0.866400  1.0  0.3133
  C  C25  1  0.620890  0.085760  0.001000  1.0  0.7225
  C  C26  1  0.686950  0.170770  0.998500  1.0  -0.2872
  C  C27  1  0.720130  0.234560  0.130400  1.0  -0.1265
  C  C28  1  0.717660  0.187040  0.866400  1.0  0.3133
  C  C29  1  0.879110  0.585760  0.499000  1.0  0.7217
  C  C30  1  0.813050  0.670770  0.501500  1.0  -0.287
  C  C31  1  0.779870  0.734560  0.369600  1.0  -0.1294
  C  C32  1  0.782340  0.687040  0.633600  1.0  0.3137
  C  C33  1  0.379110  0.085760  0.499000  1.0  0.7217
  C  C34  1  0.313050  0.170770  0.501500  1.0  -0.287
  C  C35  1  0.279870  0.234560  0.369600  1.0  -0.1294
  C  C36  1  0.282340  0.187040  0.633600  1.0  0.3137
  C  C37  1  0.879110  0.414240  0.999000  1.0  0.7218
  C  C38  1  0.813050  0.329230  0.001500  1.0  -0.2867
  C  C39  1  0.779870  0.265440  0.869600  1.0  -0.1294
  C  C40  1  0.782340  0.312960  0.133600  1.0  0.3144
  C  C41  1  0.379110  0.914240  0.999000  1.0  0.7218
  C  C42  1  0.313050  0.829230  0.001500  1.0  -0.2867
  C  C43  1  0.279870  0.765440  0.869600  1.0  -0.1294
  C  C44  1  0.282340  0.812960  0.133600  1.0  0.3144
  C  C45  1  0.120890  0.414240  0.501000  1.0  0.7227
  C  C46  1  0.186950  0.329230  0.498500  1.0  -0.2868
  C  C47  1  0.220130  0.265440  0.630400  1.0  -0.1266
  C  C48  1  0.217660  0.312960  0.366400  1.0  0.314
  C  C49  1  0.620890  0.914240  0.501000  1.0  0.7227
  C  C50  1  0.686950  0.829230  0.498500  1.0  -0.2868
  C  C51  1  0.720130  0.765440  0.630400  1.0  -0.1266
  C  C52  1  0.717660  0.812960  0.366400  1.0  0.314
  O  O53  1  0.091910  0.576990  0.115640  1.0  -0.6755
  O  O54  1  0.102060  0.526140  0.884890  1.0  -0.6911
  O  O55  1  0.189380  0.627010  0.732760  1.0  -0.5279
  O  O56  1  0.591910  0.076990  0.115640  1.0  -0.6755
  O  O57  1  0.602060  0.026140  0.884890  1.0  -0.6911
  O  O58  1  0.689380  0.127010  0.732760  1.0  -0.5279
  O  O59  1  0.908090  0.576990  0.384360  1.0  -0.6755
  O  O60  1  0.897940  0.526140  0.615110  1.0  -0.6906
  O  O61  1  0.810620  0.627010  0.767240  1.0  -0.5306
  O  O62  1  0.408090  0.076990  0.384360  1.0  -0.6755
  O  O63  1  0.397940  0.026140  0.615110  1.0  -0.6906
  O  O64  1  0.310620  0.127010  0.767240  1.0  -0.5306
  O  O65  1  0.908090  0.423010  0.884360  1.0  -0.6753
  O  O66  1  0.897940  0.473860  0.115110  1.0  -0.6911
  O  O67  1  0.810620  0.372990  0.267240  1.0  -0.5313
  O  O68  1  0.408090  0.923010  0.884360  1.0  -0.6753
  O  O69  1  0.397940  0.973860  0.115110  1.0  -0.6911
  O  O70  1  0.310620  0.872990  0.267240  1.0  -0.5313
  O  O71  1  0.091910  0.423010  0.615640  1.0  -0.6748
  O  O72  1  0.102060  0.473860  0.384890  1.0  -0.6913
  O  O73  1  0.189380  0.372990  0.232760  1.0  -0.5295
  O  O74  1  0.591910  0.923010  0.615640  1.0  -0.6748
  O  O75  1  0.602060  0.973860  0.384890  1.0  -0.6913
  O  O76  1  0.689380  0.872990  0.232760  1.0  -0.5295
