# generated using pymatgen
data_Ag7H16(C6N5)4
_symmetry_space_group_name_H-M   'P 1'
_cell_length_a   10.19120000
_cell_length_b   13.70080000
_cell_length_c   24.47100000
_cell_angle_alpha   81.03020000
_cell_angle_beta   77.98130000
_cell_angle_gamma   68.16600000
_symmetry_Int_Tables_number   1
_chemical_formula_structural   Ag7H16(C6N5)4
_chemical_formula_sum   'Ag14 H32 C48 N40'
_cell_volume   3090.58869821
_cell_formula_units_Z   2
loop_
 _symmetry_equiv_pos_site_id
 _symmetry_equiv_pos_as_xyz
  1  'x, y, z'
loop_
 _atom_site_type_symbol
 _atom_site_label
 _atom_site_symmetry_multiplicity
 _atom_site_fract_x
 _atom_site_fract_y
 _atom_site_fract_z
 _atom_site_occupancy
 _atom_site_charge
  Ag  Ag1  1  0.568960  0.051470  0.346450  1.0  0.3729
  Ag  Ag2  1  0.944230  0.566000  0.121720  1.0  0.2433
  Ag  Ag3  1  0.291740  0.967580  0.837160  1.0  0.1967
  Ag  Ag4  1  0.203190  0.009550  0.390290  1.0  0.3973
  Ag  Ag5  1  0.396970  0.509550  0.890290  1.0  0.3975
  Ag  Ag6  1  0.035670  0.268550  0.827170  1.0  0.3865
  Ag  Ag7  1  0.868610  0.768550  0.327170  1.0  0.3835
  Ag  Ag8  1  0.903520  0.467580  0.337160  1.0  0.1964
  Ag  Ag9  1  0.678840  0.272610  0.814370  1.0  0.334
  Ag  Ag10  1  0.234180  0.772610  0.314370  1.0  0.3341
  Ag  Ag11  1  0.033120  0.551470  0.846450  1.0  0.3725
  Ag  Ag12  1  0.657390  0.070830  0.512470  1.0  0.2531
  Ag  Ag13  1  0.759310  0.570830  0.012470  1.0  0.2542
  Ag  Ag14  1  0.368050  0.066000  0.621720  1.0  0.2441
  H  H15  1  0.293300  0.582700  0.768500  1.0  0.0709
  H  H16  1  0.699400  0.938800  0.762000  1.0  0.0853
  H  H17  1  0.984500  0.088200  0.481800  1.0  0.0479
  H  H18  1  0.268800  0.881700  0.726100  1.0  0.0999
  H  H19  1  0.502900  0.581200  0.316800  1.0  0.0931
  H  H20  1  0.445500  0.588200  0.981800  1.0  0.0477
  H  H21  1  0.960100  0.232900  0.338100  1.0  0.0586
  H  H22  1  0.383900  0.705500  0.713700  1.0  0.0933
  H  H23  1  0.196900  0.205500  0.213700  1.0  0.0932
  H  H24  1  0.612400  0.455800  0.403600  1.0  0.0826
  H  H25  1  0.783500  0.701100  0.223900  1.0  0.061
  H  H26  1  0.590100  0.924800  0.695000  1.0  0.0855
  H  H27  1  0.790100  0.424800  0.195000  1.0  0.084
  H  H28  1  0.355500  0.082700  0.268500  1.0  0.0714
  H  H29  1  0.405700  0.309800  0.331600  1.0  0.0801
  H  H30  1  0.760000  0.024100  0.623900  1.0  0.0815
  H  H31  1  0.599100  0.081200  0.816800  1.0  0.0939
  H  H32  1  0.468900  0.732900  0.838100  1.0  0.0589
  H  H33  1  0.178100  0.976600  0.619400  1.0  0.0998
  H  H34  1  0.528200  0.955800  0.903600  1.0  0.0826
  H  H35  1  0.952900  0.809800  0.831600  1.0  0.0798
  H  H36  1  0.599800  0.438800  0.262000  1.0  0.0852
  H  H37  1  0.497000  0.335300  0.432900  1.0  0.0981
  H  H38  1  0.123400  0.381700  0.226100  1.0  0.1006
  H  H39  1  0.399100  0.480600  0.169000  1.0  0.0773
  H  H40  1  0.734800  0.835300  0.932900  1.0  0.0981
  H  H41  1  0.225900  0.476600  0.119400  1.0  0.1006
  H  H42  1  0.951300  0.980600  0.669000  1.0  0.0774
  H  H43  1  0.592000  0.524100  0.123900  1.0  0.0799
  H  H44  1  0.615700  0.162200  0.410600  1.0  0.0494
  H  H45  1  0.811500  0.662200  0.910600  1.0  0.0491
  H  H46  1  0.291500  0.201100  0.723900  1.0  0.061
  C  C47  1  0.522300  0.527600  0.103800  1.0  0.1043
  C  C48  1  0.558000  0.885700  0.895900  1.0  0.1374
  C  C49  1  0.374600  0.147500  0.732500  1.0  0.1583
  C  C50  1  0.255300  0.364000  0.281400  1.0  -0.0739
  C  C51  1  0.693200  0.568900  0.860900  1.0  0.3234
  C  C52  1  0.638700  0.492000  0.255000  1.0  -0.1307
  C  C53  1  0.662600  0.210500  0.400900  1.0  -0.0599
  C  C54  1  0.522400  0.753600  0.857400  1.0  0.1646
  C  C55  1  0.430200  0.157500  0.777300  1.0  -0.0626
  C  C56  1  0.099300  0.864000  0.781400  1.0  -0.0738
  C  C57  1  0.682200  0.814200  0.913400  1.0  -0.1489
  C  C58  1  0.590200  0.314200  0.413400  1.0  -0.1555
  C  C59  1  0.025900  0.977100  0.792300  1.0  0.3482
  C  C60  1  0.432700  0.567800  0.020000  1.0  0.1794
  C  C61  1  0.204700  0.477100  0.292300  1.0  0.3479
  C  C62  1  0.803000  0.178200  0.374200  1.0  -0.0977
  C  C63  1  0.233900  0.228200  0.239000  1.0  -0.1226
  C  C64  1  0.660400  0.385700  0.395900  1.0  0.1336
  C  C65  1  0.552000  0.985100  0.714500  1.0  0.1085
  C  C66  1  0.748400  0.485100  0.214500  1.0  0.1079
  C  C67  1  0.554500  0.078100  0.787900  1.0  -0.142
  C  C68  1  0.745400  0.647500  0.232500  1.0  0.1579
  C  C69  1  0.298900  0.728200  0.739000  1.0  -0.1253
  C  C70  1  0.644600  0.678200  0.874200  1.0  -0.0982
  C  C71  1  0.726000  0.710500  0.900900  1.0  -0.0602
  C  C72  1  0.042700  0.788300  0.809100  1.0  0.1554
  C  C73  1  0.635000  0.657500  0.277300  1.0  -0.0622
  C  C74  1  0.371200  0.253300  0.809500  1.0  0.4976
  C  C75  1  0.298600  0.502400  0.102400  1.0  -0.167
  C  C76  1  0.192600  0.332200  0.245400  1.0  -0.0687
  C  C77  1  0.979500  0.067800  0.520000  1.0  0.181
  C  C78  1  0.877000  0.068900  0.360900  1.0  0.3237
  C  C79  1  0.614300  0.992000  0.755000  1.0  -0.1298
  C  C80  1  0.566000  0.753300  0.309500  1.0  0.4977
  C  C81  1  0.241200  0.654300  0.770900  1.0  0.1227
  C  C82  1  0.309500  0.548200  0.043800  1.0  -0.1278
  C  C83  1  0.866600  0.253600  0.357400  1.0  0.1631
  C  C84  1  0.579500  0.578100  0.287900  1.0  -0.1442
  C  C85  1  0.229800  0.832200  0.745400  1.0  -0.0708
  C  C86  1  0.333600  0.154300  0.270900  1.0  0.1248
  C  C87  1  0.406300  0.500700  0.130700  1.0  -0.1142
  C  C88  1  0.098500  0.048200  0.543800  1.0  -0.1266
  C  C89  1  0.096600  0.002400  0.602400  1.0  -0.1665
  C  C90  1  0.962300  0.000700  0.630700  1.0  -0.1143
  C  C91  1  0.846300  0.027600  0.603800  1.0  0.1026
  C  C92  1  0.359900  0.288300  0.309100  1.0  0.155
  C  C93  1  0.239200  0.053900  0.513500  1.0  0.3835
  C  C94  1  0.193400  0.553900  0.013500  1.0  0.3826
  N  N95  1  0.831900  0.513800  0.849000  1.0  -0.3144
  N  N96  1  0.432200  0.065200  0.700400  1.0  -0.3546
  N  N97  1  0.799600  0.356100  0.367500  1.0  -0.3632
  N  N98  1  0.015500  0.015100  0.356100  1.0  -0.2899
  N  N99  1  0.209600  0.556100  0.958700  1.0  -0.2592
  N  N100  1  0.905900  0.918600  0.337000  1.0  -0.0635
  N  N101  1  0.415100  0.887100  0.346700  1.0  -0.0511
  N  N102  1  0.233100  0.300400  0.823800  1.0  -0.2935
  N  N103  1  0.805300  0.013800  0.349000  1.0  -0.3091
  N  N104  1  0.275600  0.056100  0.458700  1.0  -0.2557
  N  N105  1  0.446000  0.063400  0.496000  1.0  -0.1598
  N  N106  1  0.613300  0.515100  0.856100  1.0  -0.2905
  N  N107  1  0.351100  0.387100  0.846700  1.0  -0.052
  N  N108  1  0.535900  0.558900  0.048700  1.0  -0.3605
  N  N109  1  0.033500  0.915800  0.341400  1.0  -0.2442
  N  N110  1  0.406000  0.064900  0.446100  1.0  -0.2385
  N  N111  1  0.115300  0.683300  0.804300  1.0  -0.3892
  N  N112  1  0.994300  0.129400  0.813000  1.0  -0.0605
  N  N113  1  0.838500  0.418600  0.837000  1.0  -0.0618
  N  N114  1  0.340700  0.057400  0.536800  1.0  -0.2654
  N  N115  1  0.856500  0.058900  0.548700  1.0  -0.3529
  N  N116  1  0.094300  0.033100  0.806300  1.0  -0.2607
  N  N117  1  0.083000  0.564900  0.946100  1.0  -0.2395
  N  N118  1  0.994600  0.563400  0.996000  1.0  -0.1586
  N  N119  1  0.063300  0.629400  0.313000  1.0  -0.0611
  N  N120  1  0.802200  0.565200  0.200400  1.0  -0.3541
  N  N121  1  0.709300  0.415800  0.841400  1.0  -0.2437
  N  N122  1  0.889200  0.033600  0.790000  1.0  -0.3295
  N  N123  1  0.193500  0.628900  0.303900  1.0  -0.1541
  N  N124  1  0.287200  0.533600  0.290000  1.0  -0.3289
  N  N125  1  0.430100  0.799500  0.321700  1.0  -0.2894
  N  N126  1  0.476800  0.856100  0.867500  1.0  -0.3561
  N  N127  1  0.223100  0.386500  0.848300  1.0  -0.0768
  N  N128  1  0.642700  0.800400  0.323800  1.0  -0.2941
  N  N129  1  0.873700  0.128900  0.803900  1.0  -0.1536
  N  N130  1  0.448700  0.299500  0.821700  1.0  -0.2895
  N  N131  1  0.542100  0.886500  0.348300  1.0  -0.075
  N  N132  1  0.065100  0.557400  0.036800  1.0  -0.2669
  N  N133  1  0.066300  0.533100  0.306300  1.0  -0.2622
  N  N134  1  0.397100  0.183300  0.304300  1.0  -0.3879
