# generated using pymatgen
data_Cd2SiH36C36N2O11
_symmetry_space_group_name_H-M   'P 1'
_cell_length_a   14.09700000
_cell_length_b   14.20150000
_cell_length_c   14.26490000
_cell_angle_alpha   115.66300000
_cell_angle_beta   113.62700000
_cell_angle_gamma   97.60300000
_symmetry_Int_Tables_number   1
_chemical_formula_structural   Cd2SiH36C36N2O11
_chemical_formula_sum   'Cd4 Si2 H72 C72 N4 O22'
_cell_volume   2190.58528798
_cell_formula_units_Z   2
loop_
 _symmetry_equiv_pos_site_id
 _symmetry_equiv_pos_as_xyz
  1  'x, y, z'
loop_
 _atom_site_type_symbol
 _atom_site_label
 _atom_site_symmetry_multiplicity
 _atom_site_fract_x
 _atom_site_fract_y
 _atom_site_fract_z
 _atom_site_occupancy
 _atom_site_charge
  Cd  Cd1  1  0.994350  0.113370  0.813050  1.0  1.0488
  Cd  Cd2  1  0.005650  0.886630  0.186950  1.0  1.0487
  Cd  Cd3  1  0.000000  0.000000  0.000000  1.0  1.1107
  Cd  Cd4  1  0.500000  0.000000  0.500000  1.0  0.8659
  Si  Si5  1  0.736490  0.351640  0.315610  1.0  0.9463
  Si  Si6  1  0.263510  0.648360  0.684390  1.0  0.9472
  H  H7  1  0.441500  0.863500  0.811200  1.0  0.0996
  H  H8  1  0.365200  0.064200  0.085700  1.0  0.105
  H  H9  1  0.556600  0.437400  0.234300  1.0  0.1026
  H  H10  1  0.000500  0.766300  0.456900  1.0  0.1036
  H  H11  1  0.949500  0.416900  0.131400  1.0  0.1133
  H  H12  1  0.177000  0.243500  0.530900  1.0  0.1033
  H  H13  1  0.558500  0.136500  0.188800  1.0  0.0991
  H  H14  1  0.050500  0.583100  0.868600  1.0  0.1135
  H  H15  1  0.797500  0.091200  0.008500  1.0  0.1047
  H  H16  1  0.077300  0.321000  0.274800  1.0  0.1016
  H  H17  1  0.647300  0.253900  0.421700  1.0  0.0955
  H  H18  1  0.284300  0.807500  0.446500  1.0  0.1128
  H  H19  1  0.443400  0.562600  0.765700  1.0  0.1019
  H  H20  1  0.202500  0.908800  0.991500  1.0  0.1049
  H  H21  1  0.634800  0.935800  0.914300  1.0  0.1045
  H  H22  1  0.922700  0.679000  0.725200  1.0  0.1013
  H  H23  1  0.715700  0.192500  0.553500  1.0  0.1132
  H  H24  1  0.853300  0.489800  0.576100  1.0  0.0952
  H  H25  1  0.930600  0.294100  0.410800  1.0  0.0884
  H  H26  1  0.721400  0.147300  0.131700  1.0  0.0933
  H  H27  1  0.278600  0.852700  0.868300  1.0  0.0929
  H  H28  1  0.069400  0.705900  0.589200  1.0  0.0883
  H  H29  1  0.251200  0.433600  0.681100  1.0  0.1031
  H  H30  1  0.823000  0.756500  0.469100  1.0  0.1026
  H  H31  1  0.146700  0.510200  0.423900  1.0  0.0951
  H  H32  1  0.999500  0.233700  0.543100  1.0  0.1043
  H  H33  1  0.880000  0.473500  0.261900  1.0  0.0981
  H  H34  1  0.362600  0.360000  0.115600  1.0  0.1149
  H  H35  1  0.120000  0.526500  0.738100  1.0  0.0983
  H  H36  1  0.352700  0.746100  0.578300  1.0  0.0956
  H  H37  1  0.637400  0.640000  0.884400  1.0  0.1156
  H  H38  1  0.748800  0.566400  0.318900  1.0  0.1039
  H  H39  1  0.685200  0.721700  0.663400  1.0  0.1128
  H  H40  1  0.745900  0.865000  0.190300  1.0  0.095
  H  H41  1  0.225700  0.074800  0.538700  1.0  0.1013
  H  H42  1  0.788100  0.837100  0.355000  1.0  0.1148
  H  H43  1  0.534500  0.028700  0.739300  1.0  0.117
  H  H44  1  0.319200  0.022600  0.280300  1.0  0.1231
  H  H45  1  0.596100  0.334800  0.617300  1.0  0.1048
  H  H46  1  0.341000  0.812000  0.279000  1.0  0.3326
  H  H47  1  0.278000  0.863000  0.315000  1.0  0.4076
  H  H48  1  0.211900  0.162900  0.645000  1.0  0.116
  H  H49  1  0.380500  0.143900  0.873700  1.0  0.0904
  H  H50  1  0.456100  0.569800  0.365200  1.0  0.1102
  H  H51  1  0.607700  0.408600  0.561000  1.0  0.1216
  H  H52  1  0.392300  0.591400  0.439000  1.0  0.122
  H  H53  1  0.362600  0.388000  0.467500  1.0  0.1036
  H  H54  1  0.774300  0.925200  0.461300  1.0  0.1014
  H  H55  1  0.254100  0.135000  0.809700  1.0  0.0972
  H  H56  1  0.738200  0.900200  0.660100  1.0  0.1216
  H  H57  1  0.148900  0.030800  0.580000  1.0  0.0941
  H  H58  1  0.637400  0.612000  0.532500  1.0  0.1036
  H  H59  1  0.314800  0.278300  0.336600  1.0  0.1115
  H  H60  1  0.422500  0.382800  0.391900  1.0  0.1055
  H  H61  1  0.465600  0.026500  0.804800  1.0  0.1055
  H  H62  1  0.619500  0.856100  0.126300  1.0  0.091
  H  H63  1  0.703000  0.881500  0.746200  1.0  0.1171
  H  H64  1  0.719100  0.976300  0.212300  1.0  0.0928
  H  H65  1  0.280900  0.023700  0.787700  1.0  0.0919
  H  H66  1  0.680800  0.977400  0.719700  1.0  0.1226
  H  H67  1  0.722000  0.137000  0.685000  1.0  0.4072
  H  H68  1  0.261800  0.099800  0.339900  1.0  0.1224
  H  H69  1  0.534400  0.973500  0.195200  1.0  0.1052
  H  H70  1  0.403900  0.665200  0.382700  1.0  0.1049
  H  H71  1  0.659000  0.188000  0.721000  1.0  0.3314
  H  H72  1  0.465500  0.971300  0.260700  1.0  0.1163
  H  H73  1  0.851100  0.969200  0.420000  1.0  0.0924
  H  H74  1  0.543900  0.430200  0.634800  1.0  0.1115
  H  H75  1  0.577500  0.617200  0.608100  1.0  0.1053
  H  H76  1  0.543900  0.144100  0.842100  1.0  0.1269
  H  H77  1  0.456100  0.855900  0.157900  1.0  0.1255
  H  H78  1  0.297000  0.118500  0.253800  1.0  0.1173
  C  C79  1  0.153840  0.456680  0.446630  1.0  -0.0128
  C  C80  1  0.793190  0.506480  0.430420  1.0  -0.3061
  C  C81  1  0.420410  0.704400  0.774590  1.0  -0.3197
  C  C82  1  0.769200  0.202710  0.133500  1.0  -0.0382
  C  C83  1  0.579590  0.295600  0.225410  1.0  -0.3223
  C  C84  1  0.781610  0.844290  0.980830  1.0  0.7062
  C  C85  1  0.402310  0.315270  0.133600  1.0  -0.0938
  C  C86  1  0.218390  0.155710  0.019170  1.0  0.7064
  C  C87  1  0.785060  0.588730  0.401530  1.0  -0.0561
  C  C88  1  0.088060  0.828050  0.349500  1.0  0.6494
  C  C89  1  0.118870  0.263590  0.387770  1.0  -0.1173
  C  C90  1  0.886540  0.274200  0.440000  1.0  -0.0477
  C  C91  1  0.480780  0.816250  0.822500  1.0  -0.0638
  C  C92  1  0.072270  0.761800  0.481100  1.0  -0.0448
  C  C93  1  0.344330  0.204980  0.090980  1.0  -0.1226
  C  C94  1  0.519220  0.183750  0.177500  1.0  -0.0646
  C  C95  1  0.207020  0.683220  0.788680  1.0  -0.3054
  C  C96  1  0.861950  0.395630  0.209690  1.0  -0.0408
  C  C97  1  0.118230  0.751350  0.941040  1.0  -0.0949
  C  C98  1  0.171160  0.297750  0.509020  1.0  -0.0947
  C  C99  1  0.881770  0.248650  0.058960  1.0  -0.0934
  C  C100  1  0.111600  0.343690  0.357480  1.0  -0.0544
  C  C101  1  0.280550  0.749650  0.553600  1.0  -0.0682
  C  C102  1  0.865220  0.208660  0.562750  1.0  -0.1383
  C  C103  1  0.596190  0.860390  0.886200  1.0  -0.086
  C  C104  1  0.932860  0.212220  0.981420  1.0  0.6761
  C  C105  1  0.881130  0.736410  0.612230  1.0  -0.1158
  C  C106  1  0.218250  0.718080  0.597390  1.0  -0.2956
  C  C107  1  0.928520  0.858510  0.711840  1.0  0.6766
  C  C108  1  0.911940  0.171950  0.650500  1.0  0.6497
  C  C109  1  0.138050  0.604370  0.790310  1.0  -0.0417
  C  C110  1  0.813650  0.168920  0.059200  1.0  -0.0586
  C  C111  1  0.760060  0.213870  0.525300  1.0  -0.0722
  C  C112  1  0.214940  0.411270  0.598470  1.0  -0.0585
  C  C113  1  0.781750  0.281920  0.402610  1.0  -0.2956
  C  C114  1  0.888400  0.656310  0.642520  1.0  -0.0554
  C  C115  1  0.719450  0.250350  0.446400  1.0  -0.0672
  C  C116  1  0.071480  0.141490  0.288160  1.0  0.6781
  C  C117  1  0.095330  0.637810  0.866900  1.0  -0.0953
  C  C118  1  0.846160  0.543320  0.553370  1.0  -0.0149
  C  C119  1  0.239940  0.786130  0.474700  1.0  -0.0731
  C  C120  1  0.792980  0.316780  0.211320  1.0  -0.2966
  C  C121  1  0.186350  0.831080  0.940800  1.0  -0.0594
  C  C122  1  0.134780  0.791340  0.437250  1.0  -0.139
  C  C123  1  0.655670  0.795020  0.909020  1.0  -0.1227
  C  C124  1  0.230800  0.797290  0.866500  1.0  -0.0397
  C  C125  1  0.067140  0.787780  0.018580  1.0  0.675
  C  C126  1  0.927730  0.238200  0.518900  1.0  -0.0488
  C  C127  1  0.597690  0.684730  0.866400  1.0  -0.0951
  C  C128  1  0.518360  0.360740  0.202400  1.0  -0.0345
  C  C129  1  0.904670  0.362190  0.133100  1.0  -0.0941
  C  C130  1  0.481640  0.639260  0.797600  1.0  -0.0355
  C  C131  1  0.206810  0.493520  0.569580  1.0  -0.3101
  C  C132  1  0.403810  0.139610  0.113800  1.0  -0.0864
  C  C133  1  0.113460  0.725800  0.560000  1.0  -0.0441
  C  C134  1  0.828840  0.702250  0.490980  1.0  -0.0926
  C  C135  1  0.693400  0.901900  0.199600  1.0  -0.1458
  C  C136  1  0.617400  0.661100  0.588800  1.0  -0.1516
  C  C137  1  0.429750  0.180900  0.422600  1.0  0.5867
  C  C138  1  0.602400  0.930200  0.319900  1.0  0.5954
  C  C139  1  0.493800  0.067000  0.774800  1.0  -0.371
  C  C140  1  0.682800  0.901700  0.685200  1.0  -0.3753
  C  C141  1  0.570250  0.819100  0.577400  1.0  0.586
  C  C142  1  0.559200  0.372800  0.579300  1.0  -0.1647
  C  C143  1  0.397600  0.069800  0.680100  1.0  0.5957
  C  C144  1  0.440800  0.627200  0.420700  1.0  -0.1651
  C  C145  1  0.783000  0.911200  0.392200  1.0  -0.1392
  C  C146  1  0.217000  0.088800  0.607800  1.0  -0.1384
  C  C147  1  0.306600  0.098100  0.800400  1.0  -0.1445
  C  C148  1  0.382600  0.338900  0.411200  1.0  -0.1521
  C  C149  1  0.506200  0.933000  0.225200  1.0  -0.3709
  C  C150  1  0.317200  0.098300  0.314800  1.0  -0.3757
  N  N151  1  0.454240  0.290640  0.467200  1.0  -0.0786
  N  N152  1  0.545760  0.709360  0.532800  1.0  -0.0786
  N  N153  1  0.686900  0.914100  0.303200  1.0  -0.0943
  N  N154  1  0.313100  0.085900  0.696800  1.0  -0.0929
  O  O155  1  0.009970  0.174420  0.688860  1.0  -0.5739
  O  O156  1  0.059780  0.069260  0.315340  1.0  -0.5902
  O  O157  1  0.171290  0.092040  0.038780  1.0  -0.6799
  O  O158  1  0.981210  0.279790  0.967210  1.0  -0.6314
  O  O159  1  0.828710  0.907960  0.961220  1.0  -0.68
  O  O160  1  0.018790  0.720210  0.032790  1.0  -0.6302
  O  O161  1  0.940220  0.930740  0.684660  1.0  -0.5914
  O  O162  1  0.149150  0.861100  0.316220  1.0  -0.6676
  O  O163  1  0.826700  0.816590  0.055620  1.0  -0.6034
  O  O164  1  0.850850  0.138900  0.683780  1.0  -0.6669
  O  O165  1  0.990030  0.825580  0.311140  1.0  -0.5791
  O  O166  1  0.077890  0.891950  0.070760  1.0  -0.6732
  O  O167  1  0.922110  0.108050  0.929240  1.0  -0.6749
  O  O168  1  0.951340  0.876830  0.813580  1.0  -0.6269
  O  O169  1  0.048660  0.123170  0.186420  1.0  -0.6275
  O  O170  1  0.173300  0.183410  0.944380  1.0  -0.6056
  O  O171  1  0.396200  0.056820  0.587080  1.0  -0.6145
  O  O172  1  0.603800  0.943180  0.412920  1.0  -0.6144
  O  O173  1  0.342200  0.875740  0.322600  1.0  -0.7551
  O  O174  1  0.657800  0.124260  0.677400  1.0  -0.7568
  O  O175  1  0.500730  0.147880  0.471940  1.0  -0.6014
  O  O176  1  0.499270  0.852120  0.528060  1.0  -0.6026
