# generated using pymatgen
data_Zn11H18(C3O2)18
_symmetry_space_group_name_H-M   'P 1'
_cell_length_a   20.44210000
_cell_length_b   20.44210000
_cell_length_c   20.44210000
_cell_angle_alpha   90.00000000
_cell_angle_beta   90.00000000
_cell_angle_gamma   90.00000000
_symmetry_Int_Tables_number   1
_chemical_formula_structural   Zn11H18(C3O2)18
_chemical_formula_sum   'Zn22 H36 C108 O72'
_cell_volume   8542.33355411
_cell_formula_units_Z   2
loop_
 _symmetry_equiv_pos_site_id
 _symmetry_equiv_pos_as_xyz
  1  'x, y, z'
loop_
 _atom_site_type_symbol
 _atom_site_label
 _atom_site_symmetry_multiplicity
 _atom_site_fract_x
 _atom_site_fract_y
 _atom_site_fract_z
 _atom_site_occupancy
 _atom_site_charge
  Zn  Zn1  1  0.000000  0.000000  0.427640  1.0  1.128
  Zn  Zn2  1  0.000000  0.000000  0.572360  1.0  1.1285
  Zn  Zn3  1  0.427640  0.000000  0.000000  1.0  1.1329
  Zn  Zn4  1  0.572360  0.000000  0.000000  1.0  1.1338
  Zn  Zn5  1  0.000000  0.427640  0.000000  1.0  1.1344
  Zn  Zn6  1  0.000000  0.572360  0.000000  1.0  1.1349
  Zn  Zn7  1  0.337030  0.337030  0.337030  1.0  0.9106
  Zn  Zn8  1  0.237690  0.237690  0.237690  1.0  0.7405
  Zn  Zn9  1  0.662970  0.662970  0.337030  1.0  0.9091
  Zn  Zn10  1  0.762310  0.762310  0.237690  1.0  0.7403
  Zn  Zn11  1  0.662970  0.337030  0.662970  1.0  0.9103
  Zn  Zn12  1  0.762310  0.237690  0.762310  1.0  0.7403
  Zn  Zn13  1  0.337030  0.662970  0.662970  1.0  0.9123
  Zn  Zn14  1  0.237690  0.762310  0.762310  1.0  0.7401
  Zn  Zn15  1  0.337030  0.337030  0.662970  1.0  0.9108
  Zn  Zn16  1  0.237690  0.237690  0.762310  1.0  0.739
  Zn  Zn17  1  0.662970  0.662970  0.662970  1.0  0.9117
  Zn  Zn18  1  0.762310  0.762310  0.762310  1.0  0.7412
  Zn  Zn19  1  0.337030  0.662970  0.337030  1.0  0.9103
  Zn  Zn20  1  0.237690  0.762310  0.237690  1.0  0.7397
  Zn  Zn21  1  0.662970  0.337030  0.337030  1.0  0.9098
  Zn  Zn22  1  0.762310  0.237690  0.237690  1.0  0.7416
  H  H23  1  0.148300  0.148300  0.402200  1.0  0.1086
  H  H24  1  0.851700  0.851700  0.402200  1.0  0.1087
  H  H25  1  0.851700  0.148300  0.597800  1.0  0.1086
  H  H26  1  0.148300  0.851700  0.597800  1.0  0.1086
  H  H27  1  0.402200  0.148300  0.148300  1.0  0.1079
  H  H28  1  0.402200  0.851700  0.851700  1.0  0.1077
  H  H29  1  0.597800  0.851700  0.148300  1.0  0.1081
  H  H30  1  0.597800  0.148300  0.851700  1.0  0.1078
  H  H31  1  0.148300  0.402200  0.148300  1.0  0.1083
  H  H32  1  0.851700  0.402200  0.851700  1.0  0.1083
  H  H33  1  0.148300  0.597800  0.851700  1.0  0.108
  H  H34  1  0.851700  0.597800  0.148300  1.0  0.1083
  H  H35  1  0.148300  0.148300  0.597800  1.0  0.1085
  H  H36  1  0.851700  0.851700  0.597800  1.0  0.1088
  H  H37  1  0.148300  0.851700  0.402200  1.0  0.1086
  H  H38  1  0.851700  0.148300  0.402200  1.0  0.1087
  H  H39  1  0.148300  0.402200  0.851700  1.0  0.1082
  H  H40  1  0.851700  0.402200  0.148300  1.0  0.1082
  H  H41  1  0.851700  0.597800  0.851700  1.0  0.1081
  H  H42  1  0.148300  0.597800  0.148300  1.0  0.1084
  H  H43  1  0.402200  0.148300  0.851700  1.0  0.108
  H  H44  1  0.402200  0.851700  0.148300  1.0  0.108
  H  H45  1  0.597800  0.148300  0.148300  1.0  0.1077
  H  H46  1  0.597800  0.851700  0.851700  1.0  0.1079
  H  H47  1  0.266100  0.266100  0.500000  1.0  0.1043
  H  H48  1  0.733900  0.733900  0.500000  1.0  0.1048
  H  H49  1  0.733900  0.266100  0.500000  1.0  0.1046
  H  H50  1  0.266100  0.733900  0.500000  1.0  0.1044
  H  H51  1  0.500000  0.266100  0.266100  1.0  0.1061
  H  H52  1  0.500000  0.733900  0.733900  1.0  0.106
  H  H53  1  0.500000  0.733900  0.266100  1.0  0.1064
  H  H54  1  0.500000  0.266100  0.733900  1.0  0.1057
  H  H55  1  0.266100  0.500000  0.266100  1.0  0.1062
  H  H56  1  0.733900  0.500000  0.733900  1.0  0.106
  H  H57  1  0.266100  0.500000  0.733900  1.0  0.1058
  H  H58  1  0.733900  0.500000  0.266100  1.0  0.1063
  C  C59  1  0.211600  0.211600  0.441400  1.0  -0.1363
  C  C60  1  0.239000  0.239000  0.379800  1.0  0.7303
  C  C61  1  0.164300  0.164300  0.441600  1.0  0.0011
  C  C62  1  0.788400  0.788400  0.441400  1.0  -0.1375
  C  C63  1  0.761000  0.761000  0.379800  1.0  0.731
  C  C64  1  0.835700  0.835700  0.441600  1.0  0.0015
  C  C65  1  0.788400  0.211600  0.558600  1.0  -0.1363
  C  C66  1  0.761000  0.239000  0.620200  1.0  0.7322
  C  C67  1  0.835700  0.164300  0.558400  1.0  0.0011
  C  C68  1  0.211600  0.788400  0.558600  1.0  -0.1363
  C  C69  1  0.239000  0.761000  0.620200  1.0  0.7327
  C  C70  1  0.164300  0.835700  0.558400  1.0  0.0008
  C  C71  1  0.441400  0.211600  0.211600  1.0  -0.1371
  C  C72  1  0.379800  0.239000  0.239000  1.0  0.7272
  C  C73  1  0.441600  0.164300  0.164300  1.0  0.0021
  C  C74  1  0.441400  0.788400  0.788400  1.0  -0.1371
  C  C75  1  0.379800  0.761000  0.761000  1.0  0.7274
  C  C76  1  0.441600  0.835700  0.835700  1.0  0.0022
  C  C77  1  0.558600  0.788400  0.211600  1.0  -0.1361
  C  C78  1  0.620200  0.761000  0.239000  1.0  0.7273
  C  C79  1  0.558400  0.835700  0.164300  1.0  0.0008
  C  C80  1  0.558600  0.211600  0.788400  1.0  -0.1356
  C  C81  1  0.620200  0.239000  0.761000  1.0  0.7275
  C  C82  1  0.558400  0.164300  0.835700  1.0  0.0004
  C  C83  1  0.211600  0.441400  0.211600  1.0  -0.137
  C  C84  1  0.239000  0.379800  0.239000  1.0  0.7283
  C  C85  1  0.164300  0.441600  0.164300  1.0  0.0013
  C  C86  1  0.788400  0.441400  0.788400  1.0  -0.1374
  C  C87  1  0.761000  0.379800  0.761000  1.0  0.7289
  C  C88  1  0.835700  0.441600  0.835700  1.0  0.001
  C  C89  1  0.211600  0.558600  0.788400  1.0  -0.1368
  C  C90  1  0.239000  0.620200  0.761000  1.0  0.728
  C  C91  1  0.164300  0.558400  0.835700  1.0  0.0012
  C  C92  1  0.788400  0.558600  0.211600  1.0  -0.1374
  C  C93  1  0.761000  0.620200  0.239000  1.0  0.7279
  C  C94  1  0.835700  0.558400  0.164300  1.0  0.0017
  C  C95  1  0.211600  0.211600  0.558600  1.0  -0.136
  C  C96  1  0.239000  0.239000  0.620200  1.0  0.7325
  C  C97  1  0.164300  0.164300  0.558400  1.0  0.0004
  C  C98  1  0.788400  0.788400  0.558600  1.0  -0.1366
  C  C99  1  0.761000  0.761000  0.620200  1.0  0.7325
  C  C100  1  0.835700  0.835700  0.558400  1.0  0.0014
  C  C101  1  0.211600  0.788400  0.441400  1.0  -0.1366
  C  C102  1  0.239000  0.761000  0.379800  1.0  0.7305
  C  C103  1  0.164300  0.835700  0.441600  1.0  0.0021
  C  C104  1  0.788400  0.211600  0.441400  1.0  -0.137
  C  C105  1  0.761000  0.239000  0.379800  1.0  0.7307
  C  C106  1  0.835700  0.164300  0.441600  1.0  0.0009
  C  C107  1  0.211600  0.441400  0.788400  1.0  -0.1367
  C  C108  1  0.239000  0.379800  0.761000  1.0  0.7284
  C  C109  1  0.164300  0.441600  0.835700  1.0  0.0011
  C  C110  1  0.788400  0.441400  0.211600  1.0  -0.1376
  C  C111  1  0.761000  0.379800  0.239000  1.0  0.7288
  C  C112  1  0.835700  0.441600  0.164300  1.0  0.0011
  C  C113  1  0.788400  0.558600  0.788400  1.0  -0.1373
  C  C114  1  0.761000  0.620200  0.761000  1.0  0.7281
  C  C115  1  0.835700  0.558400  0.835700  1.0  0.001
  C  C116  1  0.211600  0.558600  0.211600  1.0  -0.137
  C  C117  1  0.239000  0.620200  0.239000  1.0  0.7278
  C  C118  1  0.164300  0.558400  0.164300  1.0  0.002
  C  C119  1  0.441400  0.211600  0.788400  1.0  -0.1369
  C  C120  1  0.379800  0.239000  0.761000  1.0  0.7272
  C  C121  1  0.441600  0.164300  0.835700  1.0  0.002
  C  C122  1  0.441400  0.788400  0.211600  1.0  -0.1373
  C  C123  1  0.379800  0.761000  0.239000  1.0  0.7273
  C  C124  1  0.441600  0.835700  0.164300  1.0  0.0024
  C  C125  1  0.558600  0.211600  0.211600  1.0  -0.1359
  C  C126  1  0.620200  0.239000  0.239000  1.0  0.7273
  C  C127  1  0.558400  0.164300  0.164300  1.0  0.0006
  C  C128  1  0.558600  0.788400  0.788400  1.0  -0.1358
  C  C129  1  0.620200  0.761000  0.761000  1.0  0.7275
  C  C130  1  0.558400  0.835700  0.835700  1.0  0.0007
  C  C131  1  0.233900  0.233900  0.500000  1.0  -0.0252
  C  C132  1  0.139900  0.139900  0.500000  1.0  -0.1903
  C  C133  1  0.087400  0.087400  0.500000  1.0  0.6961
  C  C134  1  0.766100  0.766100  0.500000  1.0  -0.0242
  C  C135  1  0.860100  0.860100  0.500000  1.0  -0.1895
  C  C136  1  0.912600  0.912600  0.500000  1.0  0.6962
  C  C137  1  0.766100  0.233900  0.500000  1.0  -0.025
  C  C138  1  0.860100  0.139900  0.500000  1.0  -0.1898
  C  C139  1  0.912600  0.087400  0.500000  1.0  0.6957
  C  C140  1  0.233900  0.766100  0.500000  1.0  -0.0238
  C  C141  1  0.139900  0.860100  0.500000  1.0  -0.1898
  C  C142  1  0.087400  0.912600  0.500000  1.0  0.6965
  C  C143  1  0.500000  0.233900  0.233900  1.0  -0.0262
  C  C144  1  0.500000  0.139900  0.139900  1.0  -0.1897
  C  C145  1  0.500000  0.087400  0.087400  1.0  0.6967
  C  C146  1  0.500000  0.766100  0.766100  1.0  -0.0257
  C  C147  1  0.500000  0.860100  0.860100  1.0  -0.189
  C  C148  1  0.500000  0.912600  0.912600  1.0  0.6978
  C  C149  1  0.500000  0.766100  0.233900  1.0  -0.0247
  C  C150  1  0.500000  0.860100  0.139900  1.0  -0.1893
  C  C151  1  0.500000  0.912600  0.087400  1.0  0.6971
  C  C152  1  0.500000  0.233900  0.766100  1.0  -0.0265
  C  C153  1  0.500000  0.139900  0.860100  1.0  -0.1891
  C  C154  1  0.500000  0.087400  0.912600  1.0  0.6973
  C  C155  1  0.233900  0.500000  0.233900  1.0  -0.0247
  C  C156  1  0.139900  0.500000  0.139900  1.0  -0.1905
  C  C157  1  0.087400  0.500000  0.087400  1.0  0.6969
  C  C158  1  0.766100  0.500000  0.766100  1.0  -0.0253
  C  C159  1  0.860100  0.500000  0.860100  1.0  -0.1896
  C  C160  1  0.912600  0.500000  0.912600  1.0  0.6972
  C  C161  1  0.233900  0.500000  0.766100  1.0  -0.0252
  C  C162  1  0.139900  0.500000  0.860100  1.0  -0.1901
  C  C163  1  0.087400  0.500000  0.912600  1.0  0.6975
  C  C164  1  0.766100  0.500000  0.233900  1.0  -0.0243
  C  C165  1  0.860100  0.500000  0.139900  1.0  -0.1898
  C  C166  1  0.912600  0.500000  0.087400  1.0  0.6966
  O  O167  1  0.281900  0.281900  0.387000  1.0  -0.6254
  O  O168  1  0.217000  0.217000  0.327900  1.0  -0.6122
  O  O169  1  0.068810  0.068810  0.444500  1.0  -0.5938
  O  O170  1  0.718100  0.718100  0.387000  1.0  -0.6229
  O  O171  1  0.783000  0.783000  0.327900  1.0  -0.612
  O  O172  1  0.931190  0.931190  0.444500  1.0  -0.5926
  O  O173  1  0.718100  0.281900  0.613000  1.0  -0.6255
  O  O174  1  0.783000  0.217000  0.672100  1.0  -0.6118
  O  O175  1  0.931190  0.068810  0.555500  1.0  -0.5917
  O  O176  1  0.281900  0.718100  0.613000  1.0  -0.6244
  O  O177  1  0.217000  0.783000  0.672100  1.0  -0.6122
  O  O178  1  0.068810  0.931190  0.555500  1.0  -0.5929
  O  O179  1  0.387000  0.281900  0.281900  1.0  -0.6252
  O  O180  1  0.327900  0.217000  0.217000  1.0  -0.6117
  O  O181  1  0.444500  0.068810  0.068810  1.0  -0.5938
  O  O182  1  0.387000  0.718100  0.718100  1.0  -0.6227
  O  O183  1  0.327900  0.783000  0.783000  1.0  -0.6127
  O  O184  1  0.444500  0.931190  0.931190  1.0  -0.5934
  O  O185  1  0.613000  0.718100  0.281900  1.0  -0.623
  O  O186  1  0.672100  0.783000  0.217000  1.0  -0.6115
  O  O187  1  0.555500  0.931190  0.068810  1.0  -0.5932
  O  O188  1  0.613000  0.281900  0.718100  1.0  -0.6253
  O  O189  1  0.672100  0.217000  0.783000  1.0  -0.6123
  O  O190  1  0.555500  0.068810  0.931190  1.0  -0.5932
  O  O191  1  0.281900  0.387000  0.281900  1.0  -0.6228
  O  O192  1  0.217000  0.327900  0.217000  1.0  -0.6116
  O  O193  1  0.068810  0.444500  0.068810  1.0  -0.5945
  O  O194  1  0.718100  0.387000  0.718100  1.0  -0.6218
  O  O195  1  0.783000  0.327900  0.783000  1.0  -0.6123
  O  O196  1  0.931190  0.444500  0.931190  1.0  -0.5931
  O  O197  1  0.281900  0.613000  0.718100  1.0  -0.6229
  O  O198  1  0.217000  0.672100  0.783000  1.0  -0.613
  O  O199  1  0.068810  0.555500  0.931190  1.0  -0.5932
  O  O200  1  0.718100  0.613000  0.281900  1.0  -0.6225
  O  O201  1  0.783000  0.672100  0.217000  1.0  -0.6119
  O  O202  1  0.931190  0.555500  0.068810  1.0  -0.5929
  O  O203  1  0.281900  0.281900  0.613000  1.0  -0.6266
  O  O204  1  0.217000  0.217000  0.672100  1.0  -0.6119
  O  O205  1  0.068810  0.068810  0.555500  1.0  -0.5929
  O  O206  1  0.718100  0.718100  0.613000  1.0  -0.6243
  O  O207  1  0.783000  0.783000  0.672100  1.0  -0.6119
  O  O208  1  0.931190  0.931190  0.555500  1.0  -0.5916
  O  O209  1  0.281900  0.718100  0.387000  1.0  -0.6232
  O  O210  1  0.217000  0.783000  0.327900  1.0  -0.6127
  O  O211  1  0.068810  0.931190  0.444500  1.0  -0.5936
  O  O212  1  0.718100  0.281900  0.387000  1.0  -0.6247
  O  O213  1  0.783000  0.217000  0.327900  1.0  -0.6116
  O  O214  1  0.931190  0.068810  0.444500  1.0  -0.5929
  O  O215  1  0.281900  0.387000  0.718100  1.0  -0.6225
  O  O216  1  0.217000  0.327900  0.783000  1.0  -0.6129
  O  O217  1  0.068810  0.444500  0.931190  1.0  -0.5941
  O  O218  1  0.718100  0.387000  0.281900  1.0  -0.6222
  O  O219  1  0.783000  0.327900  0.217000  1.0  -0.6113
  O  O220  1  0.931190  0.444500  0.068810  1.0  -0.5935
  O  O221  1  0.718100  0.613000  0.718100  1.0  -0.622
  O  O222  1  0.783000  0.672100  0.783000  1.0  -0.6128
  O  O223  1  0.931190  0.555500  0.931190  1.0  -0.5921
  O  O224  1  0.281900  0.613000  0.281900  1.0  -0.623
  O  O225  1  0.217000  0.672100  0.217000  1.0  -0.6129
  O  O226  1  0.068810  0.555500  0.068810  1.0  -0.5935
  O  O227  1  0.387000  0.281900  0.718100  1.0  -0.6245
  O  O228  1  0.327900  0.217000  0.783000  1.0  -0.6122
  O  O229  1  0.444500  0.068810  0.931190  1.0  -0.5934
  O  O230  1  0.387000  0.718100  0.281900  1.0  -0.6231
  O  O231  1  0.327900  0.783000  0.217000  1.0  -0.6115
  O  O232  1  0.444500  0.931190  0.068810  1.0  -0.5938
  O  O233  1  0.613000  0.281900  0.281900  1.0  -0.6252
  O  O234  1  0.672100  0.217000  0.217000  1.0  -0.611
  O  O235  1  0.555500  0.068810  0.068810  1.0  -0.5937
  O  O236  1  0.613000  0.718100  0.718100  1.0  -0.6234
  O  O237  1  0.672100  0.783000  0.783000  1.0  -0.612
  O  O238  1  0.555500  0.931190  0.931190  1.0  -0.5932
