# generated using pymatgen
data_CuH6C11(NO2)2
_symmetry_space_group_name_H-M   'P 1'
_cell_length_a   14.61160000
_cell_length_b   15.56230000
_cell_length_c   15.56230000
_cell_angle_alpha   112.88700000
_cell_angle_beta   95.87530000
_cell_angle_gamma   95.87530000
_symmetry_Int_Tables_number   1
_chemical_formula_structural   CuH6C11(NO2)2
_chemical_formula_sum   'Cu4 H24 C44 N8 O16'
_cell_volume   3203.73381778
_cell_formula_units_Z   4
loop_
 _symmetry_equiv_pos_site_id
 _symmetry_equiv_pos_as_xyz
  1  'x, y, z'
loop_
 _atom_site_type_symbol
 _atom_site_label
 _atom_site_symmetry_multiplicity
 _atom_site_fract_x
 _atom_site_fract_y
 _atom_site_fract_z
 _atom_site_occupancy
 _atom_site_charge
  Cu  Cu1  1  0.487110  0.922030  0.922030  1.0  0.8898
  Cu  Cu2  1  0.000000  0.000000  0.500000  1.0  0.7886
  Cu  Cu3  1  0.512890  0.077970  0.077970  1.0  0.8905
  Cu  Cu4  1  0.000000  0.500000  0.000000  1.0  0.7886
  H  H5  1  0.689100  0.004800  0.774400  1.0  0.1199
  H  H6  1  0.310900  0.995200  0.225600  1.0  0.1204
  H  H7  1  0.211400  0.515400  0.096600  1.0  0.1071
  H  H8  1  0.730700  0.012700  0.240700  1.0  0.1122
  H  H9  1  0.876000  0.804100  0.224100  1.0  0.1044
  H  H10  1  0.124000  0.195900  0.775900  1.0  0.1037
  H  H11  1  0.788600  0.484600  0.903400  1.0  0.106
  H  H12  1  0.310900  0.225600  0.995200  1.0  0.1204
  H  H13  1  0.269300  0.987300  0.759300  1.0  0.1127
  H  H14  1  0.211400  0.096600  0.515400  1.0  0.1082
  H  H15  1  0.055800  0.303300  0.891300  1.0  0.0876
  H  H16  1  0.269300  0.759300  0.987300  1.0  0.1122
  H  H17  1  0.055800  0.891300  0.303300  1.0  0.0888
  H  H18  1  0.306000  0.042400  0.393800  1.0  0.1209
  H  H19  1  0.306000  0.393800  0.042400  1.0  0.1198
  H  H20  1  0.876000  0.224100  0.804100  1.0  0.1034
  H  H21  1  0.944200  0.696700  0.108700  1.0  0.0868
  H  H22  1  0.944200  0.108700  0.696700  1.0  0.0878
  H  H23  1  0.124000  0.775900  0.195900  1.0  0.1037
  H  H24  1  0.788600  0.903400  0.484600  1.0  0.1074
  H  H25  1  0.689100  0.774400  0.004800  1.0  0.1203
  H  H26  1  0.694000  0.957600  0.606200  1.0  0.1202
  H  H27  1  0.694000  0.606200  0.957600  1.0  0.1192
  H  H28  1  0.730700  0.240700  0.012700  1.0  0.1118
  C  C29  1  0.893400  0.658400  0.064600  1.0  0.1365
  C  C30  1  0.832300  0.829400  0.197000  1.0  -0.1107
  C  C31  1  0.106600  0.341600  0.935400  1.0  0.1361
  C  C32  1  0.788100  0.105800  0.777400  1.0  0.164
  C  C33  1  0.255300  0.792800  0.047200  1.0  0.0117
  C  C34  1  0.744700  0.952800  0.207200  1.0  0.013
  C  C35  1  0.211900  0.222600  0.894200  1.0  0.1634
  C  C36  1  0.832300  0.197000  0.829400  1.0  -0.1092
  C  C37  1  0.167700  0.803000  0.170600  1.0  -0.1113
  C  C38  1  0.866300  0.978700  0.345500  1.0  0.692
  C  C39  1  0.187200  0.751300  0.081900  1.0  -0.1592
  C  C40  1  0.720000  0.810900  0.065700  1.0  -0.0964
  C  C41  1  0.623600  0.937000  0.074600  1.0  0.6917
  C  C42  1  0.866300  0.345500  0.978700  1.0  0.6921
  C  C43  1  0.133700  0.654500  0.021300  1.0  0.6933
  C  C44  1  0.807800  0.953100  0.543300  1.0  0.0148
  C  C45  1  0.192200  0.456700  0.046900  1.0  0.015
  C  C46  1  0.106600  0.935400  0.341600  1.0  0.1356
  C  C47  1  0.788100  0.777400  0.105800  1.0  0.1639
  C  C48  1  0.812800  0.918100  0.248700  1.0  -0.1619
  C  C49  1  0.187200  0.081900  0.751300  1.0  -0.162
  C  C50  1  0.167700  0.170600  0.803000  1.0  -0.111
  C  C51  1  0.893400  0.064600  0.658400  1.0  0.1365
  C  C52  1  0.376400  0.925400  0.063000  1.0  0.692
  C  C53  1  0.697500  0.898800  0.116000  1.0  -0.1466
  C  C54  1  0.192200  0.046900  0.456700  1.0  0.0134
  C  C55  1  0.744700  0.207200  0.952800  1.0  0.011
  C  C56  1  0.720000  0.065700  0.810900  1.0  -0.0944
  C  C57  1  0.756000  0.981300  0.609500  1.0  -0.1108
  C  C58  1  0.697500  0.116000  0.898800  1.0  -0.1469
  C  C59  1  0.133700  0.021300  0.654500  1.0  0.6921
  C  C60  1  0.807800  0.543300  0.953100  1.0  0.0146
  C  C61  1  0.812800  0.248700  0.918100  1.0  -0.1592
  C  C62  1  0.302500  0.101200  0.884000  1.0  -0.1459
  C  C63  1  0.376400  0.063000  0.925400  1.0  0.6917
  C  C64  1  0.302500  0.884000  0.101200  1.0  -0.1472
  C  C65  1  0.255300  0.047200  0.792800  1.0  0.012
  C  C66  1  0.280000  0.189100  0.934300  1.0  -0.0959
  C  C67  1  0.211900  0.894200  0.222600  1.0  0.1628
  C  C68  1  0.623600  0.074600  0.937000  1.0  0.6923
  C  C69  1  0.244000  0.390500  0.018700  1.0  -0.1091
  C  C70  1  0.756000  0.609500  0.981300  1.0  -0.1099
  C  C71  1  0.244000  0.018700  0.390500  1.0  -0.1118
  C  C72  1  0.280000  0.934300  0.189100  1.0  -0.0927
  N  N73  1  0.895100  0.572470  0.007330  1.0  -0.3903
  N  N74  1  0.812800  0.054420  0.686380  1.0  0.0109
  N  N75  1  0.187200  0.313620  0.945580  1.0  0.014
  N  N76  1  0.187200  0.945580  0.313620  1.0  0.0126
  N  N77  1  0.812800  0.686380  0.054420  1.0  0.014
  N  N78  1  0.104900  0.427530  0.992670  1.0  -0.3899
  N  N79  1  0.104900  0.992670  0.427530  1.0  -0.3906
  N  N80  1  0.895100  0.007330  0.572470  1.0  -0.3913
  O  O81  1  0.084600  0.618100  0.064300  1.0  -0.6065
  O  O82  1  0.859500  0.383300  0.060500  1.0  -0.45
  O  O83  1  0.915400  0.935700  0.381900  1.0  -0.6059
  O  O84  1  0.393500  0.982380  0.876420  1.0  -0.5723
  O  O85  1  0.084600  0.064300  0.618100  1.0  -0.6048
  O  O86  1  0.393500  0.876420  0.982380  1.0  -0.573
  O  O87  1  0.584600  0.886180  0.992020  1.0  -0.5708
  O  O88  1  0.415400  0.113820  0.007980  1.0  -0.5718
  O  O89  1  0.915400  0.381900  0.935700  1.0  -0.6074
  O  O90  1  0.415400  0.007980  0.113820  1.0  -0.5713
  O  O91  1  0.584600  0.992020  0.886180  1.0  -0.5701
  O  O92  1  0.606500  0.017620  0.123580  1.0  -0.5732
  O  O93  1  0.140500  0.939500  0.616700  1.0  -0.451
  O  O94  1  0.606500  0.123580  0.017620  1.0  -0.5733
  O  O95  1  0.859500  0.060500  0.383300  1.0  -0.4512
  O  O96  1  0.140500  0.616700  0.939500  1.0  -0.4484
