# generated using pymatgen
data_CuH22C24(NO)4
_symmetry_space_group_name_H-M   'P 1'
_cell_length_a   23.59270000
_cell_length_b   23.59270000
_cell_length_c   11.73560000
_cell_angle_alpha   90.00000000
_cell_angle_beta   90.00000000
_cell_angle_gamma   90.00000000
_symmetry_Int_Tables_number   1
_chemical_formula_structural   CuH22C24(NO)4
_chemical_formula_sum   'Cu8 H176 C192 N32 O32'
_cell_volume   6532.21678305
_cell_formula_units_Z   8
loop_
 _symmetry_equiv_pos_site_id
 _symmetry_equiv_pos_as_xyz
  1  'x, y, z'
loop_
 _atom_site_type_symbol
 _atom_site_label
 _atom_site_symmetry_multiplicity
 _atom_site_fract_x
 _atom_site_fract_y
 _atom_site_fract_z
 _atom_site_occupancy
 _atom_site_charge
  Cu  Cu1  1  0.500000  0.500000  0.500000  1.0  0.6795
  Cu  Cu2  1  0.000000  0.000000  0.000000  1.0  0.6795
  Cu  Cu3  1  0.000000  0.500000  0.000000  1.0  0.6795
  Cu  Cu4  1  0.500000  0.000000  0.500000  1.0  0.6795
  Cu  Cu5  1  0.250000  0.750000  0.750000  1.0  0.6795
  Cu  Cu6  1  0.250000  0.250000  0.250000  1.0  0.6795
  Cu  Cu7  1  0.750000  0.250000  0.250000  1.0  0.6795
  Cu  Cu8  1  0.750000  0.750000  0.750000  1.0  0.6795
  H  H9  1  0.192500  0.644100  0.826000  1.0  0.3011
  H  H10  1  0.396900  0.616400  0.304700  1.0  0.1078
  H  H11  1  0.340500  0.661000  0.171200  1.0  0.1091
  H  H12  1  0.313800  0.511600  0.015400  1.0  0.0992
  H  H13  1  0.159100  0.568500  0.956600  1.0  0.1275
  H  H14  1  0.202900  0.544400  0.044700  1.0  0.1209
  H  H15  1  0.206500  0.526400  0.916300  1.0  0.1142
  H  H16  1  0.370400  0.467200  0.148900  1.0  0.1031
  H  H17  1  0.365900  0.723400  0.874100  1.0  0.1392
  H  H18  1  0.387700  0.680000  0.965300  1.0  0.1374
  H  H19  1  0.352500  0.733100  0.003500  1.0  0.141
  H  H20  1  0.692500  0.144100  0.326000  1.0  0.3011
  H  H21  1  0.896900  0.116400  0.804700  1.0  0.1078
  H  H22  1  0.840500  0.161000  0.671200  1.0  0.1091
  H  H23  1  0.813800  0.011600  0.515400  1.0  0.0992
  H  H24  1  0.659100  0.068500  0.456600  1.0  0.1275
  H  H25  1  0.702900  0.044400  0.544700  1.0  0.1209
  H  H26  1  0.706500  0.026400  0.416300  1.0  0.1142
  H  H27  1  0.870400  0.967200  0.648900  1.0  0.1031
  H  H28  1  0.865900  0.223400  0.374100  1.0  0.1392
  H  H29  1  0.887700  0.180000  0.465300  1.0  0.1374
  H  H30  1  0.852500  0.233100  0.503500  1.0  0.141
  H  H31  1  0.307500  0.355900  0.326000  1.0  0.3018
  H  H32  1  0.103100  0.383600  0.804700  1.0  0.1078
  H  H33  1  0.159500  0.339000  0.671200  1.0  0.1096
  H  H34  1  0.186200  0.488400  0.515400  1.0  0.0993
  H  H35  1  0.340900  0.431500  0.456600  1.0  0.1273
  H  H36  1  0.297100  0.455600  0.544700  1.0  0.1211
  H  H37  1  0.293500  0.473600  0.416300  1.0  0.1154
  H  H38  1  0.129600  0.532800  0.648900  1.0  0.1027
  H  H39  1  0.134100  0.276600  0.374100  1.0  0.139
  H  H40  1  0.112300  0.320000  0.465300  1.0  0.1363
  H  H41  1  0.147500  0.266900  0.503500  1.0  0.1421
  H  H42  1  0.807500  0.855900  0.826000  1.0  0.3018
  H  H43  1  0.603100  0.883600  0.304700  1.0  0.1078
  H  H44  1  0.659500  0.839000  0.171200  1.0  0.1096
  H  H45  1  0.686200  0.988400  0.015400  1.0  0.0993
  H  H46  1  0.840900  0.931500  0.956600  1.0  0.1273
  H  H47  1  0.797100  0.955600  0.044700  1.0  0.1211
  H  H48  1  0.793500  0.973600  0.916300  1.0  0.1154
  H  H49  1  0.629600  0.032800  0.148900  1.0  0.1027
  H  H50  1  0.634100  0.776600  0.874100  1.0  0.139
  H  H51  1  0.612300  0.820000  0.965300  1.0  0.1363
  H  H52  1  0.647500  0.766900  0.003500  1.0  0.1421
  H  H53  1  0.105900  0.442500  0.076000  1.0  0.3004
  H  H54  1  0.133600  0.646900  0.554700  1.0  0.1073
  H  H55  1  0.089000  0.590500  0.421200  1.0  0.109
  H  H56  1  0.238400  0.563800  0.265400  1.0  0.0988
  H  H57  1  0.181500  0.409100  0.206600  1.0  0.125
  H  H58  1  0.205600  0.452900  0.294700  1.0  0.1217
  H  H59  1  0.223600  0.456500  0.166300  1.0  0.1153
  H  H60  1  0.282800  0.620400  0.398900  1.0  0.1045
  H  H61  1  0.026600  0.615900  0.124100  1.0  0.1379
  H  H62  1  0.070000  0.637700  0.215300  1.0  0.1365
  H  H63  1  0.016900  0.602500  0.253500  1.0  0.1406
  H  H64  1  0.605900  0.942500  0.576000  1.0  0.3004
  H  H65  1  0.633600  0.146900  0.054700  1.0  0.1073
  H  H66  1  0.589000  0.090500  0.921200  1.0  0.109
  H  H67  1  0.738400  0.063800  0.765400  1.0  0.0988
  H  H68  1  0.681500  0.909100  0.706600  1.0  0.125
  H  H69  1  0.705600  0.952900  0.794700  1.0  0.1217
  H  H70  1  0.723600  0.956500  0.666300  1.0  0.1153
  H  H71  1  0.782800  0.120400  0.898900  1.0  0.1045
  H  H72  1  0.526600  0.115900  0.624100  1.0  0.1379
  H  H73  1  0.570000  0.137700  0.715300  1.0  0.1365
  H  H74  1  0.516900  0.102500  0.753500  1.0  0.1406
  H  H75  1  0.394100  0.557500  0.576000  1.0  0.3021
  H  H76  1  0.366400  0.353100  0.054700  1.0  0.1073
  H  H77  1  0.411000  0.409500  0.921200  1.0  0.1096
  H  H78  1  0.261600  0.436200  0.765400  1.0  0.0983
  H  H79  1  0.318500  0.590900  0.706600  1.0  0.1253
  H  H80  1  0.294400  0.547100  0.794700  1.0  0.1207
  H  H81  1  0.276400  0.543500  0.666300  1.0  0.1154
  H  H82  1  0.217200  0.379600  0.898900  1.0  0.1043
  H  H83  1  0.473400  0.384100  0.624100  1.0  0.1383
  H  H84  1  0.430000  0.362300  0.715300  1.0  0.1368
  H  H85  1  0.483100  0.397500  0.753500  1.0  0.1402
  H  H86  1  0.894100  0.057500  0.076000  1.0  0.3021
  H  H87  1  0.866400  0.853100  0.554700  1.0  0.1073
  H  H88  1  0.911000  0.909500  0.421200  1.0  0.1096
  H  H89  1  0.761600  0.936200  0.265400  1.0  0.0983
  H  H90  1  0.818500  0.090900  0.206600  1.0  0.1253
  H  H91  1  0.794400  0.047100  0.294700  1.0  0.1207
  H  H92  1  0.776400  0.043500  0.166300  1.0  0.1154
  H  H93  1  0.717200  0.879600  0.398900  1.0  0.1043
  H  H94  1  0.973400  0.884100  0.124100  1.0  0.1383
  H  H95  1  0.930000  0.862300  0.215300  1.0  0.1368
  H  H96  1  0.983100  0.897500  0.253500  1.0  0.1402
  H  H97  1  0.807500  0.355900  0.174000  1.0  0.3013
  H  H98  1  0.603100  0.383600  0.695300  1.0  0.1068
  H  H99  1  0.659500  0.339000  0.828800  1.0  0.1095
  H  H100  1  0.686200  0.488400  0.984600  1.0  0.0993
  H  H101  1  0.840900  0.431500  0.043400  1.0  0.1275
  H  H102  1  0.797100  0.455600  0.955300  1.0  0.1213
  H  H103  1  0.793500  0.473600  0.083700  1.0  0.1148
  H  H104  1  0.629600  0.532800  0.851100  1.0  0.1026
  H  H105  1  0.634100  0.276600  0.125900  1.0  0.1393
  H  H106  1  0.612300  0.320000  0.034700  1.0  0.1369
  H  H107  1  0.647500  0.266900  0.996500  1.0  0.1403
  H  H108  1  0.307500  0.855900  0.674000  1.0  0.3013
  H  H109  1  0.103100  0.883600  0.195300  1.0  0.1068
  H  H110  1  0.159500  0.839000  0.328800  1.0  0.1095
  H  H111  1  0.186200  0.988400  0.484600  1.0  0.0993
  H  H112  1  0.340900  0.931500  0.543400  1.0  0.1275
  H  H113  1  0.297100  0.955600  0.455300  1.0  0.1213
  H  H114  1  0.293500  0.973600  0.583700  1.0  0.1148
  H  H115  1  0.129600  0.032800  0.351100  1.0  0.1026
  H  H116  1  0.134100  0.776600  0.625900  1.0  0.1393
  H  H117  1  0.112300  0.820000  0.534700  1.0  0.1369
  H  H118  1  0.147500  0.766900  0.496500  1.0  0.1403
  H  H119  1  0.692500  0.644100  0.674000  1.0  0.3003
  H  H120  1  0.896900  0.616400  0.195300  1.0  0.1076
  H  H121  1  0.840500  0.661000  0.328800  1.0  0.1095
  H  H122  1  0.813800  0.511600  0.484600  1.0  0.0994
  H  H123  1  0.659100  0.568500  0.543400  1.0  0.1275
  H  H124  1  0.702900  0.544400  0.455300  1.0  0.1222
  H  H125  1  0.706500  0.526400  0.583700  1.0  0.1145
  H  H126  1  0.870400  0.467200  0.351100  1.0  0.1028
  H  H127  1  0.865900  0.723400  0.625900  1.0  0.1374
  H  H128  1  0.887700  0.680000  0.534700  1.0  0.1375
  H  H129  1  0.852500  0.733100  0.496500  1.0  0.1409
  H  H130  1  0.192500  0.144100  0.174000  1.0  0.3003
  H  H131  1  0.396900  0.116400  0.695300  1.0  0.1076
  H  H132  1  0.340500  0.161000  0.828800  1.0  0.1095
  H  H133  1  0.313800  0.011600  0.984600  1.0  0.0994
  H  H134  1  0.159100  0.068500  0.043400  1.0  0.1275
  H  H135  1  0.202900  0.044400  0.955300  1.0  0.1222
  H  H136  1  0.206500  0.026400  0.083700  1.0  0.1145
  H  H137  1  0.370400  0.967200  0.851100  1.0  0.1028
  H  H138  1  0.365900  0.223400  0.125900  1.0  0.1374
  H  H139  1  0.387700  0.180000  0.034700  1.0  0.1375
  H  H140  1  0.352500  0.233100  0.996500  1.0  0.1409
  H  H141  1  0.894100  0.557500  0.924000  1.0  0.3004
  H  H142  1  0.866400  0.353100  0.445300  1.0  0.1069
  H  H143  1  0.911000  0.409500  0.578800  1.0  0.11
  H  H144  1  0.761600  0.436200  0.734600  1.0  0.0986
  H  H145  1  0.818500  0.590900  0.793400  1.0  0.1251
  H  H146  1  0.794400  0.547100  0.705300  1.0  0.1217
  H  H147  1  0.776400  0.543500  0.833700  1.0  0.1144
  H  H148  1  0.717200  0.379600  0.601100  1.0  0.1043
  H  H149  1  0.973400  0.384100  0.875900  1.0  0.138
  H  H150  1  0.930000  0.362300  0.784700  1.0  0.137
  H  H151  1  0.983100  0.397500  0.746500  1.0  0.1388
  H  H152  1  0.394100  0.057500  0.424000  1.0  0.3004
  H  H153  1  0.366400  0.853100  0.945300  1.0  0.1069
  H  H154  1  0.411000  0.909500  0.078800  1.0  0.11
  H  H155  1  0.261600  0.936200  0.234600  1.0  0.0986
  H  H156  1  0.318500  0.090900  0.293400  1.0  0.1251
  H  H157  1  0.294400  0.047100  0.205300  1.0  0.1217
  H  H158  1  0.276400  0.043500  0.333700  1.0  0.1144
  H  H159  1  0.217200  0.879600  0.101100  1.0  0.1043
  H  H160  1  0.473400  0.884100  0.375900  1.0  0.138
  H  H161  1  0.430000  0.862300  0.284700  1.0  0.137
  H  H162  1  0.483100  0.897500  0.246500  1.0  0.1388
  H  H163  1  0.605900  0.442500  0.424000  1.0  0.3001
  H  H164  1  0.633600  0.646900  0.945300  1.0  0.1066
  H  H165  1  0.589000  0.590500  0.078800  1.0  0.1095
  H  H166  1  0.738400  0.563800  0.234600  1.0  0.0988
  H  H167  1  0.681500  0.409100  0.293400  1.0  0.1255
  H  H168  1  0.705600  0.452900  0.205300  1.0  0.1218
  H  H169  1  0.723600  0.456500  0.333700  1.0  0.1155
  H  H170  1  0.782800  0.620400  0.101100  1.0  0.1044
  H  H171  1  0.526600  0.615900  0.375900  1.0  0.1377
  H  H172  1  0.570000  0.637700  0.284700  1.0  0.1366
  H  H173  1  0.516900  0.602500  0.246500  1.0  0.139
  H  H174  1  0.105900  0.942500  0.924000  1.0  0.3001
  H  H175  1  0.133600  0.146900  0.445300  1.0  0.1066
  H  H176  1  0.089000  0.090500  0.578800  1.0  0.1095
  H  H177  1  0.238400  0.063800  0.734600  1.0  0.0988
  H  H178  1  0.181500  0.909100  0.793400  1.0  0.1255
  H  H179  1  0.205600  0.952900  0.705300  1.0  0.1218
  H  H180  1  0.223600  0.956500  0.833700  1.0  0.1155
  H  H181  1  0.282800  0.120400  0.601100  1.0  0.1044
  H  H182  1  0.026600  0.115900  0.875900  1.0  0.1377
  H  H183  1  0.070000  0.137700  0.784700  1.0  0.1366
  H  H184  1  0.016900  0.102500  0.746500  1.0  0.139
  C  C185  1  0.380550  0.595470  0.246200  1.0  -0.031
  C  C186  1  0.288260  0.621300  0.989600  1.0  -0.1818
  C  C187  1  0.390240  0.537250  0.239400  1.0  -0.1298
  C  C188  1  0.346720  0.622180  0.165900  1.0  -0.1225
  C  C189  1  0.321900  0.591470  0.077300  1.0  0.0118
  C  C190  1  0.303650  0.671700  0.932500  1.0  0.233
  C  C191  1  0.236190  0.605760  0.944200  1.0  0.1615
  C  C192  1  0.330810  0.532860  0.072700  1.0  -0.0899
  C  C193  1  0.429440  0.509330  0.323800  1.0  0.6616
  C  C194  1  0.197750  0.556920  0.967500  1.0  -0.3856
  C  C195  1  0.364690  0.506190  0.153000  1.0  -0.0211
  C  C196  1  0.357230  0.705040  0.944900  1.0  -0.4008
  C  C197  1  0.880550  0.095470  0.746200  1.0  -0.031
  C  C198  1  0.788260  0.121300  0.489600  1.0  -0.1818
  C  C199  1  0.890240  0.037250  0.739400  1.0  -0.1298
  C  C200  1  0.846720  0.122180  0.665900  1.0  -0.1225
  C  C201  1  0.821900  0.091470  0.577300  1.0  0.0118
  C  C202  1  0.803650  0.171700  0.432500  1.0  0.233
  C  C203  1  0.736190  0.105760  0.444200  1.0  0.1615
  C  C204  1  0.830810  0.032860  0.572700  1.0  -0.0899
  C  C205  1  0.929440  0.009330  0.823800  1.0  0.6616
  C  C206  1  0.697750  0.056920  0.467500  1.0  -0.3856
  C  C207  1  0.864690  0.006190  0.653000  1.0  -0.0211
  C  C208  1  0.857230  0.205040  0.444900  1.0  -0.4008
  C  C209  1  0.119450  0.404530  0.746200  1.0  -0.0308
  C  C210  1  0.211740  0.378700  0.489600  1.0  -0.1816
  C  C211  1  0.109760  0.462750  0.739400  1.0  -0.1303
  C  C212  1  0.153280  0.377820  0.665900  1.0  -0.1235
  C  C213  1  0.178100  0.408530  0.577300  1.0  0.011
  C  C214  1  0.196350  0.328300  0.432500  1.0  0.2331
  C  C215  1  0.263810  0.394240  0.444200  1.0  0.1622
  C  C216  1  0.169190  0.467140  0.572700  1.0  -0.092
  C  C217  1  0.070560  0.490670  0.823800  1.0  0.6621
  C  C218  1  0.302250  0.443080  0.467500  1.0  -0.3873
  C  C219  1  0.135310  0.493810  0.653000  1.0  -0.0232
  C  C220  1  0.142770  0.294960  0.444900  1.0  -0.4011
  C  C221  1  0.619450  0.904530  0.246200  1.0  -0.0308
  C  C222  1  0.711740  0.878700  0.989600  1.0  -0.1816
  C  C223  1  0.609760  0.962750  0.239400  1.0  -0.1303
  C  C224  1  0.653280  0.877820  0.165900  1.0  -0.1235
  C  C225  1  0.678100  0.908530  0.077300  1.0  0.011
  C  C226  1  0.696350  0.828300  0.932500  1.0  0.2331
  C  C227  1  0.763810  0.894240  0.944200  1.0  0.1622
  C  C228  1  0.669190  0.967140  0.072700  1.0  -0.092
  C  C229  1  0.570560  0.990670  0.323800  1.0  0.6621
  C  C230  1  0.802250  0.943080  0.967500  1.0  -0.3873
  C  C231  1  0.635310  0.993810  0.153000  1.0  -0.0232
  C  C232  1  0.642770  0.794960  0.944900  1.0  -0.4011
  C  C233  1  0.154530  0.630550  0.496200  1.0  -0.0255
  C  C234  1  0.128700  0.538260  0.239600  1.0  -0.1817
  C  C235  1  0.212750  0.640240  0.489400  1.0  -0.1293
  C  C236  1  0.127820  0.596720  0.415900  1.0  -0.1234
  C  C237  1  0.158530  0.571900  0.327300  1.0  0.0119
  C  C238  1  0.078300  0.553650  0.182500  1.0  0.2334
  C  C239  1  0.144240  0.486190  0.194200  1.0  0.1605
  C  C240  1  0.217140  0.580810  0.322700  1.0  -0.0946
  C  C241  1  0.240670  0.679440  0.573800  1.0  0.6615
  C  C242  1  0.193080  0.447750  0.217500  1.0  -0.387
  C  C243  1  0.243810  0.614690  0.403000  1.0  -0.0241
  C  C244  1  0.044960  0.607230  0.194900  1.0  -0.3979
  C  C245  1  0.654530  0.130550  0.996200  1.0  -0.0255
  C  C246  1  0.628700  0.038260  0.739600  1.0  -0.1817
  C  C247  1  0.712750  0.140240  0.989400  1.0  -0.1293
  C  C248  1  0.627820  0.096720  0.915900  1.0  -0.1234
  C  C249  1  0.658530  0.071900  0.827300  1.0  0.0119
  C  C250  1  0.578300  0.053650  0.682500  1.0  0.2334
  C  C251  1  0.644240  0.986190  0.694200  1.0  0.1605
  C  C252  1  0.717140  0.080810  0.822700  1.0  -0.0946
  C  C253  1  0.740670  0.179440  0.073800  1.0  0.6615
  C  C254  1  0.693080  0.947750  0.717500  1.0  -0.387
  C  C255  1  0.743810  0.114690  0.903000  1.0  -0.0241
  C  C256  1  0.544960  0.107230  0.694900  1.0  -0.3979
  C  C257  1  0.345470  0.369450  0.996200  1.0  -0.025
  C  C258  1  0.371300  0.461740  0.739600  1.0  -0.1821
  C  C259  1  0.287250  0.359760  0.989400  1.0  -0.1292
  C  C260  1  0.372180  0.403280  0.915900  1.0  -0.123
  C  C261  1  0.341470  0.428100  0.827300  1.0  0.0113
  C  C262  1  0.421700  0.446350  0.682500  1.0  0.2343
  C  C263  1  0.355760  0.513810  0.694200  1.0  0.1609
  C  C264  1  0.282860  0.419190  0.822700  1.0  -0.0949
  C  C265  1  0.259330  0.320560  0.073800  1.0  0.6614
  C  C266  1  0.306920  0.552250  0.717500  1.0  -0.3848
  C  C267  1  0.256190  0.385310  0.903000  1.0  -0.0236
  C  C268  1  0.455040  0.392770  0.694900  1.0  -0.3993
  C  C269  1  0.845470  0.869450  0.496200  1.0  -0.025
  C  C270  1  0.871300  0.961740  0.239600  1.0  -0.1821
  C  C271  1  0.787250  0.859760  0.489400  1.0  -0.1292
  C  C272  1  0.872180  0.903280  0.415900  1.0  -0.123
  C  C273  1  0.841470  0.928100  0.327300  1.0  0.0113
  C  C274  1  0.921700  0.946350  0.182500  1.0  0.2343
  C  C275  1  0.855760  0.013810  0.194200  1.0  0.1609
  C  C276  1  0.782860  0.919190  0.322700  1.0  -0.0949
  C  C277  1  0.759330  0.820560  0.573800  1.0  0.6614
  C  C278  1  0.806920  0.052250  0.217500  1.0  -0.3848
  C  C279  1  0.756190  0.885310  0.403000  1.0  -0.0236
  C  C280  1  0.955040  0.892770  0.194900  1.0  -0.3993
  C  C281  1  0.619450  0.404530  0.753800  1.0  -0.031
  C  C282  1  0.711740  0.378700  0.010400  1.0  -0.1812
  C  C283  1  0.609760  0.462750  0.760600  1.0  -0.1308
  C  C284  1  0.653280  0.377820  0.834100  1.0  -0.1232
  C  C285  1  0.678100  0.408530  0.922700  1.0  0.0109
  C  C286  1  0.696350  0.328300  0.067500  1.0  0.2329
  C  C287  1  0.763810  0.394240  0.055800  1.0  0.1615
  C  C288  1  0.669190  0.467140  0.927300  1.0  -0.0924
  C  C289  1  0.570560  0.490670  0.676200  1.0  0.6623
  C  C290  1  0.802250  0.443080  0.032500  1.0  -0.3874
  C  C291  1  0.635310  0.493810  0.847000  1.0  -0.0227
  C  C292  1  0.642770  0.294960  0.055100  1.0  -0.4012
  C  C293  1  0.119450  0.904530  0.253800  1.0  -0.031
  C  C294  1  0.211740  0.878700  0.510400  1.0  -0.1812
  C  C295  1  0.109760  0.962750  0.260600  1.0  -0.1308
  C  C296  1  0.153280  0.877820  0.334100  1.0  -0.1232
  C  C297  1  0.178100  0.908530  0.422700  1.0  0.0109
  C  C298  1  0.196350  0.828300  0.567500  1.0  0.2329
  C  C299  1  0.263810  0.894240  0.555800  1.0  0.1615
  C  C300  1  0.169190  0.967140  0.427300  1.0  -0.0924
  C  C301  1  0.070560  0.990670  0.176200  1.0  0.6623
  C  C302  1  0.302250  0.943080  0.532500  1.0  -0.3874
  C  C303  1  0.135310  0.993810  0.347000  1.0  -0.0227
  C  C304  1  0.142770  0.794960  0.555100  1.0  -0.4012
  C  C305  1  0.880550  0.595470  0.253800  1.0  -0.0308
  C  C306  1  0.788260  0.621300  0.510400  1.0  -0.1812
  C  C307  1  0.890240  0.537250  0.260600  1.0  -0.1291
  C  C308  1  0.846720  0.622180  0.334100  1.0  -0.1216
  C  C309  1  0.821900  0.591470  0.422700  1.0  0.0107
  C  C310  1  0.803650  0.671700  0.567500  1.0  0.2332
  C  C311  1  0.736190  0.605760  0.555800  1.0  0.1616
  C  C312  1  0.830810  0.532860  0.427300  1.0  -0.0906
  C  C313  1  0.929440  0.509330  0.176200  1.0  0.6611
  C  C314  1  0.697750  0.556920  0.532500  1.0  -0.3856
  C  C315  1  0.864690  0.506190  0.347000  1.0  -0.0206
  C  C316  1  0.857230  0.705040  0.555100  1.0  -0.4008
  C  C317  1  0.380550  0.095470  0.753800  1.0  -0.0308
  C  C318  1  0.288260  0.121300  0.010400  1.0  -0.1812
  C  C319  1  0.390240  0.037250  0.760600  1.0  -0.1291
  C  C320  1  0.346720  0.122180  0.834100  1.0  -0.1216
  C  C321  1  0.321900  0.091470  0.922700  1.0  0.0107
  C  C322  1  0.303650  0.171700  0.067500  1.0  0.2332
  C  C323  1  0.236190  0.105760  0.055800  1.0  0.1616
  C  C324  1  0.330810  0.032860  0.927300  1.0  -0.0906
  C  C325  1  0.429440  0.009330  0.676200  1.0  0.6611
  C  C326  1  0.197750  0.056920  0.032500  1.0  -0.3856
  C  C327  1  0.364690  0.006190  0.847000  1.0  -0.0206
  C  C328  1  0.357230  0.205040  0.055100  1.0  -0.4008
  C  C329  1  0.845470  0.369450  0.503800  1.0  -0.0249
  C  C330  1  0.871300  0.461740  0.760400  1.0  -0.1821
  C  C331  1  0.787250  0.359760  0.510600  1.0  -0.1287
  C  C332  1  0.872180  0.403280  0.584100  1.0  -0.1221
  C  C333  1  0.841470  0.428100  0.672700  1.0  0.0104
  C  C334  1  0.921700  0.446350  0.817500  1.0  0.2343
  C  C335  1  0.855760  0.513810  0.805800  1.0  0.1617
  C  C336  1  0.782860  0.419190  0.677300  1.0  -0.095
  C  C337  1  0.759330  0.320560  0.426200  1.0  0.6616
  C  C338  1  0.806920  0.552250  0.782500  1.0  -0.3848
  C  C339  1  0.756190  0.385310  0.597000  1.0  -0.0228
  C  C340  1  0.955040  0.392770  0.805100  1.0  -0.3996
  C  C341  1  0.345470  0.869450  0.003800  1.0  -0.0249
  C  C342  1  0.371300  0.961740  0.260400  1.0  -0.1821
  C  C343  1  0.287250  0.859760  0.010600  1.0  -0.1287
  C  C344  1  0.372180  0.903280  0.084100  1.0  -0.1221
  C  C345  1  0.341470  0.928100  0.172700  1.0  0.0104
  C  C346  1  0.421700  0.946350  0.317500  1.0  0.2343
  C  C347  1  0.355760  0.013810  0.305800  1.0  0.1617
  C  C348  1  0.282860  0.919190  0.177300  1.0  -0.095
  C  C349  1  0.259330  0.820560  0.926200  1.0  0.6616
  C  C350  1  0.306920  0.052250  0.282500  1.0  -0.3848
  C  C351  1  0.256190  0.885310  0.097000  1.0  -0.0228
  C  C352  1  0.455040  0.892770  0.305100  1.0  -0.3996
  C  C353  1  0.654530  0.630550  0.003800  1.0  -0.0253
  C  C354  1  0.628700  0.538260  0.260400  1.0  -0.1811
  C  C355  1  0.712750  0.640240  0.010600  1.0  -0.129
  C  C356  1  0.627820  0.596720  0.084100  1.0  -0.1233
  C  C357  1  0.658530  0.571900  0.172700  1.0  0.0116
  C  C358  1  0.578300  0.553650  0.317500  1.0  0.2336
  C  C359  1  0.644240  0.486190  0.305800  1.0  0.1598
  C  C360  1  0.717140  0.580810  0.177300  1.0  -0.0952
  C  C361  1  0.740670  0.679440  0.926200  1.0  0.661
  C  C362  1  0.693080  0.447750  0.282500  1.0  -0.3871
  C  C363  1  0.743810  0.614690  0.097000  1.0  -0.0241
  C  C364  1  0.544960  0.607230  0.305100  1.0  -0.3977
  C  C365  1  0.154530  0.130550  0.503800  1.0  -0.0253
  C  C366  1  0.128700  0.038260  0.760400  1.0  -0.1811
  C  C367  1  0.212750  0.140240  0.510600  1.0  -0.129
  C  C368  1  0.127820  0.096720  0.584100  1.0  -0.1233
  C  C369  1  0.158530  0.071900  0.672700  1.0  0.0116
  C  C370  1  0.078300  0.053650  0.817500  1.0  0.2336
  C  C371  1  0.144240  0.986190  0.805800  1.0  0.1598
  C  C372  1  0.217140  0.080810  0.677300  1.0  -0.0952
  C  C373  1  0.240670  0.179440  0.426200  1.0  0.661
  C  C374  1  0.193080  0.947750  0.782500  1.0  -0.3871
  C  C375  1  0.243810  0.114690  0.597000  1.0  -0.0241
  C  C376  1  0.044960  0.107230  0.805100  1.0  -0.3977
  N  N377  1  0.223010  0.644780  0.866100  1.0  -0.0985
  N  N378  1  0.263530  0.685700  0.857350  1.0  -0.2509
  N  N379  1  0.723010  0.144780  0.366100  1.0  -0.0985
  N  N380  1  0.763530  0.185700  0.357350  1.0  -0.2509
  N  N381  1  0.276990  0.355220  0.366100  1.0  -0.1001
  N  N382  1  0.236470  0.314300  0.357350  1.0  -0.2502
  N  N383  1  0.776990  0.855220  0.866100  1.0  -0.1001
  N  N384  1  0.736470  0.814300  0.857350  1.0  -0.2502
  N  N385  1  0.105220  0.473010  0.116100  1.0  -0.0995
  N  N386  1  0.064300  0.513530  0.107350  1.0  -0.2513
  N  N387  1  0.605220  0.973010  0.616100  1.0  -0.0995
  N  N388  1  0.564300  0.013530  0.607350  1.0  -0.2513
  N  N389  1  0.394780  0.526990  0.616100  1.0  -0.0988
  N  N390  1  0.435700  0.486470  0.607350  1.0  -0.2517
  N  N391  1  0.894780  0.026990  0.116100  1.0  -0.0988
  N  N392  1  0.935700  0.986470  0.107350  1.0  -0.2517
  N  N393  1  0.776990  0.355220  0.133900  1.0  -0.0992
  N  N394  1  0.736470  0.314300  0.142650  1.0  -0.2497
  N  N395  1  0.276990  0.855220  0.633900  1.0  -0.0992
  N  N396  1  0.236470  0.814300  0.642650  1.0  -0.2497
  N  N397  1  0.723010  0.644780  0.633900  1.0  -0.0982
  N  N398  1  0.763530  0.685700  0.642650  1.0  -0.2502
  N  N399  1  0.223010  0.144780  0.133900  1.0  -0.0982
  N  N400  1  0.263530  0.185700  0.142650  1.0  -0.2502
  N  N401  1  0.894780  0.526990  0.883900  1.0  -0.0986
  N  N402  1  0.935700  0.486470  0.892650  1.0  -0.252
  N  N403  1  0.394780  0.026990  0.383900  1.0  -0.0986
  N  N404  1  0.435700  0.986470  0.392650  1.0  -0.252
  N  N405  1  0.605220  0.473010  0.383900  1.0  -0.0993
  N  N406  1  0.564300  0.513530  0.392650  1.0  -0.2512
  N  N407  1  0.105220  0.973010  0.883900  1.0  -0.0993
  N  N408  1  0.064300  0.013530  0.892650  1.0  -0.2512
  O  O409  1  0.447800  0.540790  0.403230  1.0  -0.6055
  O  O410  1  0.443090  0.458460  0.312800  1.0  -0.5863
  O  O411  1  0.947800  0.040790  0.903230  1.0  -0.6055
  O  O412  1  0.943090  0.958460  0.812800  1.0  -0.5863
  O  O413  1  0.052200  0.459210  0.903230  1.0  -0.6043
  O  O414  1  0.056910  0.541540  0.812800  1.0  -0.5892
  O  O415  1  0.552200  0.959210  0.403230  1.0  -0.6043
  O  O416  1  0.556910  0.041540  0.312800  1.0  -0.5892
  O  O417  1  0.209210  0.697800  0.653230  1.0  -0.6043
  O  O418  1  0.291540  0.693090  0.562800  1.0  -0.5859
  O  O419  1  0.709210  0.197800  0.153230  1.0  -0.6043
  O  O420  1  0.791540  0.193090  0.062800  1.0  -0.5859
  O  O421  1  0.290790  0.302200  0.153230  1.0  -0.6049
  O  O422  1  0.208460  0.306910  0.062800  1.0  -0.5864
  O  O423  1  0.790790  0.802200  0.653230  1.0  -0.6049
  O  O424  1  0.708460  0.806910  0.562800  1.0  -0.5864
  O  O425  1  0.552200  0.459210  0.596770  1.0  -0.6047
  O  O426  1  0.556910  0.541540  0.687200  1.0  -0.5897
  O  O427  1  0.052200  0.959210  0.096770  1.0  -0.6047
  O  O428  1  0.056910  0.041540  0.187200  1.0  -0.5897
  O  O429  1  0.947800  0.540790  0.096770  1.0  -0.6057
  O  O430  1  0.943090  0.458460  0.187200  1.0  -0.5861
  O  O431  1  0.447800  0.040790  0.596770  1.0  -0.6057
  O  O432  1  0.443090  0.958460  0.687200  1.0  -0.5861
  O  O433  1  0.790790  0.302200  0.346770  1.0  -0.6057
  O  O434  1  0.708460  0.306910  0.437200  1.0  -0.586
  O  O435  1  0.290790  0.802200  0.846770  1.0  -0.6057
  O  O436  1  0.208460  0.806910  0.937200  1.0  -0.586
  O  O437  1  0.709210  0.697800  0.846770  1.0  -0.6046
  O  O438  1  0.791540  0.693090  0.937200  1.0  -0.5867
  O  O439  1  0.209210  0.197800  0.346770  1.0  -0.6046
  O  O440  1  0.291540  0.193090  0.437200  1.0  -0.5867
