# generated using pymatgen
data_Zn2H9C23O10
_symmetry_space_group_name_H-M   'P 1'
_cell_length_a   14.12300000
_cell_length_b   33.38000000
_cell_length_c   16.83300000
_cell_angle_alpha   90.00000000
_cell_angle_beta   111.94300000
_cell_angle_gamma   90.00000000
_symmetry_Int_Tables_number   1
_chemical_formula_structural   Zn2H9C23O10
_chemical_formula_sum   'Zn16 H72 C184 O80'
_cell_volume   7360.62997565
_cell_formula_units_Z   8
loop_
 _symmetry_equiv_pos_site_id
 _symmetry_equiv_pos_as_xyz
  1  'x, y, z'
loop_
 _atom_site_type_symbol
 _atom_site_label
 _atom_site_symmetry_multiplicity
 _atom_site_fract_x
 _atom_site_fract_y
 _atom_site_fract_z
 _atom_site_occupancy
 _atom_site_charge
  Zn  Zn1  1  0.690520  0.941990  0.677950  1.0  1.1264
  Zn  Zn2  1  0.905140  0.912620  0.649250  1.0  1.084
  Zn  Zn3  1  0.832360  0.635060  0.597890  1.0  1.0553
  Zn  Zn4  1  0.004220  0.711820  0.585050  1.0  1.092
  Zn  Zn5  1  0.809480  0.441990  0.822050  1.0  1.1242
  Zn  Zn6  1  0.594860  0.412620  0.850750  1.0  1.085
  Zn  Zn7  1  0.667640  0.135060  0.902110  1.0  1.0552
  Zn  Zn8  1  0.495780  0.211820  0.914950  1.0  1.092
  Zn  Zn9  1  0.309480  0.058010  0.322050  1.0  1.124
  Zn  Zn10  1  0.094860  0.087380  0.350750  1.0  1.0848
  Zn  Zn11  1  0.167640  0.364940  0.402110  1.0  1.0546
  Zn  Zn12  1  0.995780  0.288180  0.414950  1.0  1.0923
  Zn  Zn13  1  0.190520  0.558010  0.177950  1.0  1.1263
  Zn  Zn14  1  0.405140  0.587380  0.149250  1.0  1.0842
  Zn  Zn15  1  0.332360  0.864940  0.097890  1.0  1.0544
  Zn  Zn16  1  0.504220  0.788180  0.085050  1.0  1.0925
  H  H17  1  0.317900  0.688900  0.558500  1.0  0.1038
  H  H18  1  0.482700  0.704800  0.574200  1.0  0.1265
  H  H19  1  0.476700  0.795600  0.727000  1.0  0.1117
  H  H20  1  0.170000  0.806900  0.615900  1.0  0.1196
  H  H21  1  0.396800  0.788000  0.840700  1.0  0.1083
  H  H22  1  0.171700  0.863800  0.825200  1.0  0.1219
  H  H23  1  0.578500  0.823800  0.669600  1.0  0.1173
  H  H24  1  0.857800  0.798200  0.674200  1.0  0.1183
  H  H25  1  0.655700  0.710700  0.650100  1.0  0.0956
  H  H26  1  0.194200  0.961100  0.186900  1.0  0.1104
  H  H27  1  0.965100  0.882400  0.109200  1.0  0.1068
  H  H28  1  0.934000  0.984900  0.219700  1.0  0.1182
  H  H29  1  0.786400  0.888900  0.041600  1.0  0.1189
  H  H30  1  0.629100  0.868700  0.035900  1.0  0.1085
  H  H31  1  0.827100  0.949400  0.257400  1.0  0.1111
  H  H32  1  0.767900  0.918900  0.374200  1.0  0.1186
  H  H33  1  0.577500  0.988600  0.438700  1.0  0.1143
  H  H34  1  0.530300  0.970400  0.193100  1.0  0.1129
  H  H35  1  0.182100  0.188900  0.941500  1.0  0.1043
  H  H36  1  0.017300  0.204800  0.925800  1.0  0.1267
  H  H37  1  0.023300  0.295600  0.773000  1.0  0.1122
  H  H38  1  0.330000  0.306900  0.884100  1.0  0.119
  H  H39  1  0.103200  0.288000  0.659300  1.0  0.1074
  H  H40  1  0.328300  0.363800  0.674800  1.0  0.1218
  H  H41  1  0.921500  0.323800  0.830400  1.0  0.1175
  H  H42  1  0.642200  0.298200  0.825800  1.0  0.1182
  H  H43  1  0.844300  0.210700  0.849900  1.0  0.0958
  H  H44  1  0.305800  0.461100  0.313100  1.0  0.1095
  H  H45  1  0.534900  0.382400  0.390800  1.0  0.1069
  H  H46  1  0.566000  0.484900  0.280300  1.0  0.118
  H  H47  1  0.713600  0.388900  0.458400  1.0  0.1179
  H  H48  1  0.870900  0.368700  0.464100  1.0  0.1084
  H  H49  1  0.672900  0.449400  0.242600  1.0  0.1109
  H  H50  1  0.732100  0.418900  0.125800  1.0  0.1187
  H  H51  1  0.922500  0.488600  0.061300  1.0  0.1143
  H  H52  1  0.969700  0.470400  0.306900  1.0  0.1123
  H  H53  1  0.682100  0.311100  0.441500  1.0  0.104
  H  H54  1  0.517300  0.295200  0.425800  1.0  0.1267
  H  H55  1  0.523300  0.204400  0.273000  1.0  0.1113
  H  H56  1  0.830000  0.193100  0.384100  1.0  0.1191
  H  H57  1  0.603200  0.212000  0.159300  1.0  0.1078
  H  H58  1  0.828300  0.136200  0.174800  1.0  0.1218
  H  H59  1  0.421500  0.176200  0.330400  1.0  0.117
  H  H60  1  0.142200  0.201800  0.325800  1.0  0.1181
  H  H61  1  0.344300  0.289300  0.349900  1.0  0.0958
  H  H62  1  0.805800  0.038900  0.813100  1.0  0.1096
  H  H63  1  0.034900  0.117600  0.890800  1.0  0.1067
  H  H64  1  0.066000  0.015100  0.780300  1.0  0.1173
  H  H65  1  0.213600  0.111100  0.958400  1.0  0.1179
  H  H66  1  0.370900  0.131300  0.964100  1.0  0.108
  H  H67  1  0.172900  0.050600  0.742600  1.0  0.1109
  H  H68  1  0.232100  0.081100  0.625800  1.0  0.119
  H  H69  1  0.422500  0.011400  0.561300  1.0  0.1145
  H  H70  1  0.469700  0.029600  0.806900  1.0  0.1122
  H  H71  1  0.817900  0.811100  0.058500  1.0  0.1037
  H  H72  1  0.982700  0.795200  0.074200  1.0  0.1264
  H  H73  1  0.976700  0.704400  0.227000  1.0  0.1112
  H  H74  1  0.670000  0.693100  0.115900  1.0  0.1194
  H  H75  1  0.896800  0.712000  0.340700  1.0  0.1082
  H  H76  1  0.671700  0.636200  0.325200  1.0  0.1219
  H  H77  1  0.078500  0.676200  0.169600  1.0  0.1166
  H  H78  1  0.357800  0.701800  0.174200  1.0  0.1181
  H  H79  1  0.155700  0.789300  0.150100  1.0  0.0954
  H  H80  1  0.694200  0.538900  0.686900  1.0  0.1102
  H  H81  1  0.465100  0.617600  0.609200  1.0  0.1072
  H  H82  1  0.434000  0.515100  0.719700  1.0  0.118
  H  H83  1  0.286400  0.611100  0.541600  1.0  0.119
  H  H84  1  0.129100  0.631300  0.535900  1.0  0.1086
  H  H85  1  0.327100  0.550600  0.757400  1.0  0.1111
  H  H86  1  0.267900  0.581100  0.874200  1.0  0.1186
  H  H87  1  0.077500  0.511400  0.938700  1.0  0.1143
  H  H88  1  0.030300  0.529600  0.693100  1.0  0.1128
  C  C89  1  0.189400  0.722050  0.611800  1.0  0.6778
  C  C90  1  0.297100  0.733640  0.628400  1.0  -0.0763
  C  C91  1  0.349500  0.711090  0.591200  1.0  -0.0769
  C  C92  1  0.448500  0.720300  0.600900  1.0  -0.1591
  C  C93  1  0.496300  0.752620  0.650300  1.0  0.0497
  C  C94  1  0.443600  0.774580  0.691000  1.0  -0.1133
  C  C95  1  0.343800  0.766050  0.679400  1.0  0.0106
  C  C96  1  0.291800  0.792800  0.721800  1.0  0.0698
  C  C97  1  0.200800  0.812030  0.674300  1.0  -0.0541
  C  C98  1  0.335800  0.800530  0.808100  1.0  -0.0679
  C  C99  1  0.290900  0.826440  0.846900  1.0  -0.1449
  C  C100  1  0.335800  0.832510  0.942300  1.0  0.7463
  C  C101  1  0.201300  0.845860  0.799000  1.0  0.0242
  C  C102  1  0.155500  0.838510  0.711800  1.0  -0.1239
  C  C103  1  0.056400  0.857860  0.660300  1.0  0.6811
  C  C104  1  0.600300  0.764870  0.658500  1.0  0.0399
  C  C105  1  0.625800  0.805110  0.666667  1.0  -0.0475
  C  C106  1  0.720600  0.818000  0.670300  1.0  -0.159
  C  C107  1  0.793000  0.790070  0.669500  1.0  0.0278
  C  C108  1  0.766900  0.749640  0.661700  1.0  -0.1583
  C  C109  1  0.672100  0.737780  0.655900  1.0  -0.0351
  C  C110  1  0.745300  0.861530  0.676400  1.0  0.7473
  C  C111  1  0.843300  0.719110  0.655600  1.0  0.7566
  C  C112  1  0.112500  0.017940  0.250300  1.0  0.7411
  C  C113  1  0.069300  0.979080  0.209100  1.0  -0.1661
  C  C114  1  0.128200  0.953690  0.180300  1.0  0.0177
  C  C115  1  0.089500  0.918100  0.142600  1.0  -0.166
  C  C116  1  0.990900  0.907000  0.133900  1.0  -0.0357
  C  C117  1  0.931100  0.931820  0.161100  1.0  0.0072
  C  C118  1  0.972700  0.968040  0.199900  1.0  -0.0549
  C  C119  1  0.152400  0.889890  0.111400  1.0  0.7331
  C  C120  1  0.825700  0.920660  0.152100  1.0  0.05
  C  C121  1  0.763100  0.897050  0.084000  1.0  -0.1274
  C  C122  1  0.668100  0.885840  0.079400  1.0  -0.1066
  C  C123  1  0.628900  0.899840  0.139200  1.0  -0.0525
  C  C124  1  0.687100  0.924600  0.205600  1.0  0.0079
  C  C125  1  0.786100  0.933840  0.211700  1.0  -0.1151
  C  C126  1  0.528000  0.882500  0.135800  1.0  0.7227
  C  C127  1  0.653200  0.941120  0.272600  1.0  0.0466
  C  C128  1  0.709400  0.934690  0.358300  1.0  -0.0534
  C  C129  1  0.680100  0.951310  0.421100  1.0  -0.1612
  C  C130  1  0.596100  0.976400  0.397000  1.0  0.0077
  C  C131  1  0.539500  0.983490  0.311500  1.0  -0.184
  C  C132  1  0.568600  0.965730  0.250700  1.0  -0.0494
  C  C133  1  0.450300  0.010900  0.284800  1.0  0.7284
  C  C134  1  0.738900  0.942310  0.513400  1.0  0.7382
  C  C135  1  0.310600  0.222050  0.888200  1.0  0.678
  C  C136  1  0.202900  0.233640  0.871600  1.0  -0.0763
  C  C137  1  0.150500  0.211090  0.908800  1.0  -0.0776
  C  C138  1  0.051500  0.220300  0.899100  1.0  -0.1596
  C  C139  1  0.003700  0.252620  0.849700  1.0  0.0488
  C  C140  1  0.056400  0.274580  0.809000  1.0  -0.1136
  C  C141  1  0.156200  0.266050  0.820600  1.0  0.011
  C  C142  1  0.208200  0.292800  0.778200  1.0  0.0696
  C  C143  1  0.299200  0.312030  0.825700  1.0  -0.0554
  C  C144  1  0.164200  0.300530  0.691900  1.0  -0.0679
  C  C145  1  0.209100  0.326440  0.653100  1.0  -0.1433
  C  C146  1  0.164200  0.332510  0.557700  1.0  0.7458
  C  C147  1  0.298700  0.345860  0.701000  1.0  0.0244
  C  C148  1  0.344500  0.338510  0.788200  1.0  -0.124
  C  C149  1  0.443600  0.357860  0.839700  1.0  0.6787
  C  C150  1  0.899700  0.264870  0.841500  1.0  0.0441
  C  C151  1  0.874200  0.305110  0.833400  1.0  -0.0497
  C  C152  1  0.779400  0.318000  0.829700  1.0  -0.1564
  C  C153  1  0.707000  0.290070  0.830500  1.0  0.0268
  C  C154  1  0.733100  0.249640  0.838300  1.0  -0.1572
  C  C155  1  0.827900  0.237780  0.844100  1.0  -0.0355
  C  C156  1  0.754700  0.361530  0.823600  1.0  0.7488
  C  C157  1  0.656700  0.219110  0.844400  1.0  0.7557
  C  C158  1  0.387500  0.517940  0.249700  1.0  0.7415
  C  C159  1  0.430700  0.479080  0.290900  1.0  -0.1663
  C  C160  1  0.371800  0.453690  0.319700  1.0  0.0168
  C  C161  1  0.410500  0.418100  0.357400  1.0  -0.1658
  C  C162  1  0.509100  0.407000  0.366100  1.0  -0.0366
  C  C163  1  0.568900  0.431820  0.338900  1.0  0.0066
  C  C164  1  0.527300  0.468040  0.300100  1.0  -0.0539
  C  C165  1  0.347600  0.389890  0.388600  1.0  0.7322
  C  C166  1  0.674300  0.420660  0.347900  1.0  0.0494
  C  C167  1  0.736900  0.397050  0.416000  1.0  -0.1273
  C  C168  1  0.831900  0.385840  0.420600  1.0  -0.1076
  C  C169  1  0.871100  0.399840  0.360800  1.0  -0.0525
  C  C170  1  0.812900  0.424600  0.294400  1.0  0.0078
  C  C171  1  0.713900  0.433840  0.288300  1.0  -0.1147
  C  C172  1  0.972000  0.382500  0.364200  1.0  0.7234
  C  C173  1  0.846800  0.441120  0.227400  1.0  0.0463
  C  C174  1  0.790600  0.434690  0.141700  1.0  -0.0538
  C  C175  1  0.819900  0.451310  0.078900  1.0  -0.16
  C  C176  1  0.903900  0.476400  0.103000  1.0  0.0095
  C  C177  1  0.960500  0.483490  0.188500  1.0  -0.1852
  C  C178  1  0.931400  0.465730  0.249300  1.0  -0.0498
  C  C179  1  0.049700  0.510900  0.215200  1.0  0.7287
  C  C180  1  0.761100  0.442310  0.986600  1.0  0.738
  C  C181  1  0.810600  0.277950  0.388200  1.0  0.6784
  C  C182  1  0.702900  0.266360  0.371600  1.0  -0.0763
  C  C183  1  0.650500  0.288910  0.408800  1.0  -0.0774
  C  C184  1  0.551500  0.279700  0.399100  1.0  -0.1582
  C  C185  1  0.503700  0.247380  0.349700  1.0  0.0489
  C  C186  1  0.556400  0.225420  0.309000  1.0  -0.1146
  C  C187  1  0.656200  0.233950  0.320600  1.0  0.0111
  C  C188  1  0.708200  0.207200  0.278200  1.0  0.0695
  C  C189  1  0.799200  0.187970  0.325700  1.0  -0.0554
  C  C190  1  0.664200  0.199470  0.191900  1.0  -0.0674
  C  C191  1  0.709100  0.173560  0.153100  1.0  -0.1436
  C  C192  1  0.664200  0.167490  0.057700  1.0  0.7458
  C  C193  1  0.798700  0.154140  0.201000  1.0  0.0237
  C  C194  1  0.844500  0.161490  0.288200  1.0  -0.1242
  C  C195  1  0.943600  0.142140  0.339700  1.0  0.6792
  C  C196  1  0.399700  0.235130  0.341500  1.0  0.0437
  C  C197  1  0.374200  0.194890  0.333400  1.0  -0.0473
  C  C198  1  0.279400  0.182000  0.329700  1.0  -0.1567
  C  C199  1  0.207000  0.209930  0.330500  1.0  0.0269
  C  C200  1  0.233100  0.250360  0.338300  1.0  -0.1568
  C  C201  1  0.327900  0.262220  0.344100  1.0  -0.0366
  C  C202  1  0.254700  0.138470  0.323600  1.0  0.7491
  C  C203  1  0.156700  0.280890  0.344400  1.0  0.756
  C  C204  1  0.887500  0.982060  0.749700  1.0  0.7417
  C  C205  1  0.930700  0.020920  0.790900  1.0  -0.1665
  C  C206  1  0.871800  0.046310  0.819700  1.0  0.0171
  C  C207  1  0.910500  0.081900  0.857400  1.0  -0.166
  C  C208  1  0.009100  0.093000  0.866100  1.0  -0.0368
  C  C209  1  0.068900  0.068180  0.838900  1.0  0.0065
  C  C210  1  0.027300  0.031960  0.800100  1.0  -0.0529
  C  C211  1  0.847600  0.110110  0.888600  1.0  0.7326
  C  C212  1  0.174300  0.079340  0.847900  1.0  0.0489
  C  C213  1  0.236900  0.102950  0.916000  1.0  -0.1269
  C  C214  1  0.331900  0.114160  0.920600  1.0  -0.1071
  C  C215  1  0.371100  0.100160  0.860800  1.0  -0.0526
  C  C216  1  0.312900  0.075400  0.794400  1.0  0.0081
  C  C217  1  0.213900  0.066160  0.788300  1.0  -0.1151
  C  C218  1  0.472000  0.117500  0.864200  1.0  0.7235
  C  C219  1  0.346800  0.058880  0.727400  1.0  0.0465
  C  C220  1  0.290600  0.065310  0.641700  1.0  -0.0537
  C  C221  1  0.319900  0.048690  0.578900  1.0  -0.1598
  C  C222  1  0.403900  0.023600  0.603000  1.0  0.0094
  C  C223  1  0.460500  0.016510  0.688500  1.0  -0.1856
  C  C224  1  0.431400  0.034270  0.749300  1.0  -0.0497
  C  C225  1  0.549700  0.989100  0.715200  1.0  0.7276
  C  C226  1  0.261100  0.057690  0.486600  1.0  0.7381
  C  C227  1  0.689400  0.777950  0.111800  1.0  0.678
  C  C228  1  0.797100  0.766360  0.128400  1.0  -0.0762
  C  C229  1  0.849500  0.788910  0.091200  1.0  -0.0775
  C  C230  1  0.948500  0.779700  0.100900  1.0  -0.159
  C  C231  1  0.996300  0.747380  0.150300  1.0  0.0496
  C  C232  1  0.943600  0.725420  0.191000  1.0  -0.1144
  C  C233  1  0.843800  0.733950  0.179400  1.0  0.0107
  C  C234  1  0.791800  0.707200  0.221800  1.0  0.0696
  C  C235  1  0.700800  0.687970  0.174300  1.0  -0.0546
  C  C236  1  0.835800  0.699470  0.308100  1.0  -0.0677
  C  C237  1  0.790900  0.673560  0.346900  1.0  -0.1447
  C  C238  1  0.835800  0.667490  0.442300  1.0  0.7464
  C  C239  1  0.701300  0.654140  0.299000  1.0  0.0244
  C  C240  1  0.655500  0.661490  0.211800  1.0  -0.1244
  C  C241  1  0.556400  0.642140  0.160300  1.0  0.6809
  C  C242  1  0.100300  0.735130  0.158500  1.0  0.0435
  C  C243  1  0.125800  0.694890  0.166600  1.0  -0.0468
  C  C244  1  0.220600  0.682000  0.170300  1.0  -0.1565
  C  C245  1  0.293000  0.709930  0.169500  1.0  0.0275
  C  C246  1  0.266900  0.750360  0.161700  1.0  -0.1584
  C  C247  1  0.172100  0.762220  0.155900  1.0  -0.0361
  C  C248  1  0.245300  0.638470  0.176400  1.0  0.7475
  C  C249  1  0.343300  0.780890  0.155600  1.0  0.7572
  C  C250  1  0.612500  0.482060  0.750300  1.0  0.7406
  C  C251  1  0.569300  0.520920  0.709100  1.0  -0.1662
  C  C252  1  0.628200  0.546310  0.680300  1.0  0.0177
  C  C253  1  0.589500  0.581900  0.642600  1.0  -0.1658
  C  C254  1  0.490900  0.593000  0.633900  1.0  -0.0362
  C  C255  1  0.431100  0.568180  0.661100  1.0  0.007
  C  C256  1  0.472700  0.531960  0.699900  1.0  -0.0536
  C  C257  1  0.652400  0.610110  0.611400  1.0  0.734
  C  C258  1  0.325700  0.579340  0.652100  1.0  0.0496
  C  C259  1  0.263100  0.602950  0.584000  1.0  -0.1274
  C  C260  1  0.168100  0.614160  0.579400  1.0  -0.1065
  C  C261  1  0.128900  0.600160  0.639200  1.0  -0.0532
  C  C262  1  0.187100  0.575400  0.705600  1.0  0.008
  C  C263  1  0.286100  0.566160  0.711700  1.0  -0.1155
  C  C264  1  0.028000  0.617500  0.635800  1.0  0.7228
  C  C265  1  0.153200  0.558880  0.772600  1.0  0.0468
  C  C266  1  0.209400  0.565310  0.858300  1.0  -0.0536
  C  C267  1  0.180100  0.548690  0.921100  1.0  -0.1612
  C  C268  1  0.096100  0.523600  0.897000  1.0  0.0082
  C  C269  1  0.039500  0.516510  0.811500  1.0  -0.1851
  C  C270  1  0.068600  0.534270  0.750700  1.0  -0.0497
  C  C271  1  0.950300  0.489100  0.784800  1.0  0.7281
  C  C272  1  0.238900  0.557690  0.013400  1.0  0.7384
  O  O273  1  0.133800  0.708360  0.538900  1.0  -0.564
  O  O274  1  0.152200  0.726410  0.668000  1.0  -0.5586
  O  O275  1  0.997500  0.842320  0.595800  1.0  -0.4388
  O  O276  1  0.039400  0.890960  0.690200  1.0  -0.5857
  O  O277  1  0.285800  0.852590  0.975500  1.0  -0.5831
  O  O278  1  0.421000  0.817330  0.981900  1.0  -0.6339
  O  O279  1  0.674500  0.885150  0.669900  1.0  -0.585
  O  O280  1  0.833600  0.871440  0.688700  1.0  -0.5953
  O  O281  1  0.921300  0.731970  0.648900  1.0  -0.6134
  O  O282  1  0.820400  0.683270  0.658600  1.0  -0.6217
  O  O283  1  0.064500  0.036880  0.287200  1.0  -0.604
  O  O284  1  0.195000  0.028940  0.245800  1.0  -0.5793
  O  O285  1  0.241100  0.902420  0.121700  1.0  -0.5875
  O  O286  1  0.116200  0.857870  0.080700  1.0  -0.4965
  O  O287  1  0.529100  0.846310  0.155700  1.0  -0.6659
  O  O288  1  0.450900  0.902050  0.111400  1.0  -0.5424
  O  O289  1  0.394900  0.013400  0.209600  1.0  -0.4805
  O  O290  1  0.434400  0.028350  0.344700  1.0  -0.5912
  O  O291  1  0.704100  0.955340  0.565900  1.0  -0.63
  O  O292  1  0.819500  0.923450  0.531400  1.0  -0.5783
  O  O293  1  0.366200  0.208360  0.961100  1.0  -0.5673
  O  O294  1  0.347800  0.226410  0.832000  1.0  -0.5589
  O  O295  1  0.502500  0.342320  0.904200  1.0  -0.4402
  O  O296  1  0.460600  0.390960  0.809800  1.0  -0.5868
  O  O297  1  0.214200  0.352590  0.524500  1.0  -0.5838
  O  O298  1  0.079000  0.317330  0.518100  1.0  -0.6331
  O  O299  1  0.825500  0.385150  0.830100  1.0  -0.5859
  O  O300  1  0.666400  0.371440  0.811300  1.0  -0.5956
  O  O301  1  0.578700  0.231970  0.851100  1.0  -0.6147
  O  O302  1  0.679600  0.183270  0.841400  1.0  -0.623
  O  O303  1  0.435500  0.536880  0.212800  1.0  -0.605
  O  O304  1  0.305000  0.528940  0.254200  1.0  -0.5807
  O  O305  1  0.258900  0.402420  0.378300  1.0  -0.5874
  O  O306  1  0.383800  0.357870  0.419300  1.0  -0.4981
  O  O307  1  0.970900  0.346310  0.344300  1.0  -0.6674
  O  O308  1  0.049100  0.402050  0.388600  1.0  -0.5421
  O  O309  1  0.105100  0.513400  0.290400  1.0  -0.4799
  O  O310  1  0.065600  0.528350  0.155300  1.0  -0.5915
  O  O311  1  0.795900  0.455340  0.934100  1.0  -0.6292
  O  O312  1  0.680500  0.423450  0.968600  1.0  -0.5783
  O  O313  1  0.866200  0.291640  0.461100  1.0  -0.5666
  O  O314  1  0.847800  0.273590  0.332000  1.0  -0.559
  O  O315  1  0.002500  0.157680  0.404200  1.0  -0.4404
  O  O316  1  0.960600  0.109040  0.309800  1.0  -0.5869
  O  O317  1  0.714200  0.147410  0.024500  1.0  -0.5838
  O  O318  1  0.579000  0.182670  0.018100  1.0  -0.6339
  O  O319  1  0.325500  0.114850  0.330100  1.0  -0.5851
  O  O320  1  0.166400  0.128560  0.311300  1.0  -0.5955
  O  O321  1  0.078700  0.268030  0.351100  1.0  -0.6159
  O  O322  1  0.179600  0.316730  0.341400  1.0  -0.6238
  O  O323  1  0.935500  0.963120  0.712800  1.0  -0.6049
  O  O324  1  0.805000  0.971060  0.754200  1.0  -0.5808
  O  O325  1  0.758900  0.097580  0.878300  1.0  -0.5878
  O  O326  1  0.883800  0.142130  0.919300  1.0  -0.4973
  O  O327  1  0.470900  0.153690  0.844300  1.0  -0.6662
  O  O328  1  0.549100  0.097950  0.888600  1.0  -0.5432
  O  O329  1  0.605100  0.986600  0.790400  1.0  -0.4792
  O  O330  1  0.565600  0.971650  0.655300  1.0  -0.591
  O  O331  1  0.295900  0.044660  0.434100  1.0  -0.6272
  O  O332  1  0.180500  0.076550  0.468600  1.0  -0.5776
  O  O333  1  0.633800  0.791640  0.038900  1.0  -0.5631
  O  O334  1  0.652200  0.773590  0.168000  1.0  -0.5579
  O  O335  1  0.497500  0.657680  0.095800  1.0  -0.4385
  O  O336  1  0.539400  0.609040  0.190200  1.0  -0.5861
  O  O337  1  0.785800  0.647410  0.475500  1.0  -0.5828
  O  O338  1  0.921000  0.682670  0.481900  1.0  -0.6348
  O  O339  1  0.174500  0.614850  0.169900  1.0  -0.5848
  O  O340  1  0.333600  0.628560  0.188700  1.0  -0.595
  O  O341  1  0.421300  0.768030  0.148900  1.0  -0.6145
  O  O342  1  0.320400  0.816730  0.158600  1.0  -0.6224
  O  O343  1  0.564500  0.463120  0.787200  1.0  -0.6042
  O  O344  1  0.695000  0.471060  0.745800  1.0  -0.5791
  O  O345  1  0.741100  0.597580  0.621700  1.0  -0.5879
  O  O346  1  0.616200  0.642130  0.580700  1.0  -0.4961
  O  O347  1  0.029100  0.653690  0.655700  1.0  -0.6662
  O  O348  1  0.950900  0.597950  0.611400  1.0  -0.5429
  O  O349  1  0.894900  0.486600  0.709600  1.0  -0.4801
  O  O350  1  0.934400  0.471650  0.844700  1.0  -0.5914
  O  O351  1  0.204100  0.544660  0.065900  1.0  -0.6279
  O  O352  1  0.319500  0.576550  0.031400  1.0  -0.5779
