# generated using pymatgen
data_Zn3H16C20(N4O5)2
_symmetry_space_group_name_H-M   'P 1'
_cell_length_a   11.32100000
_cell_length_b   11.32100000
_cell_length_c   19.87200000
_cell_angle_alpha   90.00000000
_cell_angle_beta   90.00000000
_cell_angle_gamma   120.00000000
_symmetry_Int_Tables_number   1
_chemical_formula_structural   Zn3H16C20(N4O5)2
_chemical_formula_sum   'Zn9 H48 C60 N24 O30'
_cell_volume   2205.67637244
_cell_formula_units_Z   3
loop_
 _symmetry_equiv_pos_site_id
 _symmetry_equiv_pos_as_xyz
  1  'x, y, z'
loop_
 _atom_site_type_symbol
 _atom_site_label
 _atom_site_symmetry_multiplicity
 _atom_site_fract_x
 _atom_site_fract_y
 _atom_site_fract_z
 _atom_site_occupancy
 _atom_site_charge
  Zn  Zn1  1  0.110150  0.408380  0.778260  1.0  0.8966
  Zn  Zn2  1  0.298230  0.889850  0.111590  1.0  0.8966
  Zn  Zn3  1  0.591620  0.701770  0.444930  1.0  0.8974
  Zn  Zn4  1  0.701770  0.591620  0.221740  1.0  0.8974
  Zn  Zn5  1  0.408380  0.110150  0.888410  1.0  0.896
  Zn  Zn6  1  0.889850  0.298230  0.555070  1.0  0.8953
  Zn  Zn7  1  0.621770  0.000000  0.500000  1.0  1.0584
  Zn  Zn8  1  0.378230  0.378230  0.833330  1.0  1.0603
  Zn  Zn9  1  0.000000  0.621770  0.166670  1.0  1.0609
  H  H10  1  0.157500  0.710000  0.764500  1.0  0.0998
  H  H11  1  0.203000  0.837500  0.661100  1.0  0.1449
  H  H12  1  0.086900  0.179100  0.531700  1.0  0.1146
  H  H13  1  0.318400  0.273900  0.571700  1.0  0.1415
  H  H14  1  0.467800  0.474900  0.657800  1.0  0.1475
  H  H15  1  0.422300  0.583300  0.668500  1.0  0.1409
  H  H16  1  0.150000  0.720300  0.530800  1.0  0.1339
  H  H17  1  0.209200  0.624000  0.522800  1.0  0.1363
  H  H18  1  0.552500  0.842500  0.097830  1.0  0.0996
  H  H19  1  0.634500  0.797000  0.994430  1.0  0.1435
  H  H20  1  0.092200  0.913100  0.865030  1.0  0.1129
  H  H21  1  0.955500  0.681600  0.905030  1.0  0.1408
  H  H22  1  0.007100  0.532200  0.991130  1.0  0.1487
  H  H23  1  0.161000  0.577700  0.001830  1.0  0.1414
  H  H24  1  0.570300  0.850000  0.864130  1.0  0.1305
  H  H25  1  0.414800  0.790800  0.856130  1.0  0.1367
  H  H26  1  0.290000  0.447500  0.431170  1.0  0.0997
  H  H27  1  0.162500  0.365500  0.327770  1.0  0.144
  H  H28  1  0.820900  0.907800  0.198370  1.0  0.1138
  H  H29  1  0.726100  0.044500  0.238370  1.0  0.1412
  H  H30  1  0.525100  0.992900  0.324470  1.0  0.1467
  H  H31  1  0.416700  0.839000  0.335170  1.0  0.1413
  H  H32  1  0.279700  0.429700  0.197470  1.0  0.1311
  H  H33  1  0.376000  0.585200  0.189470  1.0  0.136
  H  H34  1  0.447500  0.290000  0.235500  1.0  0.0999
  H  H35  1  0.365500  0.162500  0.338900  1.0  0.1444
  H  H36  1  0.907800  0.820900  0.468300  1.0  0.1145
  H  H37  1  0.044500  0.726100  0.428300  1.0  0.1412
  H  H38  1  0.992900  0.525100  0.342200  1.0  0.1463
  H  H39  1  0.839000  0.416700  0.331500  1.0  0.1406
  H  H40  1  0.429700  0.279700  0.469200  1.0  0.1342
  H  H41  1  0.585200  0.376000  0.477200  1.0  0.1354
  H  H42  1  0.710000  0.157500  0.902170  1.0  0.1001
  H  H43  1  0.837500  0.203000  0.005570  1.0  0.144
  H  H44  1  0.179100  0.086900  0.134970  1.0  0.1122
  H  H45  1  0.273900  0.318400  0.094970  1.0  0.1409
  H  H46  1  0.474900  0.467800  0.008870  1.0  0.148
  H  H47  1  0.583300  0.422300  0.998170  1.0  0.141
  H  H48  1  0.720300  0.150000  0.135870  1.0  0.1307
  H  H49  1  0.624000  0.209200  0.143870  1.0  0.1365
  H  H50  1  0.842500  0.552500  0.568830  1.0  0.1001
  H  H51  1  0.797000  0.634500  0.672230  1.0  0.1448
  H  H52  1  0.913100  0.092200  0.801630  1.0  0.1128
  H  H53  1  0.681600  0.955500  0.761630  1.0  0.1413
  H  H54  1  0.532200  0.007100  0.675530  1.0  0.1476
  H  H55  1  0.577700  0.161000  0.664830  1.0  0.142
  H  H56  1  0.850000  0.570300  0.802530  1.0  0.1311
  H  H57  1  0.790800  0.414800  0.810530  1.0  0.1371
  C  C58  1  0.168000  0.680500  0.722400  1.0  0.0579
  C  C59  1  0.192300  0.750900  0.665700  1.0  -0.122
  C  C60  1  0.180000  0.555500  0.644900  1.0  0.1889
  C  C61  1  0.186700  0.446500  0.610000  1.0  0.1808
  C  C62  1  0.134600  0.259300  0.556400  1.0  0.0424
  C  C63  1  0.262500  0.311400  0.578000  1.0  -0.121
  C  C64  1  0.430600  0.525100  0.635300  1.0  -0.2498
  C  C65  1  0.529900  0.614000  0.581800  1.0  0.6952
  C  C66  1  0.224100  0.706500  0.545100  1.0  -0.2001
  C  C67  1  0.378800  0.804100  0.535600  1.0  0.6298
  C  C68  1  0.512500  0.832000  0.055730  1.0  0.0585
  C  C69  1  0.558600  0.807700  0.999030  1.0  -0.1201
  C  C70  1  0.375500  0.820000  0.978230  1.0  0.189
  C  C71  1  0.259800  0.813300  0.943330  1.0  0.181
  C  C72  1  0.124700  0.865400  0.889730  1.0  0.0417
  C  C73  1  0.048900  0.737500  0.911330  1.0  -0.1202
  C  C74  1  0.094500  0.569400  0.968630  1.0  -0.2531
  C  C75  1  0.084100  0.470100  0.915130  1.0  0.6962
  C  C76  1  0.482400  0.775900  0.878430  1.0  -0.2018
  C  C77  1  0.425300  0.621200  0.868930  1.0  0.6332
  C  C78  1  0.319500  0.487500  0.389070  1.0  0.0578
  C  C79  1  0.249100  0.441400  0.332370  1.0  -0.1223
  C  C80  1  0.444500  0.624500  0.311570  1.0  0.189
  C  C81  1  0.553500  0.740200  0.276670  1.0  0.1802
  C  C82  1  0.740700  0.875300  0.223070  1.0  0.0415
  C  C83  1  0.688600  0.951100  0.244670  1.0  -0.1205
  C  C84  1  0.474900  0.905500  0.301970  1.0  -0.2509
  C  C85  1  0.386000  0.915900  0.248470  1.0  0.6925
  C  C86  1  0.293500  0.517600  0.211770  1.0  -0.2027
  C  C87  1  0.195900  0.574700  0.202270  1.0  0.6297
  C  C88  1  0.487500  0.319500  0.277600  1.0  0.0563
  C  C89  1  0.441400  0.249100  0.334300  1.0  -0.1233
  C  C90  1  0.624500  0.444500  0.355100  1.0  0.1888
  C  C91  1  0.740200  0.553500  0.390000  1.0  0.1808
  C  C92  1  0.875300  0.740700  0.443600  1.0  0.0429
  C  C93  1  0.951100  0.688600  0.422000  1.0  -0.1193
  C  C94  1  0.905500  0.474900  0.364700  1.0  -0.2386
  C  C95  1  0.915900  0.386000  0.418200  1.0  0.6958
  C  C96  1  0.517600  0.293500  0.454900  1.0  -0.1986
  C  C97  1  0.574700  0.195900  0.464400  1.0  0.6304
  C  C98  1  0.680500  0.168000  0.944270  1.0  0.0572
  C  C99  1  0.750900  0.192300  0.000970  1.0  -0.1201
  C  C100  1  0.555500  0.180000  0.021770  1.0  0.1878
  C  C101  1  0.446500  0.186700  0.056670  1.0  0.1806
  C  C102  1  0.259300  0.134600  0.110270  1.0  0.041
  C  C103  1  0.311400  0.262500  0.088670  1.0  -0.1214
  C  C104  1  0.525100  0.430600  0.031370  1.0  -0.2435
  C  C105  1  0.614000  0.529900  0.084870  1.0  0.6963
  C  C106  1  0.706500  0.224100  0.121570  1.0  -0.2018
  C  C107  1  0.804100  0.378800  0.131070  1.0  0.6333
  C  C108  1  0.832000  0.512500  0.610930  1.0  0.0575
  C  C109  1  0.807700  0.558600  0.667630  1.0  -0.1212
  C  C110  1  0.820000  0.375500  0.688430  1.0  0.1879
  C  C111  1  0.813300  0.259800  0.723330  1.0  0.18
  C  C112  1  0.865400  0.124700  0.776930  1.0  0.0421
  C  C113  1  0.737500  0.048900  0.755330  1.0  -0.1207
  C  C114  1  0.569400  0.094500  0.698030  1.0  -0.2417
  C  C115  1  0.470100  0.084100  0.751530  1.0  0.6931
  C  C116  1  0.775900  0.482400  0.788230  1.0  -0.2015
  C  C117  1  0.621200  0.425300  0.797730  1.0  0.6301
  N  N118  1  0.160800  0.559600  0.710000  1.0  -0.3725
  N  N119  1  0.198500  0.670900  0.614700  1.0  0.0647
  N  N120  1  0.083000  0.342500  0.576300  1.0  -0.4068
  N  N121  1  0.296500  0.429300  0.610700  1.0  0.1169
  N  N122  1  0.398800  0.839200  0.043330  1.0  -0.3759
  N  N123  1  0.472400  0.801500  0.948030  1.0  0.0637
  N  N124  1  0.259500  0.917000  0.909630  1.0  -0.4048
  N  N125  1  0.132800  0.703500  0.944030  1.0  0.1174
  N  N126  1  0.440400  0.601200  0.376670  1.0  -0.373
  N  N127  1  0.329100  0.527600  0.281370  1.0  0.0644
  N  N128  1  0.657500  0.740500  0.242970  1.0  -0.4047
  N  N129  1  0.570700  0.867200  0.277370  1.0  0.117
  N  N130  1  0.601200  0.440400  0.290000  1.0  -0.3726
  N  N131  1  0.527600  0.329100  0.385300  1.0  0.0645
  N  N132  1  0.740500  0.657500  0.423700  1.0  -0.4046
  N  N133  1  0.867200  0.570700  0.389300  1.0  0.1172
  N  N134  1  0.559600  0.160800  0.956670  1.0  -0.3756
  N  N135  1  0.670900  0.198500  0.051970  1.0  0.0637
  N  N136  1  0.342500  0.083000  0.090370  1.0  -0.4044
  N  N137  1  0.429300  0.296500  0.055970  1.0  0.1175
  N  N138  1  0.839200  0.398800  0.623330  1.0  -0.3734
  N  N139  1  0.801500  0.472400  0.718630  1.0  0.0644
  N  N140  1  0.917000  0.259500  0.757030  1.0  -0.4049
  N  N141  1  0.703500  0.132800  0.722630  1.0  0.1177
  O  O142  1  0.483100  0.594700  0.522000  1.0  -0.6459
  O  O143  1  0.645500  0.697900  0.599200  1.0  -0.5672
  O  O144  1  0.673100  0.893200  0.442900  1.0  -0.6265
  O  O145  1  0.463300  0.841000  0.584600  1.0  -0.5892
  O  O146  1  0.421600  0.854100  0.477500  1.0  -0.5607
  O  O147  1  0.111600  0.516900  0.855330  1.0  -0.644
  O  O148  1  0.052400  0.354500  0.932530  1.0  -0.5668
  O  O149  1  0.220100  0.326900  0.776230  1.0  -0.6276
  O  O150  1  0.377700  0.536700  0.917930  1.0  -0.5922
  O  O151  1  0.432500  0.578400  0.810830  1.0  -0.5607
  O  O152  1  0.405300  0.888400  0.188670  1.0  -0.6456
  O  O153  1  0.302100  0.947600  0.265870  1.0  -0.5714
  O  O154  1  0.106800  0.779900  0.109570  1.0  -0.6267
  O  O155  1  0.159000  0.622300  0.251270  1.0  -0.5871
  O  O156  1  0.145900  0.567500  0.144170  1.0  -0.5623
  O  O157  1  0.888400  0.405300  0.478000  1.0  -0.6462
  O  O158  1  0.947600  0.302100  0.400800  1.0  -0.5677
  O  O159  1  0.779900  0.106800  0.557100  1.0  -0.6265
  O  O160  1  0.622300  0.159000  0.415400  1.0  -0.5888
  O  O161  1  0.567500  0.145900  0.522500  1.0  -0.5601
  O  O162  1  0.594700  0.483100  0.144670  1.0  -0.6448
  O  O163  1  0.697900  0.645500  0.067470  1.0  -0.5667
  O  O164  1  0.893200  0.673100  0.223770  1.0  -0.6295
  O  O165  1  0.841000  0.463300  0.082070  1.0  -0.5865
  O  O166  1  0.854100  0.421600  0.189170  1.0  -0.5598
  O  O167  1  0.516900  0.111600  0.811330  1.0  -0.6458
  O  O168  1  0.354500  0.052400  0.734130  1.0  -0.571
  O  O169  1  0.326900  0.220100  0.890430  1.0  -0.6255
  O  O170  1  0.536700  0.377700  0.748730  1.0  -0.5863
  O  O171  1  0.578400  0.432500  0.855830  1.0  -0.5611
