# generated using pymatgen
data_DyH13C17O8
_symmetry_space_group_name_H-M   'P 1'
_cell_length_a   27.95100000
_cell_length_b   9.61240000
_cell_length_c   8.19370000
_cell_angle_alpha   90.00000000
_cell_angle_beta   90.00000000
_cell_angle_gamma   90.00000000
_symmetry_Int_Tables_number   1
_chemical_formula_structural   DyH13C17O8
_chemical_formula_sum   'Dy4 H52 C68 O32'
_cell_volume   2201.45211767
_cell_formula_units_Z   4
loop_
 _symmetry_equiv_pos_site_id
 _symmetry_equiv_pos_as_xyz
  1  'x, y, z'
loop_
 _atom_site_type_symbol
 _atom_site_label
 _atom_site_symmetry_multiplicity
 _atom_site_fract_x
 _atom_site_fract_y
 _atom_site_fract_z
 _atom_site_occupancy
 _atom_site_charge
  Dy  Dy1  1  0.003770  0.584800  0.092880  1.0  2.2504
  Dy  Dy2  1  0.996230  0.415200  0.592880  1.0  2.2448
  Dy  Dy3  1  0.503770  0.915200  0.092880  1.0  2.2438
  Dy  Dy4  1  0.496230  0.084800  0.592880  1.0  2.2427
  H  H5  1  0.845600  0.497700  0.115200  1.0  0.0956
  H  H6  1  0.765600  0.426700  0.119200  1.0  0.0795
  H  H7  1  0.860300  0.310300  0.679100  1.0  0.0811
  H  H8  1  0.716700  0.170500  0.101700  1.0  0.0849
  H  H9  1  0.636300  0.110300  0.113700  1.0  0.0847
  H  H10  1  0.612500  0.340500  0.715000  1.0  0.0933
  H  H11  1  0.775000  0.159400  0.421400  1.0  0.0824
  H  H12  1  0.825300  0.176800  0.503400  1.0  0.0655
  H  H13  1  0.796200  0.308500  0.449700  1.0  0.0791
  H  H14  1  0.690900  0.546900  0.486800  1.0  0.089
  H  H15  1  0.643700  0.525400  0.587400  1.0  0.0826
  H  H16  1  0.664700  0.402700  0.483700  1.0  0.0786
  H  H17  1  0.078300  0.678100  0.724100  1.0  0.0115
  H  H18  1  0.154400  0.502300  0.615200  1.0  0.096
  H  H19  1  0.234400  0.573300  0.619200  1.0  0.0797
  H  H20  1  0.139700  0.689700  0.179100  1.0  0.0815
  H  H21  1  0.283300  0.829500  0.601700  1.0  0.0845
  H  H22  1  0.363700  0.889700  0.613700  1.0  0.0847
  H  H23  1  0.387500  0.659500  0.215000  1.0  0.0934
  H  H24  1  0.225000  0.840600  0.921400  1.0  0.0824
  H  H25  1  0.174700  0.823200  0.003400  1.0  0.0661
  H  H26  1  0.203800  0.691500  0.949700  1.0  0.0754
  H  H27  1  0.309100  0.453100  0.986800  1.0  0.09
  H  H28  1  0.356300  0.474600  0.087400  1.0  0.0811
  H  H29  1  0.335300  0.597300  0.983700  1.0  0.0799
  H  H30  1  0.921700  0.321900  0.224100  1.0  0.0116
  H  H31  1  0.345600  0.002300  0.115200  1.0  0.0959
  H  H32  1  0.265600  0.073300  0.119200  1.0  0.0796
  H  H33  1  0.360300  0.189700  0.679100  1.0  0.0814
  H  H34  1  0.216700  0.329500  0.101700  1.0  0.0845
  H  H35  1  0.136300  0.389700  0.113700  1.0  0.0845
  H  H36  1  0.112500  0.159500  0.715000  1.0  0.0929
  H  H37  1  0.275000  0.340600  0.421400  1.0  0.0824
  H  H38  1  0.325300  0.323200  0.503400  1.0  0.0655
  H  H39  1  0.296200  0.191500  0.449700  1.0  0.0758
  H  H40  1  0.190900  0.953100  0.486800  1.0  0.0892
  H  H41  1  0.143700  0.974600  0.587400  1.0  0.0824
  H  H42  1  0.164700  0.097300  0.483700  1.0  0.0794
  H  H43  1  0.578300  0.821900  0.724100  1.0  0.011
  H  H44  1  0.654400  0.997700  0.615200  1.0  0.0956
  H  H45  1  0.734400  0.926700  0.619200  1.0  0.0797
  H  H46  1  0.639700  0.810300  0.179100  1.0  0.0816
  H  H47  1  0.783300  0.670500  0.601700  1.0  0.0848
  H  H48  1  0.863700  0.610300  0.613700  1.0  0.0847
  H  H49  1  0.887500  0.840500  0.215000  1.0  0.0936
  H  H50  1  0.725000  0.659400  0.921400  1.0  0.0824
  H  H51  1  0.674700  0.676800  0.003400  1.0  0.0664
  H  H52  1  0.703800  0.808500  0.949700  1.0  0.0787
  H  H53  1  0.809100  0.046900  0.986800  1.0  0.0896
  H  H54  1  0.856300  0.025400  0.087400  1.0  0.0817
  H  H55  1  0.835300  0.902700  0.983700  1.0  0.0794
  H  H56  1  0.421700  0.178100  0.224100  1.0  0.0124
  C  C57  1  0.913170  0.441000  0.892000  1.0  0.7109
  C  C58  1  0.861040  0.405100  0.896200  1.0  -0.1705
  C  C59  1  0.832820  0.445700  0.029900  1.0  -0.1155
  C  C60  1  0.784560  0.404400  0.029700  1.0  -0.106
  C  C61  1  0.764280  0.332000  0.901700  1.0  0.0133
  C  C62  1  0.793500  0.295800  0.769900  1.0  0.2061
  C  C63  1  0.841330  0.333700  0.768300  1.0  -0.1556
  C  C64  1  0.712510  0.293800  0.908000  1.0  0.0121
  C  C65  1  0.695620  0.206100  0.024300  1.0  -0.1204
  C  C66  1  0.647430  0.168000  0.030800  1.0  -0.0677
  C  C67  1  0.616570  0.216600  0.913200  1.0  -0.1902
  C  C68  1  0.633330  0.306200  0.793700  1.0  -0.1907
  C  C69  1  0.680700  0.344300  0.791600  1.0  0.2443
  C  C70  1  0.564680  0.172300  0.912500  1.0  0.7374
  C  C71  1  0.793800  0.216000  0.493300  1.0  -0.0465
  C  C72  1  0.672600  0.481700  0.550000  1.0  -0.018
  C  C73  1  0.059300  0.655800  0.813400  1.0  0.686
  C  C74  1  0.086830  0.559000  0.392000  1.0  0.6999
  C  C75  1  0.138960  0.594900  0.396200  1.0  -0.1711
  C  C76  1  0.167180  0.554300  0.529900  1.0  -0.1157
  C  C77  1  0.215440  0.595600  0.529700  1.0  -0.106
  C  C78  1  0.235720  0.668000  0.401700  1.0  0.0141
  C  C79  1  0.206500  0.704200  0.269900  1.0  0.2056
  C  C80  1  0.158670  0.666300  0.268300  1.0  -0.1546
  C  C81  1  0.287490  0.706200  0.408000  1.0  0.0119
  C  C82  1  0.304380  0.793900  0.524300  1.0  -0.1204
  C  C83  1  0.352570  0.832000  0.530800  1.0  -0.0668
  C  C84  1  0.383430  0.783400  0.413200  1.0  -0.1892
  C  C85  1  0.366670  0.693800  0.293700  1.0  -0.192
  C  C86  1  0.319300  0.655700  0.291600  1.0  0.2428
  C  C87  1  0.435320  0.827700  0.412500  1.0  0.7366
  C  C88  1  0.206200  0.784000  0.993300  1.0  -0.0473
  C  C89  1  0.327400  0.518300  0.050000  1.0  -0.0161
  C  C90  1  0.940700  0.344200  0.313400  1.0  0.6842
  C  C91  1  0.413170  0.059000  0.892000  1.0  0.7103
  C  C92  1  0.361040  0.094900  0.896200  1.0  -0.1707
  C  C93  1  0.332820  0.054300  0.029900  1.0  -0.1155
  C  C94  1  0.284560  0.095600  0.029700  1.0  -0.1057
  C  C95  1  0.264280  0.168000  0.901700  1.0  0.0135
  C  C96  1  0.293500  0.204200  0.769900  1.0  0.206
  C  C97  1  0.341330  0.166300  0.768300  1.0  -0.1556
  C  C98  1  0.212510  0.206200  0.908000  1.0  0.012
  C  C99  1  0.195620  0.293900  0.024300  1.0  -0.1202
  C  C100  1  0.147430  0.332000  0.030800  1.0  -0.0666
  C  C101  1  0.116570  0.283400  0.913200  1.0  -0.1905
  C  C102  1  0.133330  0.193800  0.793700  1.0  -0.1903
  C  C103  1  0.180700  0.155700  0.791600  1.0  0.2447
  C  C104  1  0.064680  0.327700  0.912500  1.0  0.7365
  C  C105  1  0.293800  0.284000  0.493300  1.0  -0.0467
  C  C106  1  0.172600  0.018300  0.550000  1.0  -0.0176
  C  C107  1  0.559300  0.844200  0.813400  1.0  0.6845
  C  C108  1  0.586830  0.941000  0.392000  1.0  0.7001
  C  C109  1  0.638960  0.905100  0.396200  1.0  -0.1711
  C  C110  1  0.667180  0.945700  0.529900  1.0  -0.1156
  C  C111  1  0.715440  0.904400  0.529700  1.0  -0.1062
  C  C112  1  0.735720  0.832000  0.401700  1.0  0.014
  C  C113  1  0.706500  0.795800  0.269900  1.0  0.2057
  C  C114  1  0.658670  0.833700  0.268300  1.0  -0.1547
  C  C115  1  0.787490  0.793800  0.408000  1.0  0.0119
  C  C116  1  0.804380  0.706100  0.524300  1.0  -0.1205
  C  C117  1  0.852570  0.668000  0.530800  1.0  -0.0676
  C  C118  1  0.883430  0.716600  0.413200  1.0  -0.1897
  C  C119  1  0.866670  0.806200  0.293700  1.0  -0.192
  C  C120  1  0.819300  0.844300  0.291600  1.0  0.2424
  C  C121  1  0.935320  0.672300  0.412500  1.0  0.7375
  C  C122  1  0.706200  0.716000  0.993300  1.0  -0.048
  C  C123  1  0.827400  0.981700  0.050000  1.0  -0.0166
  C  C124  1  0.440700  0.155800  0.313400  1.0  0.6853
  O  O125  1  0.929280  0.523000  0.999400  1.0  -0.7054
  O  O126  1  0.937640  0.387200  0.782900  1.0  -0.6882
  O  O127  1  0.548630  0.110400  0.035100  1.0  -0.699
  O  O128  1  0.540970  0.201400  0.785500  1.0  -0.727
  O  O129  1  0.771860  0.221000  0.648900  1.0  -0.2762
  O  O130  1  0.699660  0.438200  0.684600  1.0  -0.2647
  O  O131  1  0.021580  0.587800  0.787900  1.0  -0.692
  O  O132  1  0.072430  0.694500  0.948000  1.0  -0.6261
  O  O133  1  0.070720  0.477000  0.499400  1.0  -0.7055
  O  O134  1  0.062360  0.612800  0.282900  1.0  -0.6871
  O  O135  1  0.451370  0.889600  0.535100  1.0  -0.6988
  O  O136  1  0.459030  0.798600  0.285500  1.0  -0.7252
  O  O137  1  0.228140  0.779000  0.148900  1.0  -0.2757
  O  O138  1  0.300340  0.561800  0.184600  1.0  -0.2654
  O  O139  1  0.978420  0.412200  0.287900  1.0  -0.6903
  O  O140  1  0.927570  0.305500  0.448000  1.0  -0.6237
  O  O141  1  0.429280  0.977000  0.999400  1.0  -0.7049
  O  O142  1  0.437640  0.112800  0.782900  1.0  -0.6868
  O  O143  1  0.048630  0.389600  0.035100  1.0  -0.6987
  O  O144  1  0.040970  0.298600  0.785500  1.0  -0.726
  O  O145  1  0.271860  0.279000  0.648900  1.0  -0.2755
  O  O146  1  0.199660  0.061800  0.684600  1.0  -0.2645
  O  O147  1  0.521580  0.912200  0.787900  1.0  -0.6917
  O  O148  1  0.572430  0.805500  0.948000  1.0  -0.6239
  O  O149  1  0.570720  0.023000  0.499400  1.0  -0.7062
  O  O150  1  0.562360  0.887200  0.282900  1.0  -0.6884
  O  O151  1  0.951370  0.610400  0.535100  1.0  -0.6993
  O  O152  1  0.959030  0.701400  0.285500  1.0  -0.7262
  O  O153  1  0.728140  0.721000  0.148900  1.0  -0.2755
  O  O154  1  0.800340  0.938200  0.184600  1.0  -0.2648
  O  O155  1  0.478420  0.087800  0.287900  1.0  -0.6898
  O  O156  1  0.427570  0.194500  0.448000  1.0  -0.6262
