# generated using pymatgen
data_GdH13C17O8
_symmetry_space_group_name_H-M   'P 1'
_cell_length_a   28.01700000
_cell_length_b   9.61750000
_cell_length_c   8.25860000
_cell_angle_alpha   90.00000000
_cell_angle_beta   90.00000000
_cell_angle_gamma   90.00000000
_symmetry_Int_Tables_number   1
_chemical_formula_structural   GdH13C17O8
_chemical_formula_sum   'Gd4 H52 C68 O32'
_cell_volume   2225.30865445
_cell_formula_units_Z   4
loop_
 _symmetry_equiv_pos_site_id
 _symmetry_equiv_pos_as_xyz
  1  'x, y, z'
loop_
 _atom_site_type_symbol
 _atom_site_label
 _atom_site_symmetry_multiplicity
 _atom_site_fract_x
 _atom_site_fract_y
 _atom_site_fract_z
 _atom_site_occupancy
 _atom_site_charge
  Gd  Gd1  1  0.996250  0.415120  0.907050  1.0  2.1802
  Gd  Gd2  1  0.003750  0.584880  0.407050  1.0  2.1758
  Gd  Gd3  1  0.496250  0.084880  0.907050  1.0  2.1735
  Gd  Gd4  1  0.503750  0.915120  0.407050  1.0  2.1742
  H  H5  1  0.155000  0.506800  0.885100  1.0  0.1029
  H  H6  1  0.234900  0.571000  0.883600  1.0  0.0889
  H  H7  1  0.139900  0.690700  0.320000  1.0  0.0948
  H  H8  1  0.283700  0.828800  0.900400  1.0  0.0928
  H  H9  1  0.363900  0.889600  0.890700  1.0  0.0847
  H  H10  1  0.387800  0.657600  0.284000  1.0  0.0932
  H  H11  1  0.224500  0.839900  0.575600  1.0  0.092
  H  H12  1  0.203000  0.691500  0.547000  1.0  0.0817
  H  H13  1  0.174600  0.823700  0.491500  1.0  0.0716
  H  H14  1  0.309700  0.447700  0.508900  1.0  0.0899
  H  H15  1  0.337400  0.589200  0.514400  1.0  0.087
  H  H16  1  0.356200  0.467100  0.406100  1.0  0.0851
  H  H17  1  0.920900  0.320500  0.275500  1.0  0.0183
  H  H18  1  0.845000  0.493200  0.385100  1.0  0.1032
  H  H19  1  0.765100  0.429000  0.383600  1.0  0.0888
  H  H20  1  0.860100  0.309300  0.820000  1.0  0.0947
  H  H21  1  0.716300  0.171200  0.400400  1.0  0.0931
  H  H22  1  0.636100  0.110400  0.390700  1.0  0.085
  H  H23  1  0.612200  0.342400  0.784000  1.0  0.0921
  H  H24  1  0.775500  0.160100  0.075600  1.0  0.0929
  H  H25  1  0.797000  0.308500  0.047000  1.0  0.0831
  H  H26  1  0.825400  0.176300  0.991500  1.0  0.0717
  H  H27  1  0.690300  0.552300  0.008900  1.0  0.0873
  H  H28  1  0.662600  0.410800  0.014400  1.0  0.0867
  H  H29  1  0.643800  0.532900  0.906100  1.0  0.0858
  H  H30  1  0.079100  0.679500  0.775500  1.0  0.0166
  H  H31  1  0.655000  0.993200  0.885100  1.0  0.1032
  H  H32  1  0.734900  0.929000  0.883600  1.0  0.0888
  H  H33  1  0.639900  0.809300  0.320000  1.0  0.0953
  H  H34  1  0.783700  0.671200  0.900400  1.0  0.0929
  H  H35  1  0.863900  0.610400  0.890700  1.0  0.0851
  H  H36  1  0.887800  0.842400  0.284000  1.0  0.0927
  H  H37  1  0.724500  0.660100  0.575600  1.0  0.0927
  H  H38  1  0.703000  0.808500  0.547000  1.0  0.0829
  H  H39  1  0.674600  0.676300  0.491500  1.0  0.0719
  H  H40  1  0.809700  0.052300  0.508900  1.0  0.0883
  H  H41  1  0.837400  0.910800  0.514400  1.0  0.0868
  H  H42  1  0.856200  0.032900  0.406100  1.0  0.0859
  H  H43  1  0.420900  0.179500  0.275500  1.0  0.0178
  H  H44  1  0.345000  0.006800  0.385100  1.0  0.1029
  H  H45  1  0.265100  0.071000  0.383600  1.0  0.0888
  H  H46  1  0.360100  0.190700  0.820000  1.0  0.0945
  H  H47  1  0.216300  0.328800  0.400400  1.0  0.0927
  H  H48  1  0.136100  0.389600  0.390700  1.0  0.0846
  H  H49  1  0.112200  0.157600  0.784000  1.0  0.0925
  H  H50  1  0.275500  0.339900  0.075600  1.0  0.0924
  H  H51  1  0.297000  0.191500  0.047000  1.0  0.0821
  H  H52  1  0.325400  0.323700  0.991500  1.0  0.0714
  H  H53  1  0.190300  0.947700  0.008900  1.0  0.0884
  H  H54  1  0.162600  0.089200  0.014400  1.0  0.087
  H  H55  1  0.143800  0.967100  0.906100  1.0  0.0855
  H  H56  1  0.579100  0.820500  0.775500  1.0  0.0174
  C  C57  1  0.087790  0.557700  0.107600  1.0  0.7089
  C  C58  1  0.139870  0.593700  0.103700  1.0  -0.1575
  C  C59  1  0.167930  0.556300  0.971400  1.0  -0.0718
  C  C60  1  0.215890  0.595100  0.971600  1.0  -0.0978
  C  C61  1  0.236210  0.668600  0.099300  1.0  -0.0345
  C  C62  1  0.207080  0.702700  0.231200  1.0  0.2275
  C  C63  1  0.159020  0.666300  0.232600  1.0  -0.1533
  C  C64  1  0.287660  0.707400  0.094400  1.0  -0.0007
  C  C65  1  0.304580  0.793900  0.978000  1.0  -0.1086
  C  C66  1  0.352790  0.831400  0.972500  1.0  -0.039
  C  C67  1  0.383760  0.782100  0.088400  1.0  -0.1804
  C  C68  1  0.366940  0.692500  0.206400  1.0  -0.1529
  C  C69  1  0.319230  0.654500  0.210000  1.0  0.2415
  C  C70  1  0.435280  0.825100  0.086600  1.0  0.7436
  C  C71  1  0.205800  0.783600  0.503400  1.0  -0.0422
  C  C72  1  0.328200  0.512600  0.446800  1.0  -0.0199
  C  C73  1  0.939810  0.343500  0.186900  1.0  0.6607
  C  C74  1  0.912210  0.442300  0.607600  1.0  0.7071
  C  C75  1  0.860130  0.406300  0.603700  1.0  -0.1572
  C  C76  1  0.832070  0.443700  0.471400  1.0  -0.0716
  C  C77  1  0.784110  0.404900  0.471600  1.0  -0.0975
  C  C78  1  0.763790  0.331400  0.599300  1.0  -0.0342
  C  C79  1  0.792920  0.297300  0.731200  1.0  0.2278
  C  C80  1  0.840980  0.333700  0.732600  1.0  -0.1545
  C  C81  1  0.712340  0.292600  0.594400  1.0  -0.0008
  C  C82  1  0.695420  0.206100  0.478000  1.0  -0.1094
  C  C83  1  0.647210  0.168600  0.472500  1.0  -0.0383
  C  C84  1  0.616240  0.217900  0.588400  1.0  -0.1805
  C  C85  1  0.633060  0.307500  0.706400  1.0  -0.1546
  C  C86  1  0.680770  0.345500  0.710000  1.0  0.2424
  C  C87  1  0.564720  0.174900  0.586600  1.0  0.7439
  C  C88  1  0.794200  0.216400  0.003400  1.0  -0.0414
  C  C89  1  0.671800  0.487400  0.946800  1.0  -0.0195
  C  C90  1  0.060190  0.656500  0.686900  1.0  0.6606
  C  C91  1  0.587790  0.942300  0.107600  1.0  0.7092
  C  C92  1  0.639870  0.906300  0.103700  1.0  -0.1579
  C  C93  1  0.667930  0.943700  0.971400  1.0  -0.0713
  C  C94  1  0.715890  0.904900  0.971600  1.0  -0.0984
  C  C95  1  0.736210  0.831400  0.099300  1.0  -0.0345
  C  C96  1  0.707080  0.797300  0.231200  1.0  0.228
  C  C97  1  0.659020  0.833700  0.232600  1.0  -0.153
  C  C98  1  0.787660  0.792600  0.094400  1.0  -0.0008
  C  C99  1  0.804580  0.706100  0.978000  1.0  -0.1086
  C  C100  1  0.852790  0.668600  0.972500  1.0  -0.0391
  C  C101  1  0.883760  0.717900  0.088400  1.0  -0.1804
  C  C102  1  0.866940  0.807500  0.206400  1.0  -0.1538
  C  C103  1  0.819230  0.845500  0.210000  1.0  0.2413
  C  C104  1  0.935280  0.674900  0.086600  1.0  0.7441
  C  C105  1  0.705800  0.716400  0.503400  1.0  -0.042
  C  C106  1  0.828200  0.987400  0.446800  1.0  -0.0197
  C  C107  1  0.439810  0.156500  0.186900  1.0  0.66
  C  C108  1  0.412210  0.057700  0.607600  1.0  0.7067
  C  C109  1  0.360130  0.093700  0.603700  1.0  -0.1573
  C  C110  1  0.332070  0.056300  0.471400  1.0  -0.072
  C  C111  1  0.284110  0.095100  0.471600  1.0  -0.0968
  C  C112  1  0.263790  0.168600  0.599300  1.0  -0.0342
  C  C113  1  0.292920  0.202700  0.731200  1.0  0.2274
  C  C114  1  0.340980  0.166300  0.732600  1.0  -0.1547
  C  C115  1  0.212340  0.207400  0.594400  1.0  -0.0006
  C  C116  1  0.195420  0.293900  0.478000  1.0  -0.1092
  C  C117  1  0.147210  0.331400  0.472500  1.0  -0.0381
  C  C118  1  0.116240  0.282100  0.588400  1.0  -0.1814
  C  C119  1  0.133060  0.192500  0.706400  1.0  -0.1537
  C  C120  1  0.180770  0.154500  0.710000  1.0  0.2426
  C  C121  1  0.064720  0.325100  0.586600  1.0  0.743
  C  C122  1  0.294200  0.283600  0.003400  1.0  -0.0415
  C  C123  1  0.171800  0.012600  0.946800  1.0  -0.0198
  C  C124  1  0.560190  0.843500  0.686900  1.0  0.661
  O  O125  1  0.071670  0.478300  0.999700  1.0  -0.7373
  O  O126  1  0.063240  0.611800  0.216100  1.0  -0.7521
  O  O127  1  0.451570  0.885500  0.965500  1.0  -0.7361
  O  O128  1  0.459260  0.796300  0.212200  1.0  -0.7171
  O  O129  1  0.228440  0.777400  0.350700  1.0  -0.2695
  O  O130  1  0.300710  0.562000  0.316200  1.0  -0.2554
  O  O131  1  0.977690  0.412000  0.211600  1.0  -0.6898
  O  O132  1  0.926740  0.305700  0.051000  1.0  -0.6189
  O  O133  1  0.928330  0.521700  0.499700  1.0  -0.737
  O  O134  1  0.936760  0.388200  0.716100  1.0  -0.7527
  O  O135  1  0.548430  0.114500  0.465500  1.0  -0.7376
  O  O136  1  0.540740  0.203700  0.712200  1.0  -0.7202
  O  O137  1  0.771560  0.222600  0.850700  1.0  -0.2695
  O  O138  1  0.699290  0.438000  0.816200  1.0  -0.2576
  O  O139  1  0.022310  0.588000  0.711600  1.0  -0.6916
  O  O140  1  0.073260  0.694300  0.551000  1.0  -0.6202
  O  O141  1  0.571670  0.021700  0.999700  1.0  -0.7379
  O  O142  1  0.563240  0.888200  0.216100  1.0  -0.7523
  O  O143  1  0.951570  0.614500  0.965500  1.0  -0.7364
  O  O144  1  0.959260  0.703700  0.212200  1.0  -0.7191
  O  O145  1  0.728440  0.722600  0.350700  1.0  -0.2694
  O  O146  1  0.800710  0.938000  0.316200  1.0  -0.2557
  O  O147  1  0.477690  0.088000  0.211600  1.0  -0.6884
  O  O148  1  0.426740  0.194300  0.051000  1.0  -0.6194
  O  O149  1  0.428330  0.978300  0.499700  1.0  -0.7365
  O  O150  1  0.436760  0.111800  0.716100  1.0  -0.7522
  O  O151  1  0.048430  0.385500  0.465500  1.0  -0.7367
  O  O152  1  0.040740  0.296300  0.712200  1.0  -0.7177
  O  O153  1  0.271560  0.277400  0.850700  1.0  -0.2691
  O  O154  1  0.199290  0.062000  0.816200  1.0  -0.2569
  O  O155  1  0.522310  0.912000  0.711600  1.0  -0.6918
  O  O156  1  0.573260  0.805700  0.551000  1.0  -0.6203
