# generated using pymatgen
data_EuH13C17O8
_symmetry_space_group_name_H-M   'P 1'
_cell_length_a   28.04400000
_cell_length_b   9.62620000
_cell_length_c   8.25460000
_cell_angle_alpha   90.00000000
_cell_angle_beta   90.00000000
_cell_angle_gamma   90.00000000
_symmetry_Int_Tables_number   1
_chemical_formula_structural   EuH13C17O8
_chemical_formula_sum   'Eu4 H52 C68 O32'
_cell_volume   2228.38831350
_cell_formula_units_Z   4
loop_
 _symmetry_equiv_pos_site_id
 _symmetry_equiv_pos_as_xyz
  1  'x, y, z'
loop_
 _atom_site_type_symbol
 _atom_site_label
 _atom_site_symmetry_multiplicity
 _atom_site_fract_x
 _atom_site_fract_y
 _atom_site_fract_z
 _atom_site_occupancy
 _atom_site_charge
  Eu  Eu1  1  0.996230  0.414560  0.907020  1.0  2.1351
  Eu  Eu2  1  0.003770  0.585440  0.407020  1.0  2.1309
  Eu  Eu3  1  0.496230  0.085440  0.907020  1.0  2.1286
  Eu  Eu4  1  0.503770  0.914560  0.407020  1.0  2.1284
  H  H5  1  0.155800  0.504500  0.886500  1.0  0.1066
  H  H6  1  0.234900  0.570400  0.884300  1.0  0.0897
  H  H7  1  0.139700  0.690900  0.320600  1.0  0.1058
  H  H8  1  0.283800  0.827300  0.900000  1.0  0.0922
  H  H9  1  0.363400  0.889400  0.889400  1.0  0.1016
  H  H10  1  0.387600  0.658600  0.284800  1.0  0.1034
  H  H11  1  0.224800  0.839600  0.575300  1.0  0.0941
  H  H12  1  0.203300  0.691100  0.547500  1.0  0.0871
  H  H13  1  0.174800  0.823100  0.492800  1.0  0.0772
  H  H14  1  0.308900  0.452900  0.508700  1.0  0.1066
  H  H15  1  0.336900  0.593900  0.509600  1.0  0.1052
  H  H16  1  0.355200  0.469400  0.404300  1.0  0.0993
  H  H17  1  0.921100  0.316900  0.276200  1.0  0.0205
  H  H18  1  0.844200  0.495500  0.386500  1.0  0.1067
  H  H19  1  0.765100  0.429600  0.384300  1.0  0.0897
  H  H20  1  0.860300  0.309100  0.820600  1.0  0.1064
  H  H21  1  0.716200  0.172700  0.400000  1.0  0.0925
  H  H22  1  0.636600  0.110600  0.389400  1.0  0.1017
  H  H23  1  0.612400  0.341400  0.784800  1.0  0.1029
  H  H24  1  0.775200  0.160400  0.075300  1.0  0.0949
  H  H25  1  0.796700  0.308900  0.047500  1.0  0.0883
  H  H26  1  0.825200  0.176900  0.992800  1.0  0.0774
  H  H27  1  0.691100  0.547100  0.008700  1.0  0.1047
  H  H28  1  0.663100  0.406100  0.009600  1.0  0.1044
  H  H29  1  0.644800  0.530600  0.904300  1.0  0.1005
  H  H30  1  0.078900  0.683100  0.776200  1.0  0.0192
  H  H31  1  0.655800  0.995500  0.886500  1.0  0.1067
  H  H32  1  0.734900  0.929600  0.884300  1.0  0.0897
  H  H33  1  0.639700  0.809100  0.320600  1.0  0.1066
  H  H34  1  0.783800  0.672700  0.900000  1.0  0.0923
  H  H35  1  0.863400  0.610600  0.889400  1.0  0.1017
  H  H36  1  0.887600  0.841400  0.284800  1.0  0.103
  H  H37  1  0.724800  0.660400  0.575300  1.0  0.0948
  H  H38  1  0.703300  0.808900  0.547500  1.0  0.0882
  H  H39  1  0.674800  0.676900  0.492800  1.0  0.0773
  H  H40  1  0.808900  0.047100  0.508700  1.0  0.1056
  H  H41  1  0.836900  0.906100  0.509600  1.0  0.1042
  H  H42  1  0.855200  0.030600  0.404300  1.0  0.0999
  H  H43  1  0.421100  0.183100  0.276200  1.0  0.02
  H  H44  1  0.344200  0.004500  0.386500  1.0  0.1065
  H  H45  1  0.265100  0.070400  0.384300  1.0  0.0897
  H  H46  1  0.360300  0.190900  0.820600  1.0  0.1059
  H  H47  1  0.216200  0.327300  0.400000  1.0  0.0921
  H  H48  1  0.136600  0.389400  0.389400  1.0  0.1014
  H  H49  1  0.112400  0.158600  0.784800  1.0  0.1032
  H  H50  1  0.275200  0.339600  0.075300  1.0  0.0943
  H  H51  1  0.296700  0.191100  0.047500  1.0  0.0874
  H  H52  1  0.325200  0.323100  0.992800  1.0  0.0774
  H  H53  1  0.191100  0.952900  0.008700  1.0  0.1061
  H  H54  1  0.163100  0.093900  0.009600  1.0  0.1057
  H  H55  1  0.144800  0.969400  0.904300  1.0  0.1
  H  H56  1  0.578900  0.816900  0.776200  1.0  0.0199
  C  C57  1  0.088040  0.555900  0.106000  1.0  0.7115
  C  C58  1  0.139990  0.591700  0.103300  1.0  -0.1492
  C  C59  1  0.168410  0.554800  0.972500  1.0  -0.0953
  C  C60  1  0.215950  0.594300  0.972400  1.0  -0.0969
  C  C61  1  0.236110  0.667700  0.098600  1.0  0.0142
  C  C62  1  0.206890  0.702100  0.231700  1.0  0.2192
  C  C63  1  0.158930  0.665900  0.233600  1.0  -0.1568
  C  C64  1  0.287350  0.708000  0.096700  1.0  0.0069
  C  C65  1  0.304600  0.793500  0.978400  1.0  -0.1202
  C  C66  1  0.352420  0.831600  0.971600  1.0  -0.0557
  C  C67  1  0.383290  0.782500  0.088300  1.0  -0.1822
  C  C68  1  0.366760  0.693000  0.206900  1.0  -0.2179
  C  C69  1  0.319110  0.654700  0.209500  1.0  0.2509
  C  C70  1  0.434800  0.824700  0.087900  1.0  0.7503
  C  C71  1  0.206000  0.783200  0.503800  1.0  -0.0386
  C  C72  1  0.327400  0.516100  0.444400  1.0  -0.0018
  C  C73  1  0.939700  0.341900  0.187400  1.0  0.6464
  C  C74  1  0.911960  0.444100  0.606000  1.0  0.7081
  C  C75  1  0.860010  0.408300  0.603300  1.0  -0.1491
  C  C76  1  0.831590  0.445200  0.472500  1.0  -0.0955
  C  C77  1  0.784050  0.405700  0.472400  1.0  -0.0974
  C  C78  1  0.763890  0.332300  0.598600  1.0  0.0139
  C  C79  1  0.793110  0.297900  0.731700  1.0  0.2201
  C  C80  1  0.841070  0.334100  0.733600  1.0  -0.1574
  C  C81  1  0.712650  0.292000  0.596700  1.0  0.0073
  C  C82  1  0.695400  0.206500  0.478400  1.0  -0.1209
  C  C83  1  0.647580  0.168400  0.471600  1.0  -0.0563
  C  C84  1  0.616710  0.217500  0.588300  1.0  -0.1817
  C  C85  1  0.633240  0.307000  0.706900  1.0  -0.2173
  C  C86  1  0.680890  0.345300  0.709500  1.0  0.2515
  C  C87  1  0.565200  0.175300  0.587900  1.0  0.7491
  C  C88  1  0.794000  0.216800  0.003800  1.0  -0.0374
  C  C89  1  0.672600  0.483900  0.944400  1.0  -0.0041
  C  C90  1  0.060300  0.658100  0.687400  1.0  0.6474
  C  C91  1  0.588040  0.944100  0.106000  1.0  0.7115
  C  C92  1  0.639990  0.908300  0.103300  1.0  -0.1496
  C  C93  1  0.668410  0.945200  0.972500  1.0  -0.0943
  C  C94  1  0.715950  0.905700  0.972400  1.0  -0.0975
  C  C95  1  0.736110  0.832300  0.098600  1.0  0.014
  C  C96  1  0.706890  0.797900  0.231700  1.0  0.2199
  C  C97  1  0.658930  0.834100  0.233600  1.0  -0.1566
  C  C98  1  0.787350  0.792000  0.096700  1.0  0.0068
  C  C99  1  0.804600  0.706500  0.978400  1.0  -0.1203
  C  C100  1  0.852420  0.668400  0.971600  1.0  -0.0559
  C  C101  1  0.883290  0.717500  0.088300  1.0  -0.1826
  C  C102  1  0.866760  0.807000  0.206900  1.0  -0.2185
  C  C103  1  0.819110  0.845300  0.209500  1.0  0.2503
  C  C104  1  0.934800  0.675300  0.087900  1.0  0.75
  C  C105  1  0.706000  0.716800  0.503800  1.0  -0.0382
  C  C106  1  0.827400  0.983900  0.444400  1.0  -0.0021
  C  C107  1  0.439700  0.158100  0.187400  1.0  0.6457
  C  C108  1  0.411960  0.055900  0.606000  1.0  0.7077
  C  C109  1  0.360010  0.091700  0.603300  1.0  -0.1491
  C  C110  1  0.331590  0.054800  0.472500  1.0  -0.0959
  C  C111  1  0.284050  0.094300  0.472400  1.0  -0.0968
  C  C112  1  0.263890  0.167700  0.598600  1.0  0.0141
  C  C113  1  0.293110  0.202100  0.731700  1.0  0.2193
  C  C114  1  0.341070  0.165900  0.733600  1.0  -0.1576
  C  C115  1  0.212650  0.208000  0.596700  1.0  0.0074
  C  C116  1  0.195400  0.293500  0.478400  1.0  -0.1206
  C  C117  1  0.147580  0.331600  0.471600  1.0  -0.056
  C  C118  1  0.116710  0.282500  0.588300  1.0  -0.1825
  C  C119  1  0.133240  0.193000  0.706900  1.0  -0.2164
  C  C120  1  0.180890  0.154700  0.709500  1.0  0.2522
  C  C121  1  0.065200  0.324700  0.587900  1.0  0.749
  C  C122  1  0.294000  0.283200  0.003800  1.0  -0.0375
  C  C123  1  0.172600  0.016100  0.944400  1.0  -0.0038
  C  C124  1  0.560300  0.841900  0.687400  1.0  0.6481
  O  O125  1  0.072120  0.475200  0.000500  1.0  -0.7331
  O  O126  1  0.063080  0.610500  0.214300  1.0  -0.7442
  O  O127  1  0.450880  0.885800  0.965600  1.0  -0.7384
  O  O128  1  0.459310  0.795800  0.211100  1.0  -0.7511
  O  O129  1  0.228180  0.777000  0.350100  1.0  -0.2688
  O  O130  1  0.300420  0.562200  0.316100  1.0  -0.26
  O  O131  1  0.977060  0.412100  0.212600  1.0  -0.6902
  O  O132  1  0.926380  0.304800  0.052300  1.0  -0.614
  O  O133  1  0.927880  0.524800  0.500500  1.0  -0.7336
  O  O134  1  0.936920  0.389500  0.714300  1.0  -0.7453
  O  O135  1  0.549120  0.114200  0.465600  1.0  -0.739
  O  O136  1  0.540690  0.204200  0.711100  1.0  -0.7527
  O  O137  1  0.771820  0.223000  0.850100  1.0  -0.269
  O  O138  1  0.699580  0.437800  0.816100  1.0  -0.2602
  O  O139  1  0.022940  0.587900  0.712600  1.0  -0.6912
  O  O140  1  0.073620  0.695200  0.552300  1.0  -0.6152
  O  O141  1  0.572120  0.024800  0.000500  1.0  -0.7343
  O  O142  1  0.563080  0.889500  0.214300  1.0  -0.7439
  O  O143  1  0.950880  0.614200  0.965600  1.0  -0.7387
  O  O144  1  0.959310  0.704200  0.211100  1.0  -0.7525
  O  O145  1  0.728180  0.723000  0.350100  1.0  -0.2689
  O  O146  1  0.800420  0.937800  0.316100  1.0  -0.259
  O  O147  1  0.477060  0.087900  0.212600  1.0  -0.689
  O  O148  1  0.426380  0.195200  0.052300  1.0  -0.6144
  O  O149  1  0.427880  0.975200  0.500500  1.0  -0.7324
  O  O150  1  0.436920  0.110500  0.714300  1.0  -0.7453
  O  O151  1  0.049120  0.385800  0.465600  1.0  -0.7382
  O  O152  1  0.040690  0.295800  0.711100  1.0  -0.7516
  O  O153  1  0.271820  0.277000  0.850100  1.0  -0.2685
  O  O154  1  0.199580  0.062200  0.816100  1.0  -0.2606
  O  O155  1  0.522940  0.912100  0.712600  1.0  -0.6913
  O  O156  1  0.573620  0.804800  0.552300  1.0  -0.6158
