# generated using pymatgen
data_Zn8H64C104(N4O5)5
_symmetry_space_group_name_H-M   'P 1'
_cell_length_a   11.17530000
_cell_length_b   27.60900000
_cell_length_c   27.60900000
_cell_angle_alpha   87.65260000
_cell_angle_beta   78.32360000
_cell_angle_gamma   78.32370000
_symmetry_Int_Tables_number   1
_chemical_formula_structural   Zn8H64C104(N4O5)5
_chemical_formula_sum   'Zn16 H128 C208 N40 O50'
_cell_volume   8169.54290043
_cell_formula_units_Z   2
loop_
 _symmetry_equiv_pos_site_id
 _symmetry_equiv_pos_as_xyz
  1  'x, y, z'
loop_
 _atom_site_type_symbol
 _atom_site_label
 _atom_site_symmetry_multiplicity
 _atom_site_fract_x
 _atom_site_fract_y
 _atom_site_fract_z
 _atom_site_occupancy
 _atom_site_charge
  Zn  Zn1  1  0.394350  0.458550  0.459750  1.0  0.8741
  Zn  Zn2  1  0.312650  0.541450  0.540250  1.0  0.8741
  Zn  Zn3  1  0.104100  0.040250  0.958550  1.0  0.8749
  Zn  Zn4  1  0.102900  0.959750  0.041450  1.0  0.8739
  Zn  Zn5  1  0.937350  0.959750  0.958550  1.0  0.8737
  Zn  Zn6  1  0.855650  0.040250  0.041450  1.0  0.8751
  Zn  Zn7  1  0.147100  0.458550  0.540250  1.0  0.8736
  Zn  Zn8  1  0.145900  0.541450  0.459750  1.0  0.8737
  Zn  Zn9  1  0.411680  0.176640  0.000000  1.0  0.913
  Zn  Zn10  1  0.588320  0.823360  0.000000  1.0  0.9158
  Zn  Zn11  1  0.661680  0.500000  0.676640  1.0  0.9144
  Zn  Zn12  1  0.838320  0.500000  0.323360  1.0  0.915
  Zn  Zn13  1  0.413240  0.000000  0.173520  1.0  0.8658
  Zn  Zn14  1  0.586760  0.000000  0.826480  1.0  0.8673
  Zn  Zn15  1  0.836760  0.326480  0.500000  1.0  0.8662
  Zn  Zn16  1  0.663240  0.673520  0.500000  1.0  0.8649
  H  H17  1  0.413800  0.134700  0.091300  1.0  0.3438
  H  H18  1  0.447000  0.101700  0.132700  1.0  0.3621
  H  H19  1  0.225700  0.128900  0.965500  1.0  0.1062
  H  H20  1  0.218000  0.973300  0.129500  1.0  0.1
  H  H21  1  0.573700  0.326800  0.329400  1.0  0.0942
  H  H22  1  0.550500  0.289100  0.259100  1.0  0.109
  H  H23  1  0.208300  0.373500  0.269300  1.0  0.1146
  H  H24  1  0.231500  0.411100  0.339500  1.0  0.0964
  H  H25  1  0.474100  0.238800  0.223200  1.0  0.1192
  H  H26  1  0.469600  0.202000  0.149800  1.0  0.1132
  H  H27  1  0.244700  0.324800  0.113200  1.0  0.1138
  H  H28  1  0.249200  0.361700  0.186500  1.0  0.1123
  H  H29  1  0.037700  0.974300  0.293900  1.0  0.1182
  H  H30  1  0.934600  0.919900  0.343900  1.0  0.1204
  H  H31  1  0.214300  0.806900  0.292100  1.0  0.1102
  H  H32  1  0.317500  0.861400  0.242000  1.0  0.1146
  H  H33  1  0.639800  0.865300  0.908700  1.0  0.3443
  H  H34  1  0.681400  0.898300  0.867300  1.0  0.3615
  H  H35  1  0.320100  0.871100  0.034500  1.0  0.1063
  H  H36  1  0.320800  0.026700  0.870500  1.0  0.1004
  H  H37  1  0.229900  0.673200  0.670600  1.0  0.0964
  H  H38  1  0.098700  0.710900  0.740900  1.0  0.1086
  H  H39  1  0.851100  0.626500  0.730700  1.0  0.1145
  H  H40  1  0.982100  0.588900  0.660500  1.0  0.0967
  H  H41  1  0.936100  0.761200  0.776800  1.0  0.119
  H  H42  1  0.821400  0.798000  0.850200  1.0  0.1133
  H  H43  1  0.682700  0.675200  0.886800  1.0  0.1139
  H  H44  1  0.797400  0.638300  0.813500  1.0  0.1125
  H  H45  1  0.305900  0.025700  0.706100  1.0  0.1178
  H  H46  1  0.198400  0.080100  0.656100  1.0  0.1198
  H  H47  1  0.313300  0.193100  0.707900  1.0  0.1103
  H  H48  1  0.420900  0.138600  0.758000  1.0  0.1135
  H  H49  1  0.755100  0.408700  0.634700  1.0  0.3461
  H  H50  1  0.829700  0.367300  0.601700  1.0  0.3607
  H  H51  1  0.441200  0.534500  0.628900  1.0  0.1065
  H  H52  1  0.597500  0.370500  0.473300  1.0  0.1006
  H  H53  1  0.153100  0.170600  0.826800  1.0  0.0956
  H  H54  1  0.059600  0.240900  0.789100  1.0  0.1085
  H  H55  1  0.727600  0.230700  0.873500  1.0  0.1152
  H  H56  1  0.821000  0.160500  0.911100  1.0  0.0969
  H  H57  1  0.947300  0.276800  0.738800  1.0  0.1191
  H  H58  1  0.869400  0.350200  0.702000  1.0  0.1139
  H  H59  1  0.607900  0.386800  0.824800  1.0  0.1146
  H  H60  1  0.685700  0.313500  0.861700  1.0  0.1146
  H  H61  1  0.581600  0.206100  0.474300  1.0  0.1167
  H  H62  1  0.528500  0.156100  0.419900  1.0  0.1205
  H  H63  1  0.756400  0.207900  0.306900  1.0  0.1105
  H  H64  1  0.809500  0.258000  0.361400  1.0  0.1142
  H  H65  1  0.798500  0.591300  0.365300  1.0  0.3455
  H  H66  1  0.798700  0.632700  0.398300  1.0  0.3609
  H  H67  1  0.604600  0.465500  0.371100  1.0  0.1067
  H  H68  1  0.441300  0.629500  0.526700  1.0  0.0992
  H  H69  1  0.150500  0.829400  0.173200  1.0  0.0953
  H  H70  1  0.089600  0.759100  0.210900  1.0  0.1087
  H  H71  1  0.831800  0.769300  0.126500  1.0  0.1152
  H  H72  1  0.892600  0.839500  0.088900  1.0  0.0974
  H  H73  1  0.962900  0.723200  0.261200  1.0  0.119
  H  H74  1  0.921600  0.649800  0.298000  1.0  0.1141
  H  H75  1  0.819500  0.613200  0.175200  1.0  0.113
  H  H76  1  0.860900  0.686500  0.138300  1.0  0.1132
  H  H77  1  0.262000  0.793900  0.525700  1.0  0.1171
  H  H78  1  0.104500  0.843900  0.580100  1.0  0.1193
  H  H79  1  0.271200  0.792100  0.693100  1.0  0.1093
  H  H80  1  0.428900  0.742000  0.638600  1.0  0.1132
  H  H81  1  0.610200  0.591300  0.634700  1.0  0.3461
  H  H82  1  0.568600  0.632700  0.601700  1.0  0.3606
  H  H83  1  0.929900  0.465500  0.628900  1.0  0.1064
  H  H84  1  0.929200  0.629500  0.473300  1.0  0.0991
  H  H85  1  0.020100  0.829400  0.826800  1.0  0.0959
  H  H86  1  0.151300  0.759100  0.789100  1.0  0.1095
  H  H87  1  0.398900  0.769300  0.873500  1.0  0.1159
  H  H88  1  0.267900  0.839500  0.911100  1.0  0.0977
  H  H89  1  0.313900  0.723200  0.738800  1.0  0.1194
  H  H90  1  0.428600  0.649800  0.702000  1.0  0.1146
  H  H91  1  0.567300  0.613200  0.824800  1.0  0.1142
  H  H92  1  0.452600  0.686500  0.861700  1.0  0.1135
  H  H93  1  0.944100  0.793900  0.474300  1.0  0.1163
  H  H94  1  0.051600  0.843900  0.419900  1.0  0.1197
  H  H95  1  0.936700  0.792100  0.306900  1.0  0.1102
  H  H96  1  0.829100  0.742000  0.361400  1.0  0.113
  H  H97  1  0.836200  0.408700  0.365300  1.0  0.346
  H  H98  1  0.803000  0.367300  0.398300  1.0  0.3601
  H  H99  1  0.024300  0.534500  0.371100  1.0  0.1064
  H  H100  1  0.032000  0.370500  0.526700  1.0  0.1002
  H  H101  1  0.676300  0.170600  0.173200  1.0  0.0955
  H  H102  1  0.699500  0.240900  0.210900  1.0  0.1087
  H  H103  1  0.041700  0.230700  0.126500  1.0  0.1151
  H  H104  1  0.018500  0.160500  0.088900  1.0  0.0972
  H  H105  1  0.775900  0.276800  0.261200  1.0  0.1182
  H  H106  1  0.780400  0.350200  0.298000  1.0  0.1136
  H  H107  1  0.005300  0.386800  0.175200  1.0  0.1142
  H  H108  1  0.000800  0.313500  0.138300  1.0  0.1133
  H  H109  1  0.212300  0.206100  0.525700  1.0  0.1171
  H  H110  1  0.315400  0.156100  0.580100  1.0  0.1195
  H  H111  1  0.035700  0.207900  0.693100  1.0  0.1099
  H  H112  1  0.932500  0.258000  0.638600  1.0  0.1133
  H  H113  1  0.451500  0.134700  0.908700  1.0  0.3442
  H  H114  1  0.451300  0.101700  0.867300  1.0  0.3629
  H  H115  1  0.645400  0.128900  0.034500  1.0  0.1053
  H  H116  1  0.808700  0.973300  0.870500  1.0  0.1002
  H  H117  1  0.099500  0.326800  0.670600  1.0  0.0951
  H  H118  1  0.160400  0.289100  0.740900  1.0  0.109
  H  H119  1  0.418200  0.373500  0.730700  1.0  0.1143
  H  H120  1  0.357400  0.411100  0.660500  1.0  0.0968
  H  H121  1  0.287100  0.238800  0.776800  1.0  0.1191
  H  H122  1  0.328400  0.202000  0.850200  1.0  0.1131
  H  H123  1  0.430500  0.324800  0.886800  1.0  0.1139
  H  H124  1  0.389100  0.361700  0.813500  1.0  0.1118
  H  H125  1  0.988000  0.974300  0.706100  1.0  0.1193
  H  H126  1  0.145500  0.919900  0.656100  1.0  0.1201
  H  H127  1  0.978800  0.806900  0.707900  1.0  0.1107
  H  H128  1  0.821100  0.861400  0.758000  1.0  0.1136
  H  H129  1  0.494900  0.865300  0.091300  1.0  0.3441
  H  H130  1  0.420300  0.898300  0.132700  1.0  0.3626
  H  H131  1  0.808800  0.871100  0.965500  1.0  0.1056
  H  H132  1  0.652500  0.026700  0.129500  1.0  0.1005
  H  H133  1  0.096900  0.673200  0.329400  1.0  0.0964
  H  H134  1  0.190400  0.710900  0.259100  1.0  0.1082
  H  H135  1  0.522400  0.626500  0.269300  1.0  0.1149
  H  H136  1  0.429000  0.588900  0.339500  1.0  0.0965
  H  H137  1  0.302700  0.761200  0.223200  1.0  0.1181
  H  H138  1  0.380600  0.798000  0.149800  1.0  0.1135
  H  H139  1  0.642100  0.675200  0.113200  1.0  0.1132
  H  H140  1  0.564300  0.638300  0.186500  1.0  0.1128
  H  H141  1  0.668400  0.025700  0.293900  1.0  0.1184
  H  H142  1  0.721500  0.080100  0.343900  1.0  0.1199
  H  H143  1  0.493600  0.193100  0.292100  1.0  0.11
  H  H144  1  0.440500  0.138600  0.242000  1.0  0.1141
  C  C145  1  0.234800  0.111200  0.994400  1.0  0.1432
  C  C146  1  0.214800  0.054100  0.045500  1.0  0.4431
  C  C147  1  0.234600  0.000700  0.110500  1.0  0.3265
  C  C148  1  0.338000  0.073300  0.095300  1.0  0.2039
  C  C149  1  0.285500  0.085100  0.058900  1.0  0.3117
  C  C150  1  0.428500  0.398300  0.385300  1.0  0.6902
  C  C151  1  0.500500  0.336100  0.317300  1.0  -0.0177
  C  C152  1  0.486600  0.313600  0.275200  1.0  -0.1365
  C  C153  1  0.377100  0.327600  0.257200  1.0  0.0553
  C  C154  1  0.281600  0.364100  0.281300  1.0  -0.1244
  C  C155  1  0.295400  0.386700  0.323500  1.0  -0.024
  C  C156  1  0.404900  0.372600  0.341400  1.0  -0.1394
  C  C157  1  0.428100  0.256100  0.201100  1.0  -0.203
  C  C158  1  0.425500  0.233900  0.157100  1.0  -0.0567
  C  C159  1  0.356800  0.259600  0.124200  1.0  -0.1284
  C  C160  1  0.290700  0.307600  0.135200  1.0  -0.0285
  C  C161  1  0.293400  0.329700  0.179100  1.0  -0.1112
  C  C162  1  0.362000  0.304000  0.212200  1.0  0.0498
  C  C163  1  0.354200  0.236400  0.075400  1.0  0.6922
  C  C164  1  0.263600  0.953900  0.230500  1.0  0.6346
  C  C165  1  0.072800  0.940800  0.293600  1.0  -0.0833
  C  C166  1  0.011300  0.908100  0.323500  1.0  -0.1192
  C  C167  1  0.064500  0.858000  0.323000  1.0  0.0429
  C  C168  1  0.178500  0.840500  0.292500  1.0  -0.1324
  C  C169  1  0.240700  0.873100  0.262500  1.0  -0.0566
  C  C170  1  0.187800  0.923200  0.263000  1.0  -0.1587
  C  C171  1  0.340400  0.888800  0.005600  1.0  0.1433
  C  C172  1  0.314400  0.945900  0.954500  1.0  0.4434
  C  C173  1  0.345800  0.999300  0.889500  1.0  0.3245
  C  C174  1  0.506600  0.926700  0.904700  1.0  0.1989
  C  C175  1  0.429500  0.914900  0.941100  1.0  0.3099
  C  C176  1  0.212100  0.601700  0.614700  1.0  0.6907
  C  C177  1  0.153900  0.663900  0.682700  1.0  -0.0186
  C  C178  1  0.075400  0.686400  0.724800  1.0  -0.1388
  C  C179  1  0.961900  0.672400  0.742800  1.0  0.0551
  C  C180  1  0.927000  0.635900  0.718700  1.0  -0.1246
  C  C181  1  0.005600  0.613300  0.676500  1.0  -0.0229
  C  C182  1  0.118900  0.627400  0.658600  1.0  -0.1412
  C  C183  1  0.885300  0.743900  0.798900  1.0  -0.2036
  C  C184  1  0.816500  0.766100  0.842900  1.0  -0.0576
  C  C185  1  0.740600  0.740400  0.875800  1.0  -0.1296
  C  C186  1  0.733500  0.692400  0.864800  1.0  -0.0265
  C  C187  1  0.802200  0.670300  0.820900  1.0  -0.1093
  C  C188  1  0.878200  0.696000  0.787800  1.0  0.0498
  C  C189  1  0.666000  0.763600  0.924600  1.0  0.6918
  C  C190  1  0.448000  0.046100  0.769500  1.0  0.6366
  C  C191  1  0.307200  0.059200  0.706400  1.0  -0.0834
  C  C192  1  0.242900  0.091900  0.676500  1.0  -0.1191
  C  C193  1  0.245500  0.142000  0.677000  1.0  0.0438
  C  C194  1  0.311500  0.159500  0.707500  1.0  -0.1317
  C  C195  1  0.376300  0.126900  0.737500  1.0  -0.0567
  C  C196  1  0.374000  0.076800  0.737000  1.0  -0.162
  C  C197  1  0.479200  0.505600  0.611200  1.0  0.1448
  C  C198  1  0.510300  0.454500  0.554100  1.0  0.4432
  C  C199  1  0.595100  0.389500  0.500700  1.0  0.325
  C  C200  1  0.683300  0.404700  0.573300  1.0  0.2039
  C  C201  1  0.594400  0.441100  0.585100  1.0  0.3098
  C  C202  1  0.063800  0.114700  0.898300  1.0  0.6874
  C  C203  1  0.067800  0.182700  0.836100  1.0  -0.0171
  C  C204  1  0.011800  0.224800  0.813600  1.0  -0.1348
  C  C205  1  0.884300  0.242800  0.827600  1.0  0.056
  C  C206  1  0.812900  0.218700  0.864100  1.0  -0.1255
  C  C207  1  0.868900  0.176500  0.886700  1.0  -0.0261
  C  C208  1  0.996300  0.158600  0.872600  1.0  -0.1367
  C  C209  1  0.879200  0.298900  0.756100  1.0  -0.2043
  C  C210  1  0.832600  0.342900  0.733900  1.0  -0.0558
  C  C211  1  0.731000  0.375800  0.759600  1.0  -0.1289
  C  C212  1  0.675900  0.364800  0.807600  1.0  -0.0285
  C  C213  1  0.722500  0.320900  0.829700  1.0  -0.112
  C  C214  1  0.824200  0.287800  0.804000  1.0  0.0497
  C  C215  1  0.679600  0.424600  0.736400  1.0  0.6891
  C  C216  1  0.744100  0.269500  0.453900  1.0  0.6397
  C  C217  1  0.616400  0.206400  0.440800  1.0  -0.0871
  C  C218  1  0.584800  0.176500  0.408100  1.0  -0.1164
  C  C219  1  0.637500  0.177000  0.358000  1.0  0.043
  C  C220  1  0.721000  0.207500  0.340500  1.0  -0.1331
  C  C221  1  0.753200  0.237500  0.373100  1.0  -0.0572
  C  C222  1  0.700800  0.237000  0.423200  1.0  -0.1612
  C  C223  1  0.596000  0.494400  0.388800  1.0  0.1436
  C  C224  1  0.518900  0.545500  0.445900  1.0  0.4438
  C  C225  1  0.485300  0.610500  0.499300  1.0  0.326
  C  C226  1  0.661300  0.595300  0.426700  1.0  0.2037
  C  C227  1  0.620600  0.558900  0.414900  1.0  0.3109
  C  C228  1  0.076800  0.885300  0.101700  1.0  0.687
  C  C229  1  0.086600  0.817300  0.163900  1.0  -0.0159
  C  C230  1  0.050200  0.775200  0.186400  1.0  -0.1373
  C  C231  1  0.954700  0.757200  0.172400  1.0  0.055
  C  C232  1  0.895700  0.781300  0.135900  1.0  -0.1238
  C  C233  1  0.932100  0.823500  0.113300  1.0  -0.0281
  C  C234  1  0.027500  0.841400  0.127400  1.0  -0.137
  C  C235  1  0.934200  0.701100  0.243900  1.0  -0.2039
  C  C236  1  0.909400  0.657100  0.266100  1.0  -0.0544
  C  C237  1  0.866400  0.624200  0.240400  1.0  -0.1292
  C  C238  1  0.848300  0.635200  0.192400  1.0  -0.0293
  C  C239  1  0.873100  0.679100  0.170300  1.0  -0.1131
  C  C240  1  0.916000  0.712200  0.196000  1.0  0.0519
  C  C241  1  0.840600  0.575400  0.263600  1.0  0.6889
  C  C242  1  0.467500  0.730500  0.546100  1.0  0.6394
  C  C243  1  0.263600  0.793600  0.559200  1.0  -0.0829
  C  C244  1  0.169400  0.823500  0.591900  1.0  -0.1179
  C  C245  1  0.172500  0.823000  0.642000  1.0  0.0431
  C  C246  1  0.269000  0.792500  0.659500  1.0  -0.1322
  C  C247  1  0.363800  0.762500  0.626900  1.0  -0.0569
  C  C248  1  0.361000  0.763000  0.576800  1.0  -0.1628
  C  C249  1  0.909600  0.494400  0.611200  1.0  0.1445
  C  C250  1  0.935600  0.545500  0.554100  1.0  0.4444
  C  C251  1  0.904200  0.610500  0.500700  1.0  0.3256
  C  C252  1  0.743400  0.595300  0.573300  1.0  0.2041
  C  C253  1  0.820500  0.558900  0.585100  1.0  0.3123
  C  C254  1  0.037900  0.885300  0.898300  1.0  0.6861
  C  C255  1  0.096100  0.817300  0.836100  1.0  -0.0151
  C  C256  1  0.174600  0.775200  0.813600  1.0  -0.1363
  C  C257  1  0.288100  0.757200  0.827600  1.0  0.0559
  C  C258  1  0.323000  0.781300  0.864100  1.0  -0.1234
  C  C259  1  0.244400  0.823500  0.886700  1.0  -0.0281
  C  C260  1  0.131100  0.841400  0.872600  1.0  -0.1374
  C  C261  1  0.364700  0.701100  0.756100  1.0  -0.203
  C  C262  1  0.433500  0.657100  0.733900  1.0  -0.055
  C  C263  1  0.509400  0.624200  0.759600  1.0  -0.1282
  C  C264  1  0.516500  0.635200  0.807600  1.0  -0.0292
  C  C265  1  0.447800  0.679100  0.829700  1.0  -0.1114
  C  C266  1  0.371800  0.712200  0.804000  1.0  0.0521
  C  C267  1  0.584000  0.575400  0.736400  1.0  0.6884
  C  C268  1  0.802000  0.730500  0.453900  1.0  0.6374
  C  C269  1  0.942800  0.793600  0.440800  1.0  -0.0834
  C  C270  1  0.007100  0.823500  0.408100  1.0  -0.1172
  C  C271  1  0.004500  0.823000  0.358000  1.0  0.0412
  C  C272  1  0.938500  0.792500  0.340500  1.0  -0.1327
  C  C273  1  0.873700  0.762500  0.373100  1.0  -0.0568
  C  C274  1  0.876000  0.763000  0.423200  1.0  -0.1615
  C  C275  1  0.015200  0.505600  0.388800  1.0  0.1442
  C  C276  1  0.035200  0.454500  0.445900  1.0  0.4438
  C  C277  1  0.015400  0.389500  0.499300  1.0  0.3248
  C  C278  1  0.912000  0.404700  0.426700  1.0  0.202
  C  C279  1  0.964500  0.441100  0.414900  1.0  0.312
  C  C280  1  0.821500  0.114700  0.101700  1.0  0.6856
  C  C281  1  0.749500  0.182700  0.163900  1.0  -0.0169
  C  C282  1  0.763400  0.224800  0.186400  1.0  -0.1347
  C  C283  1  0.872900  0.242800  0.172400  1.0  0.0545
  C  C284  1  0.968400  0.218700  0.135900  1.0  -0.1257
  C  C285  1  0.954600  0.176500  0.113300  1.0  -0.0265
  C  C286  1  0.845100  0.158600  0.127400  1.0  -0.1366
  C  C287  1  0.821900  0.298900  0.243900  1.0  -0.2025
  C  C288  1  0.824500  0.342900  0.266100  1.0  -0.0535
  C  C289  1  0.893200  0.375800  0.240400  1.0  -0.1291
  C  C290  1  0.959300  0.364800  0.192400  1.0  -0.0265
  C  C291  1  0.956600  0.320900  0.170300  1.0  -0.1112
  C  C292  1  0.888000  0.287800  0.196000  1.0  0.0509
  C  C293  1  0.895800  0.424600  0.263600  1.0  0.6902
  C  C294  1  0.986400  0.269500  0.546100  1.0  0.6401
  C  C295  1  0.177200  0.206400  0.559200  1.0  -0.0846
  C  C296  1  0.238700  0.176500  0.591900  1.0  -0.116
  C  C297  1  0.185500  0.177000  0.642000  1.0  0.0449
  C  C298  1  0.071500  0.207500  0.659500  1.0  -0.1327
  C  C299  1  0.009300  0.237500  0.626900  1.0  -0.0601
  C  C300  1  0.062200  0.237000  0.576800  1.0  -0.16
  C  C301  1  0.654000  0.111200  0.005600  1.0  0.1443
  C  C302  1  0.731100  0.054100  0.954500  1.0  0.4428
  C  C303  1  0.764700  0.000700  0.889500  1.0  0.3262
  C  C304  1  0.588700  0.073300  0.904700  1.0  0.2035
  C  C305  1  0.629400  0.085100  0.941100  1.0  0.312
  C  C306  1  0.173200  0.398300  0.614700  1.0  0.6898
  C  C307  1  0.163400  0.336100  0.682700  1.0  -0.0171
  C  C308  1  0.199800  0.313600  0.724800  1.0  -0.1369
  C  C309  1  0.295300  0.327600  0.742800  1.0  0.0547
  C  C310  1  0.354300  0.364100  0.718700  1.0  -0.1239
  C  C311  1  0.317900  0.386700  0.676500  1.0  -0.0239
  C  C312  1  0.222500  0.372600  0.658600  1.0  -0.1402
  C  C313  1  0.315800  0.256100  0.798900  1.0  -0.2032
  C  C314  1  0.340600  0.233900  0.842900  1.0  -0.0577
  C  C315  1  0.383600  0.259600  0.875800  1.0  -0.128
  C  C316  1  0.401700  0.307600  0.864800  1.0  -0.0279
  C  C317  1  0.376900  0.329700  0.820900  1.0  -0.111
  C  C318  1  0.334000  0.304000  0.787800  1.0  0.0504
  C  C319  1  0.409400  0.236400  0.924600  1.0  0.6924
  C  C320  1  0.782500  0.953900  0.769500  1.0  0.6364
  C  C321  1  0.986400  0.940800  0.706400  1.0  -0.0824
  C  C322  1  0.080600  0.908100  0.676500  1.0  -0.1169
  C  C323  1  0.077500  0.858000  0.677000  1.0  0.0439
  C  C324  1  0.981000  0.840500  0.707500  1.0  -0.1332
  C  C325  1  0.886200  0.873100  0.737500  1.0  -0.0566
  C  C326  1  0.889000  0.923200  0.737000  1.0  -0.1584
  C  C327  1  0.770800  0.888800  0.994400  1.0  0.1418
  C  C328  1  0.739700  0.945900  0.045500  1.0  0.4431
  C  C329  1  0.654900  0.999300  0.110500  1.0  0.3244
  C  C330  1  0.566700  0.926700  0.095300  1.0  0.2015
  C  C331  1  0.655600  0.914900  0.058900  1.0  0.3116
  C  C332  1  0.186200  0.601700  0.385300  1.0  0.689
  C  C333  1  0.182200  0.663900  0.317300  1.0  -0.0202
  C  C334  1  0.238200  0.686400  0.275200  1.0  -0.1374
  C  C335  1  0.365700  0.672400  0.257200  1.0  0.0552
  C  C336  1  0.437100  0.635900  0.281300  1.0  -0.1248
  C  C337  1  0.381100  0.613300  0.323500  1.0  -0.0232
  C  C338  1  0.253700  0.627400  0.341400  1.0  -0.141
  C  C339  1  0.370800  0.743900  0.201100  1.0  -0.2024
  C  C340  1  0.417400  0.766100  0.157100  1.0  -0.0579
  C  C341  1  0.519000  0.740400  0.124200  1.0  -0.128
  C  C342  1  0.574100  0.692400  0.135200  1.0  -0.0257
  C  C343  1  0.527500  0.670300  0.179100  1.0  -0.1088
  C  C344  1  0.425800  0.696000  0.212200  1.0  0.0501
  C  C345  1  0.570400  0.763600  0.075400  1.0  0.691
  C  C346  1  0.505900  0.046100  0.230500  1.0  0.6342
  C  C347  1  0.633600  0.059200  0.293600  1.0  -0.0835
  C  C348  1  0.665200  0.091900  0.323500  1.0  -0.1189
  C  C349  1  0.612500  0.142000  0.323000  1.0  0.0425
  C  C350  1  0.529000  0.159500  0.292500  1.0  -0.1314
  C  C351  1  0.496800  0.126900  0.262500  1.0  -0.0574
  C  C352  1  0.549200  0.076800  0.263000  1.0  -0.161
  N  N353  1  0.183200  0.071800  0.005800  1.0  -0.3262
  N  N354  1  0.183400  0.012900  0.069900  1.0  -0.3831
  N  N355  1  0.306000  0.027300  0.122700  1.0  -0.4053
  N  N356  1  0.304100  0.125600  0.027200  1.0  -0.4944
  N  N357  1  0.409410  0.107990  0.108190  1.0  -0.6805
  N  N358  1  0.260800  0.928200  0.994200  1.0  -0.3276
  N  N359  1  0.266200  0.987100  0.930100  1.0  -0.3821
  N  N360  1  0.456000  0.972700  0.877300  1.0  -0.4043
  N  N361  1  0.456900  0.874400  0.972800  1.0  -0.4939
  N  N362  1  0.625590  0.892010  0.891810  1.0  -0.68
  N  N363  1  0.439000  0.494200  0.571800  1.0  -0.3275
  N  N364  1  0.503300  0.430100  0.512900  1.0  -0.383
  N  N365  1  0.678700  0.377300  0.527300  1.0  -0.4053
  N  N366  1  0.581300  0.472800  0.625600  1.0  -0.4929
  N  N367  1  0.767600  0.391810  0.607990  1.0  -0.6817
  N  N368  1  0.505000  0.505800  0.428200  1.0  -0.3293
  N  N369  1  0.446300  0.569900  0.487100  1.0  -0.3848
  N  N370  1  0.583300  0.622700  0.472700  1.0  -0.4054
  N  N371  1  0.679700  0.527200  0.374400  1.0  -0.4923
  N  N372  1  0.767400  0.608190  0.392010  1.0  -0.6814
  N  N373  1  0.989200  0.505800  0.571800  1.0  -0.3277
  N  N374  1  0.983800  0.569900  0.512900  1.0  -0.3832
  N  N375  1  0.794000  0.622700  0.527300  1.0  -0.4042
  N  N376  1  0.793100  0.527200  0.625600  1.0  -0.4954
  N  N377  1  0.624410  0.608190  0.607990  1.0  -0.6836
  N  N378  1  0.066800  0.494200  0.428200  1.0  -0.3261
  N  N379  1  0.066600  0.430100  0.487100  1.0  -0.3825
  N  N380  1  0.944000  0.377300  0.472700  1.0  -0.406
  N  N381  1  0.945900  0.472800  0.374400  1.0  -0.4936
  N  N382  1  0.840590  0.391810  0.392010  1.0  -0.6802
  N  N383  1  0.745000  0.071800  0.994200  1.0  -0.3253
  N  N384  1  0.803700  0.012900  0.930100  1.0  -0.3821
  N  N385  1  0.666667  0.027300  0.877300  1.0  -0.404
  N  N386  1  0.570300  0.125600  0.972800  1.0  -0.4969
  N  N387  1  0.482600  0.107990  0.891810  1.0  -0.6815
  N  N388  1  0.811000  0.928200  0.005800  1.0  -0.3265
  N  N389  1  0.746700  0.987100  0.069900  1.0  -0.3825
  N  N390  1  0.571300  0.972700  0.122700  1.0  -0.4055
  N  N391  1  0.668700  0.874400  0.027200  1.0  -0.4971
  N  N392  1  0.482400  0.892010  0.108190  1.0  -0.6807
  O  O393  1  0.531500  0.390200  0.393400  1.0  -0.5472
  O  O394  1  0.337300  0.430200  0.406400  1.0  -0.5876
  O  O395  1  0.441300  0.199900  0.059700  1.0  -0.6156
  O  O396  1  0.271500  0.250000  0.053200  1.0  -0.5553
  O  O397  1  0.347300  0.939700  0.197700  1.0  -0.5537
  O  O398  1  0.236700  0.999400  0.242000  1.0  -0.6609
  O  O399  1  0.315100  0.609800  0.606600  1.0  -0.5481
  O  O400  1  0.173900  0.569800  0.593600  1.0  -0.589
  O  O401  1  0.700900  0.800100  0.940300  1.0  -0.6127
  O  O402  1  0.574700  0.750000  0.946800  1.0  -0.5559
  O  O403  1  0.484700  0.060300  0.802300  1.0  -0.5529
  O  O404  1  0.478100  0.000600  0.758000  1.0  -0.6635
  O  O405  1  0.174900  0.106600  0.890200  1.0  -0.5498
  O  O406  1  0.993700  0.093600  0.930200  1.0  -0.5885
  O  O407  1  0.751000  0.440300  0.699900  1.0  -0.6141
  O  O408  1  0.574700  0.446800  0.750000  1.0  -0.5569
  O  O409  1  0.795000  0.302300  0.439700  1.0  -0.5541
  O  O410  1  0.728700  0.258000  0.499400  1.0  -0.6639
  O  O411  1  0.171700  0.893400  0.109800  1.0  -0.5481
  O  O412  1  0.017500  0.906400  0.069800  1.0  -0.5883
  O  O413  1  0.891200  0.559700  0.300100  1.0  -0.6119
  O  O414  1  0.771500  0.553200  0.250000  1.0  -0.5577
  O  O415  1  0.537000  0.697700  0.560300  1.0  -0.5544
  O  O416  1  0.486100  0.742000  0.500600  1.0  -0.6626
  O  O417  1  0.934900  0.893400  0.890200  1.0  -0.5473
  O  O418  1  0.076100  0.906400  0.930200  1.0  -0.5865
  O  O419  1  0.549100  0.559700  0.699900  1.0  -0.6124
  O  O420  1  0.675300  0.553200  0.750000  1.0  -0.5538
  O  O421  1  0.765300  0.697700  0.439700  1.0  -0.554
  O  O422  1  0.771900  0.742000  0.499400  1.0  -0.6632
  O  O423  1  0.718500  0.106600  0.109800  1.0  -0.5477
  O  O424  1  0.912700  0.093600  0.069800  1.0  -0.5871
  O  O425  1  0.808700  0.440300  0.300100  1.0  -0.6132
  O  O426  1  0.978500  0.446800  0.250000  1.0  -0.556
  O  O427  1  0.902700  0.302300  0.560300  1.0  -0.5546
  O  O428  1  0.013300  0.258000  0.500600  1.0  -0.6602
  O  O429  1  0.078300  0.390200  0.606600  1.0  -0.5472
  O  O430  1  0.232500  0.430200  0.593600  1.0  -0.5861
  O  O431  1  0.358800  0.199900  0.940300  1.0  -0.6125
  O  O432  1  0.478500  0.250000  0.946800  1.0  -0.5545
  O  O433  1  0.713000  0.939700  0.802300  1.0  -0.5547
  O  O434  1  0.763900  0.999400  0.758000  1.0  -0.6615
  O  O435  1  0.075100  0.609800  0.393400  1.0  -0.5469
  O  O436  1  0.256300  0.569800  0.406400  1.0  -0.5879
  O  O437  1  0.499000  0.800100  0.059700  1.0  -0.6138
  O  O438  1  0.675300  0.750000  0.053200  1.0  -0.5564
  O  O439  1  0.455000  0.060300  0.197700  1.0  -0.554
  O  O440  1  0.521300  0.000600  0.242000  1.0  -0.6637
  O  O441  1  0.250000  0.500000  0.500000  1.0  -1.0905
  O  O442  1  0.000000  0.000000  0.000000  1.0  -1.0906
