# generated using pymatgen
data_Mg3H8C14(NO5)2
_symmetry_space_group_name_H-M   'P 1'
_cell_length_a   10.86090000
_cell_length_b   14.30880000
_cell_length_c   17.01980000
_cell_angle_alpha   90.00000000
_cell_angle_beta   105.94000000
_cell_angle_gamma   90.00000000
_symmetry_Int_Tables_number   1
_chemical_formula_structural   Mg3H8C14(NO5)2
_chemical_formula_sum   'Mg12 H32 C56 N8 O40'
_cell_volume   2543.28640462
_cell_formula_units_Z   4
loop_
 _symmetry_equiv_pos_site_id
 _symmetry_equiv_pos_as_xyz
  1  'x, y, z'
loop_
 _atom_site_type_symbol
 _atom_site_label
 _atom_site_symmetry_multiplicity
 _atom_site_fract_x
 _atom_site_fract_y
 _atom_site_fract_z
 _atom_site_occupancy
 _atom_site_charge
  Mg  Mg1  1  0.949620  0.470790  0.908530  1.0  1.447
  Mg  Mg2  1  0.249750  0.590830  0.999510  1.0  1.4851
  Mg  Mg3  1  0.451950  0.531120  0.909900  1.0  1.4426
  Mg  Mg4  1  0.550380  0.970790  0.591470  1.0  1.4475
  Mg  Mg5  1  0.250250  0.090830  0.500490  1.0  1.485
  Mg  Mg6  1  0.048050  0.031120  0.590100  1.0  1.4428
  Mg  Mg7  1  0.050380  0.529210  0.091470  1.0  1.446
  Mg  Mg8  1  0.750250  0.409170  0.000490  1.0  1.4881
  Mg  Mg9  1  0.548050  0.468880  0.090100  1.0  1.4439
  Mg  Mg10  1  0.449620  0.029210  0.408530  1.0  1.446
  Mg  Mg11  1  0.749750  0.909170  0.499510  1.0  1.4879
  Mg  Mg12  1  0.951950  0.968880  0.409900  1.0  1.4446
  H  H13  1  0.631000  0.709100  0.758600  1.0  0.0896
  H  H14  1  0.928000  0.688200  0.657300  1.0  0.0889
  H  H15  1  0.009000  0.567100  0.749400  1.0  0.0497
  H  H16  1  0.476000  0.625800  0.035100  1.0  0.453
  H  H17  1  0.021000  0.627800  0.963700  1.0  0.4559
  H  H18  1  0.125000  0.298000  0.751600  1.0  0.0898
  H  H19  1  0.442000  0.296700  0.670600  1.0  0.0871
  H  H20  1  0.525000  0.419900  0.763100  1.0  0.0489
  H  H21  1  0.869000  0.209100  0.741400  1.0  0.09
  H  H22  1  0.572000  0.188200  0.842700  1.0  0.0891
  H  H23  1  0.491000  0.067100  0.750600  1.0  0.0496
  H  H24  1  0.024000  0.125800  0.464900  1.0  0.4529
  H  H25  1  0.479000  0.127800  0.536300  1.0  0.4557
  H  H26  1  0.375000  0.798000  0.748400  1.0  0.089
  H  H27  1  0.058000  0.796700  0.829400  1.0  0.0869
  H  H28  1  0.975000  0.919900  0.736900  1.0  0.0491
  H  H29  1  0.369000  0.290900  0.241400  1.0  0.0893
  H  H30  1  0.072000  0.311800  0.342700  1.0  0.0887
  H  H31  1  0.991000  0.432900  0.250600  1.0  0.0497
  H  H32  1  0.524000  0.374200  0.964900  1.0  0.4548
  H  H33  1  0.979000  0.372200  0.036300  1.0  0.459
  H  H34  1  0.875000  0.702000  0.248400  1.0  0.0894
  H  H35  1  0.558000  0.703300  0.329400  1.0  0.0877
  H  H36  1  0.475000  0.580100  0.236900  1.0  0.0494
  H  H37  1  0.131000  0.790900  0.258600  1.0  0.0896
  H  H38  1  0.428000  0.811800  0.157300  1.0  0.0882
  H  H39  1  0.509000  0.932900  0.249400  1.0  0.0495
  H  H40  1  0.976000  0.874200  0.535100  1.0  0.4564
  H  H41  1  0.521000  0.872200  0.463700  1.0  0.4576
  H  H42  1  0.625000  0.202000  0.251600  1.0  0.09
  H  H43  1  0.942000  0.203300  0.170600  1.0  0.0876
  H  H44  1  0.025000  0.080100  0.263100  1.0  0.0492
  C  C45  1  0.763660  0.608010  0.804950  1.0  0.0785
  C  C46  1  0.709720  0.682010  0.754390  1.0  -0.1064
  C  C47  1  0.772780  0.714410  0.698740  1.0  -0.1414
  C  C48  1  0.885330  0.670380  0.694810  1.0  -0.0813
  C  C49  1  0.933260  0.597940  0.748900  1.0  0.1277
  C  C50  1  0.700500  0.565610  0.865560  1.0  0.6404
  C  C51  1  0.723460  0.796260  0.642970  1.0  0.6796
  C  C52  1  0.263240  0.394130  0.802970  1.0  0.0881
  C  C53  1  0.208490  0.320600  0.751780  1.0  -0.1063
  C  C54  1  0.278000  0.281610  0.702670  1.0  -0.1485
  C  C55  1  0.397200  0.319070  0.705060  1.0  -0.0954
  C  C56  1  0.444070  0.392670  0.758230  1.0  0.1192
  C  C57  1  0.198170  0.438220  0.861620  1.0  0.6461
  C  C58  1  0.228500  0.198950  0.646710  1.0  0.6561
  C  C59  1  0.736340  0.108010  0.695050  1.0  0.0781
  C  C60  1  0.790280  0.182010  0.745610  1.0  -0.1072
  C  C61  1  0.727220  0.214410  0.801260  1.0  -0.1434
  C  C62  1  0.614670  0.170380  0.805190  1.0  -0.0821
  C  C63  1  0.566740  0.097940  0.751100  1.0  0.1292
  C  C64  1  0.799500  0.065610  0.634440  1.0  0.641
  C  C65  1  0.776540  0.296260  0.857030  1.0  0.6793
  C  C66  1  0.236760  0.894130  0.697030  1.0  0.089
  C  C67  1  0.291510  0.820600  0.748220  1.0  -0.1089
  C  C68  1  0.222000  0.781610  0.797330  1.0  -0.1487
  C  C69  1  0.102800  0.819070  0.794940  1.0  -0.0975
  C  C70  1  0.055930  0.892670  0.741770  1.0  0.1203
  C  C71  1  0.301830  0.938220  0.638380  1.0  0.6466
  C  C72  1  0.271500  0.698950  0.853290  1.0  0.6564
  C  C73  1  0.236340  0.391990  0.195050  1.0  0.078
  C  C74  1  0.290280  0.317990  0.245610  1.0  -0.1067
  C  C75  1  0.227220  0.285590  0.301260  1.0  -0.1417
  C  C76  1  0.114670  0.329620  0.305190  1.0  -0.0828
  C  C77  1  0.066740  0.402060  0.251100  1.0  0.1285
  C  C78  1  0.299500  0.434390  0.134440  1.0  0.6402
  C  C79  1  0.276540  0.203740  0.357030  1.0  0.6792
  C  C80  1  0.736760  0.605870  0.197030  1.0  0.0894
  C  C81  1  0.791510  0.679400  0.248220  1.0  -0.1083
  C  C82  1  0.722000  0.718390  0.297330  1.0  -0.1492
  C  C83  1  0.602800  0.680930  0.294940  1.0  -0.0971
  C  C84  1  0.555930  0.607330  0.241770  1.0  0.1206
  C  C85  1  0.801830  0.561780  0.138380  1.0  0.6469
  C  C86  1  0.771500  0.801050  0.353290  1.0  0.6562
  C  C87  1  0.263660  0.891990  0.304950  1.0  0.0783
  C  C88  1  0.209720  0.817990  0.254390  1.0  -0.106
  C  C89  1  0.272780  0.785590  0.198740  1.0  -0.1404
  C  C90  1  0.385330  0.829620  0.194810  1.0  -0.0812
  C  C91  1  0.433260  0.902060  0.248900  1.0  0.1287
  C  C92  1  0.200500  0.934390  0.365560  1.0  0.6396
  C  C93  1  0.223460  0.703740  0.142970  1.0  0.6796
  C  C94  1  0.763240  0.105870  0.302970  1.0  0.0884
  C  C95  1  0.708490  0.179400  0.251780  1.0  -0.1059
  C  C96  1  0.778000  0.218390  0.202670  1.0  -0.1491
  C  C97  1  0.897200  0.180930  0.205060  1.0  -0.0959
  C  C98  1  0.944070  0.107330  0.258230  1.0  0.118
  C  C99  1  0.698170  0.061780  0.361620  1.0  0.6463
  C  C100  1  0.728500  0.301050  0.146710  1.0  0.6563
  N  N101  1  0.875180  0.567410  0.804060  1.0  -0.3515
  N  N102  1  0.379920  0.429580  0.807280  1.0  -0.3683
  N  N103  1  0.624820  0.067410  0.695940  1.0  -0.3508
  N  N104  1  0.120080  0.929580  0.692720  1.0  -0.3682
  N  N105  1  0.124820  0.432590  0.195940  1.0  -0.3521
  N  N106  1  0.620080  0.570420  0.192720  1.0  -0.3673
  N  N107  1  0.375180  0.932590  0.304060  1.0  -0.3525
  N  N108  1  0.879920  0.070420  0.307280  1.0  -0.3678
  O  O109  1  0.769370  0.509520  0.916530  1.0  -0.7361
  O  O110  1  0.587870  0.586200  0.860650  1.0  -0.6503
  O  O111  1  0.645600  0.851680  0.661600  1.0  -0.6312
  O  O112  1  0.765140  0.802900  0.581310  1.0  -0.6436
  O  O113  1  0.446900  0.579220  0.021750  1.0  -1.0221
  O  O114  1  0.049180  0.580220  0.978640  1.0  -1.06
  O  O115  1  0.267640  0.490360  0.915270  1.0  -0.7211
  O  O116  1  0.083230  0.420570  0.854340  1.0  -0.6535
  O  O117  1  0.148020  0.145530  0.663690  1.0  -0.6234
  O  O118  1  0.275770  0.191110  0.587470  1.0  -0.635
  O  O119  1  0.730630  0.009520  0.583470  1.0  -0.7352
  O  O120  1  0.912130  0.086200  0.639350  1.0  -0.6503
  O  O121  1  0.854400  0.351680  0.838400  1.0  -0.6326
  O  O122  1  0.734860  0.302900  0.918690  1.0  -0.6442
  O  O123  1  0.053100  0.079220  0.478250  1.0  -1.022
  O  O124  1  0.450820  0.080220  0.521360  1.0  -1.06
  O  O125  1  0.232360  0.990360  0.584730  1.0  -0.7223
  O  O126  1  0.416770  0.920570  0.645660  1.0  -0.6529
  O  O127  1  0.351980  0.645530  0.836310  1.0  -0.6227
  O  O128  1  0.224230  0.691110  0.912530  1.0  -0.6353
  O  O129  1  0.230630  0.490480  0.083470  1.0  -0.7342
  O  O130  1  0.412130  0.413800  0.139350  1.0  -0.6503
  O  O131  1  0.354400  0.148320  0.338400  1.0  -0.632
  O  O132  1  0.234860  0.197100  0.418690  1.0  -0.6422
  O  O133  1  0.553100  0.420780  0.978250  1.0  -1.0227
  O  O134  1  0.950820  0.419780  0.021360  1.0  -1.0597
  O  O135  1  0.732360  0.509640  0.084730  1.0  -0.7227
  O  O136  1  0.916770  0.579430  0.145660  1.0  -0.6536
  O  O137  1  0.851980  0.854470  0.336310  1.0  -0.6232
  O  O138  1  0.724230  0.808890  0.412530  1.0  -0.6383
  O  O139  1  0.269370  0.990480  0.416530  1.0  -0.7347
  O  O140  1  0.087870  0.913800  0.360650  1.0  -0.65
  O  O141  1  0.145600  0.648320  0.161600  1.0  -0.6316
  O  O142  1  0.265140  0.697100  0.081310  1.0  -0.6431
  O  O143  1  0.946900  0.920780  0.521750  1.0  -1.0212
  O  O144  1  0.549180  0.919780  0.478640  1.0  -1.0611
  O  O145  1  0.767640  0.009640  0.415270  1.0  -0.7215
  O  O146  1  0.583230  0.079430  0.354340  1.0  -0.653
  O  O147  1  0.648020  0.354470  0.163690  1.0  -0.623
  O  O148  1  0.775770  0.308890  0.087470  1.0  -0.6357
