# generated using pymatgen
data_Mg3H8C14(NO5)2
_symmetry_space_group_name_H-M   'P 1'
_cell_length_a   18.16670000
_cell_length_b   12.51750000
_cell_length_c   11.02100000
_cell_angle_alpha   90.00000000
_cell_angle_beta   102.67200000
_cell_angle_gamma   90.00000000
_symmetry_Int_Tables_number   1
_chemical_formula_structural   Mg3H8C14(NO5)2
_chemical_formula_sum   'Mg12 H32 C56 N8 O40'
_cell_volume   2445.14756740
_cell_formula_units_Z   4
loop_
 _symmetry_equiv_pos_site_id
 _symmetry_equiv_pos_as_xyz
  1  'x, y, z'
loop_
 _atom_site_type_symbol
 _atom_site_label
 _atom_site_symmetry_multiplicity
 _atom_site_fract_x
 _atom_site_fract_y
 _atom_site_fract_z
 _atom_site_occupancy
 _atom_site_charge
  Mg  Mg1  1  0.084270  0.036320  0.040190  1.0  1.4502
  Mg  Mg2  1  0.584270  0.536320  0.040190  1.0  1.4502
  Mg  Mg3  1  0.915730  0.036320  0.459810  1.0  1.452
  Mg  Mg4  1  0.415730  0.536320  0.459810  1.0  1.452
  Mg  Mg5  1  0.915730  0.963680  0.959810  1.0  1.4514
  Mg  Mg6  1  0.415730  0.463680  0.959810  1.0  1.4514
  Mg  Mg7  1  0.084270  0.963680  0.540190  1.0  1.4489
  Mg  Mg8  1  0.584270  0.463680  0.540190  1.0  1.4489
  Mg  Mg9  1  0.000000  0.099150  0.250000  1.0  1.5018
  Mg  Mg10  1  0.500000  0.599150  0.250000  1.0  1.5019
  Mg  Mg11  1  0.000000  0.900850  0.750000  1.0  1.5029
  Mg  Mg12  1  0.500000  0.400850  0.750000  1.0  1.5029
  H  H13  1  0.962100  0.149000  0.028000  1.0  0.4833
  H  H14  1  0.246100  0.802000  0.355000  1.0  0.1393
  H  H15  1  0.333500  0.821000  0.061000  1.0  0.0794
  H  H16  1  0.232200  0.932000  0.971000  1.0  0.0388
  H  H17  1  0.462100  0.649000  0.028000  1.0  0.4833
  H  H18  1  0.746100  0.302000  0.355000  1.0  0.1393
  H  H19  1  0.833500  0.321000  0.061000  1.0  0.0794
  H  H20  1  0.732200  0.432000  0.971000  1.0  0.0388
  H  H21  1  0.037900  0.149000  0.472000  1.0  0.4831
  H  H22  1  0.753900  0.802000  0.145000  1.0  0.1392
  H  H23  1  0.666500  0.821000  0.439000  1.0  0.0802
  H  H24  1  0.767800  0.932000  0.529000  1.0  0.0378
  H  H25  1  0.537900  0.649000  0.472000  1.0  0.4831
  H  H26  1  0.253900  0.302000  0.145000  1.0  0.1392
  H  H27  1  0.166500  0.321000  0.439000  1.0  0.0802
  H  H28  1  0.267800  0.432000  0.529000  1.0  0.0378
  H  H29  1  0.037900  0.851000  0.972000  1.0  0.4846
  H  H30  1  0.753900  0.198000  0.645000  1.0  0.1378
  H  H31  1  0.666500  0.179000  0.939000  1.0  0.0799
  H  H32  1  0.767800  0.068000  0.029000  1.0  0.0383
  H  H33  1  0.537900  0.351000  0.972000  1.0  0.4846
  H  H34  1  0.253900  0.698000  0.645000  1.0  0.1378
  H  H35  1  0.166500  0.679000  0.939000  1.0  0.0799
  H  H36  1  0.267800  0.568000  0.029000  1.0  0.0383
  H  H37  1  0.962100  0.851000  0.528000  1.0  0.4845
  H  H38  1  0.246100  0.198000  0.855000  1.0  0.1377
  H  H39  1  0.333500  0.179000  0.561000  1.0  0.0792
  H  H40  1  0.232200  0.068000  0.471000  1.0  0.0388
  H  H41  1  0.462100  0.351000  0.528000  1.0  0.4845
  H  H42  1  0.746100  0.698000  0.855000  1.0  0.1377
  H  H43  1  0.833500  0.679000  0.561000  1.0  0.0792
  H  H44  1  0.732200  0.568000  0.471000  1.0  0.0388
  C  C45  1  0.188750  0.892010  0.226100  1.0  0.0797
  C  C46  1  0.245130  0.824500  0.283800  1.0  -0.0287
  C  C47  1  0.300730  0.795470  0.221800  1.0  -0.2083
  C  C48  1  0.297610  0.838200  0.104600  1.0  -0.0959
  C  C49  1  0.238570  0.904800  0.052400  1.0  0.1204
  C  C50  1  0.126930  0.930490  0.287600  1.0  0.6495
  C  C51  1  0.363310  0.717650  0.277500  1.0  0.6739
  C  C52  1  0.688750  0.392010  0.226100  1.0  0.0797
  C  C53  1  0.745130  0.324500  0.283800  1.0  -0.0287
  C  C54  1  0.800730  0.295470  0.221800  1.0  -0.2083
  C  C55  1  0.797610  0.338200  0.104600  1.0  -0.0959
  C  C56  1  0.738570  0.404800  0.052400  1.0  0.1204
  C  C57  1  0.626930  0.430490  0.287600  1.0  0.6495
  C  C58  1  0.863310  0.217650  0.277500  1.0  0.6739
  C  C59  1  0.811250  0.892010  0.273900  1.0  0.0813
  C  C60  1  0.754870  0.824500  0.216200  1.0  -0.0263
  C  C61  1  0.699270  0.795470  0.278200  1.0  -0.2076
  C  C62  1  0.702390  0.838200  0.395400  1.0  -0.0974
  C  C63  1  0.761430  0.904800  0.447600  1.0  0.12
  C  C64  1  0.873070  0.930490  0.212400  1.0  0.6486
  C  C65  1  0.636690  0.717650  0.222500  1.0  0.6747
  C  C66  1  0.311250  0.392010  0.273900  1.0  0.0813
  C  C67  1  0.254870  0.324500  0.216200  1.0  -0.0263
  C  C68  1  0.199270  0.295470  0.278200  1.0  -0.2076
  C  C69  1  0.202390  0.338200  0.395400  1.0  -0.0974
  C  C70  1  0.261430  0.404800  0.447600  1.0  0.12
  C  C71  1  0.373070  0.430490  0.212400  1.0  0.6486
  C  C72  1  0.136690  0.217650  0.222500  1.0  0.6747
  C  C73  1  0.811250  0.107990  0.773900  1.0  0.0819
  C  C74  1  0.754870  0.175500  0.716200  1.0  -0.0265
  C  C75  1  0.699270  0.204530  0.778200  1.0  -0.2071
  C  C76  1  0.702390  0.161800  0.895400  1.0  -0.0966
  C  C77  1  0.761430  0.095200  0.947600  1.0  0.1213
  C  C78  1  0.873070  0.069510  0.712400  1.0  0.649
  C  C79  1  0.636690  0.282350  0.722500  1.0  0.6745
  C  C80  1  0.311250  0.607990  0.773900  1.0  0.0819
  C  C81  1  0.254870  0.675500  0.716200  1.0  -0.0265
  C  C82  1  0.199270  0.704530  0.778200  1.0  -0.2071
  C  C83  1  0.202390  0.661800  0.895400  1.0  -0.0966
  C  C84  1  0.261430  0.595200  0.947600  1.0  0.1213
  C  C85  1  0.373070  0.569510  0.712400  1.0  0.649
  C  C86  1  0.136690  0.782350  0.722500  1.0  0.6745
  C  C87  1  0.188750  0.107990  0.726100  1.0  0.0805
  C  C88  1  0.245130  0.175500  0.783800  1.0  -0.0286
  C  C89  1  0.300730  0.204530  0.721800  1.0  -0.2079
  C  C90  1  0.297610  0.161800  0.604600  1.0  -0.0956
  C  C91  1  0.238570  0.095200  0.552400  1.0  0.1206
  C  C92  1  0.126930  0.069510  0.787600  1.0  0.6496
  C  C93  1  0.363310  0.282350  0.777500  1.0  0.6744
  C  C94  1  0.688750  0.607990  0.726100  1.0  0.0805
  C  C95  1  0.745130  0.675500  0.783800  1.0  -0.0286
  C  C96  1  0.800730  0.704530  0.721800  1.0  -0.2079
  C  C97  1  0.797610  0.661800  0.604600  1.0  -0.0956
  C  C98  1  0.738570  0.595200  0.552400  1.0  0.1206
  C  C99  1  0.626930  0.569510  0.787600  1.0  0.6496
  C  C100  1  0.863310  0.782350  0.777500  1.0  0.6744
  N  N101  1  0.184110  0.931870  0.110370  1.0  -0.3637
  N  N102  1  0.684110  0.431870  0.110370  1.0  -0.3637
  N  N103  1  0.815890  0.931870  0.389630  1.0  -0.3622
  N  N104  1  0.315890  0.431870  0.389630  1.0  -0.3622
  N  N105  1  0.815890  0.068130  0.889630  1.0  -0.3614
  N  N106  1  0.315890  0.568130  0.889630  1.0  -0.3614
  N  N107  1  0.184110  0.068130  0.610370  1.0  -0.3633
  N  N108  1  0.684110  0.568130  0.610370  1.0  -0.3633
  O  O109  1  0.075270  0.983680  0.218890  1.0  -0.7423
  O  O110  1  0.132100  0.909950  0.399360  1.0  -0.6811
  O  O111  1  0.354820  0.666030  0.370180  1.0  -0.6281
  O  O112  1  0.416920  0.711390  0.224040  1.0  -0.6558
  O  O113  1  0.979190  0.088400  0.054210  1.0  -1.0659
  O  O114  1  0.575270  0.483680  0.218890  1.0  -0.7423
  O  O115  1  0.632100  0.409950  0.399360  1.0  -0.6811
  O  O116  1  0.854820  0.166030  0.370180  1.0  -0.6281
  O  O117  1  0.916920  0.211390  0.224040  1.0  -0.6558
  O  O118  1  0.479190  0.588400  0.054210  1.0  -1.0659
  O  O119  1  0.924730  0.983680  0.281110  1.0  -0.7432
  O  O120  1  0.867900  0.909950  0.100640  1.0  -0.6798
  O  O121  1  0.645180  0.666030  0.129820  1.0  -0.6292
  O  O122  1  0.583080  0.711390  0.275960  1.0  -0.6554
  O  O123  1  0.020810  0.088400  0.445790  1.0  -1.0651
  O  O124  1  0.424730  0.483680  0.281110  1.0  -0.7432
  O  O125  1  0.367900  0.409950  0.100640  1.0  -0.6798
  O  O126  1  0.145180  0.166030  0.129820  1.0  -0.6292
  O  O127  1  0.083080  0.211390  0.275960  1.0  -0.6554
  O  O128  1  0.520810  0.588400  0.445790  1.0  -1.0651
  O  O129  1  0.924730  0.016320  0.781110  1.0  -0.744
  O  O130  1  0.867900  0.090050  0.600640  1.0  -0.6805
  O  O131  1  0.645180  0.333970  0.629820  1.0  -0.6287
  O  O132  1  0.583080  0.288610  0.775960  1.0  -0.6559
  O  O133  1  0.020810  0.911600  0.945790  1.0  -1.0648
  O  O134  1  0.424730  0.516320  0.781110  1.0  -0.744
  O  O135  1  0.367900  0.590050  0.600640  1.0  -0.6805
  O  O136  1  0.145180  0.833970  0.629820  1.0  -0.6287
  O  O137  1  0.083080  0.788610  0.775960  1.0  -0.6559
  O  O138  1  0.520810  0.411600  0.945790  1.0  -1.0648
  O  O139  1  0.075270  0.016320  0.718890  1.0  -0.7431
  O  O140  1  0.132100  0.090050  0.899360  1.0  -0.6812
  O  O141  1  0.354820  0.333970  0.870180  1.0  -0.6272
  O  O142  1  0.416920  0.288610  0.724040  1.0  -0.6546
  O  O143  1  0.979190  0.911600  0.554210  1.0  -1.0663
  O  O144  1  0.575270  0.516320  0.718890  1.0  -0.7431
  O  O145  1  0.632100  0.590050  0.899360  1.0  -0.6812
  O  O146  1  0.854820  0.833970  0.870180  1.0  -0.6272
  O  O147  1  0.916920  0.788610  0.724040  1.0  -0.6546
  O  O148  1  0.479190  0.411600  0.554210  1.0  -1.0663
