# generated using pymatgen
data_Mg3H8C14(NO5)2
_symmetry_space_group_name_H-M   'P 1'
_cell_length_a   17.99580000
_cell_length_b   12.85310000
_cell_length_c   11.03940000
_cell_angle_alpha   90.00000000
_cell_angle_beta   103.58800000
_cell_angle_gamma   90.00000000
_symmetry_Int_Tables_number   1
_chemical_formula_structural   Mg3H8C14(NO5)2
_chemical_formula_sum   'Mg12 H32 C56 N8 O40'
_cell_volume   2481.96326133
_cell_formula_units_Z   4
loop_
 _symmetry_equiv_pos_site_id
 _symmetry_equiv_pos_as_xyz
  1  'x, y, z'
loop_
 _atom_site_type_symbol
 _atom_site_label
 _atom_site_symmetry_multiplicity
 _atom_site_fract_x
 _atom_site_fract_y
 _atom_site_fract_z
 _atom_site_occupancy
 _atom_site_charge
  Mg  Mg1  1  0.414640  0.535770  0.458090  1.0  1.4564
  Mg  Mg2  1  0.914640  0.035770  0.458090  1.0  1.4564
  Mg  Mg3  1  0.585360  0.535770  0.041910  1.0  1.4557
  Mg  Mg4  1  0.085360  0.035770  0.041910  1.0  1.4557
  Mg  Mg5  1  0.585360  0.464230  0.541910  1.0  1.455
  Mg  Mg6  1  0.085360  0.964230  0.541910  1.0  1.455
  Mg  Mg7  1  0.414640  0.464230  0.958090  1.0  1.455
  Mg  Mg8  1  0.914640  0.964230  0.958090  1.0  1.455
  Mg  Mg9  1  0.500000  0.597730  0.250000  1.0  1.507
  Mg  Mg10  1  0.000000  0.097730  0.250000  1.0  1.5065
  Mg  Mg11  1  0.500000  0.402270  0.750000  1.0  1.5077
  Mg  Mg12  1  0.000000  0.902270  0.750000  1.0  1.5072
  H  H13  1  0.537200  0.636200  0.474000  1.0  0.4718
  H  H14  1  0.253900  0.299400  0.132000  1.0  0.0965
  H  H15  1  0.164600  0.319400  0.436000  1.0  0.0938
  H  H16  1  0.264100  0.434100  0.526000  1.0  0.056
  H  H17  1  0.037200  0.136200  0.474000  1.0  0.4718
  H  H18  1  0.753900  0.799400  0.132000  1.0  0.0965
  H  H19  1  0.664600  0.819400  0.436000  1.0  0.0938
  H  H20  1  0.764100  0.934100  0.526000  1.0  0.056
  H  H21  1  0.462800  0.636200  0.026000  1.0  0.471
  H  H22  1  0.746100  0.299400  0.368000  1.0  0.0966
  H  H23  1  0.835400  0.319400  0.064000  1.0  0.0925
  H  H24  1  0.735900  0.434100  0.974000  1.0  0.0566
  H  H25  1  0.962800  0.136200  0.026000  1.0  0.471
  H  H26  1  0.246100  0.799400  0.368000  1.0  0.0966
  H  H27  1  0.335400  0.819400  0.064000  1.0  0.0925
  H  H28  1  0.235900  0.934100  0.974000  1.0  0.0566
  H  H29  1  0.462800  0.363800  0.526000  1.0  0.473
  H  H30  1  0.746100  0.700600  0.868000  1.0  0.0964
  H  H31  1  0.835400  0.680600  0.564000  1.0  0.0924
  H  H32  1  0.735900  0.565900  0.474000  1.0  0.0564
  H  H33  1  0.962800  0.863800  0.526000  1.0  0.473
  H  H34  1  0.246100  0.200600  0.868000  1.0  0.0964
  H  H35  1  0.335400  0.180600  0.564000  1.0  0.0924
  H  H36  1  0.235900  0.065900  0.474000  1.0  0.0564
  H  H37  1  0.537200  0.363800  0.974000  1.0  0.4739
  H  H38  1  0.253900  0.700600  0.632000  1.0  0.0966
  H  H39  1  0.164600  0.680600  0.936000  1.0  0.0932
  H  H40  1  0.264100  0.565900  0.026000  1.0  0.0565
  H  H41  1  0.037200  0.863800  0.974000  1.0  0.4739
  H  H42  1  0.753900  0.200600  0.632000  1.0  0.0966
  H  H43  1  0.664600  0.180600  0.936000  1.0  0.0932
  H  H44  1  0.764100  0.065900  0.026000  1.0  0.0565
  C  C45  1  0.309260  0.394490  0.270460  1.0  0.0961
  C  C46  1  0.136550  0.216280  0.220920  1.0  0.6803
  C  C47  1  0.252850  0.325590  0.212430  1.0  -0.1061
  C  C48  1  0.198030  0.295360  0.275290  1.0  -0.1442
  C  C49  1  0.201590  0.336730  0.392370  1.0  -0.1182
  C  C50  1  0.370570  0.433740  0.209050  1.0  0.6419
  C  C51  1  0.260010  0.404420  0.444150  1.0  0.1116
  C  C52  1  0.809260  0.894490  0.270460  1.0  0.0961
  C  C53  1  0.636550  0.716280  0.220920  1.0  0.6803
  C  C54  1  0.752850  0.825590  0.212430  1.0  -0.1061
  C  C55  1  0.698030  0.795360  0.275290  1.0  -0.1442
  C  C56  1  0.701590  0.836730  0.392370  1.0  -0.1182
  C  C57  1  0.870570  0.933740  0.209050  1.0  0.6419
  C  C58  1  0.760010  0.904420  0.444150  1.0  0.1116
  C  C59  1  0.690740  0.394490  0.229540  1.0  0.0943
  C  C60  1  0.863450  0.216280  0.279080  1.0  0.6798
  C  C61  1  0.747150  0.325590  0.287570  1.0  -0.1084
  C  C62  1  0.801970  0.295360  0.224710  1.0  -0.1431
  C  C63  1  0.798410  0.336730  0.107630  1.0  -0.1175
  C  C64  1  0.629430  0.433740  0.290950  1.0  0.6418
  C  C65  1  0.739990  0.404420  0.055850  1.0  0.1113
  C  C66  1  0.190740  0.894490  0.229540  1.0  0.0943
  C  C67  1  0.363450  0.716280  0.279080  1.0  0.6798
  C  C68  1  0.247150  0.825590  0.287570  1.0  -0.1084
  C  C69  1  0.301970  0.795360  0.224710  1.0  -0.1431
  C  C70  1  0.298410  0.836730  0.107630  1.0  -0.1175
  C  C71  1  0.129430  0.933740  0.290950  1.0  0.6418
  C  C72  1  0.239990  0.904420  0.055850  1.0  0.1113
  C  C73  1  0.690740  0.605510  0.729540  1.0  0.0951
  C  C74  1  0.863450  0.783720  0.779080  1.0  0.6802
  C  C75  1  0.747150  0.674410  0.787570  1.0  -0.1079
  C  C76  1  0.801970  0.704640  0.724710  1.0  -0.1431
  C  C77  1  0.798410  0.663270  0.607630  1.0  -0.1175
  C  C78  1  0.629430  0.566260  0.790950  1.0  0.643
  C  C79  1  0.739990  0.595580  0.555850  1.0  0.111
  C  C80  1  0.190740  0.105510  0.729540  1.0  0.0951
  C  C81  1  0.363450  0.283720  0.779080  1.0  0.6802
  C  C82  1  0.247150  0.174410  0.787570  1.0  -0.1079
  C  C83  1  0.301970  0.204640  0.724710  1.0  -0.1431
  C  C84  1  0.298410  0.163270  0.607630  1.0  -0.1175
  C  C85  1  0.129430  0.066260  0.790950  1.0  0.643
  C  C86  1  0.239990  0.095580  0.555850  1.0  0.111
  C  C87  1  0.309260  0.605510  0.770460  1.0  0.0968
  C  C88  1  0.136550  0.783720  0.720920  1.0  0.679
  C  C89  1  0.252850  0.674410  0.712430  1.0  -0.1057
  C  C90  1  0.198030  0.704640  0.775290  1.0  -0.1437
  C  C91  1  0.201590  0.663270  0.892370  1.0  -0.1179
  C  C92  1  0.370570  0.566260  0.709050  1.0  0.6434
  C  C93  1  0.260010  0.595580  0.944150  1.0  0.1123
  C  C94  1  0.809260  0.105510  0.770460  1.0  0.0968
  C  C95  1  0.636550  0.283720  0.720920  1.0  0.679
  C  C96  1  0.752850  0.174410  0.712430  1.0  -0.1057
  C  C97  1  0.698030  0.204640  0.775290  1.0  -0.1437
  C  C98  1  0.701590  0.163270  0.892370  1.0  -0.1179
  C  C99  1  0.870570  0.066260  0.709050  1.0  0.6434
  C  C100  1  0.760010  0.095580  0.944150  1.0  0.1123
  N  N101  1  0.313860  0.433020  0.385780  1.0  -0.3536
  N  N102  1  0.813860  0.933020  0.385780  1.0  -0.3536
  N  N103  1  0.686140  0.433020  0.114220  1.0  -0.3559
  N  N104  1  0.186140  0.933020  0.114220  1.0  -0.3559
  N  N105  1  0.686140  0.566980  0.614220  1.0  -0.3558
  N  N106  1  0.186140  0.066980  0.614220  1.0  -0.3558
  N  N107  1  0.313860  0.566980  0.885780  1.0  -0.3528
  N  N108  1  0.813860  0.066980  0.885780  1.0  -0.3528
  O  O109  1  0.521310  0.586080  0.446280  1.0  -1.0549
  O  O110  1  0.365060  0.413840  0.097290  1.0  -0.6682
  O  O111  1  0.083030  0.207980  0.275190  1.0  -0.6528
  O  O112  1  0.145170  0.165200  0.128390  1.0  -0.6198
  O  O113  1  0.423300  0.485760  0.278910  1.0  -0.7369
  O  O114  1  0.021310  0.086080  0.446280  1.0  -1.0549
  O  O115  1  0.865060  0.913840  0.097290  1.0  -0.6682
  O  O116  1  0.583030  0.707980  0.275190  1.0  -0.6528
  O  O117  1  0.645170  0.665200  0.128390  1.0  -0.6198
  O  O118  1  0.923300  0.985760  0.278910  1.0  -0.7369
  O  O119  1  0.478690  0.586080  0.053720  1.0  -1.0555
  O  O120  1  0.634940  0.413840  0.402710  1.0  -0.6707
  O  O121  1  0.916970  0.207980  0.224810  1.0  -0.6528
  O  O122  1  0.854830  0.165200  0.371610  1.0  -0.6202
  O  O123  1  0.576700  0.485760  0.221090  1.0  -0.7369
  O  O124  1  0.978690  0.086080  0.053720  1.0  -1.0555
  O  O125  1  0.134940  0.913840  0.402710  1.0  -0.6707
  O  O126  1  0.416970  0.707980  0.224810  1.0  -0.6528
  O  O127  1  0.354830  0.665200  0.371610  1.0  -0.6202
  O  O128  1  0.076700  0.985760  0.221090  1.0  -0.7369
  O  O129  1  0.478690  0.413920  0.553720  1.0  -1.0561
  O  O130  1  0.634940  0.586160  0.902710  1.0  -0.6708
  O  O131  1  0.916970  0.792020  0.724810  1.0  -0.6505
  O  O132  1  0.854830  0.834800  0.871610  1.0  -0.6198
  O  O133  1  0.576700  0.514240  0.721090  1.0  -0.7371
  O  O134  1  0.978690  0.913920  0.553720  1.0  -1.0561
  O  O135  1  0.134940  0.086160  0.902710  1.0  -0.6708
  O  O136  1  0.416970  0.292020  0.724810  1.0  -0.6505
  O  O137  1  0.354830  0.334800  0.871610  1.0  -0.6198
  O  O138  1  0.076700  0.014240  0.721090  1.0  -0.7371
  O  O139  1  0.521310  0.413920  0.946280  1.0  -1.0543
  O  O140  1  0.365060  0.586160  0.597290  1.0  -0.6702
  O  O141  1  0.083030  0.792020  0.775190  1.0  -0.6517
  O  O142  1  0.145170  0.834800  0.628390  1.0  -0.6195
  O  O143  1  0.423300  0.514240  0.778910  1.0  -0.7371
  O  O144  1  0.021310  0.913920  0.946280  1.0  -1.0543
  O  O145  1  0.865060  0.086160  0.597290  1.0  -0.6702
  O  O146  1  0.583030  0.292020  0.775190  1.0  -0.6517
  O  O147  1  0.645170  0.334800  0.628390  1.0  -0.6195
  O  O148  1  0.923300  0.014240  0.778910  1.0  -0.7371
