# generated using pymatgen
data_Mg3H8C14(NO5)2
_symmetry_space_group_name_H-M   'P 1'
_cell_length_a   17.80740000
_cell_length_b   13.11450000
_cell_length_c   11.05140000
_cell_angle_alpha   90.00000000
_cell_angle_beta   103.84400000
_cell_angle_gamma   90.00000000
_symmetry_Int_Tables_number   1
_chemical_formula_structural   Mg3H8C14(NO5)2
_chemical_formula_sum   'Mg12 H32 C56 N8 O40'
_cell_volume   2505.91756120
_cell_formula_units_Z   4
loop_
 _symmetry_equiv_pos_site_id
 _symmetry_equiv_pos_as_xyz
  1  'x, y, z'
loop_
 _atom_site_type_symbol
 _atom_site_label
 _atom_site_symmetry_multiplicity
 _atom_site_fract_x
 _atom_site_fract_y
 _atom_site_fract_z
 _atom_site_occupancy
 _atom_site_charge
  Mg  Mg1  1  0.586620  0.034030  0.543470  1.0  1.4631
  Mg  Mg2  1  0.086620  0.534030  0.543470  1.0  1.4631
  Mg  Mg3  1  0.413380  0.034030  0.956530  1.0  1.4637
  Mg  Mg4  1  0.913380  0.534030  0.956530  1.0  1.4637
  Mg  Mg5  1  0.413380  0.965970  0.456530  1.0  1.4643
  Mg  Mg6  1  0.913380  0.465970  0.456530  1.0  1.4643
  Mg  Mg7  1  0.586620  0.965970  0.043470  1.0  1.4628
  Mg  Mg8  1  0.086620  0.465970  0.043470  1.0  1.4628
  Mg  Mg9  1  0.500000  0.095020  0.750000  1.0  1.5028
  Mg  Mg10  1  0.000000  0.595020  0.750000  1.0  1.5054
  Mg  Mg11  1  0.500000  0.904980  0.250000  1.0  1.5031
  Mg  Mg12  1  0.000000  0.404980  0.250000  1.0  1.5055
  H  H13  1  0.467000  0.136000  0.528000  1.0  0.4568
  H  H14  1  0.747000  0.799000  0.877000  1.0  0.0865
  H  H15  1  0.835000  0.808000  0.555000  1.0  0.0915
  H  H16  1  0.734000  0.930000  0.475000  1.0  0.0468
  H  H17  1  0.967000  0.636000  0.528000  1.0  0.4568
  H  H18  1  0.247000  0.299000  0.877000  1.0  0.0865
  H  H19  1  0.335000  0.308000  0.555000  1.0  0.0915
  H  H20  1  0.234000  0.430000  0.475000  1.0  0.0468
  H  H21  1  0.533000  0.136000  0.972000  1.0  0.4567
  H  H22  1  0.253000  0.799000  0.623000  1.0  0.086
  H  H23  1  0.165000  0.808000  0.945000  1.0  0.0902
  H  H24  1  0.266000  0.930000  0.025000  1.0  0.046
  H  H25  1  0.033000  0.636000  0.972000  1.0  0.4567
  H  H26  1  0.753000  0.299000  0.623000  1.0  0.086
  H  H27  1  0.665000  0.308000  0.945000  1.0  0.0902
  H  H28  1  0.766000  0.430000  0.025000  1.0  0.046
  H  H29  1  0.533000  0.864000  0.472000  1.0  0.4588
  H  H30  1  0.253000  0.201000  0.123000  1.0  0.0858
  H  H31  1  0.165000  0.192000  0.445000  1.0  0.09
  H  H32  1  0.266000  0.070000  0.525000  1.0  0.0465
  H  H33  1  0.033000  0.364000  0.472000  1.0  0.4588
  H  H34  1  0.753000  0.701000  0.123000  1.0  0.0858
  H  H35  1  0.665000  0.692000  0.445000  1.0  0.09
  H  H36  1  0.766000  0.570000  0.525000  1.0  0.0465
  H  H37  1  0.467000  0.864000  0.028000  1.0  0.4584
  H  H38  1  0.747000  0.201000  0.377000  1.0  0.0862
  H  H39  1  0.835000  0.192000  0.055000  1.0  0.0914
  H  H40  1  0.734000  0.070000  0.975000  1.0  0.0462
  H  H41  1  0.967000  0.364000  0.028000  1.0  0.4584
  H  H42  1  0.247000  0.701000  0.377000  1.0  0.0862
  H  H43  1  0.335000  0.692000  0.055000  1.0  0.0914
  H  H44  1  0.234000  0.570000  0.975000  1.0  0.0462
  C  C45  1  0.690940  0.892600  0.730300  1.0  0.1009
  C  C46  1  0.746210  0.822000  0.787400  1.0  -0.1003
  C  C47  1  0.800810  0.790300  0.723800  1.0  -0.1667
  C  C48  1  0.798190  0.832300  0.607300  1.0  -0.0804
  C  C49  1  0.740460  0.901200  0.556500  1.0  0.1178
  C  C50  1  0.630050  0.933300  0.792100  1.0  0.6557
  C  C51  1  0.861400  0.710800  0.777200  1.0  0.676
  C  C52  1  0.190940  0.392600  0.730300  1.0  0.1009
  C  C53  1  0.246210  0.322000  0.787400  1.0  -0.1003
  C  C54  1  0.300810  0.290300  0.723800  1.0  -0.1667
  C  C55  1  0.298190  0.332300  0.607300  1.0  -0.0804
  C  C56  1  0.240460  0.401200  0.556500  1.0  0.1178
  C  C57  1  0.130050  0.433300  0.792100  1.0  0.6557
  C  C58  1  0.361400  0.210800  0.777200  1.0  0.676
  C  C59  1  0.309060  0.892600  0.769700  1.0  0.1015
  C  C60  1  0.253790  0.822000  0.712600  1.0  -0.0995
  C  C61  1  0.199190  0.790300  0.776200  1.0  -0.1663
  C  C62  1  0.201810  0.832300  0.892700  1.0  -0.082
  C  C63  1  0.259540  0.901200  0.943500  1.0  0.1166
  C  C64  1  0.369950  0.933300  0.707900  1.0  0.6551
  C  C65  1  0.138600  0.710800  0.722800  1.0  0.6763
  C  C66  1  0.809060  0.392600  0.769700  1.0  0.1015
  C  C67  1  0.753790  0.322000  0.712600  1.0  -0.0995
  C  C68  1  0.699190  0.290300  0.776200  1.0  -0.1663
  C  C69  1  0.701810  0.332300  0.892700  1.0  -0.082
  C  C70  1  0.759540  0.401200  0.943500  1.0  0.1166
  C  C71  1  0.869950  0.433300  0.707900  1.0  0.6551
  C  C72  1  0.638600  0.210800  0.722800  1.0  0.6763
  C  C73  1  0.309060  0.107400  0.269700  1.0  0.1017
  C  C74  1  0.253790  0.178000  0.212600  1.0  -0.0997
  C  C75  1  0.199190  0.209700  0.276200  1.0  -0.1659
  C  C76  1  0.201810  0.167700  0.392700  1.0  -0.082
  C  C77  1  0.259540  0.098800  0.443500  1.0  0.1174
  C  C78  1  0.369950  0.066700  0.207900  1.0  0.6565
  C  C79  1  0.138600  0.289200  0.222800  1.0  0.6757
  C  C80  1  0.809060  0.607400  0.269700  1.0  0.1017
  C  C81  1  0.753790  0.678000  0.212600  1.0  -0.0997
  C  C82  1  0.699190  0.709700  0.276200  1.0  -0.1659
  C  C83  1  0.701810  0.667700  0.392700  1.0  -0.082
  C  C84  1  0.759540  0.598800  0.443500  1.0  0.1174
  C  C85  1  0.869950  0.566700  0.207900  1.0  0.6565
  C  C86  1  0.638600  0.789200  0.222800  1.0  0.6757
  C  C87  1  0.690940  0.107400  0.230300  1.0  0.1011
  C  C88  1  0.746210  0.178000  0.287400  1.0  -0.1005
  C  C89  1  0.800810  0.209700  0.223800  1.0  -0.1668
  C  C90  1  0.798190  0.167700  0.107300  1.0  -0.0802
  C  C91  1  0.740460  0.098800  0.056500  1.0  0.1178
  C  C92  1  0.630050  0.066700  0.292100  1.0  0.6566
  C  C93  1  0.861400  0.289200  0.277200  1.0  0.6761
  C  C94  1  0.190940  0.607400  0.230300  1.0  0.1011
  C  C95  1  0.246210  0.678000  0.287400  1.0  -0.1005
  C  C96  1  0.300810  0.709700  0.223800  1.0  -0.1668
  C  C97  1  0.298190  0.667700  0.107300  1.0  -0.0802
  C  C98  1  0.240460  0.598800  0.056500  1.0  0.1178
  C  C99  1  0.130050  0.566700  0.292100  1.0  0.6566
  C  C100  1  0.361400  0.789200  0.277200  1.0  0.6761
  N  N101  1  0.686770  0.931200  0.615500  1.0  -0.3615
  N  N102  1  0.186770  0.431200  0.615500  1.0  -0.3615
  N  N103  1  0.313230  0.931200  0.884500  1.0  -0.3601
  N  N104  1  0.813230  0.431200  0.884500  1.0  -0.3601
  N  N105  1  0.313230  0.068800  0.384500  1.0  -0.3593
  N  N106  1  0.813230  0.568800  0.384500  1.0  -0.3593
  N  N107  1  0.686770  0.068800  0.115500  1.0  -0.3612
  N  N108  1  0.186770  0.568800  0.115500  1.0  -0.3612
  O  O109  1  0.577150  0.984860  0.722290  1.0  -0.7459
  O  O110  1  0.635850  0.914440  0.904320  1.0  -0.6698
  O  O111  1  0.851570  0.659440  0.867600  1.0  -0.6212
  O  O112  1  0.916110  0.703140  0.724000  1.0  -0.648
  O  O113  1  0.478740  0.084450  0.553800  1.0  -1.054
  O  O114  1  0.077150  0.484860  0.722290  1.0  -0.7459
  O  O115  1  0.135850  0.414440  0.904320  1.0  -0.6698
  O  O116  1  0.351570  0.159440  0.867600  1.0  -0.6212
  O  O117  1  0.416110  0.203140  0.724000  1.0  -0.648
  O  O118  1  0.978740  0.584450  0.553800  1.0  -1.054
  O  O119  1  0.422850  0.984860  0.777710  1.0  -0.7467
  O  O120  1  0.364150  0.914440  0.595680  1.0  -0.6691
  O  O121  1  0.148430  0.659440  0.632400  1.0  -0.6221
  O  O122  1  0.083890  0.703140  0.776000  1.0  -0.6488
  O  O123  1  0.521260  0.084450  0.946200  1.0  -1.0537
  O  O124  1  0.922850  0.484860  0.777710  1.0  -0.7467
  O  O125  1  0.864150  0.414440  0.595680  1.0  -0.6691
  O  O126  1  0.648430  0.159440  0.632400  1.0  -0.6221
  O  O127  1  0.583890  0.203140  0.776000  1.0  -0.6488
  O  O128  1  0.021260  0.584450  0.946200  1.0  -1.0537
  O  O129  1  0.422850  0.015140  0.277710  1.0  -0.7467
  O  O130  1  0.364150  0.085560  0.095680  1.0  -0.6705
  O  O131  1  0.148430  0.340560  0.132400  1.0  -0.6223
  O  O132  1  0.083890  0.296860  0.276000  1.0  -0.648
  O  O133  1  0.521260  0.915550  0.446200  1.0  -1.0534
  O  O134  1  0.922850  0.515140  0.277710  1.0  -0.7467
  O  O135  1  0.864150  0.585560  0.095680  1.0  -0.6705
  O  O136  1  0.648430  0.840560  0.132400  1.0  -0.6223
  O  O137  1  0.583890  0.796860  0.276000  1.0  -0.648
  O  O138  1  0.021260  0.415550  0.446200  1.0  -1.0534
  O  O139  1  0.577150  0.015140  0.222290  1.0  -0.746
  O  O140  1  0.635850  0.085560  0.404320  1.0  -0.6693
  O  O141  1  0.851570  0.340560  0.367600  1.0  -0.6214
  O  O142  1  0.916110  0.296860  0.224000  1.0  -0.6453
  O  O143  1  0.478740  0.915550  0.053800  1.0  -1.0547
  O  O144  1  0.077150  0.515140  0.222290  1.0  -0.746
  O  O145  1  0.135850  0.585560  0.404320  1.0  -0.6693
  O  O146  1  0.351570  0.840560  0.367600  1.0  -0.6214
  O  O147  1  0.416110  0.796860  0.224000  1.0  -0.6453
  O  O148  1  0.978740  0.415550  0.053800  1.0  -1.0547
