# generated using pymatgen
data_Mg3H8C14(NO5)2
_symmetry_space_group_name_H-M   'P 1'
_cell_length_a   18.20400000
_cell_length_b   12.38840000
_cell_length_c   11.00140000
_cell_angle_alpha   90.00000000
_cell_angle_beta   102.36600000
_cell_angle_gamma   90.00000000
_symmetry_Int_Tables_number   1
_chemical_formula_structural   Mg3H8C14(NO5)2
_chemical_formula_sum   'Mg12 H32 C56 N8 O40'
_cell_volume   2423.45770736
_cell_formula_units_Z   4
loop_
 _symmetry_equiv_pos_site_id
 _symmetry_equiv_pos_as_xyz
  1  'x, y, z'
loop_
 _atom_site_type_symbol
 _atom_site_label
 _atom_site_symmetry_multiplicity
 _atom_site_fract_x
 _atom_site_fract_y
 _atom_site_fract_z
 _atom_site_occupancy
 _atom_site_charge
  Mg  Mg1  1  0.917030  0.464050  0.460410  1.0  1.4829
  Mg  Mg2  1  0.417030  0.964050  0.460410  1.0  1.4829
  Mg  Mg3  1  0.082970  0.464050  0.039590  1.0  1.4825
  Mg  Mg4  1  0.582970  0.964050  0.039590  1.0  1.4825
  Mg  Mg5  1  0.082970  0.535950  0.539590  1.0  1.4829
  Mg  Mg6  1  0.582970  0.035950  0.539590  1.0  1.4829
  Mg  Mg7  1  0.917030  0.535950  0.960410  1.0  1.4832
  Mg  Mg8  1  0.417030  0.035950  0.960410  1.0  1.4832
  Mg  Mg9  1  0.000000  0.396590  0.250000  1.0  1.5101
  Mg  Mg10  1  0.500000  0.896590  0.250000  1.0  1.5101
  Mg  Mg11  1  0.000000  0.603410  0.750000  1.0  1.51
  Mg  Mg12  1  0.500000  0.103410  0.750000  1.0  1.51
  H  H13  1  0.035000  0.366000  0.480000  1.0  0.3645
  H  H14  1  0.758000  0.702000  0.143000  1.0  0.1156
  H  H15  1  0.661000  0.671000  0.440000  1.0  0.0849
  H  H16  1  0.765000  0.571000  0.523000  1.0  0.0628
  H  H17  1  0.535000  0.866000  0.480000  1.0  0.3645
  H  H18  1  0.258000  0.202000  0.143000  1.0  0.1156
  H  H19  1  0.161000  0.171000  0.440000  1.0  0.0849
  H  H20  1  0.265000  0.071000  0.523000  1.0  0.0628
  H  H21  1  0.965000  0.366000  0.020000  1.0  0.3632
  H  H22  1  0.242000  0.702000  0.357000  1.0  0.1171
  H  H23  1  0.339000  0.671000  0.060000  1.0  0.0852
  H  H24  1  0.235000  0.571000  0.977000  1.0  0.0615
  H  H25  1  0.465000  0.866000  0.020000  1.0  0.3632
  H  H26  1  0.742000  0.202000  0.357000  1.0  0.1171
  H  H27  1  0.839000  0.171000  0.060000  1.0  0.0852
  H  H28  1  0.735000  0.071000  0.977000  1.0  0.0615
  H  H29  1  0.965000  0.634000  0.520000  1.0  0.3623
  H  H30  1  0.242000  0.298000  0.857000  1.0  0.1169
  H  H31  1  0.339000  0.329000  0.560000  1.0  0.0853
  H  H32  1  0.235000  0.429000  0.477000  1.0  0.0617
  H  H33  1  0.465000  0.134000  0.520000  1.0  0.3623
  H  H34  1  0.742000  0.798000  0.857000  1.0  0.1169
  H  H35  1  0.839000  0.829000  0.560000  1.0  0.0853
  H  H36  1  0.735000  0.929000  0.477000  1.0  0.0617
  H  H37  1  0.035000  0.634000  0.980000  1.0  0.3643
  H  H38  1  0.758000  0.298000  0.643000  1.0  0.1155
  H  H39  1  0.661000  0.329000  0.940000  1.0  0.0852
  H  H40  1  0.765000  0.429000  0.023000  1.0  0.0629
  H  H41  1  0.535000  0.134000  0.980000  1.0  0.3643
  H  H42  1  0.258000  0.798000  0.643000  1.0  0.1155
  H  H43  1  0.161000  0.829000  0.940000  1.0  0.0852
  H  H44  1  0.265000  0.929000  0.023000  1.0  0.0629
  C  C45  1  0.811900  0.607000  0.274300  1.0  0.0767
  C  C46  1  0.754900  0.674500  0.215700  1.0  -0.0694
  C  C47  1  0.699600  0.701200  0.277700  1.0  -0.1314
  C  C48  1  0.702400  0.660000  0.393700  1.0  -0.1746
  C  C49  1  0.762000  0.595200  0.447400  1.0  0.1524
  C  C50  1  0.874200  0.568200  0.212400  1.0  0.6562
  C  C51  1  0.636300  0.778100  0.219400  1.0  0.6742
  C  C52  1  0.311900  0.107000  0.274300  1.0  0.0767
  C  C53  1  0.254900  0.174500  0.215700  1.0  -0.0694
  C  C54  1  0.199600  0.201200  0.277700  1.0  -0.1314
  C  C55  1  0.202400  0.160000  0.393700  1.0  -0.1746
  C  C56  1  0.262000  0.095200  0.447400  1.0  0.1524
  C  C57  1  0.374200  0.068200  0.212400  1.0  0.6562
  C  C58  1  0.136300  0.278100  0.219400  1.0  0.6742
  C  C59  1  0.188100  0.607000  0.225700  1.0  0.0767
  C  C60  1  0.245100  0.674500  0.284300  1.0  -0.069
  C  C61  1  0.300400  0.701200  0.222300  1.0  -0.1314
  C  C62  1  0.297600  0.660000  0.106300  1.0  -0.1717
  C  C63  1  0.238000  0.595200  0.052600  1.0  0.1506
  C  C64  1  0.125800  0.568200  0.287600  1.0  0.6555
  C  C65  1  0.363700  0.778100  0.280600  1.0  0.6749
  C  C66  1  0.688100  0.107000  0.225700  1.0  0.0767
  C  C67  1  0.745100  0.174500  0.284300  1.0  -0.069
  C  C68  1  0.800400  0.201200  0.222300  1.0  -0.1314
  C  C69  1  0.797600  0.160000  0.106300  1.0  -0.1717
  C  C70  1  0.738000  0.095200  0.052600  1.0  0.1506
  C  C71  1  0.625800  0.068200  0.287600  1.0  0.6555
  C  C72  1  0.863700  0.278100  0.280600  1.0  0.6749
  C  C73  1  0.188100  0.393000  0.725700  1.0  0.0764
  C  C74  1  0.245100  0.325500  0.784300  1.0  -0.0697
  C  C75  1  0.300400  0.298800  0.722300  1.0  -0.1312
  C  C76  1  0.297600  0.340000  0.606300  1.0  -0.1718
  C  C77  1  0.238000  0.404800  0.552600  1.0  0.1496
  C  C78  1  0.125800  0.431800  0.787600  1.0  0.6547
  C  C79  1  0.363700  0.221900  0.780600  1.0  0.6749
  C  C80  1  0.688100  0.893000  0.725700  1.0  0.0764
  C  C81  1  0.745100  0.825500  0.784300  1.0  -0.0697
  C  C82  1  0.800400  0.798800  0.722300  1.0  -0.1312
  C  C83  1  0.797600  0.840000  0.606300  1.0  -0.1718
  C  C84  1  0.738000  0.904800  0.552600  1.0  0.1496
  C  C85  1  0.625800  0.931800  0.787600  1.0  0.6547
  C  C86  1  0.863700  0.721900  0.780600  1.0  0.6749
  C  C87  1  0.811900  0.393000  0.774300  1.0  0.076
  C  C88  1  0.754900  0.325500  0.715700  1.0  -0.0694
  C  C89  1  0.699600  0.298800  0.777700  1.0  -0.1316
  C  C90  1  0.702400  0.340000  0.893700  1.0  -0.1755
  C  C91  1  0.762000  0.404800  0.947400  1.0  0.1508
  C  C92  1  0.874200  0.431800  0.712400  1.0  0.6548
  C  C93  1  0.636300  0.221900  0.719400  1.0  0.6761
  C  C94  1  0.311900  0.893000  0.774300  1.0  0.076
  C  C95  1  0.254900  0.825500  0.715700  1.0  -0.0694
  C  C96  1  0.199600  0.798800  0.777700  1.0  -0.1316
  C  C97  1  0.202400  0.840000  0.893700  1.0  -0.1755
  C  C98  1  0.262000  0.904800  0.947400  1.0  0.1508
  C  C99  1  0.374200  0.931800  0.712400  1.0  0.6548
  C  C100  1  0.136300  0.721900  0.719400  1.0  0.6761
  N  N101  1  0.816400  0.567800  0.389900  1.0  -0.3237
  N  N102  1  0.316400  0.067800  0.389900  1.0  -0.3237
  N  N103  1  0.183600  0.567800  0.110100  1.0  -0.3234
  N  N104  1  0.683600  0.067800  0.110100  1.0  -0.3234
  N  N105  1  0.183600  0.432200  0.610100  1.0  -0.3241
  N  N106  1  0.683600  0.932200  0.610100  1.0  -0.3241
  N  N107  1  0.816400  0.432200  0.889900  1.0  -0.3244
  N  N108  1  0.316400  0.932200  0.889900  1.0  -0.3244
  O  O109  1  0.924700  0.514400  0.280500  1.0  -0.7334
  O  O110  1  0.869490  0.591200  0.101800  1.0  -0.6839
  O  O111  1  0.645340  0.832800  0.128300  1.0  -0.6251
  O  O112  1  0.581170  0.782100  0.271200  1.0  -0.6374
  O  O113  1  0.021000  0.410300  0.445400  1.0  -1.046
  O  O114  1  0.424700  0.014400  0.280500  1.0  -0.7334
  O  O115  1  0.369490  0.091200  0.101800  1.0  -0.6839
  O  O116  1  0.145340  0.332800  0.128300  1.0  -0.6251
  O  O117  1  0.081170  0.282100  0.271200  1.0  -0.6374
  O  O118  1  0.521000  0.910300  0.445400  1.0  -1.046
  O  O119  1  0.075300  0.514400  0.219500  1.0  -0.7337
  O  O120  1  0.130510  0.591200  0.398200  1.0  -0.6832
  O  O121  1  0.354660  0.832800  0.371700  1.0  -0.6247
  O  O122  1  0.418830  0.782100  0.228800  1.0  -0.6345
  O  O123  1  0.979000  0.410300  0.054600  1.0  -1.0473
  O  O124  1  0.575300  0.014400  0.219500  1.0  -0.7337
  O  O125  1  0.630510  0.091200  0.398200  1.0  -0.6832
  O  O126  1  0.854660  0.332800  0.371700  1.0  -0.6247
  O  O127  1  0.918830  0.282100  0.228800  1.0  -0.6345
  O  O128  1  0.479000  0.910300  0.054600  1.0  -1.0473
  O  O129  1  0.075300  0.485600  0.719500  1.0  -0.7335
  O  O130  1  0.130510  0.408800  0.898200  1.0  -0.6826
  O  O131  1  0.354660  0.167200  0.871700  1.0  -0.6253
  O  O132  1  0.418830  0.217900  0.728800  1.0  -0.6367
  O  O133  1  0.979000  0.589700  0.554600  1.0  -1.0471
  O  O134  1  0.575300  0.985600  0.719500  1.0  -0.7335
  O  O135  1  0.630510  0.908800  0.898200  1.0  -0.6826
  O  O136  1  0.854660  0.667200  0.871700  1.0  -0.6253
  O  O137  1  0.918830  0.717900  0.728800  1.0  -0.6367
  O  O138  1  0.479000  0.089700  0.554600  1.0  -1.0471
  O  O139  1  0.924700  0.485600  0.780500  1.0  -0.733
  O  O140  1  0.869490  0.408800  0.601800  1.0  -0.6822
  O  O141  1  0.645340  0.167200  0.628300  1.0  -0.6261
  O  O142  1  0.581170  0.217900  0.771200  1.0  -0.6366
  O  O143  1  0.021000  0.589700  0.945400  1.0  -1.0467
  O  O144  1  0.424700  0.985600  0.780500  1.0  -0.733
  O  O145  1  0.369490  0.908800  0.601800  1.0  -0.6822
  O  O146  1  0.145340  0.667200  0.628300  1.0  -0.6261
  O  O147  1  0.081170  0.717900  0.771200  1.0  -0.6366
  O  O148  1  0.521000  0.089700  0.945400  1.0  -1.0467
