# generated using pymatgen
data_Mg3H8C14(NO5)2
_symmetry_space_group_name_H-M   'P 1'
_cell_length_a   18.04880000
_cell_length_b   12.75150000
_cell_length_c   10.99780000
_cell_angle_alpha   90.00000000
_cell_angle_beta   103.13000000
_cell_angle_gamma   90.00000000
_symmetry_Int_Tables_number   1
_chemical_formula_structural   Mg3H8C14(NO5)2
_chemical_formula_sum   'Mg12 H32 C56 N8 O40'
_cell_volume   2464.96460033
_cell_formula_units_Z   4
loop_
 _symmetry_equiv_pos_site_id
 _symmetry_equiv_pos_as_xyz
  1  'x, y, z'
loop_
 _atom_site_type_symbol
 _atom_site_label
 _atom_site_symmetry_multiplicity
 _atom_site_fract_x
 _atom_site_fract_y
 _atom_site_fract_z
 _atom_site_occupancy
 _atom_site_charge
  Mg  Mg1  1  0.085010  0.036500  0.541260  1.0  1.4626
  Mg  Mg2  1  0.585010  0.536500  0.541260  1.0  1.4626
  Mg  Mg3  1  0.914990  0.036500  0.958740  1.0  1.4625
  Mg  Mg4  1  0.414990  0.536500  0.958740  1.0  1.4625
  Mg  Mg5  1  0.914990  0.963500  0.458740  1.0  1.4627
  Mg  Mg6  1  0.414990  0.463500  0.458740  1.0  1.4627
  Mg  Mg7  1  0.085010  0.963500  0.041260  1.0  1.4617
  Mg  Mg8  1  0.585010  0.463500  0.041260  1.0  1.4617
  Mg  Mg9  1  0.000000  0.098260  0.750000  1.0  1.5023
  Mg  Mg10  1  0.500000  0.598260  0.750000  1.0  1.5021
  Mg  Mg11  1  0.000000  0.901740  0.250000  1.0  1.503
  Mg  Mg12  1  0.500000  0.401740  0.250000  1.0  1.5027
  H  H13  1  0.962400  0.145000  0.528000  1.0  0.4378
  H  H14  1  0.244500  0.806000  0.864000  1.0  0.0882
  H  H15  1  0.336200  0.820000  0.559000  1.0  0.0941
  H  H16  1  0.232200  0.934000  0.466000  1.0  0.0479
  H  H17  1  0.462400  0.645000  0.528000  1.0  0.4378
  H  H18  1  0.744500  0.306000  0.864000  1.0  0.0882
  H  H19  1  0.836200  0.320000  0.559000  1.0  0.0941
  H  H20  1  0.732200  0.434000  0.466000  1.0  0.0479
  H  H21  1  0.037600  0.145000  0.972000  1.0  0.4385
  H  H22  1  0.755500  0.806000  0.636000  1.0  0.0884
  H  H23  1  0.663800  0.820000  0.941000  1.0  0.0942
  H  H24  1  0.767800  0.934000  0.034000  1.0  0.048
  H  H25  1  0.537600  0.645000  0.972000  1.0  0.4385
  H  H26  1  0.255500  0.306000  0.636000  1.0  0.0884
  H  H27  1  0.163800  0.320000  0.941000  1.0  0.0942
  H  H28  1  0.267800  0.434000  0.034000  1.0  0.048
  H  H29  1  0.037600  0.855000  0.472000  1.0  0.4393
  H  H30  1  0.755500  0.194000  0.136000  1.0  0.0883
  H  H31  1  0.663800  0.180000  0.441000  1.0  0.0937
  H  H32  1  0.767800  0.066000  0.534000  1.0  0.049
  H  H33  1  0.537600  0.355000  0.472000  1.0  0.4393
  H  H34  1  0.255500  0.694000  0.136000  1.0  0.0883
  H  H35  1  0.163800  0.680000  0.441000  1.0  0.0937
  H  H36  1  0.267800  0.566000  0.534000  1.0  0.049
  H  H37  1  0.962400  0.855000  0.028000  1.0  0.439
  H  H38  1  0.244500  0.194000  0.364000  1.0  0.0882
  H  H39  1  0.336200  0.180000  0.059000  1.0  0.0939
  H  H40  1  0.232200  0.066000  0.966000  1.0  0.0484
  H  H41  1  0.462400  0.355000  0.028000  1.0  0.439
  H  H42  1  0.744500  0.694000  0.364000  1.0  0.0882
  H  H43  1  0.836200  0.680000  0.059000  1.0  0.0939
  H  H44  1  0.732200  0.566000  0.966000  1.0  0.0484
  C  C45  1  0.190320  0.894090  0.727600  1.0  0.0629
  C  C46  1  0.246550  0.825900  0.785900  1.0  -0.0175
  C  C47  1  0.301750  0.795700  0.722500  1.0  -0.1715
  C  C48  1  0.298360  0.837900  0.604800  1.0  -0.1243
  C  C49  1  0.239990  0.905500  0.553300  1.0  0.1332
  C  C50  1  0.128240  0.932130  0.789000  1.0  0.6637
  C  C51  1  0.363250  0.717310  0.777500  1.0  0.6767
  C  C52  1  0.690320  0.394090  0.727600  1.0  0.0629
  C  C53  1  0.746550  0.325900  0.785900  1.0  -0.0175
  C  C54  1  0.801750  0.295700  0.722500  1.0  -0.1715
  C  C55  1  0.798360  0.337900  0.604800  1.0  -0.1243
  C  C56  1  0.739990  0.405500  0.553300  1.0  0.1332
  C  C57  1  0.628240  0.432130  0.789000  1.0  0.6637
  C  C58  1  0.863250  0.217310  0.777500  1.0  0.6767
  C  C59  1  0.809680  0.894090  0.772400  1.0  0.065
  C  C60  1  0.753450  0.825900  0.714100  1.0  -0.0178
  C  C61  1  0.698250  0.795700  0.777500  1.0  -0.1715
  C  C62  1  0.701640  0.837900  0.895200  1.0  -0.1256
  C  C63  1  0.760010  0.905500  0.946700  1.0  0.1337
  C  C64  1  0.871760  0.932130  0.711000  1.0  0.6614
  C  C65  1  0.636750  0.717310  0.722500  1.0  0.6777
  C  C66  1  0.309680  0.394090  0.772400  1.0  0.065
  C  C67  1  0.253450  0.325900  0.714100  1.0  -0.0178
  C  C68  1  0.198250  0.295700  0.777500  1.0  -0.1715
  C  C69  1  0.201640  0.337900  0.895200  1.0  -0.1256
  C  C70  1  0.260010  0.405500  0.946700  1.0  0.1337
  C  C71  1  0.371760  0.432130  0.711000  1.0  0.6614
  C  C72  1  0.136750  0.217310  0.722500  1.0  0.6777
  C  C73  1  0.809680  0.105910  0.272400  1.0  0.065
  C  C74  1  0.753450  0.174100  0.214100  1.0  -0.0173
  C  C75  1  0.698250  0.204300  0.277500  1.0  -0.1712
  C  C76  1  0.701640  0.162100  0.395200  1.0  -0.1255
  C  C77  1  0.760010  0.094500  0.446700  1.0  0.1338
  C  C78  1  0.871760  0.067870  0.211000  1.0  0.6627
  C  C79  1  0.636750  0.282690  0.222500  1.0  0.677
  C  C80  1  0.309680  0.605910  0.272400  1.0  0.065
  C  C81  1  0.253450  0.674100  0.214100  1.0  -0.0173
  C  C82  1  0.198250  0.704300  0.277500  1.0  -0.1712
  C  C83  1  0.201640  0.662100  0.395200  1.0  -0.1255
  C  C84  1  0.260010  0.594500  0.446700  1.0  0.1338
  C  C85  1  0.371760  0.567870  0.211000  1.0  0.6627
  C  C86  1  0.136750  0.782690  0.222500  1.0  0.677
  C  C87  1  0.190320  0.105910  0.227600  1.0  0.0634
  C  C88  1  0.246550  0.174100  0.285900  1.0  -0.0165
  C  C89  1  0.301750  0.204300  0.222500  1.0  -0.1717
  C  C90  1  0.298360  0.162100  0.104800  1.0  -0.124
  C  C91  1  0.239990  0.094500  0.053300  1.0  0.1323
  C  C92  1  0.128240  0.067870  0.289000  1.0  0.6641
  C  C93  1  0.363250  0.282690  0.277500  1.0  0.6774
  C  C94  1  0.690320  0.605910  0.227600  1.0  0.0634
  C  C95  1  0.746550  0.674100  0.285900  1.0  -0.0165
  C  C96  1  0.801750  0.704300  0.222500  1.0  -0.1717
  C  C97  1  0.798360  0.662100  0.104800  1.0  -0.124
  C  C98  1  0.739990  0.594500  0.053300  1.0  0.1323
  C  C99  1  0.628240  0.567870  0.289000  1.0  0.6641
  C  C100  1  0.863250  0.782690  0.277500  1.0  0.6774
  N  N101  1  0.185650  0.933230  0.612030  1.0  -0.3806
  N  N102  1  0.685650  0.433230  0.612030  1.0  -0.3806
  N  N103  1  0.814350  0.933230  0.887970  1.0  -0.378
  N  N104  1  0.314350  0.433230  0.887970  1.0  -0.378
  N  N105  1  0.814350  0.066770  0.387970  1.0  -0.3772
  N  N106  1  0.314350  0.566770  0.387970  1.0  -0.3772
  N  N107  1  0.185650  0.066770  0.112030  1.0  -0.3801
  N  N108  1  0.685650  0.566770  0.112030  1.0  -0.3801
  O  O109  1  0.076520  0.985550  0.720540  1.0  -0.7381
  O  O110  1  0.133260  0.910670  0.900840  1.0  -0.6887
  O  O111  1  0.354630  0.666070  0.869830  1.0  -0.621
  O  O112  1  0.417010  0.709710  0.723870  1.0  -0.6514
  O  O113  1  0.978800  0.086790  0.553730  1.0  -1.0294
  O  O114  1  0.576520  0.485550  0.720540  1.0  -0.7381
  O  O115  1  0.633260  0.410670  0.900840  1.0  -0.6887
  O  O116  1  0.854630  0.166070  0.869830  1.0  -0.621
  O  O117  1  0.917010  0.209710  0.723870  1.0  -0.6514
  O  O118  1  0.478800  0.586790  0.553730  1.0  -1.0294
  O  O119  1  0.923480  0.985550  0.779460  1.0  -0.7389
  O  O120  1  0.866740  0.910670  0.599160  1.0  -0.6867
  O  O121  1  0.645370  0.666070  0.630170  1.0  -0.6215
  O  O122  1  0.582990  0.709710  0.776130  1.0  -0.6509
  O  O123  1  0.021200  0.086790  0.946270  1.0  -1.0295
  O  O124  1  0.423480  0.485550  0.779460  1.0  -0.7389
  O  O125  1  0.366740  0.410670  0.599160  1.0  -0.6867
  O  O126  1  0.145370  0.166070  0.630170  1.0  -0.6215
  O  O127  1  0.082990  0.209710  0.776130  1.0  -0.6509
  O  O128  1  0.521200  0.586790  0.946270  1.0  -1.0295
  O  O129  1  0.923480  0.014450  0.279460  1.0  -0.7389
  O  O130  1  0.866740  0.089330  0.099160  1.0  -0.6883
  O  O131  1  0.645370  0.333930  0.130170  1.0  -0.6215
  O  O132  1  0.582990  0.290290  0.276130  1.0  -0.6504
  O  O133  1  0.021200  0.913210  0.446270  1.0  -1.0286
  O  O134  1  0.423480  0.514450  0.279460  1.0  -0.7389
  O  O135  1  0.366740  0.589330  0.099160  1.0  -0.6883
  O  O136  1  0.145370  0.833930  0.130170  1.0  -0.6215
  O  O137  1  0.082990  0.790290  0.276130  1.0  -0.6504
  O  O138  1  0.521200  0.413210  0.446270  1.0  -1.0286
  O  O139  1  0.076520  0.014450  0.220540  1.0  -0.7382
  O  O140  1  0.133260  0.089330  0.400840  1.0  -0.6893
  O  O141  1  0.354630  0.333930  0.369830  1.0  -0.6208
  O  O142  1  0.417010  0.290290  0.223870  1.0  -0.6492
  O  O143  1  0.978800  0.913210  0.053730  1.0  -1.0298
  O  O144  1  0.576520  0.514450  0.220540  1.0  -0.7382
  O  O145  1  0.633260  0.589330  0.400840  1.0  -0.6893
  O  O146  1  0.854630  0.833930  0.369830  1.0  -0.6208
  O  O147  1  0.917010  0.790290  0.223870  1.0  -0.6492
  O  O148  1  0.478800  0.413210  0.053730  1.0  -1.0298
