# generated using pymatgen
data_Zn5H16(C2O)24
_symmetry_space_group_name_H-M   'P 1'
_cell_length_a   9.37890000
_cell_length_b   10.92470000
_cell_length_c   18.89930000
_cell_angle_alpha   104.85800000
_cell_angle_beta   94.31400000
_cell_angle_gamma   107.71400000
_symmetry_Int_Tables_number   1
_chemical_formula_structural   Zn5H16(C2O)24
_chemical_formula_sum   'Zn5 H16 C48 O24'
_cell_volume   1758.09594095
_cell_formula_units_Z   1
loop_
 _symmetry_equiv_pos_site_id
 _symmetry_equiv_pos_as_xyz
  1  'x, y, z'
loop_
 _atom_site_type_symbol
 _atom_site_label
 _atom_site_symmetry_multiplicity
 _atom_site_fract_x
 _atom_site_fract_y
 _atom_site_fract_z
 _atom_site_occupancy
 _atom_site_charge
  Zn  Zn1  1  0.315890  0.035810  0.137860  1.0  1.1035
  Zn  Zn2  1  0.044210  0.365950  0.767930  1.0  0.9316
  Zn  Zn3  1  0.684110  0.964190  0.862140  1.0  1.101
  Zn  Zn4  1  0.955790  0.634050  0.232070  1.0  0.9291
  Zn  Zn5  1  0.000000  0.000000  0.000000  1.0  1.1445
  H  H6  1  0.646100  0.278500  0.037500  1.0  0.1224
  H  H7  1  0.641300  0.472700  0.881300  1.0  0.1293
  H  H8  1  0.741400  0.012500  0.165900  1.0  0.1288
  H  H9  1  0.245900  0.253200  0.926800  1.0  0.1294
  H  H10  1  0.085400  0.026400  0.314100  1.0  0.1267
  H  H11  1  0.853700  0.626500  0.974000  1.0  0.1177
  H  H12  1  0.665200  0.973100  0.368800  1.0  0.1282
  H  H13  1  0.141800  0.864900  0.516900  1.0  0.1263
  H  H14  1  0.353900  0.721500  0.962500  1.0  0.1226
  H  H15  1  0.358700  0.527300  0.118700  1.0  0.129
  H  H16  1  0.258600  0.987500  0.834100  1.0  0.1287
  H  H17  1  0.754100  0.746800  0.073200  1.0  0.13
  H  H18  1  0.914600  0.973600  0.685900  1.0  0.1272
  H  H19  1  0.146300  0.373500  0.026000  1.0  0.1175
  H  H20  1  0.334800  0.026900  0.631200  1.0  0.1278
  H  H21  1  0.858200  0.135100  0.483100  1.0  0.1286
  C  C22  1  0.591800  0.301800  0.001470  1.0  -0.0624
  C  C23  1  0.349800  0.174400  0.035520  1.0  0.7099
  C  C24  1  0.588900  0.417100  0.908940  1.0  -0.0736
  C  C25  1  0.031000  0.032800  0.174920  1.0  0.7314
  C  C26  1  0.671200  0.383500  0.961230  1.0  0.0605
  C  C27  1  0.777400  0.008100  0.213180  1.0  -0.009
  C  C28  1  0.353700  0.287500  0.936050  1.0  -0.0366
  C  C29  1  0.927600  0.018300  0.231270  1.0  -0.1325
  C  C30  1  0.434000  0.254600  0.989230  1.0  -0.1143
  C  C31  1  0.840300  0.439400  0.978100  1.0  -0.0055
  C  C32  1  0.680000  0.991500  0.264160  1.0  -0.1104
  C  C33  1  0.981500  0.015500  0.301250  1.0  -0.0498
  C  C34  1  0.430900  0.369900  0.896830  1.0  -0.1152
  C  C35  1  0.930500  0.364700  0.992640  1.0  -0.0523
  C  C36  1  0.912400  0.574400  0.984860  1.0  -0.1035
  C  C37  1  0.871200  0.214200  0.974110  1.0  0.6883
  C  C38  1  0.340500  0.410400  0.843220  1.0  0.6576
  C  C39  1  0.518200  0.981600  0.244680  1.0  0.6808
  C  C40  1  0.732600  0.985200  0.334140  1.0  -0.0675
  C  C41  1  0.883600  0.996700  0.352690  1.0  0.0443
  C  C42  1  0.940500  0.994700  0.428010  1.0  -0.0186
  C  C43  1  0.083500  0.919800  0.510300  1.0  -0.0833
  C  C44  1  0.025200  0.910800  0.438400  1.0  -0.0662
  C  C45  1  0.045400  0.806500  0.375200  1.0  0.724
  C  C46  1  0.408200  0.698200  0.998530  1.0  -0.0635
  C  C47  1  0.650200  0.825600  0.964480  1.0  0.7097
  C  C48  1  0.411100  0.582900  0.091060  1.0  -0.0739
  C  C49  1  0.969000  0.967200  0.825080  1.0  0.7322
  C  C50  1  0.328800  0.616500  0.038770  1.0  0.0598
  C  C51  1  0.222600  0.991900  0.786820  1.0  -0.0106
  C  C52  1  0.646300  0.712500  0.063950  1.0  -0.0375
  C  C53  1  0.072400  0.981700  0.768730  1.0  -0.1305
  C  C54  1  0.566000  0.745400  0.010770  1.0  -0.1131
  C  C55  1  0.159700  0.560600  0.021900  1.0  -0.0056
  C  C56  1  0.320000  0.008500  0.735840  1.0  -0.1107
  C  C57  1  0.018500  0.984500  0.698750  1.0  -0.0513
  C  C58  1  0.569100  0.630100  0.103170  1.0  -0.1136
  C  C59  1  0.069500  0.635300  0.007360  1.0  -0.0521
  C  C60  1  0.087600  0.425600  0.015140  1.0  -0.1039
  C  C61  1  0.128800  0.785800  0.025890  1.0  0.6873
  C  C62  1  0.659500  0.589600  0.156780  1.0  0.6529
  C  C63  1  0.481800  0.018400  0.755320  1.0  0.6812
  C  C64  1  0.267400  0.014800  0.665860  1.0  -0.0645
  C  C65  1  0.116400  0.003300  0.647310  1.0  0.0446
  C  C66  1  0.059500  0.005300  0.571990  1.0  -0.0166
  C  C67  1  0.916500  0.080200  0.489700  1.0  -0.0854
  C  C68  1  0.974800  0.089200  0.561600  1.0  -0.0621
  C  C69  1  0.954600  0.193500  0.624800  1.0  0.7252
  O  O70  1  0.972700  0.996900  0.108520  1.0  -0.6137
  O  O71  1  0.210000  0.152800  0.032540  1.0  -0.6191
  O  O72  1  0.426900  0.138000  0.078460  1.0  -0.5717
  O  O73  1  0.173700  0.080600  0.200250  1.0  -0.6033
  O  O74  1  0.910700  0.158320  0.018100  1.0  -0.5918
  O  O75  1  0.789400  0.155860  0.910770  1.0  -0.5897
  O  O76  1  0.497500  0.044700  0.198860  1.0  -0.6218
  O  O77  1  0.197400  0.370300  0.842080  1.0  -0.5884
  O  O78  1  0.417400  0.915600  0.272000  1.0  -0.4656
  O  O79  1  0.926500  0.733200  0.328030  1.0  -0.5707
  O  O80  1  0.405100  0.477200  0.804700  1.0  -0.5147
  O  O81  1  0.172600  0.795700  0.371840  1.0  -0.4612
  O  O82  1  0.027300  0.003100  0.891480  1.0  -0.6141
  O  O83  1  0.790000  0.847200  0.967460  1.0  -0.6209
  O  O84  1  0.573100  0.862000  0.921540  1.0  -0.5704
  O  O85  1  0.826300  0.919400  0.799750  1.0  -0.6036
  O  O86  1  0.089300  0.841680  0.981900  1.0  -0.5928
  O  O87  1  0.210600  0.844140  0.089230  1.0  -0.5903
  O  O88  1  0.502500  0.955300  0.801140  1.0  -0.6212
  O  O89  1  0.802600  0.629700  0.157920  1.0  -0.5907
  O  O90  1  0.582600  0.084400  0.728000  1.0  -0.4663
  O  O91  1  0.073500  0.266800  0.671970  1.0  -0.5693
  O  O92  1  0.594900  0.522800  0.195300  1.0  -0.5105
  O  O93  1  0.827400  0.204300  0.628160  1.0  -0.4625
