# generated using pymatgen
data_Zn2H10C24O13
_symmetry_space_group_name_H-M   'P 1'
_cell_length_a   18.34390000
_cell_length_b   8.80900000
_cell_length_c   23.43880000
_cell_angle_alpha   90.00000000
_cell_angle_beta   101.96500000
_cell_angle_gamma   90.00000000
_symmetry_Int_Tables_number   1
_chemical_formula_structural   Zn2H10C24O13
_chemical_formula_sum   'Zn8 H40 C96 O52'
_cell_volume   3705.22304960
_cell_formula_units_Z   4
loop_
 _symmetry_equiv_pos_site_id
 _symmetry_equiv_pos_as_xyz
  1  'x, y, z'
loop_
 _atom_site_type_symbol
 _atom_site_label
 _atom_site_symmetry_multiplicity
 _atom_site_fract_x
 _atom_site_fract_y
 _atom_site_fract_z
 _atom_site_occupancy
 _atom_site_charge
  Zn  Zn1  1  0.423470  0.703360  0.696660  1.0  1.0629
  Zn  Zn2  1  0.923470  0.203360  0.696660  1.0  1.0628
  Zn  Zn3  1  0.576530  0.703360  0.803340  1.0  1.0636
  Zn  Zn4  1  0.076530  0.203360  0.803340  1.0  1.0636
  Zn  Zn5  1  0.576530  0.296640  0.303340  1.0  1.0636
  Zn  Zn6  1  0.076530  0.796640  0.303340  1.0  1.0636
  Zn  Zn7  1  0.423470  0.296640  0.196660  1.0  1.0635
  Zn  Zn8  1  0.923470  0.796640  0.196660  1.0  1.0634
  H  H9  1  0.496000  0.310500  0.609500  1.0  0.1397
  H  H10  1  0.696500  0.445800  0.703900  1.0  0.1306
  H  H11  1  0.684800  0.096400  0.589800  1.0  0.1419
  H  H12  1  0.574100  0.200000  0.481700  1.0  0.1402
  H  H13  1  0.490000  0.911000  0.778000  1.0  0.3257
  H  H14  1  0.996000  0.810500  0.609500  1.0  0.1397
  H  H15  1  0.196500  0.945800  0.703900  1.0  0.1306
  H  H16  1  0.184800  0.596400  0.589800  1.0  0.1419
  H  H17  1  0.074100  0.700000  0.481700  1.0  0.1402
  H  H18  1  0.990000  0.411000  0.778000  1.0  0.3257
  H  H19  1  0.504000  0.310500  0.890500  1.0  0.14
  H  H20  1  0.303500  0.445800  0.796100  1.0  0.1312
  H  H21  1  0.315200  0.096400  0.910200  1.0  0.1418
  H  H22  1  0.425900  0.200000  0.018300  1.0  0.1405
  H  H23  1  0.510000  0.911000  0.722000  1.0  0.3261
  H  H24  1  0.004000  0.810500  0.890500  1.0  0.14
  H  H25  1  0.803500  0.945800  0.796100  1.0  0.1312
  H  H26  1  0.815200  0.596400  0.910200  1.0  0.1418
  H  H27  1  0.925900  0.700000  0.018300  1.0  0.1405
  H  H28  1  0.010000  0.411000  0.722000  1.0  0.3261
  H  H29  1  0.504000  0.689500  0.390500  1.0  0.14
  H  H30  1  0.303500  0.554200  0.296100  1.0  0.131
  H  H31  1  0.315200  0.903600  0.410200  1.0  0.1422
  H  H32  1  0.425900  0.800000  0.518300  1.0  0.1404
  H  H33  1  0.510000  0.089000  0.222000  1.0  0.3259
  H  H34  1  0.004000  0.189500  0.390500  1.0  0.14
  H  H35  1  0.803500  0.054200  0.296100  1.0  0.131
  H  H36  1  0.815200  0.403600  0.410200  1.0  0.1422
  H  H37  1  0.925900  0.300000  0.518300  1.0  0.1404
  H  H38  1  0.010000  0.589000  0.222000  1.0  0.3259
  H  H39  1  0.496000  0.689500  0.109500  1.0  0.14
  H  H40  1  0.696500  0.554200  0.203900  1.0  0.131
  H  H41  1  0.684800  0.903600  0.089800  1.0  0.1421
  H  H42  1  0.574100  0.800000  0.981700  1.0  0.1404
  H  H43  1  0.490000  0.089000  0.278000  1.0  0.3257
  H  H44  1  0.996000  0.189500  0.109500  1.0  0.14
  H  H45  1  0.196500  0.054200  0.203900  1.0  0.131
  H  H46  1  0.184800  0.403600  0.089800  1.0  0.1421
  H  H47  1  0.074100  0.300000  0.981700  1.0  0.1404
  H  H48  1  0.990000  0.589000  0.278000  1.0  0.3257
  C  C49  1  0.548610  0.299700  0.619710  1.0  -0.0016
  C  C50  1  0.583510  0.187500  0.593220  1.0  0.0872
  C  C51  1  0.488640  0.917200  0.619090  1.0  0.7278
  C  C52  1  0.667720  0.379900  0.675840  1.0  0.0224
  C  C53  1  0.553790  0.516400  0.691090  1.0  0.7259
  C  C54  1  0.660760  0.172200  0.608080  1.0  -0.0648
  C  C55  1  0.702860  0.267600  0.649670  1.0  -0.1178
  C  C56  1  0.543690  0.118100  0.489190  1.0  -0.0509
  C  C57  1  0.590320  0.396400  0.661090  1.0  -0.1288
  C  C58  1  0.539590  0.087100  0.546920  1.0  -0.0056
  C  C59  1  0.494890  0.965900  0.557920  1.0  -0.0989
  C  C60  1  0.785910  0.247600  0.667210  1.0  0.6727
  C  C61  1  0.048610  0.799700  0.619710  1.0  -0.0016
  C  C62  1  0.083510  0.687500  0.593220  1.0  0.0872
  C  C63  1  0.988640  0.417200  0.619090  1.0  0.7278
  C  C64  1  0.167720  0.879900  0.675840  1.0  0.0224
  C  C65  1  0.053790  0.016400  0.691090  1.0  0.7259
  C  C66  1  0.160760  0.672200  0.608080  1.0  -0.0648
  C  C67  1  0.202860  0.767600  0.649670  1.0  -0.1178
  C  C68  1  0.043690  0.618100  0.489190  1.0  -0.0509
  C  C69  1  0.090320  0.896400  0.661090  1.0  -0.1288
  C  C70  1  0.039590  0.587100  0.546920  1.0  -0.0056
  C  C71  1  0.994890  0.465900  0.557920  1.0  -0.0989
  C  C72  1  0.285910  0.747600  0.667210  1.0  0.6727
  C  C73  1  0.451390  0.299700  0.880290  1.0  -0.0013
  C  C74  1  0.416490  0.187500  0.906780  1.0  0.0871
  C  C75  1  0.511360  0.917200  0.880910  1.0  0.7275
  C  C76  1  0.332280  0.379900  0.824160  1.0  0.0236
  C  C77  1  0.446210  0.516400  0.808910  1.0  0.7262
  C  C78  1  0.339240  0.172200  0.891920  1.0  -0.065
  C  C79  1  0.297140  0.267600  0.850330  1.0  -0.1168
  C  C80  1  0.456310  0.118100  0.010810  1.0  -0.0523
  C  C81  1  0.409680  0.396400  0.838910  1.0  -0.1274
  C  C82  1  0.460410  0.087100  0.953080  1.0  -0.0063
  C  C83  1  0.505110  0.965900  0.942080  1.0  -0.099
  C  C84  1  0.214090  0.247600  0.832790  1.0  0.6732
  C  C85  1  0.951390  0.799700  0.880290  1.0  -0.0013
  C  C86  1  0.916490  0.687500  0.906780  1.0  0.0871
  C  C87  1  0.011360  0.417200  0.880910  1.0  0.7275
  C  C88  1  0.832280  0.879900  0.824160  1.0  0.0236
  C  C89  1  0.946210  0.016400  0.808910  1.0  0.7262
  C  C90  1  0.839240  0.672200  0.891920  1.0  -0.065
  C  C91  1  0.797140  0.767600  0.850330  1.0  -0.1168
  C  C92  1  0.956310  0.618100  0.010810  1.0  -0.0523
  C  C93  1  0.909680  0.896400  0.838910  1.0  -0.1274
  C  C94  1  0.960410  0.587100  0.953080  1.0  -0.0063
  C  C95  1  0.005110  0.465900  0.942080  1.0  -0.099
  C  C96  1  0.714090  0.747600  0.832790  1.0  0.6732
  C  C97  1  0.451390  0.700300  0.380290  1.0  -0.0012
  C  C98  1  0.416490  0.812500  0.406780  1.0  0.0877
  C  C99  1  0.511360  0.082800  0.380910  1.0  0.7275
  C  C100  1  0.332280  0.620100  0.324160  1.0  0.0228
  C  C101  1  0.446210  0.483600  0.308910  1.0  0.7258
  C  C102  1  0.339240  0.827800  0.391920  1.0  -0.0651
  C  C103  1  0.297140  0.732400  0.350330  1.0  -0.117
  C  C104  1  0.456310  0.881900  0.510810  1.0  -0.0509
  C  C105  1  0.409680  0.603600  0.338910  1.0  -0.1276
  C  C106  1  0.460410  0.912900  0.453080  1.0  -0.0063
  C  C107  1  0.505110  0.034100  0.442080  1.0  -0.0995
  C  C108  1  0.214090  0.752400  0.332790  1.0  0.6734
  C  C109  1  0.951390  0.200300  0.380290  1.0  -0.0012
  C  C110  1  0.916490  0.312500  0.406780  1.0  0.0877
  C  C111  1  0.011360  0.582800  0.380910  1.0  0.7275
  C  C112  1  0.832280  0.120100  0.324160  1.0  0.0228
  C  C113  1  0.946210  0.983600  0.308910  1.0  0.7258
  C  C114  1  0.839240  0.327800  0.391920  1.0  -0.0651
  C  C115  1  0.797140  0.232400  0.350330  1.0  -0.117
  C  C116  1  0.956310  0.381900  0.510810  1.0  -0.0509
  C  C117  1  0.909680  0.103600  0.338910  1.0  -0.1276
  C  C118  1  0.960410  0.412900  0.453080  1.0  -0.0063
  C  C119  1  0.005110  0.534100  0.442080  1.0  -0.0995
  C  C120  1  0.714090  0.252400  0.332790  1.0  0.6734
  C  C121  1  0.548610  0.700300  0.119710  1.0  -0.0014
  C  C122  1  0.583510  0.812500  0.093220  1.0  0.0879
  C  C123  1  0.488640  0.082800  0.119090  1.0  0.7276
  C  C124  1  0.667720  0.620100  0.175840  1.0  0.0229
  C  C125  1  0.553790  0.483600  0.191090  1.0  0.7255
  C  C126  1  0.660760  0.827800  0.108080  1.0  -0.065
  C  C127  1  0.702860  0.732400  0.149670  1.0  -0.1178
  C  C128  1  0.543690  0.881900  0.989190  1.0  -0.0501
  C  C129  1  0.590320  0.603600  0.161090  1.0  -0.1288
  C  C130  1  0.539590  0.912900  0.046920  1.0  -0.0055
  C  C131  1  0.494890  0.034100  0.057920  1.0  -0.0994
  C  C132  1  0.785910  0.752400  0.167210  1.0  0.6729
  C  C133  1  0.048610  0.200300  0.119710  1.0  -0.0014
  C  C134  1  0.083510  0.312500  0.093220  1.0  0.0879
  C  C135  1  0.988640  0.582800  0.119090  1.0  0.7276
  C  C136  1  0.167720  0.120100  0.175840  1.0  0.0229
  C  C137  1  0.053790  0.983600  0.191090  1.0  0.7255
  C  C138  1  0.160760  0.327800  0.108080  1.0  -0.065
  C  C139  1  0.202860  0.232400  0.149670  1.0  -0.1178
  C  C140  1  0.043690  0.381900  0.989190  1.0  -0.0501
  C  C141  1  0.090320  0.103600  0.161090  1.0  -0.1288
  C  C142  1  0.039590  0.412900  0.046920  1.0  -0.0055
  C  C143  1  0.994890  0.534100  0.057920  1.0  -0.0994
  C  C144  1  0.285910  0.252400  0.167210  1.0  0.6729
  O  O145  1  0.439290  0.821600  0.622340  1.0  -0.5618
  O  O146  1  0.595600  0.595100  0.728670  1.0  -0.5849
  O  O147  1  0.815660  0.129700  0.652660  1.0  -0.5339
  O  O148  1  0.824190  0.350100  0.697560  1.0  -0.5282
  O  O149  1  0.483940  0.527500  0.676400  1.0  -0.5641
  O  O150  1  0.533260  0.973500  0.661520  1.0  -0.5604
  O  O151  1  0.939290  0.321600  0.622340  1.0  -0.5618
  O  O152  1  0.095600  0.095100  0.728670  1.0  -0.5849
  O  O153  1  0.315660  0.629700  0.652660  1.0  -0.5338
  O  O154  1  0.324190  0.850100  0.697560  1.0  -0.5282
  O  O155  1  0.983940  0.027500  0.676400  1.0  -0.5641
  O  O156  1  0.033260  0.473500  0.661520  1.0  -0.5604
  O  O157  1  0.560710  0.821600  0.877660  1.0  -0.5608
  O  O158  1  0.404400  0.595100  0.771330  1.0  -0.5848
  O  O159  1  0.184340  0.129700  0.847340  1.0  -0.5331
  O  O160  1  0.175810  0.350100  0.802440  1.0  -0.5282
  O  O161  1  0.516060  0.527500  0.823600  1.0  -0.5643
  O  O162  1  0.466740  0.973500  0.838480  1.0  -0.5605
  O  O163  1  0.060710  0.321600  0.877660  1.0  -0.5608
  O  O164  1  0.904400  0.095100  0.771330  1.0  -0.5848
  O  O165  1  0.684340  0.629700  0.847340  1.0  -0.5332
  O  O166  1  0.675810  0.850100  0.802440  1.0  -0.5278
  O  O167  1  0.016060  0.027500  0.823600  1.0  -0.5643
  O  O168  1  0.966740  0.473500  0.838480  1.0  -0.5605
  O  O169  1  0.560710  0.178400  0.377660  1.0  -0.5606
  O  O170  1  0.404400  0.404900  0.271330  1.0  -0.5851
  O  O171  1  0.184340  0.870300  0.347340  1.0  -0.5322
  O  O172  1  0.175810  0.649900  0.302440  1.0  -0.5278
  O  O173  1  0.516060  0.472500  0.323600  1.0  -0.5643
  O  O174  1  0.466740  0.026500  0.338480  1.0  -0.5604
  O  O175  1  0.060710  0.678400  0.377660  1.0  -0.5606
  O  O176  1  0.904400  0.904900  0.271330  1.0  -0.5851
  O  O177  1  0.684340  0.370300  0.347340  1.0  -0.5321
  O  O178  1  0.675810  0.149900  0.302440  1.0  -0.5278
  O  O179  1  0.016060  0.972500  0.323600  1.0  -0.5643
  O  O180  1  0.966740  0.526500  0.338480  1.0  -0.5604
  O  O181  1  0.439290  0.178400  0.122340  1.0  -0.5615
  O  O182  1  0.595600  0.404900  0.228670  1.0  -0.5851
  O  O183  1  0.815660  0.870300  0.152660  1.0  -0.5347
  O  O184  1  0.824190  0.649900  0.197560  1.0  -0.5281
  O  O185  1  0.483940  0.472500  0.176400  1.0  -0.5641
  O  O186  1  0.533260  0.026500  0.161520  1.0  -0.5596
  O  O187  1  0.939290  0.678400  0.122340  1.0  -0.5615
  O  O188  1  0.095600  0.904900  0.228670  1.0  -0.5851
  O  O189  1  0.315660  0.370300  0.152660  1.0  -0.5346
  O  O190  1  0.324190  0.149900  0.197560  1.0  -0.5279
  O  O191  1  0.983940  0.972500  0.176400  1.0  -0.5641
  O  O192  1  0.033260  0.526500  0.161520  1.0  -0.5596
  O  O193  1  0.500000  0.844100  0.750000  1.0  -0.7594
  O  O194  1  0.000000  0.344100  0.750000  1.0  -0.7594
  O  O195  1  0.500000  0.155900  0.250000  1.0  -0.7575
  O  O196  1  0.000000  0.655900  0.250000  1.0  -0.7575
