# generated using pymatgen
data_Zn2H4C13O8
_symmetry_space_group_name_H-M   'P 1'
_cell_length_a   12.02400000
_cell_length_b   13.77300000
_cell_length_c   15.85000000
_cell_angle_alpha   90.00000000
_cell_angle_beta   99.09300000
_cell_angle_gamma   90.00000000
_symmetry_Int_Tables_number   1
_chemical_formula_structural   Zn2H4C13O8
_chemical_formula_sum   'Zn8 H16 C52 O32'
_cell_volume   2591.87750553
_cell_formula_units_Z   4
loop_
 _symmetry_equiv_pos_site_id
 _symmetry_equiv_pos_as_xyz
  1  'x, y, z'
loop_
 _atom_site_type_symbol
 _atom_site_label
 _atom_site_symmetry_multiplicity
 _atom_site_fract_x
 _atom_site_fract_y
 _atom_site_fract_z
 _atom_site_occupancy
 _atom_site_charge
  Zn  Zn1  1  0.371390  0.213560  0.432280  1.0  1.0884
  Zn  Zn2  1  0.252550  0.104720  0.240100  1.0  1.1695
  Zn  Zn3  1  0.628610  0.713560  0.067720  1.0  1.0877
  Zn  Zn4  1  0.747450  0.604720  0.259900  1.0  1.1621
  Zn  Zn5  1  0.628610  0.786440  0.567720  1.0  1.0872
  Zn  Zn6  1  0.747450  0.895280  0.759900  1.0  1.167
  Zn  Zn7  1  0.371390  0.286440  0.932280  1.0  1.0875
  Zn  Zn8  1  0.252550  0.395280  0.740100  1.0  1.1641
  H  H9  1  0.032500  0.527000  0.146200  1.0  0.1302
  H  H10  1  0.305500  0.559600  0.040500  1.0  0.1317
  H  H11  1  0.164600  0.363900  0.182200  1.0  0.1307
  H  H12  1  0.491500  0.439500  0.251400  1.0  0.1252
  H  H13  1  0.967500  0.027000  0.353800  1.0  0.1306
  H  H14  1  0.694500  0.059600  0.459500  1.0  0.1325
  H  H15  1  0.835400  0.863900  0.317800  1.0  0.1311
  H  H16  1  0.508500  0.939500  0.248600  1.0  0.1255
  H  H17  1  0.967500  0.473000  0.853800  1.0  0.1308
  H  H18  1  0.694500  0.440400  0.959500  1.0  0.1327
  H  H19  1  0.835400  0.636100  0.817800  1.0  0.1314
  H  H20  1  0.508500  0.560500  0.748600  1.0  0.1255
  H  H21  1  0.032500  0.973000  0.646200  1.0  0.1304
  H  H22  1  0.305500  0.940400  0.540500  1.0  0.1322
  H  H23  1  0.164600  0.136100  0.682200  1.0  0.1308
  H  H24  1  0.491500  0.060500  0.751400  1.0  0.125
  C  C25  1  0.019500  0.516000  0.086250  1.0  -0.07
  C  C26  1  0.414400  0.508300  0.143460  1.0  -0.1479
  C  C27  1  0.218400  0.463400  0.102840  1.0  0.0678
  C  C28  1  0.106600  0.478500  0.047800  1.0  -0.0093
  C  C29  1  0.914300  0.538000  0.040480  1.0  -0.0477
  C  C30  1  0.311500  0.517000  0.088190  1.0  -0.0205
  C  C31  1  0.330100  0.389400  0.225120  1.0  -0.1138
  C  C32  1  0.830100  0.585300  0.087920  1.0  0.7354
  C  C33  1  0.228200  0.400100  0.171700  1.0  -0.0741
  C  C34  1  0.422800  0.444800  0.212830  1.0  -0.0067
  C  C35  1  0.512600  0.569300  0.131160  1.0  0.7115
  C  C36  1  0.339800  0.319700  0.297300  1.0  0.6972
  C  C37  1  0.333333  0.195300  0.089740  1.0  0.3691
  C  C38  1  0.980500  0.016000  0.413750  1.0  -0.0684
  C  C39  1  0.585600  0.008300  0.356540  1.0  -0.1478
  C  C40  1  0.781600  0.963400  0.397160  1.0  0.0674
  C  C41  1  0.893400  0.978500  0.452200  1.0  -0.0077
  C  C42  1  0.085700  0.038000  0.459520  1.0  -0.0482
  C  C43  1  0.688500  0.017000  0.411810  1.0  -0.021
  C  C44  1  0.669900  0.889400  0.274880  1.0  -0.1147
  C  C45  1  0.169900  0.085300  0.412080  1.0  0.7344
  C  C46  1  0.771800  0.900100  0.328300  1.0  -0.0728
  C  C47  1  0.577200  0.944800  0.287170  1.0  -0.0088
  C  C48  1  0.487400  0.069300  0.368840  1.0  0.7112
  C  C49  1  0.660200  0.819700  0.202700  1.0  0.698
  C  C50  1  0.666667  0.695300  0.410260  1.0  0.369
  C  C51  1  0.980500  0.484000  0.913750  1.0  -0.0683
  C  C52  1  0.585600  0.491700  0.856540  1.0  -0.1486
  C  C53  1  0.781600  0.536600  0.897160  1.0  0.0677
  C  C54  1  0.893400  0.521500  0.952200  1.0  -0.0078
  C  C55  1  0.085700  0.462000  0.959520  1.0  -0.0484
  C  C56  1  0.688500  0.483000  0.911810  1.0  -0.0206
  C  C57  1  0.669900  0.610600  0.774880  1.0  -0.1141
  C  C58  1  0.169900  0.414700  0.912080  1.0  0.734
  C  C59  1  0.771800  0.599900  0.828300  1.0  -0.0731
  C  C60  1  0.577200  0.555200  0.787170  1.0  -0.009
  C  C61  1  0.487400  0.430700  0.868840  1.0  0.7116
  C  C62  1  0.660200  0.680300  0.702700  1.0  0.6975
  C  C63  1  0.666667  0.804700  0.910260  1.0  0.3664
  C  C64  1  0.019500  0.984000  0.586250  1.0  -0.0703
  C  C65  1  0.414400  0.991700  0.643460  1.0  -0.1484
  C  C66  1  0.218400  0.036600  0.602840  1.0  0.0676
  C  C67  1  0.106600  0.021500  0.547800  1.0  -0.0091
  C  C68  1  0.914300  0.962000  0.540480  1.0  -0.048
  C  C69  1  0.311500  0.983000  0.588190  1.0  -0.0203
  C  C70  1  0.330100  0.110600  0.725120  1.0  -0.1139
  C  C71  1  0.830100  0.914700  0.587920  1.0  0.7351
  C  C72  1  0.228200  0.099900  0.671700  1.0  -0.0739
  C  C73  1  0.422800  0.055200  0.712830  1.0  -0.0066
  C  C74  1  0.512600  0.930700  0.631160  1.0  0.7115
  C  C75  1  0.339800  0.180300  0.797300  1.0  0.6966
  C  C76  1  0.333333  0.304700  0.589740  1.0  0.3668
  O  O77  1  0.760370  0.641980  0.043700  1.0  -0.5842
  O  O78  1  0.838980  0.568930  0.166060  1.0  -0.6341
  O  O79  1  0.601480  0.558200  0.181460  1.0  -0.6413
  O  O80  1  0.499610  0.628510  0.069430  1.0  -0.5778
  O  O81  1  0.271100  0.252100  0.297520  1.0  -0.6262
  O  O82  1  0.401700  0.208970  0.038410  1.0  -0.6036
  O  O83  1  0.355400  0.139900  0.152990  1.0  -0.6255
  O  O84  1  0.419600  0.329600  0.359390  1.0  -0.5673
  O  O85  1  0.239630  0.141980  0.456300  1.0  -0.5848
  O  O86  1  0.161020  0.068930  0.333940  1.0  -0.6365
  O  O87  1  0.398520  0.058200  0.318540  1.0  -0.6409
  O  O88  1  0.500390  0.128510  0.430570  1.0  -0.5762
  O  O89  1  0.728900  0.752100  0.202480  1.0  -0.6256
  O  O90  1  0.598300  0.708970  0.461590  1.0  -0.6051
  O  O91  1  0.644600  0.639900  0.347010  1.0  -0.6266
  O  O92  1  0.580400  0.829600  0.140610  1.0  -0.5678
  O  O93  1  0.239630  0.358020  0.956300  1.0  -0.5842
  O  O94  1  0.161020  0.431070  0.833940  1.0  -0.6373
  O  O95  1  0.398520  0.441800  0.818540  1.0  -0.6411
  O  O96  1  0.500390  0.371490  0.930570  1.0  -0.5761
  O  O97  1  0.728900  0.747900  0.702480  1.0  -0.6262
  O  O98  1  0.598300  0.791030  0.961590  1.0  -0.6044
  O  O99  1  0.644600  0.860100  0.847010  1.0  -0.6256
  O  O100  1  0.580400  0.670400  0.640610  1.0  -0.5664
  O  O101  1  0.760370  0.858020  0.543700  1.0  -0.5846
  O  O102  1  0.838980  0.931070  0.666060  1.0  -0.6344
  O  O103  1  0.601480  0.941800  0.681460  1.0  -0.6429
  O  O104  1  0.499610  0.871490  0.569430  1.0  -0.5766
  O  O105  1  0.271100  0.247900  0.797520  1.0  -0.6263
  O  O106  1  0.401700  0.291030  0.538410  1.0  -0.6033
  O  O107  1  0.355400  0.360100  0.652990  1.0  -0.6252
  O  O108  1  0.419600  0.170400  0.859390  1.0  -0.5675
