# generated using pymatgen
data_ZnH2(C2O)3
_symmetry_space_group_name_H-M   'P 1'
_cell_length_a   17.05490000
_cell_length_b   15.39860000
_cell_length_c   23.01040000
_cell_angle_alpha   90.00000000
_cell_angle_beta   102.75400000
_cell_angle_gamma   90.00000000
_symmetry_Int_Tables_number   1
_chemical_formula_structural   ZnH2(C2O)3
_chemical_formula_sum   'Zn16 H32 C96 O48'
_cell_volume   5893.92751423
_cell_formula_units_Z   16
loop_
 _symmetry_equiv_pos_site_id
 _symmetry_equiv_pos_as_xyz
  1  'x, y, z'
loop_
 _atom_site_type_symbol
 _atom_site_label
 _atom_site_symmetry_multiplicity
 _atom_site_fract_x
 _atom_site_fract_y
 _atom_site_fract_z
 _atom_site_occupancy
 _atom_site_charge
  Zn  Zn1  1  0.981230  0.225610  0.572240  1.0  0.892
  Zn  Zn2  1  0.885400  0.331080  0.432500  1.0  1.1004
  Zn  Zn3  1  0.590300  0.031250  0.623900  1.0  1.0741
  Zn  Zn4  1  0.546500  0.829610  0.667450  1.0  0.9129
  Zn  Zn5  1  0.518770  0.725610  0.927760  1.0  0.8936
  Zn  Zn6  1  0.614600  0.831080  0.067500  1.0  1.1028
  Zn  Zn7  1  0.909700  0.531250  0.876100  1.0  1.0738
  Zn  Zn8  1  0.953500  0.329610  0.832550  1.0  0.9172
  Zn  Zn9  1  0.018770  0.774390  0.427760  1.0  0.8933
  Zn  Zn10  1  0.114600  0.668920  0.567500  1.0  1.1025
  Zn  Zn11  1  0.409700  0.968750  0.376100  1.0  1.0759
  Zn  Zn12  1  0.453500  0.170390  0.332550  1.0  0.9142
  Zn  Zn13  1  0.481230  0.274390  0.072240  1.0  0.8926
  Zn  Zn14  1  0.385400  0.168920  0.932500  1.0  1.1002
  Zn  Zn15  1  0.090300  0.468750  0.123900  1.0  1.0764
  Zn  Zn16  1  0.046500  0.670390  0.167450  1.0  0.9167
  H  H17  1  0.862100  0.011800  0.527900  1.0  0.0989
  H  H18  1  0.863900  0.568300  0.530200  1.0  0.0889
  H  H19  1  0.740800  0.718500  0.629500  1.0  0.0932
  H  H20  1  0.633900  0.921400  0.480800  1.0  0.1003
  H  H21  1  0.858600  0.638800  0.698900  1.0  0.1032
  H  H22  1  0.874600  0.859500  0.500300  1.0  0.0979
  H  H23  1  0.689000  0.156000  0.421300  1.0  0.1042
  H  H24  1  0.904100  0.388900  0.661500  1.0  0.1012
  H  H25  1  0.637900  0.511800  0.972100  1.0  0.0986
  H  H26  1  0.636100  0.068300  0.969800  1.0  0.1015
  H  H27  1  0.759200  0.218500  0.870500  1.0  0.0927
  H  H28  1  0.866100  0.421400  0.019200  1.0  0.1024
  H  H29  1  0.641400  0.138800  0.801100  1.0  0.1034
  H  H30  1  0.625400  0.359500  0.999700  1.0  0.0977
  H  H31  1  0.811000  0.656000  0.078700  1.0  0.1043
  H  H32  1  0.595900  0.888900  0.838500  1.0  0.1012
  H  H33  1  0.137900  0.988200  0.472100  1.0  0.0986
  H  H34  1  0.136100  0.431700  0.469800  1.0  0.088
  H  H35  1  0.259200  0.281500  0.370500  1.0  0.093
  H  H36  1  0.366100  0.078600  0.519200  1.0  0.1012
  H  H37  1  0.141400  0.361200  0.301100  1.0  0.1031
  H  H38  1  0.125400  0.140500  0.499700  1.0  0.0985
  H  H39  1  0.311000  0.844000  0.578700  1.0  0.1042
  H  H40  1  0.095900  0.611100  0.338500  1.0  0.1011
  H  H41  1  0.362100  0.488200  0.027900  1.0  0.0991
  H  H42  1  0.363900  0.931700  0.030200  1.0  0.1023
  H  H43  1  0.240800  0.781500  0.129500  1.0  0.0922
  H  H44  1  0.133900  0.578600  0.980800  1.0  0.1024
  H  H45  1  0.358600  0.861200  0.198900  1.0  0.1031
  H  H46  1  0.374600  0.640500  0.000300  1.0  0.0976
  H  H47  1  0.189000  0.344000  0.921300  1.0  0.1039
  H  H48  1  0.404100  0.111100  0.161500  1.0  0.1011
  C  C49  1  0.807720  0.018820  0.507250  1.0  -0.0992
  C  C50  1  0.867840  0.553460  0.570810  1.0  -0.0777
  C  C51  1  0.785000  0.094600  0.474700  1.0  -0.1702
  C  C52  1  0.649600  0.040200  0.446900  1.0  -0.149
  C  C53  1  0.768700  0.747400  0.603600  1.0  -0.0772
  C  C54  1  0.883500  0.468800  0.589200  1.0  -0.1565
  C  C55  1  0.741680  0.828180  0.580720  1.0  -0.0885
  C  C56  1  0.952180  0.718350  0.536220  1.0  0.6646
  C  C57  1  0.887300  0.397630  0.543810  1.0  0.7142
  C  C58  1  0.672620  0.965230  0.479360  1.0  -0.0538
  C  C59  1  0.846400  0.163800  0.472200  1.0  0.6934
  C  C60  1  0.865500  0.595740  0.670890  1.0  -0.0917
  C  C61  1  0.780650  0.870920  0.541070  1.0  -0.0366
  C  C62  1  0.752550  0.953420  0.510110  1.0  0.04
  C  C63  1  0.883400  0.510180  0.689430  1.0  -0.1593
  C  C64  1  0.847640  0.831340  0.527080  1.0  -0.1751
  C  C65  1  0.876300  0.750900  0.551600  1.0  -0.1146
  C  C66  1  0.705110  0.104910  0.443990  1.0  -0.0029
  C  C67  1  0.836240  0.707220  0.589620  1.0  0.0055
  C  C68  1  0.892150  0.447070  0.648740  1.0  -0.0006
  C  C69  1  0.857800  0.617400  0.611400  1.0  0.0217
  C  C70  1  0.564200  0.051400  0.413600  1.0  0.7162
  C  C71  1  0.672500  0.866300  0.603300  1.0  0.6833
  C  C72  1  0.894900  0.485400  0.753950  1.0  0.7146
  C  C73  1  0.692280  0.518820  0.992750  1.0  -0.1
  C  C74  1  0.632160  0.053460  0.929190  1.0  -0.0847
  C  C75  1  0.715000  0.594600  0.025300  1.0  -0.1699
  C  C76  1  0.850400  0.540200  0.053100  1.0  -0.1489
  C  C77  1  0.731300  0.247400  0.896400  1.0  -0.0754
  C  C78  1  0.616500  0.968800  0.910800  1.0  -0.156
  C  C79  1  0.758320  0.328180  0.919280  1.0  -0.0892
  C  C80  1  0.547820  0.218350  0.963780  1.0  0.6657
  C  C81  1  0.612700  0.897630  0.956190  1.0  0.7154
  C  C82  1  0.827380  0.465230  0.020640  1.0  -0.0549
  C  C83  1  0.653600  0.663800  0.027800  1.0  0.6939
  C  C84  1  0.634500  0.095740  0.829110  1.0  -0.0908
  C  C85  1  0.719350  0.370920  0.958930  1.0  -0.0367
  C  C86  1  0.747450  0.453420  0.989890  1.0  0.04
  C  C87  1  0.616600  0.010180  0.810570  1.0  -0.1592
  C  C88  1  0.652360  0.331340  0.972920  1.0  -0.1768
  C  C89  1  0.623700  0.250900  0.948400  1.0  -0.1147
  C  C90  1  0.794890  0.604910  0.056010  1.0  -0.0027
  C  C91  1  0.663760  0.207220  0.910380  1.0  0.0056
  C  C92  1  0.607850  0.947070  0.851260  1.0  -0.0013
  C  C93  1  0.642200  0.117400  0.888600  1.0  0.0213
  C  C94  1  0.935800  0.551400  0.086400  1.0  0.7144
  C  C95  1  0.827500  0.366300  0.896700  1.0  0.6817
  C  C96  1  0.605100  0.985400  0.746050  1.0  0.7135
  C  C97  1  0.192280  0.981180  0.492750  1.0  -0.0998
  C  C98  1  0.132160  0.446540  0.429190  1.0  -0.0774
  C  C99  1  0.215000  0.905400  0.525300  1.0  -0.1707
  C  C100  1  0.350400  0.959800  0.553100  1.0  -0.1495
  C  C101  1  0.231300  0.252600  0.396400  1.0  -0.0754
  C  C102  1  0.116500  0.531200  0.410800  1.0  -0.1562
  C  C103  1  0.258320  0.171820  0.419280  1.0  -0.0895
  C  C104  1  0.047820  0.281650  0.463780  1.0  0.6662
  C  C105  1  0.112700  0.602370  0.456190  1.0  0.7147
  C  C106  1  0.327380  0.034770  0.520640  1.0  -0.0558
  C  C107  1  0.153600  0.836200  0.527800  1.0  0.6939
  C  C108  1  0.134500  0.404260  0.329110  1.0  -0.0903
  C  C109  1  0.219350  0.129080  0.458930  1.0  -0.0367
  C  C110  1  0.247450  0.046580  0.489890  1.0  0.0403
  C  C111  1  0.116600  0.489820  0.310570  1.0  -0.1588
  C  C112  1  0.152360  0.168660  0.472920  1.0  -0.1769
  C  C113  1  0.123700  0.249100  0.448400  1.0  -0.1147
  C  C114  1  0.294890  0.895090  0.556010  1.0  -0.0025
  C  C115  1  0.163760  0.292780  0.410380  1.0  0.0057
  C  C116  1  0.107850  0.552930  0.351260  1.0  -0.0009
  C  C117  1  0.142200  0.382600  0.388600  1.0  0.0209
  C  C118  1  0.435800  0.948600  0.586400  1.0  0.7144
  C  C119  1  0.327500  0.133700  0.396700  1.0  0.6811
  C  C120  1  0.105100  0.514600  0.246050  1.0  0.7133
  C  C121  1  0.307720  0.481180  0.007250  1.0  -0.0991
  C  C122  1  0.367840  0.946540  0.070810  1.0  -0.0845
  C  C123  1  0.285000  0.405400  0.974700  1.0  -0.1704
  C  C124  1  0.149600  0.459800  0.946900  1.0  -0.1491
  C  C125  1  0.268700  0.752600  0.103600  1.0  -0.0772
  C  C126  1  0.383500  0.031200  0.089200  1.0  -0.1562
  C  C127  1  0.241680  0.671820  0.080720  1.0  -0.0888
  C  C128  1  0.452180  0.781650  0.036220  1.0  0.665
  C  C129  1  0.387300  0.102370  0.043810  1.0  0.714
  C  C130  1  0.172620  0.534770  0.979360  1.0  -0.0547
  C  C131  1  0.346400  0.336200  0.972200  1.0  0.6931
  C  C132  1  0.365500  0.904260  0.170890  1.0  -0.0911
  C  C133  1  0.280650  0.629080  0.041070  1.0  -0.0365
  C  C134  1  0.252550  0.546580  0.010110  1.0  0.0402
  C  C135  1  0.383400  0.989820  0.189430  1.0  -0.1592
  C  C136  1  0.347640  0.668660  0.027080  1.0  -0.175
  C  C137  1  0.376300  0.749100  0.051600  1.0  -0.1148
  C  C138  1  0.205110  0.395090  0.943990  1.0  -0.0027
  C  C139  1  0.336240  0.792780  0.089620  1.0  0.0057
  C  C140  1  0.392150  0.052930  0.148740  1.0  -0.0002
  C  C141  1  0.357800  0.882600  0.111400  1.0  0.0212
  C  C142  1  0.064200  0.448600  0.913600  1.0  0.7162
  C  C143  1  0.172500  0.633700  0.103300  1.0  0.6833
  C  C144  1  0.394900  0.014600  0.253950  1.0  0.7148
  O  O145  1  0.820000  0.229540  0.439630  1.0  -0.6497
  O  O146  1  0.953950  0.713600  0.483110  1.0  -0.6265
  O  O147  1  0.916450  0.153460  0.500900  1.0  -0.6126
  O  O148  1  0.008140  0.699340  0.580200  1.0  -0.6217
  O  O149  1  0.883460  0.421770  0.491100  1.0  -0.6231
  O  O150  1  0.893110  0.320720  0.561320  1.0  -0.6212
  O  O151  1  0.550690  0.113080  0.377570  1.0  -0.6338
  O  O152  1  0.670650  0.948620  0.607990  1.0  -0.6359
  O  O153  1  0.909390  0.408190  0.766480  1.0  -0.6579
  O  O154  1  0.886000  0.544670  0.789950  1.0  -0.639
  O  O155  1  0.513830  0.997050  0.422710  1.0  -0.6229
  O  O156  1  0.623080  0.814150  0.617460  1.0  -0.6299
  O  O157  1  0.680000  0.729540  0.060370  1.0  -0.6474
  O  O158  1  0.546050  0.213600  0.016890  1.0  -0.6269
  O  O159  1  0.583550  0.653460  0.999100  1.0  -0.6135
  O  O160  1  0.491860  0.199340  0.919800  1.0  -0.6162
  O  O161  1  0.616540  0.921770  0.008900  1.0  -0.6239
  O  O162  1  0.606890  0.820720  0.938680  1.0  -0.6204
  O  O163  1  0.949310  0.613080  0.122430  1.0  -0.6345
  O  O164  1  0.829350  0.448620  0.892010  1.0  -0.638
  O  O165  1  0.590610  0.908190  0.733520  1.0  -0.6583
  O  O166  1  0.614000  0.044670  0.710050  1.0  -0.6391
  O  O167  1  0.986170  0.497050  0.077290  1.0  -0.6235
  O  O168  1  0.876920  0.314150  0.882540  1.0  -0.6292
  O  O169  1  0.180000  0.770460  0.560370  1.0  -0.6453
  O  O170  1  0.046050  0.286400  0.516890  1.0  -0.6274
  O  O171  1  0.083550  0.846540  0.499100  1.0  -0.6137
  O  O172  1  0.991860  0.300660  0.419800  1.0  -0.6205
  O  O173  1  0.116540  0.578230  0.508900  1.0  -0.6219
  O  O174  1  0.106890  0.679280  0.438680  1.0  -0.6215
  O  O175  1  0.449310  0.886920  0.622430  1.0  -0.6381
  O  O176  1  0.329350  0.051380  0.392010  1.0  -0.6371
  O  O177  1  0.090610  0.591810  0.233520  1.0  -0.662
  O  O178  1  0.114000  0.455330  0.210050  1.0  -0.6383
  O  O179  1  0.486170  0.002950  0.577290  1.0  -0.6236
  O  O180  1  0.376920  0.185850  0.382540  1.0  -0.6305
  O  O181  1  0.320000  0.270460  0.939630  1.0  -0.6457
  O  O182  1  0.453950  0.786400  0.983110  1.0  -0.6269
  O  O183  1  0.416450  0.346540  0.000900  1.0  -0.6124
  O  O184  1  0.508140  0.800660  0.080200  1.0  -0.6186
  O  O185  1  0.383460  0.078230  0.991100  1.0  -0.6226
  O  O186  1  0.393110  0.179280  0.061320  1.0  -0.6225
  O  O187  1  0.050690  0.386920  0.877570  1.0  -0.6361
  O  O188  1  0.170650  0.551380  0.107990  1.0  -0.6364
  O  O189  1  0.409390  0.091810  0.266480  1.0  -0.6613
  O  O190  1  0.386000  0.955330  0.289950  1.0  -0.6391
  O  O191  1  0.013830  0.502950  0.922710  1.0  -0.6226
  O  O192  1  0.123080  0.685850  0.117460  1.0  -0.6288
