# generated using pymatgen
data_InH24C28NO8
_symmetry_space_group_name_H-M   'P 1'
_cell_length_a   8.28350000
_cell_length_b   31.74500000
_cell_length_c   31.74500000
_cell_angle_alpha   90.00000000
_cell_angle_beta   90.00000000
_cell_angle_gamma   90.00000000
_symmetry_Int_Tables_number   1
_chemical_formula_structural   InH24C28NO8
_chemical_formula_sum   'In8 H192 C224 N8 O64'
_cell_volume   8347.65591459
_cell_formula_units_Z   8
loop_
 _symmetry_equiv_pos_site_id
 _symmetry_equiv_pos_as_xyz
  1  'x, y, z'
loop_
 _atom_site_type_symbol
 _atom_site_label
 _atom_site_symmetry_multiplicity
 _atom_site_fract_x
 _atom_site_fract_y
 _atom_site_fract_z
 _atom_site_occupancy
 _atom_site_charge
  In  In1  1  0.903100  0.465420  0.306960  1.0  1.4966
  In  In2  1  0.903100  0.034580  0.193040  1.0  1.4963
  In  In3  1  0.903100  0.193040  0.465420  1.0  1.4961
  In  In4  1  0.903100  0.306960  0.034580  1.0  1.4957
  In  In5  1  0.096900  0.534580  0.693040  1.0  1.4962
  In  In6  1  0.096900  0.965420  0.806960  1.0  1.4966
  In  In7  1  0.096900  0.806960  0.534580  1.0  1.4956
  In  In8  1  0.096900  0.693040  0.965420  1.0  1.4961
  H  H9  1  0.356500  0.379700  0.324700  1.0  0.0892
  H  H10  1  0.613700  0.338200  0.328400  1.0  0.1033
  H  H11  1  0.763600  0.286200  0.357500  1.0  0.1295
  H  H12  1  0.376000  0.246000  0.423400  1.0  0.1109
  H  H13  1  0.116500  0.285800  0.416200  1.0  0.1042
  H  H14  1  0.974700  0.342400  0.391600  1.0  0.1203
  H  H15  1  0.721800  0.572100  0.211200  1.0  0.1102
  H  H16  1  0.726600  0.610000  0.151300  1.0  0.1198
  H  H17  1  0.860300  0.630900  0.083900  1.0  0.1007
  H  H18  1  0.288400  0.580400  0.054200  1.0  0.1286
  H  H19  1  0.278000  0.538300  0.112200  1.0  0.1233
  H  H20  1  0.140500  0.518100  0.179600  1.0  0.0972
  H  H21  1  0.356500  0.120300  0.175300  1.0  0.0902
  H  H22  1  0.613700  0.161800  0.171600  1.0  0.1039
  H  H23  1  0.763600  0.213800  0.142500  1.0  0.1299
  H  H24  1  0.376000  0.254000  0.076600  1.0  0.1107
  H  H25  1  0.116500  0.214200  0.083800  1.0  0.1042
  H  H26  1  0.974700  0.157600  0.108400  1.0  0.1207
  H  H27  1  0.721800  0.927900  0.288800  1.0  0.1102
  H  H28  1  0.726600  0.890000  0.348700  1.0  0.119
  H  H29  1  0.860300  0.869100  0.416100  1.0  0.1007
  H  H30  1  0.288400  0.919600  0.445800  1.0  0.1283
  H  H31  1  0.278000  0.961700  0.387800  1.0  0.1238
  H  H32  1  0.140500  0.981900  0.320400  1.0  0.0973
  H  H33  1  0.356500  0.175300  0.379700  1.0  0.0914
  H  H34  1  0.613700  0.171600  0.338200  1.0  0.1031
  H  H35  1  0.763600  0.142500  0.286200  1.0  0.1289
  H  H36  1  0.376000  0.076600  0.246000  1.0  0.1109
  H  H37  1  0.116500  0.083800  0.285800  1.0  0.104
  H  H38  1  0.974700  0.108400  0.342400  1.0  0.1194
  H  H39  1  0.721800  0.288800  0.572100  1.0  0.1107
  H  H40  1  0.726600  0.348700  0.610000  1.0  0.1187
  H  H41  1  0.860300  0.416100  0.630900  1.0  0.0996
  H  H42  1  0.288400  0.445800  0.580400  1.0  0.129
  H  H43  1  0.278000  0.387800  0.538300  1.0  0.1231
  H  H44  1  0.140500  0.320400  0.518100  1.0  0.0954
  H  H45  1  0.356500  0.324700  0.120300  1.0  0.0921
  H  H46  1  0.613700  0.328400  0.161800  1.0  0.1038
  H  H47  1  0.763600  0.357500  0.213800  1.0  0.1288
  H  H48  1  0.376000  0.423400  0.254000  1.0  0.111
  H  H49  1  0.116500  0.416200  0.214200  1.0  0.1035
  H  H50  1  0.974700  0.391600  0.157600  1.0  0.12
  H  H51  1  0.721800  0.211200  0.927900  1.0  0.1109
  H  H52  1  0.726600  0.151300  0.890000  1.0  0.1186
  H  H53  1  0.860300  0.083900  0.869100  1.0  0.0992
  H  H54  1  0.288400  0.054200  0.919600  1.0  0.1292
  H  H55  1  0.278000  0.112200  0.961700  1.0  0.1236
  H  H56  1  0.140500  0.179600  0.981900  1.0  0.0957
  H  H57  1  0.643500  0.620300  0.675300  1.0  0.0901
  H  H58  1  0.386300  0.661800  0.671600  1.0  0.1039
  H  H59  1  0.236400  0.713800  0.642500  1.0  0.1302
  H  H60  1  0.624000  0.754000  0.576600  1.0  0.1105
  H  H61  1  0.883500  0.714200  0.583800  1.0  0.1041
  H  H62  1  0.025300  0.657600  0.608400  1.0  0.1192
  H  H63  1  0.278200  0.427900  0.788800  1.0  0.11
  H  H64  1  0.273400  0.390000  0.848700  1.0  0.1189
  H  H65  1  0.139700  0.369100  0.916100  1.0  0.1002
  H  H66  1  0.711600  0.419600  0.945800  1.0  0.1286
  H  H67  1  0.722000  0.461700  0.887800  1.0  0.1239
  H  H68  1  0.859500  0.481900  0.820400  1.0  0.0974
  H  H69  1  0.643500  0.879700  0.824700  1.0  0.0893
  H  H70  1  0.386300  0.838200  0.828400  1.0  0.1033
  H  H71  1  0.236400  0.786200  0.857500  1.0  0.1307
  H  H72  1  0.624000  0.746000  0.923400  1.0  0.1107
  H  H73  1  0.883500  0.785800  0.916200  1.0  0.1044
  H  H74  1  0.025300  0.842400  0.891600  1.0  0.1194
  H  H75  1  0.278200  0.072100  0.711200  1.0  0.1097
  H  H76  1  0.273400  0.110000  0.651300  1.0  0.1196
  H  H77  1  0.139700  0.130900  0.583900  1.0  0.1
  H  H78  1  0.711600  0.080400  0.554200  1.0  0.1289
  H  H79  1  0.722000  0.038300  0.612200  1.0  0.1233
  H  H80  1  0.859500  0.018100  0.679600  1.0  0.0966
  H  H81  1  0.643500  0.824700  0.620300  1.0  0.0922
  H  H82  1  0.386300  0.828400  0.661800  1.0  0.1037
  H  H83  1  0.236400  0.857500  0.713800  1.0  0.1292
  H  H84  1  0.624000  0.923400  0.754000  1.0  0.1108
  H  H85  1  0.883500  0.916200  0.714200  1.0  0.1036
  H  H86  1  0.025300  0.891600  0.657600  1.0  0.1192
  H  H87  1  0.278200  0.711200  0.427900  1.0  0.1103
  H  H88  1  0.273400  0.651300  0.390000  1.0  0.1185
  H  H89  1  0.139700  0.583900  0.369100  1.0  0.0986
  H  H90  1  0.711600  0.554200  0.419600  1.0  0.1293
  H  H91  1  0.722000  0.612200  0.461700  1.0  0.1237
  H  H92  1  0.859500  0.679600  0.481900  1.0  0.0955
  H  H93  1  0.643500  0.675300  0.879700  1.0  0.0914
  H  H94  1  0.386300  0.671600  0.838200  1.0  0.1031
  H  H95  1  0.236400  0.642500  0.786200  1.0  0.1292
  H  H96  1  0.624000  0.576600  0.746000  1.0  0.1105
  H  H97  1  0.883500  0.583800  0.785800  1.0  0.1042
  H  H98  1  0.025300  0.608400  0.842400  1.0  0.1185
  H  H99  1  0.278200  0.788800  0.072100  1.0  0.1105
  H  H100  1  0.273400  0.848700  0.110000  1.0  0.1186
  H  H101  1  0.139700  0.916100  0.130900  1.0  0.0991
  H  H102  1  0.711600  0.945800  0.080400  1.0  0.1293
  H  H103  1  0.722000  0.887800  0.038300  1.0  0.1233
  H  H104  1  0.859500  0.820400  0.018100  1.0  0.0956
  H  H105  1  0.464200  0.475900  0.317200  1.0  0.1844
  H  H106  1  0.293700  0.486400  0.320600  1.0  0.2193
  H  H107  1  0.514800  0.517400  0.375400  1.0  0.0904
  H  H108  1  0.327100  0.520900  0.380300  1.0  0.0773
  H  H109  1  0.484200  0.442500  0.382900  1.0  0.1262
  H  H110  1  0.446600  0.468200  0.423900  1.0  0.1147
  H  H111  1  0.304800  0.451100  0.396000  1.0  0.115
  H  H112  1  0.341800  0.555600  0.308300  1.0  0.0695
  H  H113  1  0.528000  0.545900  0.307600  1.0  0.0724
  H  H114  1  0.391200  0.549500  0.238300  1.0  0.1097
  H  H115  1  0.511600  0.511900  0.244800  1.0  0.1151
  H  H116  1  0.325200  0.504500  0.249300  1.0  0.1169
  H  H117  1  0.464200  0.024100  0.182800  1.0  0.1849
  H  H118  1  0.293700  0.013600  0.179400  1.0  0.2201
  H  H119  1  0.514800  0.982600  0.124600  1.0  0.0887
  H  H120  1  0.327100  0.979100  0.119700  1.0  0.0766
  H  H121  1  0.484200  0.057500  0.117100  1.0  0.1278
  H  H122  1  0.446600  0.031800  0.076100  1.0  0.1155
  H  H123  1  0.304800  0.048900  0.104000  1.0  0.1118
  H  H124  1  0.341800  0.944400  0.191700  1.0  0.0691
  H  H125  1  0.528000  0.954100  0.192400  1.0  0.0721
  H  H126  1  0.391200  0.950500  0.261700  1.0  0.109
  H  H127  1  0.511600  0.988100  0.255200  1.0  0.1145
  H  H128  1  0.325200  0.995500  0.250700  1.0  0.1168
  H  H129  1  0.464200  0.182800  0.475900  1.0  0.1849
  H  H130  1  0.293700  0.179400  0.486400  1.0  0.2207
  H  H131  1  0.514800  0.124600  0.517400  1.0  0.0903
  H  H132  1  0.327100  0.119700  0.520900  1.0  0.0773
  H  H133  1  0.484200  0.117100  0.442500  1.0  0.126
  H  H134  1  0.446600  0.076100  0.468200  1.0  0.1136
  H  H135  1  0.304800  0.104000  0.451100  1.0  0.1112
  H  H136  1  0.341800  0.191700  0.555600  1.0  0.0673
  H  H137  1  0.528000  0.192400  0.545900  1.0  0.0728
  H  H138  1  0.391200  0.261700  0.549500  1.0  0.1106
  H  H139  1  0.511600  0.255200  0.511900  1.0  0.1129
  H  H140  1  0.325200  0.250700  0.504500  1.0  0.1174
  H  H141  1  0.464200  0.317200  0.024100  1.0  0.1849
  H  H142  1  0.293700  0.320600  0.013600  1.0  0.2198
  H  H143  1  0.514800  0.375400  0.982600  1.0  0.0892
  H  H144  1  0.327100  0.380300  0.979100  1.0  0.0756
  H  H145  1  0.484200  0.382900  0.057500  1.0  0.127
  H  H146  1  0.446600  0.423900  0.031800  1.0  0.1139
  H  H147  1  0.304800  0.396000  0.048900  1.0  0.1107
  H  H148  1  0.341800  0.308300  0.944400  1.0  0.0671
  H  H149  1  0.528000  0.307600  0.954100  1.0  0.0719
  H  H150  1  0.391200  0.238300  0.950500  1.0  0.1106
  H  H151  1  0.511600  0.244800  0.988100  1.0  0.1119
  H  H152  1  0.325200  0.249300  0.995500  1.0  0.1166
  H  H153  1  0.535800  0.524100  0.682800  1.0  0.1851
  H  H154  1  0.706300  0.513600  0.679400  1.0  0.2099
  H  H155  1  0.485200  0.482600  0.624600  1.0  0.0888
  H  H156  1  0.672900  0.479100  0.619700  1.0  0.0763
  H  H157  1  0.515800  0.557500  0.617100  1.0  0.1265
  H  H158  1  0.553400  0.531800  0.576100  1.0  0.1151
  H  H159  1  0.695200  0.548900  0.604000  1.0  0.1131
  H  H160  1  0.658200  0.444400  0.691700  1.0  0.0694
  H  H161  1  0.472000  0.454100  0.692400  1.0  0.0732
  H  H162  1  0.608800  0.450500  0.761700  1.0  0.1093
  H  H163  1  0.488400  0.488100  0.755200  1.0  0.1139
  H  H164  1  0.674800  0.495500  0.750700  1.0  0.1158
  H  H165  1  0.535800  0.975900  0.817200  1.0  0.1853
  H  H166  1  0.706300  0.986400  0.820600  1.0  0.2091
  H  H167  1  0.485200  0.017400  0.875400  1.0  0.0887
  H  H168  1  0.672900  0.020900  0.880300  1.0  0.0765
  H  H169  1  0.515800  0.942500  0.882900  1.0  0.1261
  H  H170  1  0.553400  0.968200  0.923900  1.0  0.1147
  H  H171  1  0.695200  0.951100  0.896000  1.0  0.1113
  H  H172  1  0.658200  0.055600  0.808300  1.0  0.07
  H  H173  1  0.472000  0.045900  0.807600  1.0  0.0723
  H  H174  1  0.608800  0.049500  0.738300  1.0  0.1094
  H  H175  1  0.488400  0.011900  0.744800  1.0  0.1126
  H  H176  1  0.674800  0.004500  0.749300  1.0  0.1163
  H  H177  1  0.535800  0.817200  0.524100  1.0  0.1852
  H  H178  1  0.706300  0.820600  0.513600  1.0  0.2096
  H  H179  1  0.485200  0.875400  0.482600  1.0  0.0892
  H  H180  1  0.672900  0.880300  0.479100  1.0  0.075
  H  H181  1  0.515800  0.882900  0.557500  1.0  0.1266
  H  H182  1  0.553400  0.923900  0.531800  1.0  0.1137
  H  H183  1  0.695200  0.896000  0.548900  1.0  0.1089
  H  H184  1  0.658200  0.808300  0.444400  1.0  0.0677
  H  H185  1  0.472000  0.807600  0.454100  1.0  0.0736
  H  H186  1  0.608800  0.738300  0.450500  1.0  0.1104
  H  H187  1  0.488400  0.744800  0.488100  1.0  0.1114
  H  H188  1  0.674800  0.749300  0.495500  1.0  0.117
  H  H189  1  0.535800  0.682800  0.975900  1.0  0.1861
  H  H190  1  0.706300  0.679400  0.986400  1.0  0.2097
  H  H191  1  0.485200  0.624600  0.017400  1.0  0.0893
  H  H192  1  0.672900  0.619700  0.020900  1.0  0.0761
  H  H193  1  0.515800  0.617100  0.942500  1.0  0.1254
  H  H194  1  0.553400  0.576100  0.968200  1.0  0.1129
  H  H195  1  0.695200  0.604000  0.951100  1.0  0.1099
  H  H196  1  0.658200  0.691700  0.055600  1.0  0.0677
  H  H197  1  0.472000  0.692400  0.045900  1.0  0.0744
  H  H198  1  0.608800  0.761700  0.049500  1.0  0.1107
  H  H199  1  0.488400  0.755200  0.011900  1.0  0.1124
  H  H200  1  0.674800  0.750700  0.004500  1.0  0.1162
  C  C201  1  0.069000  0.405100  0.340900  1.0  0.6609
  C  C202  1  0.156400  0.367300  0.355800  1.0  -0.1504
  C  C203  1  0.310000  0.361000  0.343700  1.0  -0.0885
  C  C204  1  0.403300  0.326900  0.358900  1.0  0.0332
  C  C205  1  0.566300  0.320400  0.348100  1.0  -0.0509
  C  C206  1  0.655900  0.289700  0.365100  1.0  -0.1517
  C  C207  1  0.580900  0.262200  0.395200  1.0  -0.1171
  C  C208  1  0.422600  0.265400  0.405100  1.0  -0.1129
  C  C209  1  0.326000  0.298600  0.387400  1.0  -0.0096
  C  C210  1  0.166900  0.304900  0.398300  1.0  -0.0778
  C  C211  1  0.081600  0.338500  0.383500  1.0  -0.0808
  C  C212  1  0.687600  0.232400  0.418100  1.0  0.6802
  C  C213  1  0.929000  0.514100  0.241200  1.0  0.6805
  C  C214  1  0.935900  0.540200  0.202200  1.0  -0.1152
  C  C215  1  0.807800  0.569100  0.192600  1.0  -0.0779
  C  C216  1  0.811600  0.591800  0.157100  1.0  -0.0861
  C  C217  1  0.939000  0.588900  0.128700  1.0  0.0596
  C  C218  1  0.944900  0.612800  0.090500  1.0  -0.0704
  C  C219  1  0.070100  0.609400  0.064100  1.0  -0.1655
  C  C220  1  0.200600  0.581800  0.072400  1.0  -0.0766
  C  C221  1  0.195100  0.557400  0.107200  1.0  -0.074
  C  C222  1  0.065100  0.560400  0.136300  1.0  0.045
  C  C223  1  0.057300  0.537000  0.173900  1.0  -0.0687
  C  C224  1  0.076200  0.638100  0.026100  1.0  0.6625
  C  C225  1  0.069000  0.094900  0.159100  1.0  0.6618
  C  C226  1  0.156400  0.132700  0.144200  1.0  -0.149
  C  C227  1  0.310000  0.139000  0.156300  1.0  -0.0882
  C  C228  1  0.403300  0.173100  0.141100  1.0  0.0333
  C  C229  1  0.566300  0.179600  0.151900  1.0  -0.0507
  C  C230  1  0.655900  0.210300  0.134900  1.0  -0.1503
  C  C231  1  0.580900  0.237800  0.104800  1.0  -0.1175
  C  C232  1  0.422600  0.234600  0.094900  1.0  -0.1125
  C  C233  1  0.326000  0.201400  0.112600  1.0  -0.0096
  C  C234  1  0.166900  0.195100  0.101700  1.0  -0.0782
  C  C235  1  0.081600  0.161500  0.116500  1.0  -0.0823
  C  C236  1  0.687600  0.267600  0.081900  1.0  0.6811
  C  C237  1  0.929000  0.985900  0.258800  1.0  0.6808
  C  C238  1  0.935900  0.959800  0.297800  1.0  -0.116
  C  C239  1  0.807800  0.930900  0.307400  1.0  -0.0764
  C  C240  1  0.811600  0.908200  0.342900  1.0  -0.0861
  C  C241  1  0.939000  0.911100  0.371300  1.0  0.0594
  C  C242  1  0.944900  0.887200  0.409500  1.0  -0.0694
  C  C243  1  0.070100  0.890600  0.435900  1.0  -0.1648
  C  C244  1  0.200600  0.918200  0.427600  1.0  -0.0764
  C  C245  1  0.195100  0.942600  0.392800  1.0  -0.0746
  C  C246  1  0.065100  0.939600  0.363700  1.0  0.0451
  C  C247  1  0.057300  0.963000  0.326100  1.0  -0.0692
  C  C248  1  0.076200  0.861900  0.473900  1.0  0.663
  C  C249  1  0.069000  0.159100  0.405100  1.0  0.6615
  C  C250  1  0.156400  0.144200  0.367300  1.0  -0.1487
  C  C251  1  0.310000  0.156300  0.361000  1.0  -0.0856
  C  C252  1  0.403300  0.141100  0.326900  1.0  0.0332
  C  C253  1  0.566300  0.151900  0.320400  1.0  -0.0506
  C  C254  1  0.655900  0.134900  0.289700  1.0  -0.1515
  C  C255  1  0.580900  0.104800  0.262200  1.0  -0.1168
  C  C256  1  0.422600  0.094900  0.265400  1.0  -0.1119
  C  C257  1  0.326000  0.112600  0.298600  1.0  -0.0096
  C  C258  1  0.166900  0.101700  0.304900  1.0  -0.078
  C  C259  1  0.081600  0.116500  0.338500  1.0  -0.0824
  C  C260  1  0.687600  0.081900  0.232400  1.0  0.6811
  C  C261  1  0.929000  0.258800  0.514100  1.0  0.6792
  C  C262  1  0.935900  0.297800  0.540200  1.0  -0.115
  C  C263  1  0.807800  0.307400  0.569100  1.0  -0.0787
  C  C264  1  0.811600  0.342900  0.591800  1.0  -0.0863
  C  C265  1  0.939000  0.371300  0.588900  1.0  0.0594
  C  C266  1  0.944900  0.409500  0.612800  1.0  -0.0705
  C  C267  1  0.070100  0.435900  0.609400  1.0  -0.1635
  C  C268  1  0.200600  0.427600  0.581800  1.0  -0.0775
  C  C269  1  0.195100  0.392800  0.557400  1.0  -0.0742
  C  C270  1  0.065100  0.363700  0.560400  1.0  0.0455
  C  C271  1  0.057300  0.326100  0.537000  1.0  -0.069
  C  C272  1  0.076200  0.473900  0.638100  1.0  0.6623
  C  C273  1  0.069000  0.340900  0.094900  1.0  0.661
  C  C274  1  0.156400  0.355800  0.132700  1.0  -0.1488
  C  C275  1  0.310000  0.343700  0.139000  1.0  -0.0866
  C  C276  1  0.403300  0.358900  0.173100  1.0  0.0328
  C  C277  1  0.566300  0.348100  0.179600  1.0  -0.0513
  C  C278  1  0.655900  0.365100  0.210300  1.0  -0.1519
  C  C279  1  0.580900  0.395200  0.237800  1.0  -0.1175
  C  C280  1  0.422600  0.405100  0.234600  1.0  -0.1134
  C  C281  1  0.326000  0.387400  0.201400  1.0  -0.0101
  C  C282  1  0.166900  0.398300  0.195100  1.0  -0.0782
  C  C283  1  0.081600  0.383500  0.161500  1.0  -0.0819
  C  C284  1  0.687600  0.418100  0.267600  1.0  0.6809
  C  C285  1  0.929000  0.241200  0.985900  1.0  0.6802
  C  C286  1  0.935900  0.202200  0.959800  1.0  -0.1152
  C  C287  1  0.807800  0.192600  0.930900  1.0  -0.0791
  C  C288  1  0.811600  0.157100  0.908200  1.0  -0.0869
  C  C289  1  0.939000  0.128700  0.911100  1.0  0.0595
  C  C290  1  0.944900  0.090500  0.887200  1.0  -0.0714
  C  C291  1  0.070100  0.064100  0.890600  1.0  -0.1619
  C  C292  1  0.200600  0.072400  0.918200  1.0  -0.0769
  C  C293  1  0.195100  0.107200  0.942600  1.0  -0.0734
  C  C294  1  0.065100  0.136300  0.939600  1.0  0.0452
  C  C295  1  0.057300  0.173900  0.963000  1.0  -0.0682
  C  C296  1  0.076200  0.026100  0.861900  1.0  0.662
  C  C297  1  0.931000  0.594900  0.659100  1.0  0.6618
  C  C298  1  0.843600  0.632700  0.644200  1.0  -0.1472
  C  C299  1  0.690000  0.639000  0.656300  1.0  -0.0897
  C  C300  1  0.596700  0.673100  0.641100  1.0  0.0333
  C  C301  1  0.433700  0.679600  0.651900  1.0  -0.0508
  C  C302  1  0.344100  0.710300  0.634900  1.0  -0.1491
  C  C303  1  0.419100  0.737800  0.604800  1.0  -0.1184
  C  C304  1  0.577400  0.734600  0.594900  1.0  -0.1121
  C  C305  1  0.674000  0.701400  0.612600  1.0  -0.0099
  C  C306  1  0.833100  0.695100  0.601700  1.0  -0.0779
  C  C307  1  0.918400  0.661500  0.616500  1.0  -0.0829
  C  C308  1  0.312400  0.767600  0.581900  1.0  0.6798
  C  C309  1  0.071000  0.485900  0.758800  1.0  0.6809
  C  C310  1  0.064100  0.459800  0.797800  1.0  -0.1167
  C  C311  1  0.192200  0.430900  0.807400  1.0  -0.0779
  C  C312  1  0.188400  0.408200  0.842900  1.0  -0.0861
  C  C313  1  0.061000  0.411100  0.871300  1.0  0.0595
  C  C314  1  0.055100  0.387200  0.909500  1.0  -0.0692
  C  C315  1  0.929900  0.390600  0.935900  1.0  -0.1645
  C  C316  1  0.799400  0.418200  0.927600  1.0  -0.0767
  C  C317  1  0.804900  0.442600  0.892800  1.0  -0.0745
  C  C318  1  0.934900  0.439600  0.863700  1.0  0.0455
  C  C319  1  0.942700  0.463000  0.826100  1.0  -0.0697
  C  C320  1  0.923800  0.361900  0.973900  1.0  0.6625
  C  C321  1  0.931000  0.905100  0.840900  1.0  0.661
  C  C322  1  0.843600  0.867300  0.855800  1.0  -0.1474
  C  C323  1  0.690000  0.861000  0.843700  1.0  -0.0897
  C  C324  1  0.596700  0.826900  0.858900  1.0  0.0331
  C  C325  1  0.433700  0.820400  0.848100  1.0  -0.0508
  C  C326  1  0.344100  0.789700  0.865100  1.0  -0.1501
  C  C327  1  0.419100  0.762200  0.895200  1.0  -0.1179
  C  C328  1  0.577400  0.765400  0.905100  1.0  -0.112
  C  C329  1  0.674000  0.798600  0.887400  1.0  -0.01
  C  C330  1  0.833100  0.804900  0.898300  1.0  -0.0776
  C  C331  1  0.918400  0.838500  0.883500  1.0  -0.0813
  C  C332  1  0.312400  0.732400  0.918100  1.0  0.6794
  C  C333  1  0.071000  0.014100  0.741200  1.0  0.6807
  C  C334  1  0.064100  0.040200  0.702200  1.0  -0.1162
  C  C335  1  0.192200  0.069100  0.692600  1.0  -0.0785
  C  C336  1  0.188400  0.091800  0.657100  1.0  -0.0852
  C  C337  1  0.061000  0.088900  0.628700  1.0  0.0597
  C  C338  1  0.055100  0.112800  0.590500  1.0  -0.0702
  C  C339  1  0.929900  0.109400  0.564100  1.0  -0.1657
  C  C340  1  0.799400  0.081800  0.572400  1.0  -0.0755
  C  C341  1  0.804900  0.057400  0.607200  1.0  -0.0735
  C  C342  1  0.934900  0.060400  0.636300  1.0  0.0453
  C  C343  1  0.942700  0.037000  0.673900  1.0  -0.0695
  C  C344  1  0.923800  0.138100  0.526100  1.0  0.6619
  C  C345  1  0.931000  0.840900  0.594900  1.0  0.6613
  C  C346  1  0.843600  0.855800  0.632700  1.0  -0.1466
  C  C347  1  0.690000  0.843700  0.639000  1.0  -0.088
  C  C348  1  0.596700  0.858900  0.673100  1.0  0.0327
  C  C349  1  0.433700  0.848100  0.679600  1.0  -0.0512
  C  C350  1  0.344100  0.865100  0.710300  1.0  -0.1503
  C  C351  1  0.419100  0.895200  0.737800  1.0  -0.1181
  C  C352  1  0.577400  0.905100  0.734600  1.0  -0.1127
  C  C353  1  0.674000  0.887400  0.701400  1.0  -0.0105
  C  C354  1  0.833100  0.898300  0.695100  1.0  -0.078
  C  C355  1  0.918400  0.883500  0.661500  1.0  -0.0822
  C  C356  1  0.312400  0.918100  0.767600  1.0  0.6797
  C  C357  1  0.071000  0.741200  0.485900  1.0  0.6804
  C  C358  1  0.064100  0.702200  0.459800  1.0  -0.116
  C  C359  1  0.192200  0.692600  0.430900  1.0  -0.08
  C  C360  1  0.188400  0.657100  0.408200  1.0  -0.0867
  C  C361  1  0.061000  0.628700  0.411100  1.0  0.0596
  C  C362  1  0.055100  0.590500  0.387200  1.0  -0.0709
  C  C363  1  0.929900  0.564100  0.390600  1.0  -0.162
  C  C364  1  0.799400  0.572400  0.418200  1.0  -0.0766
  C  C365  1  0.804900  0.607200  0.442600  1.0  -0.0731
  C  C366  1  0.934900  0.636300  0.439600  1.0  0.0456
  C  C367  1  0.942700  0.673900  0.463000  1.0  -0.0685
  C  C368  1  0.923800  0.526100  0.361900  1.0  0.6614
  C  C369  1  0.931000  0.659100  0.905100  1.0  0.6617
  C  C370  1  0.843600  0.644200  0.867300  1.0  -0.1464
  C  C371  1  0.690000  0.656300  0.861000  1.0  -0.0872
  C  C372  1  0.596700  0.641100  0.826900  1.0  0.0332
  C  C373  1  0.433700  0.651900  0.820400  1.0  -0.0506
  C  C374  1  0.344100  0.634900  0.789700  1.0  -0.1506
  C  C375  1  0.419100  0.604800  0.762200  1.0  -0.1177
  C  C376  1  0.577400  0.594900  0.765400  1.0  -0.1112
  C  C377  1  0.674000  0.612600  0.798600  1.0  -0.0099
  C  C378  1  0.833100  0.601700  0.804900  1.0  -0.0779
  C  C379  1  0.918400  0.616500  0.838500  1.0  -0.0827
  C  C380  1  0.312400  0.581900  0.732400  1.0  0.68
  C  C381  1  0.071000  0.758800  0.014100  1.0  0.6795
  C  C382  1  0.064100  0.797800  0.040200  1.0  -0.1157
  C  C383  1  0.192200  0.807400  0.069100  1.0  -0.08
  C  C384  1  0.188400  0.842900  0.091800  1.0  -0.0853
  C  C385  1  0.061000  0.871300  0.088900  1.0  0.0595
  C  C386  1  0.055100  0.909500  0.112800  1.0  -0.0702
  C  C387  1  0.929900  0.935900  0.109400  1.0  -0.1634
  C  C388  1  0.799400  0.927600  0.081800  1.0  -0.0773
  C  C389  1  0.804900  0.892800  0.057400  1.0  -0.0734
  C  C390  1  0.934900  0.863700  0.060400  1.0  0.0458
  C  C391  1  0.942700  0.826100  0.037000  1.0  -0.0698
  C  C392  1  0.923800  0.973900  0.138100  1.0  0.6618
  C  C393  1  0.413600  0.502800  0.370400  1.0  0.0146
  C  C394  1  0.412000  0.462500  0.395600  1.0  -0.319
  C  C395  1  0.422200  0.534500  0.301100  1.0  0.0058
  C  C396  1  0.411600  0.524100  0.254000  1.0  -0.3471
  C  C397  1  0.413600  0.997200  0.129600  1.0  0.0141
  C  C398  1  0.412000  0.037500  0.104400  1.0  -0.3196
  C  C399  1  0.422200  0.965500  0.198900  1.0  0.0064
  C  C400  1  0.411600  0.975900  0.246000  1.0  -0.3482
  C  C401  1  0.413600  0.129600  0.502800  1.0  0.0167
  C  C402  1  0.412000  0.104400  0.462500  1.0  -0.3191
  C  C403  1  0.422200  0.198900  0.534500  1.0  0.0101
  C  C404  1  0.411600  0.246000  0.524100  1.0  -0.3506
  C  C405  1  0.413600  0.370400  0.997200  1.0  0.0156
  C  C406  1  0.412000  0.395600  0.037500  1.0  -0.3177
  C  C407  1  0.422200  0.301100  0.965500  1.0  0.011
  C  C408  1  0.411600  0.254000  0.975900  1.0  -0.3516
  C  C409  1  0.586400  0.497200  0.629600  1.0  0.0158
  C  C410  1  0.588000  0.537500  0.604400  1.0  -0.3199
  C  C411  1  0.577800  0.465500  0.698900  1.0  0.0065
  C  C412  1  0.588400  0.475900  0.746000  1.0  -0.349
  C  C413  1  0.586400  0.002800  0.870400  1.0  0.0141
  C  C414  1  0.588000  0.962500  0.895600  1.0  -0.3197
  C  C415  1  0.577800  0.034500  0.801100  1.0  0.0053
  C  C416  1  0.588400  0.024100  0.754000  1.0  -0.347
  C  C417  1  0.586400  0.870400  0.497200  1.0  0.0166
  C  C418  1  0.588000  0.895600  0.537500  1.0  -0.3183
  C  C419  1  0.577800  0.801100  0.465500  1.0  0.0109
  C  C420  1  0.588400  0.754000  0.475900  1.0  -0.3512
  C  C421  1  0.586400  0.629600  0.002800  1.0  0.0175
  C  C422  1  0.588000  0.604400  0.962500  1.0  -0.3189
  C  C423  1  0.577800  0.698900  0.034500  1.0  0.007
  C  C424  1  0.588400  0.746000  0.024100  1.0  -0.3504
  N  N425  1  0.394300  0.495900  0.325600  1.0  -0.0667
  N  N426  1  0.394300  0.004100  0.174400  1.0  -0.0665
  N  N427  1  0.394300  0.174400  0.495900  1.0  -0.0652
  N  N428  1  0.394300  0.325600  0.004100  1.0  -0.0649
  N  N429  1  0.605700  0.504100  0.674400  1.0  -0.0662
  N  N430  1  0.605700  0.995900  0.825600  1.0  -0.0664
  N  N431  1  0.605700  0.825600  0.504100  1.0  -0.0646
  N  N432  1  0.605700  0.674400  0.995900  1.0  -0.0646
  O  O433  1  0.928100  0.412100  0.352800  1.0  -0.5613
  O  O434  1  0.136500  0.429500  0.315000  1.0  -0.6152
  O  O435  1  0.632400  0.202600  0.440500  1.0  -0.6926
  O  O436  1  0.836800  0.239100  0.417300  1.0  -0.5647
  O  O437  1  0.044000  0.490300  0.249700  1.0  -0.6164
  O  O438  1  0.806500  0.515300  0.264200  1.0  -0.5616
  O  O439  1  0.202000  0.641000  0.004500  1.0  -0.5793
  O  O440  1  0.953100  0.659200  0.016700  1.0  -0.5772
  O  O441  1  0.928100  0.087900  0.147200  1.0  -0.5608
  O  O442  1  0.136500  0.070500  0.185000  1.0  -0.6157
  O  O443  1  0.632400  0.297400  0.059500  1.0  -0.6924
  O  O444  1  0.836800  0.260900  0.082700  1.0  -0.5654
  O  O445  1  0.044000  0.009700  0.250300  1.0  -0.6158
  O  O446  1  0.806500  0.984700  0.235800  1.0  -0.5614
  O  O447  1  0.202000  0.859000  0.495500  1.0  -0.5791
  O  O448  1  0.953100  0.840800  0.483300  1.0  -0.5781
  O  O449  1  0.928100  0.147200  0.412100  1.0  -0.5626
  O  O450  1  0.136500  0.185000  0.429500  1.0  -0.6162
  O  O451  1  0.632400  0.059500  0.202600  1.0  -0.693
  O  O452  1  0.836800  0.082700  0.239100  1.0  -0.5652
  O  O453  1  0.044000  0.250300  0.490300  1.0  -0.6173
  O  O454  1  0.806500  0.235800  0.515300  1.0  -0.5612
  O  O455  1  0.202000  0.495500  0.641000  1.0  -0.5792
  O  O456  1  0.953100  0.483300  0.659200  1.0  -0.579
  O  O457  1  0.928100  0.352800  0.087900  1.0  -0.5615
  O  O458  1  0.136500  0.315000  0.070500  1.0  -0.6144
  O  O459  1  0.632400  0.440500  0.297400  1.0  -0.694
  O  O460  1  0.836800  0.417300  0.260900  1.0  -0.5653
  O  O461  1  0.044000  0.249700  0.009700  1.0  -0.617
  O  O462  1  0.806500  0.264200  0.984700  1.0  -0.5605
  O  O463  1  0.202000  0.004500  0.859000  1.0  -0.5803
  O  O464  1  0.953100  0.016700  0.840800  1.0  -0.5781
  O  O465  1  0.071900  0.587900  0.647200  1.0  -0.5613
  O  O466  1  0.863500  0.570500  0.685000  1.0  -0.616
  O  O467  1  0.367600  0.797400  0.559500  1.0  -0.6927
  O  O468  1  0.163200  0.760900  0.582700  1.0  -0.5658
  O  O469  1  0.956000  0.509700  0.750300  1.0  -0.6157
  O  O470  1  0.193500  0.484700  0.735800  1.0  -0.5612
  O  O471  1  0.798000  0.359000  0.995500  1.0  -0.5778
  O  O472  1  0.046900  0.340800  0.983300  1.0  -0.5793
  O  O473  1  0.071900  0.912100  0.852800  1.0  -0.56
  O  O474  1  0.863500  0.929500  0.815000  1.0  -0.6158
  O  O475  1  0.367600  0.702600  0.940500  1.0  -0.6925
  O  O476  1  0.163200  0.739100  0.917300  1.0  -0.5655
  O  O477  1  0.956000  0.990300  0.749700  1.0  -0.616
  O  O478  1  0.193500  0.015300  0.764200  1.0  -0.5616
  O  O479  1  0.798000  0.141000  0.504500  1.0  -0.5786
  O  O480  1  0.046900  0.159200  0.516700  1.0  -0.5786
  O  O481  1  0.071900  0.852800  0.587900  1.0  -0.5597
  O  O482  1  0.863500  0.815000  0.570500  1.0  -0.6149
  O  O483  1  0.367600  0.940500  0.797400  1.0  -0.6941
  O  O484  1  0.163200  0.917300  0.760900  1.0  -0.5663
  O  O485  1  0.956000  0.749700  0.509700  1.0  -0.6165
  O  O486  1  0.193500  0.764200  0.484700  1.0  -0.5606
  O  O487  1  0.798000  0.504500  0.359000  1.0  -0.5797
  O  O488  1  0.046900  0.516700  0.340800  1.0  -0.5796
  O  O489  1  0.071900  0.647200  0.912100  1.0  -0.5627
  O  O490  1  0.863500  0.685000  0.929500  1.0  -0.6171
  O  O491  1  0.367600  0.559500  0.702600  1.0  -0.693
  O  O492  1  0.163200  0.582700  0.739100  1.0  -0.5655
  O  O493  1  0.956000  0.750300  0.990300  1.0  -0.6165
  O  O494  1  0.193500  0.735800  0.015300  1.0  -0.5612
  O  O495  1  0.798000  0.995500  0.141000  1.0  -0.5785
  O  O496  1  0.046900  0.983300  0.159200  1.0  -0.5801
