# generated using pymatgen
data_Cu6H24WC32S4(BrN6)4
_symmetry_space_group_name_H-M   'P 1'
_cell_length_a   26.06430000
_cell_length_b   26.06430000
_cell_length_c   26.06430000
_cell_angle_alpha   109.47100000
_cell_angle_beta   109.47100000
_cell_angle_gamma   109.47100000
_symmetry_Int_Tables_number   1
_chemical_formula_structural   Cu6H24WC32S4(BrN6)4
_chemical_formula_sum   'Cu36 H144 W6 C192 S24 Br24 N144'
_cell_volume   13630.75318536
_cell_formula_units_Z   6
loop_
 _symmetry_equiv_pos_site_id
 _symmetry_equiv_pos_as_xyz
  1  'x, y, z'
loop_
 _atom_site_type_symbol
 _atom_site_label
 _atom_site_symmetry_multiplicity
 _atom_site_fract_x
 _atom_site_fract_y
 _atom_site_fract_z
 _atom_site_occupancy
 _atom_site_charge
  Cu  Cu1  1  0.440180  0.675890  0.876610  1.0  0.2572
  Cu  Cu2  1  0.299280  0.563570  0.623390  1.0  0.2543
  Cu  Cu3  1  0.200720  0.824110  0.264290  1.0  0.2562
  Cu  Cu4  1  0.059820  0.936430  0.235710  1.0  0.2546
  Cu  Cu5  1  0.764290  0.200720  0.324110  1.0  0.2537
  Cu  Cu6  1  0.735710  0.059820  0.436430  1.0  0.2551
  Cu  Cu7  1  0.376610  0.440180  0.175890  1.0  0.2556
  Cu  Cu8  1  0.123390  0.299280  0.063570  1.0  0.255
  Cu  Cu9  1  0.563570  0.123390  0.799280  1.0  0.2561
  Cu  Cu10  1  0.675890  0.376610  0.940180  1.0  0.2559
  Cu  Cu11  1  0.936430  0.735710  0.559820  1.0  0.2546
  Cu  Cu12  1  0.824110  0.764290  0.700720  1.0  0.2555
  Cu  Cu13  1  0.063570  0.799280  0.123390  1.0  0.2541
  Cu  Cu14  1  0.175890  0.940180  0.376610  1.0  0.2559
  Cu  Cu15  1  0.436430  0.559820  0.735710  1.0  0.2549
  Cu  Cu16  1  0.324110  0.700720  0.764290  1.0  0.255
  Cu  Cu17  1  0.940180  0.876610  0.675890  1.0  0.2562
  Cu  Cu18  1  0.799280  0.623390  0.563570  1.0  0.256
  Cu  Cu19  1  0.700720  0.264290  0.824110  1.0  0.2544
  Cu  Cu20  1  0.559820  0.235710  0.936430  1.0  0.2557
  Cu  Cu21  1  0.264290  0.324110  0.200720  1.0  0.2566
  Cu  Cu22  1  0.235710  0.436430  0.059820  1.0  0.2538
  Cu  Cu23  1  0.876610  0.175890  0.440180  1.0  0.2568
  Cu  Cu24  1  0.623390  0.063570  0.299280  1.0  0.255
  Cu  Cu25  1  0.463710  0.713710  0.750000  1.0  0.3163
  Cu  Cu26  1  0.036290  0.786290  0.250000  1.0  0.3157
  Cu  Cu27  1  0.750000  0.036290  0.286290  1.0  0.3169
  Cu  Cu28  1  0.250000  0.463710  0.213710  1.0  0.3153
  Cu  Cu29  1  0.713710  0.250000  0.963710  1.0  0.3181
  Cu  Cu30  1  0.786290  0.750000  0.536290  1.0  0.3181
  Cu  Cu31  1  0.213710  0.963710  0.250000  1.0  0.3163
  Cu  Cu32  1  0.286290  0.536290  0.750000  1.0  0.3157
  Cu  Cu33  1  0.963710  0.750000  0.713710  1.0  0.3181
  Cu  Cu34  1  0.536290  0.250000  0.786290  1.0  0.3181
  Cu  Cu35  1  0.250000  0.286290  0.036290  1.0  0.3169
  Cu  Cu36  1  0.750000  0.213710  0.463710  1.0  0.3153
  H  H37  1  0.485700  0.577700  0.903000  1.0  0.0934
  H  H38  1  0.382700  0.638700  0.955400  1.0  0.0936
  H  H39  1  0.395900  0.571600  0.000700  1.0  0.1185
  H  H40  1  0.547000  0.830000  0.893600  1.0  0.078
  H  H41  1  0.507500  0.837100  0.739800  1.0  0.0941
  H  H42  1  0.567700  0.945200  0.826300  1.0  0.1125
  H  H43  1  0.174700  0.582700  0.597000  1.0  0.0957
  H  H44  1  0.183300  0.427300  0.544600  1.0  0.0936
  H  H45  1  0.070900  0.395200  0.499300  1.0  0.1187
  H  H46  1  0.436400  0.653400  0.606400  1.0  0.0784
  H  H47  1  0.597300  0.767700  0.760200  1.0  0.0934
  H  H48  1  0.618900  0.741400  0.673700  1.0  0.1127
  H  H49  1  0.325300  0.922300  0.408000  1.0  0.0953
  H  H50  1  0.316700  0.861300  0.244000  1.0  0.091
  H  H51  1  0.429100  0.928400  0.324300  1.0  0.1183
  H  H52  1  0.063600  0.670000  0.217000  1.0  0.0783
  H  H53  1  0.902700  0.662900  0.170400  1.0  0.0943
  H  H54  1  0.881100  0.554800  0.122500  1.0  0.1121
  H  H55  1  0.014300  0.917300  0.092000  1.0  0.0963
  H  H56  1  0.117300  0.072700  0.256000  1.0  0.0941
  H  H57  1  0.104100  0.104800  0.175700  1.0  0.1177
  H  H58  1  0.953000  0.846600  0.283000  1.0  0.0792
  H  H59  1  0.992500  0.732300  0.329600  1.0  0.0939
  H  H60  1  0.932300  0.758600  0.377500  1.0  0.112
  H  H61  1  0.908000  0.325300  0.422300  1.0  0.0959
  H  H62  1  0.744000  0.316700  0.361300  1.0  0.0924
  H  H63  1  0.824300  0.429100  0.428400  1.0  0.1179
  H  H64  1  0.717000  0.063600  0.170000  1.0  0.0772
  H  H65  1  0.670400  0.902700  0.162900  1.0  0.0954
  H  H66  1  0.622500  0.881100  0.054800  1.0  0.1107
  H  H67  1  0.592000  0.014300  0.417300  1.0  0.0964
  H  H68  1  0.756000  0.117300  0.572700  1.0  0.0911
  H  H69  1  0.675700  0.104100  0.604800  1.0  0.1163
  H  H70  1  0.783000  0.953000  0.346600  1.0  0.079
  H  H71  1  0.829600  0.992500  0.232300  1.0  0.0933
  H  H72  1  0.877500  0.932300  0.258600  1.0  0.1117
  H  H73  1  0.403000  0.485700  0.077700  1.0  0.0965
  H  H74  1  0.455400  0.382700  0.138700  1.0  0.0919
  H  H75  1  0.500700  0.395900  0.071600  1.0  0.1174
  H  H76  1  0.393600  0.547000  0.330000  1.0  0.0786
  H  H77  1  0.239800  0.507500  0.337100  1.0  0.0937
  H  H78  1  0.326300  0.567700  0.445200  1.0  0.1122
  H  H79  1  0.097000  0.174700  0.082700  1.0  0.095
  H  H80  1  0.044600  0.183300  0.927300  1.0  0.0907
  H  H81  1  0.999300  0.070900  0.895200  1.0  0.1164
  H  H82  1  0.106400  0.436400  0.153400  1.0  0.079
  H  H83  1  0.260200  0.597300  0.267700  1.0  0.0941
  H  H84  1  0.173700  0.618900  0.241400  1.0  0.1136
  H  H85  1  0.582700  0.097000  0.674700  1.0  0.0959
  H  H86  1  0.427300  0.044600  0.683300  1.0  0.0932
  H  H87  1  0.395200  0.999300  0.570900  1.0  0.1177
  H  H88  1  0.653400  0.106400  0.936400  1.0  0.0795
  H  H89  1  0.767700  0.260200  0.097300  1.0  0.0945
  H  H90  1  0.741400  0.173700  0.118900  1.0  0.1114
  H  H91  1  0.577700  0.403000  0.985700  1.0  0.0946
  H  H92  1  0.638700  0.455400  0.882700  1.0  0.0913
  H  H93  1  0.571600  0.500700  0.895900  1.0  0.1173
  H  H94  1  0.830000  0.393600  0.047000  1.0  0.0791
  H  H95  1  0.837100  0.239800  0.007500  1.0  0.094
  H  H96  1  0.945200  0.326300  0.067700  1.0  0.1128
  H  H97  1  0.917300  0.592000  0.514300  1.0  0.0954
  H  H98  1  0.072700  0.756000  0.617300  1.0  0.0935
  H  H99  1  0.104800  0.675700  0.604100  1.0  0.1185
  H  H100  1  0.846600  0.783000  0.453000  1.0  0.0785
  H  H101  1  0.732300  0.829600  0.492500  1.0  0.0938
  H  H102  1  0.758600  0.877500  0.432300  1.0  0.112
  H  H103  1  0.922300  0.908000  0.825300  1.0  0.0953
  H  H104  1  0.861300  0.744000  0.816700  1.0  0.093
  H  H105  1  0.928400  0.824300  0.929100  1.0  0.1178
  H  H106  1  0.670000  0.717000  0.563600  1.0  0.0791
  H  H107  1  0.662900  0.670400  0.402700  1.0  0.0941
  H  H108  1  0.554800  0.622500  0.381100  1.0  0.112
  H  H109  1  0.082700  0.674700  0.097000  1.0  0.0961
  H  H110  1  0.927300  0.683300  0.044600  1.0  0.0923
  H  H111  1  0.895200  0.570900  0.999300  1.0  0.1172
  H  H112  1  0.153400  0.936400  0.106400  1.0  0.0779
  H  H113  1  0.267700  0.097300  0.260200  1.0  0.0949
  H  H114  1  0.241400  0.118900  0.173700  1.0  0.1109
  H  H115  1  0.077700  0.985700  0.403000  1.0  0.0958
  H  H116  1  0.138700  0.882700  0.455400  1.0  0.0916
  H  H117  1  0.071600  0.895900  0.500700  1.0  0.1162
  H  H118  1  0.330000  0.047000  0.393600  1.0  0.0787
  H  H119  1  0.337100  0.007500  0.239800  1.0  0.0931
  H  H120  1  0.445200  0.067700  0.326300  1.0  0.1124
  H  H121  1  0.417300  0.514300  0.592000  1.0  0.097
  H  H122  1  0.572700  0.617300  0.756000  1.0  0.0917
  H  H123  1  0.604800  0.604100  0.675700  1.0  0.1176
  H  H124  1  0.346600  0.453000  0.783000  1.0  0.0786
  H  H125  1  0.232300  0.492500  0.829600  1.0  0.0939
  H  H126  1  0.258600  0.432300  0.877500  1.0  0.1122
  H  H127  1  0.422300  0.825300  0.908000  1.0  0.0951
  H  H128  1  0.361300  0.816700  0.744000  1.0  0.0906
  H  H129  1  0.428400  0.929100  0.824300  1.0  0.1169
  H  H130  1  0.170000  0.563600  0.717000  1.0  0.079
  H  H131  1  0.162900  0.402700  0.670400  1.0  0.0943
  H  H132  1  0.054800  0.381100  0.622500  1.0  0.1126
  H  H133  1  0.985700  0.903000  0.577700  1.0  0.0963
  H  H134  1  0.882700  0.955400  0.638700  1.0  0.0931
  H  H135  1  0.895900  0.000700  0.571600  1.0  0.1186
  H  H136  1  0.047000  0.893600  0.830000  1.0  0.0795
  H  H137  1  0.007500  0.739800  0.837100  1.0  0.0947
  H  H138  1  0.067700  0.826300  0.945200  1.0  0.1111
  H  H139  1  0.674700  0.597000  0.582700  1.0  0.0943
  H  H140  1  0.683300  0.544600  0.427300  1.0  0.0916
  H  H141  1  0.570900  0.499300  0.395200  1.0  0.117
  H  H142  1  0.936400  0.606400  0.653400  1.0  0.0792
  H  H143  1  0.097300  0.760200  0.767700  1.0  0.0937
  H  H144  1  0.118900  0.673700  0.741400  1.0  0.1128
  H  H145  1  0.825300  0.408000  0.922300  1.0  0.0958
  H  H146  1  0.816700  0.244000  0.861300  1.0  0.0933
  H  H147  1  0.929100  0.324300  0.928400  1.0  0.1182
  H  H148  1  0.563600  0.217000  0.670000  1.0  0.0783
  H  H149  1  0.402700  0.170400  0.662900  1.0  0.0939
  H  H150  1  0.381100  0.122500  0.554800  1.0  0.1115
  H  H151  1  0.514300  0.092000  0.917300  1.0  0.0947
  H  H152  1  0.617300  0.256000  0.072700  1.0  0.0929
  H  H153  1  0.604100  0.175700  0.104800  1.0  0.1181
  H  H154  1  0.453000  0.283000  0.846600  1.0  0.0794
  H  H155  1  0.492500  0.329600  0.732300  1.0  0.094
  H  H156  1  0.432300  0.377500  0.758600  1.0  0.1127
  H  H157  1  0.408000  0.422300  0.325300  1.0  0.0945
  H  H158  1  0.244000  0.361300  0.316700  1.0  0.0932
  H  H159  1  0.324300  0.428400  0.429100  1.0  0.1184
  H  H160  1  0.217000  0.170000  0.063600  1.0  0.0783
  H  H161  1  0.170400  0.162900  0.902700  1.0  0.094
  H  H162  1  0.122500  0.054800  0.881100  1.0  0.1112
  H  H163  1  0.092000  0.417300  0.014300  1.0  0.0964
  H  H164  1  0.256000  0.572700  0.117300  1.0  0.0939
  H  H165  1  0.175700  0.604800  0.104100  1.0  0.1186
  H  H166  1  0.283000  0.346600  0.953000  1.0  0.0783
  H  H167  1  0.329600  0.232300  0.992500  1.0  0.0938
  H  H168  1  0.377500  0.258600  0.932300  1.0  0.1122
  H  H169  1  0.903000  0.077700  0.485700  1.0  0.0952
  H  H170  1  0.955400  0.138700  0.382700  1.0  0.0911
  H  H171  1  0.000700  0.071600  0.395900  1.0  0.1175
  H  H172  1  0.893600  0.330000  0.547000  1.0  0.0777
  H  H173  1  0.739800  0.337100  0.507500  1.0  0.0944
  H  H174  1  0.826300  0.445200  0.567700  1.0  0.1126
  H  H175  1  0.597000  0.082700  0.174700  1.0  0.0961
  H  H176  1  0.544600  0.927300  0.183300  1.0  0.0938
  H  H177  1  0.499300  0.895200  0.070900  1.0  0.1169
  H  H178  1  0.606400  0.153400  0.436400  1.0  0.0797
  H  H179  1  0.760200  0.267700  0.597300  1.0  0.0934
  H  H180  1  0.673700  0.241400  0.618900  1.0  0.1127
  W  W181  1  0.375000  0.625000  0.750000  1.0  0.4294
  W  W182  1  0.125000  0.875000  0.250000  1.0  0.4294
  W  W183  1  0.750000  0.125000  0.375000  1.0  0.4298
  W  W184  1  0.250000  0.375000  0.125000  1.0  0.4296
  W  W185  1  0.625000  0.250000  0.875000  1.0  0.4298
  W  W186  1  0.875000  0.750000  0.625000  1.0  0.4296
  C  C187  1  0.463600  0.586600  0.922800  1.0  0.0885
  C  C188  1  0.406000  0.618900  0.951100  1.0  0.0361
  C  C189  1  0.413400  0.582600  0.977600  1.0  -0.0607
  C  C190  1  0.475000  0.529100  0.976700  1.0  0.2597
  C  C191  1  0.543900  0.845400  0.865900  1.0  0.1227
  C  C192  1  0.522000  0.849600  0.782200  1.0  -0.0367
  C  C193  1  0.556200  0.908700  0.828900  1.0  -0.0898
  C  C194  1  0.607500  0.953300  0.944600  1.0  0.4181
  C  C195  1  0.163800  0.540800  0.577200  1.0  0.0867
  C  C196  1  0.167800  0.454900  0.548900  1.0  0.0336
  C  C197  1  0.105000  0.435800  0.522400  1.0  -0.062
  C  C198  1  0.052400  0.498300  0.523300  1.0  0.2569
  C  C199  1  0.479500  0.678000  0.634100  1.0  0.1216
  C  C200  1  0.567400  0.739800  0.717800  1.0  -0.0371
  C  C201  1  0.579800  0.727300  0.671100  1.0  -0.0905
  C  C202  1  0.508700  0.662900  0.555400  1.0  0.4218
  C  C203  1  0.336200  0.913400  0.377000  1.0  0.0887
  C  C204  1  0.332200  0.881100  0.287100  1.0  0.0355
  C  C205  1  0.395000  0.917400  0.330800  1.0  -0.0627
  C  C206  1  0.447600  0.970900  0.445900  1.0  0.2598
  C  C207  1  0.020500  0.654600  0.198500  1.0  0.1227
  C  C208  1  0.932600  0.650400  0.172400  1.0  -0.0367
  C  C209  1  0.920200  0.591300  0.147500  1.0  -0.0981
  C  C210  1  0.991300  0.546700  0.154200  1.0  0.4136
  C  C211  1  0.036400  0.959200  0.123000  1.0  0.0879
  C  C212  1  0.094000  0.045100  0.212900  1.0  0.0387
  C  C213  1  0.086600  0.064200  0.169200  1.0  -0.0603
  C  C214  1  0.025000  0.001700  0.054100  1.0  0.2543
  C  C215  1  0.956100  0.822000  0.301500  1.0  0.1263
  C  C216  1  0.978000  0.760200  0.327600  1.0  -0.0358
  C  C217  1  0.943800  0.772700  0.352500  1.0  -0.0939
  C  C218  1  0.892500  0.837100  0.345800  1.0  0.4133
  C  C219  1  0.877000  0.336200  0.413400  1.0  0.086
  C  C220  1  0.787100  0.332200  0.381100  1.0  0.0366
  C  C221  1  0.830800  0.395000  0.417400  1.0  -0.0608
  C  C222  1  0.945900  0.447600  0.470900  1.0  0.2629
  C  C223  1  0.698500  0.020500  0.154600  1.0  0.1228
  C  C224  1  0.672400  0.932600  0.150400  1.0  -0.0379
  C  C225  1  0.647500  0.920200  0.091300  1.0  -0.0884
  C  C226  1  0.654200  0.991300  0.046700  1.0  0.4159
  C  C227  1  0.623000  0.036400  0.459200  1.0  0.0888
  C  C228  1  0.712900  0.094000  0.545100  1.0  0.0391
  C  C229  1  0.669200  0.086600  0.564200  1.0  -0.0581
  C  C230  1  0.554100  0.025000  0.501700  1.0  0.2569
  C  C231  1  0.801500  0.956100  0.322000  1.0  0.1219
  C  C232  1  0.827600  0.978000  0.260200  1.0  -0.035
  C  C233  1  0.852500  0.943800  0.272700  1.0  -0.0928
  C  C234  1  0.845800  0.892500  0.337100  1.0  0.4167
  C  C235  1  0.422800  0.463600  0.086600  1.0  0.0863
  C  C236  1  0.451100  0.406000  0.118900  1.0  0.0394
  C  C237  1  0.477600  0.413400  0.082600  1.0  -0.061
  C  C238  1  0.476700  0.475000  0.029100  1.0  0.259
  C  C239  1  0.365900  0.543900  0.345400  1.0  0.1251
  C  C240  1  0.282200  0.522000  0.349600  1.0  -0.0367
  C  C241  1  0.328900  0.556200  0.408700  1.0  -0.0978
  C  C242  1  0.444600  0.607500  0.453300  1.0  0.417
  C  C243  1  0.077200  0.163800  0.040800  1.0  0.0894
  C  C244  1  0.048900  0.167800  0.954900  1.0  0.0352
  C  C245  1  0.022400  0.105000  0.935800  1.0  -0.0594
  C  C246  1  0.023300  0.052400  0.998300  1.0  0.2551
  C  C247  1  0.134100  0.479500  0.178000  1.0  0.1221
  C  C248  1  0.217800  0.567400  0.239800  1.0  -0.036
  C  C249  1  0.171100  0.579800  0.227300  1.0  -0.0919
  C  C250  1  0.055400  0.508700  0.162900  1.0  0.4176
  C  C251  1  0.540800  0.077200  0.663800  1.0  0.0865
  C  C252  1  0.454900  0.048900  0.667800  1.0  0.0384
  C  C253  1  0.435800  0.022400  0.605000  1.0  -0.0614
  C  C254  1  0.498300  0.023300  0.552400  1.0  0.2566
  C  C255  1  0.678000  0.134100  0.979500  1.0  0.1262
  C  C256  1  0.739800  0.217800  0.067400  1.0  -0.035
  C  C257  1  0.727300  0.171100  0.079800  1.0  -0.095
  C  C258  1  0.662900  0.055400  0.008700  1.0  0.4184
  C  C259  1  0.586600  0.422800  0.963600  1.0  0.0863
  C  C260  1  0.618900  0.451100  0.906000  1.0  0.0355
  C  C261  1  0.582600  0.477600  0.913400  1.0  -0.059
  C  C262  1  0.529100  0.476700  0.975000  1.0  0.2597
  C  C263  1  0.845400  0.365900  0.043900  1.0  0.1215
  C  C264  1  0.849600  0.282200  0.022000  1.0  -0.037
  C  C265  1  0.908700  0.328900  0.056200  1.0  -0.0926
  C  C266  1  0.953300  0.444600  0.107500  1.0  0.4162
  C  C267  1  0.959200  0.623000  0.536400  1.0  0.0868
  C  C268  1  0.045100  0.712900  0.594000  1.0  0.0358
  C  C269  1  0.064200  0.669200  0.586600  1.0  -0.0617
  C  C270  1  0.001700  0.554100  0.525000  1.0  0.2607
  C  C271  1  0.822000  0.801500  0.456100  1.0  0.1249
  C  C272  1  0.760200  0.827600  0.478000  1.0  -0.0381
  C  C273  1  0.772700  0.852500  0.443800  1.0  -0.0922
  C  C274  1  0.837100  0.845800  0.392500  1.0  0.4109
  C  C275  1  0.913400  0.877000  0.836200  1.0  0.0862
  C  C276  1  0.881100  0.787100  0.832200  1.0  0.039
  C  C277  1  0.917400  0.830800  0.895000  1.0  -0.0589
  C  C278  1  0.970900  0.945900  0.947600  1.0  0.2593
  C  C279  1  0.654600  0.698500  0.520500  1.0  0.1245
  C  C280  1  0.650400  0.672400  0.432600  1.0  -0.0343
  C  C281  1  0.591300  0.647500  0.420200  1.0  -0.0923
  C  C282  1  0.546700  0.654200  0.491300  1.0  0.4208
  C  C283  1  0.040800  0.663800  0.077200  1.0  0.0874
  C  C284  1  0.954900  0.667800  0.048900  1.0  0.0364
  C  C285  1  0.935800  0.605000  0.022400  1.0  -0.0605
  C  C286  1  0.998300  0.552400  0.023300  1.0  0.2591
  C  C287  1  0.178000  0.979500  0.134100  1.0  0.123
  C  C288  1  0.239800  0.067400  0.217800  1.0  -0.037
  C  C289  1  0.227300  0.079800  0.171100  1.0  -0.0862
  C  C290  1  0.162900  0.008700  0.055400  1.0  0.4188
  C  C291  1  0.086600  0.963600  0.422800  1.0  0.0884
  C  C292  1  0.118900  0.906000  0.451100  1.0  0.0383
  C  C293  1  0.082600  0.913400  0.477600  1.0  -0.059
  C  C294  1  0.029100  0.975000  0.476700  1.0  0.2593
  C  C295  1  0.345400  0.043900  0.365900  1.0  0.1221
  C  C296  1  0.349600  0.022000  0.282200  1.0  -0.0357
  C  C297  1  0.408700  0.056200  0.328900  1.0  -0.0916
  C  C298  1  0.453300  0.107500  0.444600  1.0  0.4198
  C  C299  1  0.459200  0.536400  0.623000  1.0  0.0884
  C  C300  1  0.545100  0.594000  0.712900  1.0  0.0398
  C  C301  1  0.564200  0.586600  0.669200  1.0  -0.061
  C  C302  1  0.501700  0.525000  0.554100  1.0  0.2572
  C  C303  1  0.322000  0.456100  0.801500  1.0  0.1251
  C  C304  1  0.260200  0.478000  0.827600  1.0  -0.0359
  C  C305  1  0.272700  0.443800  0.852500  1.0  -0.098
  C  C306  1  0.337100  0.392500  0.845800  1.0  0.4138
  C  C307  1  0.413400  0.836200  0.877000  1.0  0.0898
  C  C308  1  0.381100  0.832200  0.787100  1.0  0.0357
  C  C309  1  0.417400  0.895000  0.830800  1.0  -0.0592
  C  C310  1  0.470900  0.947600  0.945900  1.0  0.259
  C  C311  1  0.154600  0.520500  0.698500  1.0  0.1211
  C  C312  1  0.150400  0.432600  0.672400  1.0  -0.0364
  C  C313  1  0.091300  0.420200  0.647500  1.0  -0.0942
  C  C314  1  0.046700  0.491300  0.654200  1.0  0.4158
  C  C315  1  0.963600  0.922800  0.586600  1.0  0.0858
  C  C316  1  0.906000  0.951100  0.618900  1.0  0.0394
  C  C317  1  0.913400  0.977600  0.582600  1.0  -0.0614
  C  C318  1  0.975000  0.976700  0.529100  1.0  0.2594
  C  C319  1  0.043900  0.865900  0.845400  1.0  0.1266
  C  C320  1  0.022000  0.782200  0.849600  1.0  -0.0363
  C  C321  1  0.056200  0.828900  0.908700  1.0  -0.0936
  C  C322  1  0.107500  0.944600  0.953300  1.0  0.4154
  C  C323  1  0.663800  0.577200  0.540800  1.0  0.0874
  C  C324  1  0.667800  0.548900  0.454900  1.0  0.0349
  C  C325  1  0.605000  0.522400  0.435800  1.0  -0.0579
  C  C326  1  0.552400  0.523300  0.498300  1.0  0.2564
  C  C327  1  0.979500  0.634100  0.678000  1.0  0.1209
  C  C328  1  0.067400  0.717800  0.739800  1.0  -0.0355
  C  C329  1  0.079800  0.671100  0.727300  1.0  -0.093
  C  C330  1  0.008700  0.555400  0.662900  1.0  0.4181
  C  C331  1  0.836200  0.377000  0.913400  1.0  0.0858
  C  C332  1  0.832200  0.287100  0.881100  1.0  0.0346
  C  C333  1  0.895000  0.330800  0.917400  1.0  -0.0614
  C  C334  1  0.947600  0.445900  0.970900  1.0  0.2632
  C  C335  1  0.520500  0.198500  0.654600  1.0  0.125
  C  C336  1  0.432600  0.172400  0.650400  1.0  -0.0383
  C  C337  1  0.420200  0.147500  0.591300  1.0  -0.092
  C  C338  1  0.491300  0.154200  0.546700  1.0  0.4152
  C  C339  1  0.536400  0.123000  0.959200  1.0  0.0868
  C  C340  1  0.594000  0.212900  0.045100  1.0  0.0388
  C  C341  1  0.586600  0.169200  0.064200  1.0  -0.059
  C  C342  1  0.525000  0.054100  0.001700  1.0  0.2553
  C  C343  1  0.456100  0.301500  0.822000  1.0  0.1256
  C  C344  1  0.478000  0.327600  0.760200  1.0  -0.0345
  C  C345  1  0.443800  0.352500  0.772700  1.0  -0.0918
  C  C346  1  0.392500  0.345800  0.837100  1.0  0.4159
  C  C347  1  0.377000  0.413400  0.336200  1.0  0.0877
  C  C348  1  0.287100  0.381100  0.332200  1.0  0.0366
  C  C349  1  0.330800  0.417400  0.395000  1.0  -0.0626
  C  C350  1  0.445900  0.470900  0.447600  1.0  0.2601
  C  C351  1  0.198500  0.154600  0.020500  1.0  0.1225
  C  C352  1  0.172400  0.150400  0.932600  1.0  -0.0363
  C  C353  1  0.147500  0.091300  0.920200  1.0  -0.0937
  C  C354  1  0.154200  0.046700  0.991300  1.0  0.4203
  C  C355  1  0.123000  0.459200  0.036400  1.0  0.0876
  C  C356  1  0.212900  0.545100  0.094000  1.0  0.0348
  C  C357  1  0.169200  0.564200  0.086600  1.0  -0.0631
  C  C358  1  0.054100  0.501700  0.025000  1.0  0.2574
  C  C359  1  0.301500  0.322000  0.956100  1.0  0.1223
  C  C360  1  0.327600  0.260200  0.978000  1.0  -0.038
  C  C361  1  0.352500  0.272700  0.943800  1.0  -0.0931
  C  C362  1  0.345800  0.337100  0.892500  1.0  0.4145
  C  C363  1  0.922800  0.086600  0.463600  1.0  0.0891
  C  C364  1  0.951100  0.118900  0.406000  1.0  0.0354
  C  C365  1  0.977600  0.082600  0.413400  1.0  -0.0631
  C  C366  1  0.976700  0.029100  0.475000  1.0  0.2593
  C  C367  1  0.865900  0.345400  0.543900  1.0  0.1226
  C  C368  1  0.782200  0.349600  0.522000  1.0  -0.0364
  C  C369  1  0.828900  0.408700  0.556200  1.0  -0.0953
  C  C370  1  0.944600  0.453300  0.607500  1.0  0.4113
  C  C371  1  0.577200  0.040800  0.163800  1.0  0.0879
  C  C372  1  0.548900  0.954900  0.167800  1.0  0.0402
  C  C373  1  0.522400  0.935800  0.105000  1.0  -0.0596
  C  C374  1  0.523300  0.998300  0.052400  1.0  0.2552
  C  C375  1  0.634100  0.178000  0.479500  1.0  0.1259
  C  C376  1  0.717800  0.239800  0.567400  1.0  -0.0355
  C  C377  1  0.671100  0.227300  0.579800  1.0  -0.093
  C  C378  1  0.555400  0.162900  0.508700  1.0  0.4206
  S  S379  1  0.479610  0.664840  0.809130  1.0  -0.0219
  S  S380  1  0.355710  0.670480  0.690870  1.0  -0.0224
  S  S381  1  0.144290  0.835160  0.314770  1.0  -0.0206
  S  S382  1  0.020390  0.829520  0.185230  1.0  -0.0222
  S  S383  1  0.814770  0.144290  0.335160  1.0  -0.0226
  S  S384  1  0.685230  0.020390  0.329520  1.0  -0.0258
  S  S385  1  0.309130  0.479610  0.164840  1.0  -0.022
  S  S386  1  0.190870  0.355710  0.170480  1.0  -0.0208
  S  S387  1  0.670480  0.190870  0.855710  1.0  -0.0214
  S  S388  1  0.664840  0.309130  0.979610  1.0  -0.0222
  S  S389  1  0.829520  0.685230  0.520390  1.0  -0.0222
  S  S390  1  0.835160  0.814770  0.644290  1.0  -0.0209
  S  S391  1  0.170480  0.855710  0.190870  1.0  -0.0221
  S  S392  1  0.164840  0.979610  0.309130  1.0  -0.0218
  S  S393  1  0.329520  0.520390  0.685230  1.0  -0.0258
  S  S394  1  0.335160  0.644290  0.814770  1.0  -0.0211
  S  S395  1  0.979610  0.809130  0.664840  1.0  -0.0208
  S  S396  1  0.855710  0.690870  0.670480  1.0  -0.0218
  S  S397  1  0.644290  0.314770  0.835160  1.0  -0.0216
  S  S398  1  0.520390  0.185230  0.829520  1.0  -0.0208
  S  S399  1  0.314770  0.335160  0.144290  1.0  -0.0216
  S  S400  1  0.185230  0.329520  0.020390  1.0  -0.0218
  S  S401  1  0.809130  0.164840  0.479610  1.0  -0.0211
  S  S402  1  0.690870  0.170480  0.355710  1.0  -0.0226
  Br  Br403  1  0.494300  0.781870  0.963830  1.0  -0.4773
  Br  Br404  1  0.318040  0.530470  0.536170  1.0  -0.4766
  Br  Br405  1  0.181960  0.718130  0.212430  1.0  -0.4779
  Br  Br406  1  0.005700  0.969530  0.287570  1.0  -0.479
  Br  Br407  1  0.712430  0.181960  0.218130  1.0  -0.4765
  Br  Br408  1  0.787570  0.005700  0.469530  1.0  -0.4775
  Br  Br409  1  0.463830  0.494300  0.281870  1.0  -0.4798
  Br  Br410  1  0.036170  0.318040  0.030470  1.0  -0.4766
  Br  Br411  1  0.530470  0.036170  0.818040  1.0  -0.4787
  Br  Br412  1  0.781870  0.463830  0.994300  1.0  -0.4771
  Br  Br413  1  0.969530  0.787570  0.505700  1.0  -0.4778
  Br  Br414  1  0.718130  0.712430  0.681960  1.0  -0.4776
  Br  Br415  1  0.030470  0.818040  0.036170  1.0  -0.4763
  Br  Br416  1  0.281870  0.994300  0.463830  1.0  -0.4773
  Br  Br417  1  0.469530  0.505700  0.787570  1.0  -0.4801
  Br  Br418  1  0.218130  0.681960  0.712430  1.0  -0.4764
  Br  Br419  1  0.994300  0.963830  0.781870  1.0  -0.4796
  Br  Br420  1  0.818040  0.536170  0.530470  1.0  -0.4765
  Br  Br421  1  0.681960  0.212430  0.718130  1.0  -0.478
  Br  Br422  1  0.505700  0.287570  0.969530  1.0  -0.4776
  Br  Br423  1  0.212430  0.218130  0.181960  1.0  -0.4771
  Br  Br424  1  0.287570  0.469530  0.005700  1.0  -0.4767
  Br  Br425  1  0.963830  0.281870  0.494300  1.0  -0.478
  Br  Br426  1  0.536170  0.030470  0.318040  1.0  -0.4789
  N  N427  1  0.436300  0.622800  0.917700  1.0  -0.4223
  N  N428  1  0.452800  0.566200  0.961200  1.0  0.0613
  N  N429  1  0.509900  0.514600  0.955700  1.0  -0.3815
  N  N430  1  0.511500  0.810600  0.805300  1.0  -0.3327
  N  N431  1  0.571000  0.903700  0.882900  1.0  0.0581
  N  N432  1  0.613300  0.938800  0.986700  1.0  -0.3311
  N  N433  1  0.205100  0.518600  0.582300  1.0  -0.4224
  N  N434  1  0.105000  0.491600  0.538800  1.0  0.0611
  N  N435  1  0.058900  0.554200  0.544300  1.0  -0.3762
  N  N436  1  0.505300  0.706200  0.694700  1.0  -0.3315
  N  N437  1  0.520800  0.688100  0.617100  1.0  0.0577
  N  N438  1  0.452100  0.626600  0.513300  1.0  -0.323
  N  N439  1  0.294900  0.877200  0.313500  1.0  -0.4185
  N  N440  1  0.395000  0.933800  0.386600  1.0  0.0594
  N  N441  1  0.441100  0.985400  0.495300  1.0  -0.3785
  N  N442  1  0.994700  0.689400  0.200900  1.0  -0.3319
  N  N443  1  0.979200  0.596300  0.167300  1.0  0.0632
  N  N444  1  0.047900  0.561200  0.174500  1.0  -0.3438
  N  N445  1  0.063700  0.981400  0.186500  1.0  -0.4209
  N  N446  1  0.047200  0.008400  0.113400  1.0  0.0623
  N  N447  1  0.990100  0.945800  0.004700  1.0  -0.3785
  N  N448  1  0.988500  0.793800  0.299100  1.0  -0.3315
  N  N449  1  0.929000  0.811900  0.332700  1.0  0.0612
  N  N450  1  0.886700  0.873400  0.325500  1.0  -0.3532
  N  N451  1  0.813500  0.294900  0.377200  1.0  -0.4211
  N  N452  1  0.886600  0.395000  0.433800  1.0  0.0606
  N  N453  1  0.995300  0.441100  0.485400  1.0  -0.375
  N  N454  1  0.700900  0.994700  0.189400  1.0  -0.3314
  N  N455  1  0.667300  0.979200  0.096300  1.0  0.0595
  N  N456  1  0.674500  0.047900  0.061200  1.0  -0.3427
  N  N457  1  0.686500  0.063700  0.481400  1.0  -0.4197
  N  N458  1  0.613400  0.047200  0.508400  1.0  0.0609
  N  N459  1  0.504700  0.990100  0.445800  1.0  -0.3801
  N  N460  1  0.799100  0.988500  0.293800  1.0  -0.3332
  N  N461  1  0.832700  0.929000  0.311900  1.0  0.0622
  N  N462  1  0.825500  0.886700  0.373400  1.0  -0.3479
  N  N463  1  0.417700  0.436300  0.122800  1.0  -0.4211
  N  N464  1  0.461200  0.452800  0.066200  1.0  0.0653
  N  N465  1  0.455700  0.509900  0.014600  1.0  -0.3785
  N  N466  1  0.305300  0.511500  0.310600  1.0  -0.3282
  N  N467  1  0.382900  0.571000  0.403700  1.0  0.0622
  N  N468  1  0.486700  0.613300  0.438800  1.0  -0.3374
  N  N469  1  0.082300  0.205100  0.018600  1.0  -0.42
  N  N470  1  0.038800  0.105000  0.991600  1.0  0.0601
  N  N471  1  0.044300  0.058900  0.054200  1.0  -0.3802
  N  N472  1  0.194700  0.505300  0.206200  1.0  -0.3334
  N  N473  1  0.117100  0.520800  0.188100  1.0  0.0602
  N  N474  1  0.013300  0.452100  0.126600  1.0  -0.322
  N  N475  1  0.518600  0.082300  0.705100  1.0  -0.4207
  N  N476  1  0.491600  0.038800  0.605000  1.0  0.063
  N  N477  1  0.554200  0.044300  0.558900  1.0  -0.3757
  N  N478  1  0.706200  0.194700  0.005300  1.0  -0.3295
  N  N479  1  0.688100  0.117100  0.020800  1.0  0.0617
  N  N480  1  0.626600  0.013300  0.952100  1.0  -0.326
  N  N481  1  0.622800  0.417700  0.936300  1.0  -0.4151
  N  N482  1  0.566200  0.461200  0.952800  1.0  0.0629
  N  N483  1  0.514600  0.455700  0.009900  1.0  -0.3756
  N  N484  1  0.810600  0.305300  0.011500  1.0  -0.3339
  N  N485  1  0.903700  0.382900  0.071000  1.0  0.0623
  N  N486  1  0.938800  0.486700  0.113300  1.0  -0.3283
  N  N487  1  0.981400  0.686500  0.563700  1.0  -0.4199
  N  N488  1  0.008400  0.613400  0.547200  1.0  0.0606
  N  N489  1  0.945800  0.504700  0.490100  1.0  -0.3738
  N  N490  1  0.793800  0.799100  0.488500  1.0  -0.3301
  N  N491  1  0.811900  0.832700  0.429000  1.0  0.0595
  N  N492  1  0.873400  0.825500  0.386700  1.0  -0.348
  N  N493  1  0.877200  0.813500  0.794900  1.0  -0.419
  N  N494  1  0.933800  0.886600  0.895000  1.0  0.0619
  N  N495  1  0.985400  0.995300  0.941100  1.0  -0.3778
  N  N496  1  0.689400  0.700900  0.494700  1.0  -0.3359
  N  N497  1  0.596300  0.667300  0.479200  1.0  0.0572
  N  N498  1  0.561200  0.674500  0.547900  1.0  -0.3446
  N  N499  1  0.018600  0.705100  0.082300  1.0  -0.4219
  N  N500  1  0.991600  0.605000  0.038800  1.0  0.0586
  N  N501  1  0.054200  0.558900  0.044300  1.0  -0.3753
  N  N502  1  0.206200  0.005300  0.194700  1.0  -0.3301
  N  N503  1  0.188100  0.020800  0.117100  1.0  0.059
  N  N504  1  0.126600  0.952100  0.013300  1.0  -0.3242
  N  N505  1  0.122800  0.936300  0.417700  1.0  -0.4192
  N  N506  1  0.066200  0.952800  0.461200  1.0  0.0621
  N  N507  1  0.014600  0.009900  0.455700  1.0  -0.382
  N  N508  1  0.310600  0.011500  0.305300  1.0  -0.3333
  N  N509  1  0.403700  0.071000  0.382900  1.0  0.0617
  N  N510  1  0.438800  0.113300  0.486700  1.0  -0.3307
  N  N511  1  0.481400  0.563700  0.686500  1.0  -0.4217
  N  N512  1  0.508400  0.547200  0.613400  1.0  0.0626
  N  N513  1  0.445800  0.490100  0.504700  1.0  -0.3796
  N  N514  1  0.293800  0.488500  0.799100  1.0  -0.3282
  N  N515  1  0.311900  0.429000  0.832700  1.0  0.0619
  N  N516  1  0.373400  0.386700  0.825500  1.0  -0.3546
  N  N517  1  0.377200  0.794900  0.813500  1.0  -0.4189
  N  N518  1  0.433800  0.895000  0.886600  1.0  0.0605
  N  N519  1  0.485400  0.941100  0.995300  1.0  -0.3786
  N  N520  1  0.189400  0.494700  0.700900  1.0  -0.3349
  N  N521  1  0.096300  0.479200  0.667300  1.0  0.061
  N  N522  1  0.061200  0.547900  0.674500  1.0  -0.3418
  N  N523  1  0.936300  0.917700  0.622800  1.0  -0.4201
  N  N524  1  0.952800  0.961200  0.566200  1.0  0.0662
  N  N525  1  0.009900  0.955700  0.514600  1.0  -0.3744
  N  N526  1  0.011500  0.805300  0.810600  1.0  -0.3297
  N  N527  1  0.071000  0.882900  0.903700  1.0  0.0611
  N  N528  1  0.113300  0.986700  0.938800  1.0  -0.3345
  N  N529  1  0.705100  0.582300  0.518600  1.0  -0.417
  N  N530  1  0.605000  0.538800  0.491600  1.0  0.0615
  N  N531  1  0.558900  0.544300  0.554200  1.0  -0.3778
  N  N532  1  0.005300  0.694700  0.706200  1.0  -0.3336
  N  N533  1  0.020800  0.617100  0.688100  1.0  0.0631
  N  N534  1  0.952100  0.513300  0.626600  1.0  -0.3201
  N  N535  1  0.794900  0.313500  0.877200  1.0  -0.4205
  N  N536  1  0.895000  0.386600  0.933800  1.0  0.0622
  N  N537  1  0.941100  0.495300  0.985400  1.0  -0.3741
  N  N538  1  0.494700  0.200900  0.689400  1.0  -0.3318
  N  N539  1  0.479200  0.167300  0.596300  1.0  0.0583
  N  N540  1  0.547900  0.174500  0.561200  1.0  -0.3444
  N  N541  1  0.563700  0.186500  0.981400  1.0  -0.4189
  N  N542  1  0.547200  0.113400  0.008400  1.0  0.0612
  N  N543  1  0.490100  0.004700  0.945800  1.0  -0.3786
  N  N544  1  0.488500  0.299100  0.793800  1.0  -0.3346
  N  N545  1  0.429000  0.332700  0.811900  1.0  0.0572
  N  N546  1  0.386700  0.325500  0.873400  1.0  -0.3482
  N  N547  1  0.313500  0.377200  0.294900  1.0  -0.4178
  N  N548  1  0.386600  0.433800  0.395000  1.0  0.0602
  N  N549  1  0.495300  0.485400  0.441100  1.0  -0.3782
  N  N550  1  0.200900  0.189400  0.994700  1.0  -0.3321
  N  N551  1  0.167300  0.096300  0.979200  1.0  0.0595
  N  N552  1  0.174500  0.061200  0.047900  1.0  -0.3432
  N  N553  1  0.186500  0.481400  0.063700  1.0  -0.4202
  N  N554  1  0.113400  0.508400  0.047200  1.0  0.0612
  N  N555  1  0.004700  0.445800  0.990100  1.0  -0.3753
  N  N556  1  0.299100  0.293800  0.988500  1.0  -0.3311
  N  N557  1  0.332700  0.311900  0.929000  1.0  0.0595
  N  N558  1  0.325500  0.373400  0.886700  1.0  -0.348
  N  N559  1  0.917700  0.122800  0.436300  1.0  -0.4222
  N  N560  1  0.961200  0.066200  0.452800  1.0  0.0601
  N  N561  1  0.955700  0.014600  0.509900  1.0  -0.3783
  N  N562  1  0.805300  0.310600  0.511500  1.0  -0.3322
  N  N563  1  0.882900  0.403700  0.571000  1.0  0.0615
  N  N564  1  0.986700  0.438800  0.613300  1.0  -0.3303
  N  N565  1  0.582300  0.018600  0.205100  1.0  -0.4225
  N  N566  1  0.538800  0.991600  0.105000  1.0  0.062
  N  N567  1  0.544300  0.054200  0.058900  1.0  -0.38
  N  N568  1  0.694700  0.206200  0.505300  1.0  -0.3314
  N  N569  1  0.617100  0.188100  0.520800  1.0  0.0601
  N  N570  1  0.513300  0.126600  0.452100  1.0  -0.3296
