# generated using pymatgen
data_Cu6H32WC40S4(BrN4)4
_symmetry_space_group_name_H-M   'P 1'
_cell_length_a   26.32150000
_cell_length_b   26.32150000
_cell_length_c   26.32150000
_cell_angle_alpha   109.47100000
_cell_angle_beta   109.47100000
_cell_angle_gamma   109.47100000
_symmetry_Int_Tables_number   1
_chemical_formula_structural   Cu6H32WC40S4(BrN4)4
_chemical_formula_sum   'Cu36 H192 W6 C240 S24 Br24 N96'
_cell_volume   14038.26906375
_cell_formula_units_Z   6
loop_
 _symmetry_equiv_pos_site_id
 _symmetry_equiv_pos_as_xyz
  1  'x, y, z'
loop_
 _atom_site_type_symbol
 _atom_site_label
 _atom_site_symmetry_multiplicity
 _atom_site_fract_x
 _atom_site_fract_y
 _atom_site_fract_z
 _atom_site_occupancy
 _atom_site_charge
  Cu  Cu1  1  0.261430  0.322480  0.199430  1.0  0.2356
  Cu  Cu2  1  0.623050  0.062000  0.300570  1.0  0.2351
  Cu  Cu3  1  0.876950  0.177520  0.438950  1.0  0.2352
  Cu  Cu4  1  0.238570  0.438000  0.061050  1.0  0.2352
  Cu  Cu5  1  0.938950  0.876950  0.677520  1.0  0.2355
  Cu  Cu6  1  0.561050  0.238570  0.938000  1.0  0.2354
  Cu  Cu7  1  0.699430  0.261430  0.822480  1.0  0.2344
  Cu  Cu8  1  0.800570  0.623050  0.562000  1.0  0.236
  Cu  Cu9  1  0.062000  0.800570  0.123050  1.0  0.2347
  Cu  Cu10  1  0.322480  0.699430  0.761430  1.0  0.2338
  Cu  Cu11  1  0.438000  0.561050  0.738570  1.0  0.2352
  Cu  Cu12  1  0.177520  0.938950  0.376950  1.0  0.2358
  Cu  Cu13  1  0.562000  0.123050  0.800570  1.0  0.2359
  Cu  Cu14  1  0.822480  0.761430  0.699430  1.0  0.2346
  Cu  Cu15  1  0.938000  0.738570  0.561050  1.0  0.2351
  Cu  Cu16  1  0.677520  0.376950  0.938950  1.0  0.2357
  Cu  Cu17  1  0.761430  0.199430  0.322480  1.0  0.2339
  Cu  Cu18  1  0.123050  0.300570  0.062000  1.0  0.2347
  Cu  Cu19  1  0.376950  0.438950  0.177520  1.0  0.235
  Cu  Cu20  1  0.738570  0.061050  0.438000  1.0  0.2358
  Cu  Cu21  1  0.438950  0.677520  0.876950  1.0  0.2366
  Cu  Cu22  1  0.061050  0.938000  0.238570  1.0  0.2351
  Cu  Cu23  1  0.199430  0.822480  0.261430  1.0  0.2344
  Cu  Cu24  1  0.300570  0.562000  0.623050  1.0  0.2354
  Cu  Cu25  1  0.250000  0.287390  0.037390  1.0  0.4146
  Cu  Cu26  1  0.750000  0.212610  0.462610  1.0  0.4109
  Cu  Cu27  1  0.962610  0.750000  0.712610  1.0  0.415
  Cu  Cu28  1  0.537390  0.250000  0.787390  1.0  0.4154
  Cu  Cu29  1  0.212610  0.962610  0.250000  1.0  0.4139
  Cu  Cu30  1  0.287390  0.537390  0.750000  1.0  0.4122
  Cu  Cu31  1  0.712610  0.250000  0.962610  1.0  0.415
  Cu  Cu32  1  0.787390  0.750000  0.537390  1.0  0.4154
  Cu  Cu33  1  0.750000  0.037390  0.287390  1.0  0.4146
  Cu  Cu34  1  0.250000  0.462610  0.212610  1.0  0.4109
  Cu  Cu35  1  0.462610  0.712610  0.750000  1.0  0.4139
  Cu  Cu36  1  0.037390  0.787390  0.250000  1.0  0.4122
  H  H37  1  0.398000  0.420300  0.324100  1.0  0.0761
  H  H38  1  0.249500  0.315800  0.315300  1.0  0.1079
  H  H39  1  0.324600  0.385000  0.424000  1.0  0.1113
  H  H40  1  0.491900  0.462800  0.402300  1.0  0.1231
  H  H41  1  0.292700  0.360400  0.969900  1.0  0.1077
  H  H42  1  0.319400  0.229200  0.990400  1.0  0.1148
  H  H43  1  0.351600  0.245300  0.916500  1.0  0.1257
  H  H44  1  0.317700  0.399300  0.917600  1.0  0.1136
  H  H45  1  0.596200  0.073900  0.175900  1.0  0.074
  H  H46  1  0.500500  0.934200  0.184700  1.0  0.1065
  H  H47  1  0.461000  0.900600  0.076000  1.0  0.109
  H  H48  1  0.560500  0.089600  0.097700  1.0  0.1209
  H  H49  1  0.890500  0.322800  0.530100  1.0  0.1071
  H  H50  1  0.738800  0.329000  0.509600  1.0  0.1169
  H  H51  1  0.828800  0.435100  0.583500  1.0  0.1254
  H  H52  1  0.981700  0.400100  0.582400  1.0  0.113
  H  H53  1  0.903800  0.079700  0.477700  1.0  0.0747
  H  H54  1  0.999500  0.184200  0.433700  1.0  0.1067
  H  H55  1  0.039000  0.115000  0.439600  1.0  0.1096
  H  H56  1  0.939500  0.037200  0.529100  1.0  0.1217
  H  H57  1  0.609500  0.139600  0.432300  1.0  0.1068
  H  H58  1  0.761200  0.270800  0.590200  1.0  0.1149
  H  H59  1  0.671200  0.254700  0.606300  1.0  0.1269
  H  H60  1  0.518300  0.100700  0.418400  1.0  0.114
  H  H61  1  0.102000  0.426100  0.022300  1.0  0.0742
  H  H62  1  0.250500  0.565800  0.066300  1.0  0.1073
  H  H63  1  0.175400  0.599400  0.060400  1.0  0.1099
  H  H64  1  0.008100  0.410400  0.970900  1.0  0.1215
  H  H65  1  0.207300  0.177200  0.067700  1.0  0.1073
  H  H66  1  0.180600  0.171000  0.909800  1.0  0.1145
  H  H67  1  0.148400  0.064900  0.893700  1.0  0.1238
  H  H68  1  0.182300  0.099900  0.081600  1.0  0.1114
  H  H69  1  0.977700  0.903800  0.579700  1.0  0.0747
  H  H70  1  0.933700  0.999500  0.684200  1.0  0.1058
  H  H71  1  0.939600  0.039000  0.615000  1.0  0.1098
  H  H72  1  0.029100  0.939500  0.537200  1.0  0.1215
  H  H73  1  0.932300  0.609500  0.639600  1.0  0.1079
  H  H74  1  0.090200  0.761200  0.770800  1.0  0.116
  H  H75  1  0.106300  0.671200  0.754700  1.0  0.1254
  H  H76  1  0.918400  0.518300  0.600700  1.0  0.1142
  H  H77  1  0.522300  0.102000  0.926100  1.0  0.0747
  H  H78  1  0.566300  0.250500  0.065800  1.0  0.1083
  H  H79  1  0.560400  0.175400  0.099400  1.0  0.1091
  H  H80  1  0.470900  0.008100  0.910400  1.0  0.1225
  H  H81  1  0.567700  0.207300  0.677200  1.0  0.1073
  H  H82  1  0.409800  0.180600  0.671000  1.0  0.115
  H  H83  1  0.393700  0.148400  0.564900  1.0  0.1242
  H  H84  1  0.581600  0.182300  0.599900  1.0  0.1115
  H  H85  1  0.824100  0.398000  0.920300  1.0  0.0738
  H  H86  1  0.815300  0.249500  0.815800  1.0  0.1078
  H  H87  1  0.924000  0.324600  0.885000  1.0  0.1086
  H  H88  1  0.902300  0.491900  0.962800  1.0  0.1234
  H  H89  1  0.469900  0.292700  0.860400  1.0  0.107
  H  H90  1  0.490400  0.319400  0.729200  1.0  0.1146
  H  H91  1  0.416500  0.351600  0.745300  1.0  0.1245
  H  H92  1  0.417600  0.317700  0.899300  1.0  0.1119
  H  H93  1  0.675900  0.596200  0.573900  1.0  0.0739
  H  H94  1  0.684700  0.500500  0.434200  1.0  0.1067
  H  H95  1  0.576000  0.461000  0.400600  1.0  0.1094
  H  H96  1  0.597700  0.560500  0.589600  1.0  0.1218
  H  H97  1  0.030100  0.890500  0.822800  1.0  0.1068
  H  H98  1  0.009600  0.738800  0.829000  1.0  0.1155
  H  H99  1  0.083500  0.828800  0.935100  1.0  0.1253
  H  H100  1  0.082400  0.981700  0.900100  1.0  0.1137
  H  H101  1  0.073900  0.675900  0.096200  1.0  0.0746
  H  H102  1  0.934200  0.684700  0.000500  1.0  0.1066
  H  H103  1  0.900600  0.576000  0.961000  1.0  0.1086
  H  H104  1  0.089600  0.597700  0.060500  1.0  0.122
  H  H105  1  0.322800  0.030100  0.390500  1.0  0.1077
  H  H106  1  0.329000  0.009600  0.238800  1.0  0.1143
  H  H107  1  0.435100  0.083500  0.328800  1.0  0.1254
  H  H108  1  0.400100  0.082400  0.481700  1.0  0.1127
  H  H109  1  0.420300  0.824100  0.898000  1.0  0.0752
  H  H110  1  0.315800  0.815300  0.749500  1.0  0.1065
  H  H111  1  0.385000  0.924000  0.824600  1.0  0.1093
  H  H112  1  0.462800  0.902300  0.991900  1.0  0.1217
  H  H113  1  0.360400  0.469900  0.792700  1.0  0.1058
  H  H114  1  0.229200  0.490400  0.819400  1.0  0.1147
  H  H115  1  0.245300  0.416500  0.851600  1.0  0.1261
  H  H116  1  0.399300  0.417600  0.817700  1.0  0.1128
  H  H117  1  0.426100  0.522300  0.602000  1.0  0.0754
  H  H118  1  0.565800  0.566300  0.750500  1.0  0.1058
  H  H119  1  0.599400  0.560400  0.675400  1.0  0.1091
  H  H120  1  0.410400  0.470900  0.508100  1.0  0.1218
  H  H121  1  0.177200  0.567700  0.707300  1.0  0.1069
  H  H122  1  0.171000  0.409800  0.680600  1.0  0.1165
  H  H123  1  0.064900  0.393700  0.648400  1.0  0.1259
  H  H124  1  0.099900  0.581600  0.682300  1.0  0.1126
  H  H125  1  0.079700  0.977700  0.403800  1.0  0.0741
  H  H126  1  0.184200  0.933700  0.499500  1.0  0.1073
  H  H127  1  0.115000  0.939600  0.539000  1.0  0.1096
  H  H128  1  0.037200  0.029100  0.439500  1.0  0.1228
  H  H129  1  0.139600  0.932300  0.109500  1.0  0.1073
  H  H130  1  0.270800  0.090200  0.261200  1.0  0.1163
  H  H131  1  0.254700  0.106300  0.171200  1.0  0.1235
  H  H132  1  0.100700  0.918400  0.018300  1.0  0.1122
  H  H133  1  0.573900  0.096200  0.675900  1.0  0.0741
  H  H134  1  0.434200  0.000500  0.684700  1.0  0.1066
  H  H135  1  0.400600  0.961000  0.576000  1.0  0.1096
  H  H136  1  0.589600  0.060500  0.597700  1.0  0.1213
  H  H137  1  0.822800  0.390500  0.030100  1.0  0.1079
  H  H138  1  0.829000  0.238800  0.009600  1.0  0.1166
  H  H139  1  0.935100  0.328800  0.083500  1.0  0.1254
  H  H140  1  0.900100  0.481700  0.082400  1.0  0.1144
  H  H141  1  0.920300  0.898000  0.824100  1.0  0.0741
  H  H142  1  0.815800  0.749500  0.815300  1.0  0.1091
  H  H143  1  0.885000  0.824600  0.924000  1.0  0.1092
  H  H144  1  0.962800  0.991900  0.902300  1.0  0.1227
  H  H145  1  0.860400  0.792700  0.469900  1.0  0.107
  H  H146  1  0.729200  0.819400  0.490400  1.0  0.1145
  H  H147  1  0.745300  0.851600  0.416500  1.0  0.124
  H  H148  1  0.899300  0.817700  0.417600  1.0  0.1124
  H  H149  1  0.926100  0.602000  0.522300  1.0  0.074
  H  H150  1  0.065800  0.750500  0.566300  1.0  0.1076
  H  H151  1  0.099400  0.675400  0.560400  1.0  0.1092
  H  H152  1  0.910400  0.508100  0.470900  1.0  0.1234
  H  H153  1  0.677200  0.707300  0.567700  1.0  0.1069
  H  H154  1  0.671000  0.680600  0.409800  1.0  0.1146
  H  H155  1  0.564900  0.648400  0.393700  1.0  0.1246
  H  H156  1  0.599900  0.682300  0.581600  1.0  0.1108
  H  H157  1  0.579700  0.403800  0.977700  1.0  0.0747
  H  H158  1  0.684200  0.499500  0.933700  1.0  0.1066
  H  H159  1  0.615000  0.539000  0.939600  1.0  0.1099
  H  H160  1  0.537200  0.439500  0.029100  1.0  0.122
  H  H161  1  0.639600  0.109500  0.932300  1.0  0.1066
  H  H162  1  0.770800  0.261200  0.090200  1.0  0.1154
  H  H163  1  0.754700  0.171200  0.106300  1.0  0.1252
  H  H164  1  0.600700  0.018300  0.918400  1.0  0.1136
  H  H165  1  0.898000  0.324100  0.420300  1.0  0.0747
  H  H166  1  0.749500  0.315300  0.315800  1.0  0.1071
  H  H167  1  0.824600  0.424000  0.385000  1.0  0.1098
  H  H168  1  0.991900  0.402300  0.462800  1.0  0.1215
  H  H169  1  0.792700  0.969900  0.360400  1.0  0.1075
  H  H170  1  0.819400  0.990400  0.229200  1.0  0.114
  H  H171  1  0.851600  0.916500  0.245300  1.0  0.1249
  H  H172  1  0.817700  0.917600  0.399300  1.0  0.1127
  H  H173  1  0.096200  0.175900  0.073900  1.0  0.0745
  H  H174  1  0.000500  0.184700  0.934200  1.0  0.1061
  H  H175  1  0.961000  0.076000  0.900600  1.0  0.1083
  H  H176  1  0.060500  0.097700  0.089600  1.0  0.1215
  H  H177  1  0.390500  0.530100  0.322800  1.0  0.1061
  H  H178  1  0.238800  0.509600  0.329000  1.0  0.115
  H  H179  1  0.328800  0.583500  0.435100  1.0  0.1259
  H  H180  1  0.481700  0.582400  0.400100  1.0  0.1135
  H  H181  1  0.403800  0.477700  0.079700  1.0  0.0748
  H  H182  1  0.499500  0.433700  0.184200  1.0  0.1059
  H  H183  1  0.539000  0.439600  0.115000  1.0  0.1091
  H  H184  1  0.439500  0.529100  0.037200  1.0  0.1217
  H  H185  1  0.109500  0.432300  0.139600  1.0  0.1082
  H  H186  1  0.261200  0.590200  0.270800  1.0  0.1163
  H  H187  1  0.171200  0.606300  0.254700  1.0  0.1254
  H  H188  1  0.018300  0.418400  0.100700  1.0  0.1127
  H  H189  1  0.602000  0.022300  0.426100  1.0  0.0741
  H  H190  1  0.750500  0.066300  0.565800  1.0  0.1071
  H  H191  1  0.675400  0.060400  0.599400  1.0  0.1098
  H  H192  1  0.508100  0.970900  0.410400  1.0  0.1233
  H  H193  1  0.707300  0.067700  0.177200  1.0  0.1064
  H  H194  1  0.680600  0.909800  0.171000  1.0  0.1168
  H  H195  1  0.648400  0.893700  0.064900  1.0  0.1246
  H  H196  1  0.682300  0.081600  0.099900  1.0  0.1119
  H  H197  1  0.477700  0.579700  0.903800  1.0  0.0753
  H  H198  1  0.433700  0.684200  0.999500  1.0  0.1073
  H  H199  1  0.439600  0.615000  0.039000  1.0  0.1111
  H  H200  1  0.529100  0.537200  0.939500  1.0  0.1227
  H  H201  1  0.432300  0.639600  0.609500  1.0  0.1078
  H  H202  1  0.590200  0.770800  0.761200  1.0  0.1148
  H  H203  1  0.606300  0.754700  0.671200  1.0  0.1256
  H  H204  1  0.418400  0.600700  0.518300  1.0  0.1134
  H  H205  1  0.022300  0.926100  0.102000  1.0  0.0745
  H  H206  1  0.066300  0.065800  0.250500  1.0  0.1057
  H  H207  1  0.060400  0.099400  0.175400  1.0  0.1092
  H  H208  1  0.970900  0.910400  0.008100  1.0  0.1212
  H  H209  1  0.067700  0.677200  0.207300  1.0  0.1074
  H  H210  1  0.909800  0.671000  0.180600  1.0  0.117
  H  H211  1  0.893700  0.564900  0.148400  1.0  0.1252
  H  H212  1  0.081600  0.599900  0.182300  1.0  0.1125
  H  H213  1  0.324100  0.920300  0.398000  1.0  0.0753
  H  H214  1  0.315300  0.815800  0.249500  1.0  0.1063
  H  H215  1  0.424000  0.885000  0.324600  1.0  0.1095
  H  H216  1  0.402300  0.962800  0.491900  1.0  0.122
  H  H217  1  0.969900  0.860400  0.292700  1.0  0.1064
  H  H218  1  0.990400  0.729200  0.319400  1.0  0.1147
  H  H219  1  0.916500  0.745300  0.351600  1.0  0.128
  H  H220  1  0.917600  0.899300  0.317700  1.0  0.1137
  H  H221  1  0.175900  0.573900  0.596200  1.0  0.0739
  H  H222  1  0.184700  0.434200  0.500500  1.0  0.1068
  H  H223  1  0.076000  0.400600  0.461000  1.0  0.1098
  H  H224  1  0.097700  0.589600  0.560500  1.0  0.122
  H  H225  1  0.530100  0.822800  0.890500  1.0  0.1068
  H  H226  1  0.509600  0.829000  0.738800  1.0  0.1145
  H  H227  1  0.583500  0.935100  0.828800  1.0  0.1248
  H  H228  1  0.582400  0.900100  0.981700  1.0  0.1119
  W  W229  1  0.250000  0.375000  0.125000  1.0  0.4578
  W  W230  1  0.750000  0.125000  0.375000  1.0  0.4582
  W  W231  1  0.875000  0.750000  0.625000  1.0  0.4578
  W  W232  1  0.625000  0.250000  0.875000  1.0  0.4581
  W  W233  1  0.125000  0.875000  0.250000  1.0  0.4576
  W  W234  1  0.375000  0.625000  0.750000  1.0  0.4577
  C  C235  1  0.369300  0.404100  0.335600  1.0  0.1215
  C  C236  1  0.288800  0.348100  0.330900  1.0  0.0367
  C  C237  1  0.329900  0.383500  0.390400  1.0  -0.1534
  C  C238  1  0.442200  0.463500  0.446900  1.0  0.1523
  C  C239  1  0.495100  0.478200  0.441300  1.0  -0.2055
  C  C240  1  0.301300  0.328100  0.963400  1.0  0.0679
  C  C241  1  0.315500  0.255300  0.974600  1.0  -0.0744
  C  C242  1  0.335200  0.265900  0.936100  1.0  -0.1336
  C  C243  1  0.348600  0.338000  0.898600  1.0  0.1002
  C  C244  1  0.332200  0.381700  0.892900  1.0  -0.1544
  C  C245  1  0.568500  0.033700  0.164400  1.0  0.1161
  C  C246  1  0.517200  0.957900  0.169100  1.0  0.0385
  C  C247  1  0.493100  0.939500  0.109600  1.0  -0.1486
  C  C248  1  0.516600  0.995300  0.053100  1.0  0.1611
  C  C249  1  0.536900  0.053800  0.058700  1.0  -0.1984
  C  C250  1  0.864700  0.337900  0.536600  1.0  0.0689
  C  C251  1  0.780700  0.340900  0.525400  1.0  -0.0753
  C  C252  1  0.829800  0.399100  0.563900  1.0  -0.14
  C  C253  1  0.939400  0.450000  0.601400  1.0  0.0988
  C  C254  1  0.988800  0.439300  0.607100  1.0  -0.1692
  C  C255  1  0.931500  0.095900  0.465200  1.0  0.1184
  C  C256  1  0.982800  0.151900  0.440700  1.0  0.039
  C  C257  1  0.006900  0.116500  0.446400  1.0  -0.1501
  C  C258  1  0.983400  0.036500  0.478700  1.0  0.1508
  C  C259  1  0.963100  0.021800  0.516900  1.0  -0.2021
  C  C260  1  0.635300  0.171900  0.473200  1.0  0.0694
  C  C261  1  0.719300  0.244700  0.560200  1.0  -0.0751
  C  C262  1  0.670200  0.234100  0.569300  1.0  -0.1361
  C  C263  1  0.560600  0.162000  0.510600  1.0  0.097
  C  C264  1  0.511200  0.118300  0.450500  1.0  -0.1604
  C  C265  1  0.130700  0.466300  0.034800  1.0  0.1201
  C  C266  1  0.211200  0.542100  0.059300  1.0  0.0389
  C  C267  1  0.170100  0.560500  0.053600  1.0  -0.1486
  C  C268  1  0.057800  0.504700  0.021300  1.0  0.1548
  C  C269  1  0.004900  0.446200  0.983100  1.0  -0.1984
  C  C270  1  0.198700  0.162100  0.026800  1.0  0.0736
  C  C271  1  0.184500  0.159100  0.939800  1.0  -0.0695
  C  C272  1  0.164800  0.100900  0.930700  1.0  -0.1332
  C  C273  1  0.151400  0.050000  0.989400  1.0  0.0974
  C  C274  1  0.167800  0.060700  0.049500  1.0  -0.1595
  C  C275  1  0.965200  0.931500  0.595900  1.0  0.12
  C  C276  1  0.940700  0.982800  0.651900  1.0  0.0392
  C  C277  1  0.946400  0.006900  0.616500  1.0  -0.1513
  C  C278  1  0.978700  0.983400  0.536500  1.0  0.1499
  C  C279  1  0.016900  0.963100  0.521800  1.0  -0.1986
  C  C280  1  0.973200  0.635300  0.671900  1.0  0.0679
  C  C281  1  0.060200  0.719300  0.744700  1.0  -0.075
  C  C282  1  0.069300  0.670200  0.734100  1.0  -0.1355
  C  C283  1  0.010600  0.560600  0.662000  1.0  0.0972
  C  C284  1  0.950500  0.511200  0.618300  1.0  -0.1626
  C  C285  1  0.534800  0.130700  0.966300  1.0  0.1218
  C  C286  1  0.559300  0.211200  0.042100  1.0  0.0403
  C  C287  1  0.553600  0.170100  0.060500  1.0  -0.1453
  C  C288  1  0.521300  0.057800  0.004700  1.0  0.1595
  C  C289  1  0.483100  0.004900  0.946200  1.0  -0.2014
  C  C290  1  0.526800  0.198700  0.662100  1.0  0.0741
  C  C291  1  0.439800  0.184500  0.659100  1.0  -0.0749
  C  C292  1  0.430700  0.164800  0.600900  1.0  -0.1347
  C  C293  1  0.489400  0.151400  0.550000  1.0  0.0986
  C  C294  1  0.549500  0.167800  0.560700  1.0  -0.1614
  C  C295  1  0.835600  0.369300  0.904100  1.0  0.1172
  C  C296  1  0.830900  0.288800  0.848100  1.0  0.0367
  C  C297  1  0.890400  0.329900  0.883500  1.0  -0.1536
  C  C298  1  0.946900  0.442200  0.963500  1.0  0.1475
  C  C299  1  0.941300  0.495100  0.978200  1.0  -0.2027
  C  C300  1  0.463400  0.301300  0.828100  1.0  0.0749
  C  C301  1  0.474600  0.315500  0.755300  1.0  -0.0691
  C  C302  1  0.436100  0.335200  0.765900  1.0  -0.1334
  C  C303  1  0.398600  0.348600  0.838000  1.0  0.0974
  C  C304  1  0.392900  0.332200  0.881700  1.0  -0.1576
  C  C305  1  0.664400  0.568500  0.533700  1.0  0.1205
  C  C306  1  0.669100  0.517200  0.457900  1.0  0.0374
  C  C307  1  0.609600  0.493100  0.439500  1.0  -0.1461
  C  C308  1  0.553100  0.516600  0.495300  1.0  0.1604
  C  C309  1  0.558700  0.536900  0.553800  1.0  -0.196
  C  C310  1  0.036600  0.864700  0.837900  1.0  0.072
  C  C311  1  0.025400  0.780700  0.840900  1.0  -0.0752
  C  C312  1  0.063900  0.829800  0.899100  1.0  -0.135
  C  C313  1  0.101400  0.939400  0.950000  1.0  0.0979
  C  C314  1  0.107100  0.988800  0.939300  1.0  -0.1662
  C  C315  1  0.033700  0.664400  0.068500  1.0  0.1237
  C  C316  1  0.957900  0.669100  0.017200  1.0  0.0404
  C  C317  1  0.939500  0.609600  0.993100  1.0  -0.1453
  C  C318  1  0.995300  0.553100  0.016600  1.0  0.1553
  C  C319  1  0.053800  0.558700  0.036900  1.0  -0.2012
  C  C320  1  0.337900  0.036600  0.364700  1.0  0.0685
  C  C321  1  0.340900  0.025400  0.280700  1.0  -0.0702
  C  C322  1  0.399100  0.063900  0.329800  1.0  -0.1327
  C  C323  1  0.450000  0.101400  0.439400  1.0  0.097
  C  C324  1  0.439300  0.107100  0.488800  1.0  -0.1681
  C  C325  1  0.404100  0.835600  0.869300  1.0  0.1208
  C  C326  1  0.348100  0.830900  0.788800  1.0  0.0387
  C  C327  1  0.383500  0.890400  0.829900  1.0  -0.1462
  C  C328  1  0.463500  0.946900  0.942200  1.0  0.1524
  C  C329  1  0.478200  0.941300  0.995100  1.0  -0.2004
  C  C330  1  0.328100  0.463400  0.801300  1.0  0.0709
  C  C331  1  0.255300  0.474600  0.815500  1.0  -0.0754
  C  C332  1  0.265900  0.436100  0.835200  1.0  -0.1365
  C  C333  1  0.338000  0.398600  0.848600  1.0  0.0994
  C  C334  1  0.381700  0.392900  0.832200  1.0  -0.1583
  C  C335  1  0.466300  0.534800  0.630700  1.0  0.1195
  C  C336  1  0.542100  0.559300  0.711200  1.0  0.0424
  C  C337  1  0.560500  0.553600  0.670100  1.0  -0.15
  C  C338  1  0.504700  0.521300  0.557800  1.0  0.159
  C  C339  1  0.446200  0.483100  0.504900  1.0  -0.1975
  C  C340  1  0.162100  0.526800  0.698700  1.0  0.0675
  C  C341  1  0.159100  0.439800  0.684500  1.0  -0.0733
  C  C342  1  0.100900  0.430700  0.664800  1.0  -0.138
  C  C343  1  0.050000  0.489400  0.651400  1.0  0.0991
  C  C344  1  0.060700  0.549500  0.667800  1.0  -0.1621
  C  C345  1  0.095900  0.965200  0.431500  1.0  0.1253
  C  C346  1  0.151900  0.940700  0.482800  1.0  0.0405
  C  C347  1  0.116500  0.946400  0.506900  1.0  -0.1483
  C  C348  1  0.036500  0.978700  0.483400  1.0  0.1532
  C  C349  1  0.021800  0.016900  0.463100  1.0  -0.206
  C  C350  1  0.171900  0.973200  0.135300  1.0  0.0733
  C  C351  1  0.244700  0.060200  0.219300  1.0  -0.0754
  C  C352  1  0.234100  0.069300  0.170200  1.0  -0.1357
  C  C353  1  0.162000  0.010600  0.060600  1.0  0.0968
  C  C354  1  0.118300  0.950500  0.011200  1.0  -0.1579
  C  C355  1  0.533700  0.068500  0.664400  1.0  0.1204
  C  C356  1  0.457900  0.017200  0.669100  1.0  0.0383
  C  C357  1  0.439500  0.993100  0.609600  1.0  -0.1531
  C  C358  1  0.495300  0.016600  0.553100  1.0  0.1585
  C  C359  1  0.553800  0.036900  0.558700  1.0  -0.1955
  C  C360  1  0.837900  0.364700  0.036600  1.0  0.0683
  C  C361  1  0.840900  0.280700  0.025400  1.0  -0.0751
  C  C362  1  0.899100  0.329800  0.063900  1.0  -0.1362
  C  C363  1  0.950000  0.439400  0.101400  1.0  0.1008
  C  C364  1  0.939300  0.488800  0.107100  1.0  -0.1695
  C  C365  1  0.904100  0.869300  0.835600  1.0  0.1216
  C  C366  1  0.848100  0.788800  0.830900  1.0  0.0372
  C  C367  1  0.883500  0.829900  0.890400  1.0  -0.1472
  C  C368  1  0.963500  0.942200  0.946900  1.0  0.1526
  C  C369  1  0.978200  0.995100  0.941300  1.0  -0.2049
  C  C370  1  0.828100  0.801300  0.463400  1.0  0.0734
  C  C371  1  0.755300  0.815500  0.474600  1.0  -0.0755
  C  C372  1  0.765900  0.835200  0.436100  1.0  -0.1344
  C  C373  1  0.838000  0.848600  0.398600  1.0  0.0993
  C  C374  1  0.881700  0.832200  0.392900  1.0  -0.1557
  C  C375  1  0.966300  0.630700  0.534800  1.0  0.1173
  C  C376  1  0.042100  0.711200  0.559300  1.0  0.0401
  C  C377  1  0.060500  0.670100  0.553600  1.0  -0.1526
  C  C378  1  0.004700  0.557800  0.521300  1.0  0.1557
  C  C379  1  0.946200  0.504900  0.483100  1.0  -0.2011
  C  C380  1  0.662100  0.698700  0.526800  1.0  0.0746
  C  C381  1  0.659100  0.684500  0.439800  1.0  -0.0691
  C  C382  1  0.600900  0.664800  0.430700  1.0  -0.1335
  C  C383  1  0.550000  0.651400  0.489400  1.0  0.097
  C  C384  1  0.560700  0.667800  0.549500  1.0  -0.1611
  C  C385  1  0.595900  0.431500  0.965200  1.0  0.1201
  C  C386  1  0.651900  0.482800  0.940700  1.0  0.0368
  C  C387  1  0.616500  0.506900  0.946400  1.0  -0.1474
  C  C388  1  0.536500  0.483400  0.978700  1.0  0.1534
  C  C389  1  0.521800  0.463100  0.016900  1.0  -0.1983
  C  C390  1  0.671900  0.135300  0.973200  1.0  0.0724
  C  C391  1  0.744700  0.219300  0.060200  1.0  -0.0748
  C  C392  1  0.734100  0.170200  0.069300  1.0  -0.1343
  C  C393  1  0.662000  0.060600  0.010600  1.0  0.0961
  C  C394  1  0.618300  0.011200  0.950500  1.0  -0.1589
  C  C395  1  0.869300  0.335600  0.404100  1.0  0.1224
  C  C396  1  0.788800  0.330900  0.348100  1.0  0.0411
  C  C397  1  0.829900  0.390400  0.383500  1.0  -0.1459
  C  C398  1  0.942200  0.446900  0.463500  1.0  0.147
  C  C399  1  0.995100  0.441300  0.478200  1.0  -0.2018
  C  C400  1  0.801300  0.963400  0.328100  1.0  0.0691
  C  C401  1  0.815500  0.974600  0.255300  1.0  -0.0698
  C  C402  1  0.835200  0.936100  0.265900  1.0  -0.1332
  C  C403  1  0.848600  0.898600  0.338000  1.0  0.097
  C  C404  1  0.832200  0.892900  0.381700  1.0  -0.1569
  C  C405  1  0.068500  0.164400  0.033700  1.0  0.1206
  C  C406  1  0.017200  0.169100  0.957900  1.0  0.0388
  C  C407  1  0.993100  0.109600  0.939500  1.0  -0.1455
  C  C408  1  0.016600  0.053100  0.995300  1.0  0.1595
  C  C409  1  0.036900  0.058700  0.053800  1.0  -0.2005
  C  C410  1  0.364700  0.536600  0.337900  1.0  0.0702
  C  C411  1  0.280700  0.525400  0.340900  1.0  -0.0753
  C  C412  1  0.329800  0.563900  0.399100  1.0  -0.1367
  C  C413  1  0.439400  0.601400  0.450000  1.0  0.0989
  C  C414  1  0.488800  0.607100  0.439300  1.0  -0.1694
  C  C415  1  0.431500  0.465200  0.095900  1.0  0.1205
  C  C416  1  0.482800  0.440700  0.151900  1.0  0.0412
  C  C417  1  0.506900  0.446400  0.116500  1.0  -0.1502
  C  C418  1  0.483400  0.478700  0.036500  1.0  0.1509
  C  C419  1  0.463100  0.516900  0.021800  1.0  -0.201
  C  C420  1  0.135300  0.473200  0.171900  1.0  0.0682
  C  C421  1  0.219300  0.560200  0.244700  1.0  -0.0736
  C  C422  1  0.170200  0.569300  0.234100  1.0  -0.1392
  C  C423  1  0.060600  0.510600  0.162000  1.0  0.0966
  C  C424  1  0.011200  0.450500  0.118300  1.0  -0.1608
  C  C425  1  0.630700  0.034800  0.466300  1.0  0.1237
  C  C426  1  0.711200  0.059300  0.542100  1.0  0.0407
  C  C427  1  0.670100  0.053600  0.560500  1.0  -0.148
  C  C428  1  0.557800  0.021300  0.504700  1.0  0.1612
  C  C429  1  0.504900  0.983100  0.446200  1.0  -0.2019
  C  C430  1  0.698700  0.026800  0.162100  1.0  0.0726
  C  C431  1  0.684500  0.939800  0.159100  1.0  -0.0753
  C  C432  1  0.664800  0.930700  0.100900  1.0  -0.1335
  C  C433  1  0.651400  0.989400  0.050000  1.0  0.0986
  C  C434  1  0.667800  0.049500  0.060700  1.0  -0.1584
  C  C435  1  0.465200  0.595900  0.931500  1.0  0.1232
  C  C436  1  0.440700  0.651900  0.982800  1.0  0.0401
  C  C437  1  0.446400  0.616500  0.006900  1.0  -0.1501
  C  C438  1  0.478700  0.536500  0.983400  1.0  0.15
  C  C439  1  0.516900  0.521800  0.963100  1.0  -0.2053
  C  C440  1  0.473200  0.671900  0.635300  1.0  0.0671
  C  C441  1  0.560200  0.744700  0.719300  1.0  -0.0749
  C  C442  1  0.569300  0.734100  0.670200  1.0  -0.1338
  C  C443  1  0.510600  0.662000  0.560600  1.0  0.097
  C  C444  1  0.450500  0.618300  0.511200  1.0  -0.1588
  C  C445  1  0.034800  0.966300  0.130700  1.0  0.1176
  C  C446  1  0.059300  0.042100  0.211200  1.0  0.0385
  C  C447  1  0.053600  0.060500  0.170100  1.0  -0.1481
  C  C448  1  0.021300  0.004700  0.057800  1.0  0.1602
  C  C449  1  0.983100  0.946200  0.004900  1.0  -0.1982
  C  C450  1  0.026800  0.662100  0.198700  1.0  0.0703
  C  C451  1  0.939800  0.659100  0.184500  1.0  -0.0751
  C  C452  1  0.930700  0.600900  0.164800  1.0  -0.1379
  C  C453  1  0.989400  0.550000  0.151400  1.0  0.0987
  C  C454  1  0.049500  0.560700  0.167800  1.0  -0.163
  C  C455  1  0.335600  0.904100  0.369300  1.0  0.1175
  C  C456  1  0.330900  0.848100  0.288800  1.0  0.036
  C  C457  1  0.390400  0.883500  0.329900  1.0  -0.1505
  C  C458  1  0.446900  0.963500  0.442200  1.0  0.1533
  C  C459  1  0.441300  0.978200  0.495100  1.0  -0.2017
  C  C460  1  0.963400  0.828100  0.301300  1.0  0.0705
  C  C461  1  0.974600  0.755300  0.315500  1.0  -0.0747
  C  C462  1  0.936100  0.765900  0.335200  1.0  -0.1363
  C  C463  1  0.898600  0.838000  0.348600  1.0  0.1
  C  C464  1  0.892900  0.881700  0.332200  1.0  -0.1579
  C  C465  1  0.164400  0.533700  0.568500  1.0  0.1208
  C  C466  1  0.169100  0.457900  0.517200  1.0  0.0386
  C  C467  1  0.109600  0.439500  0.493100  1.0  -0.1483
  C  C468  1  0.053100  0.495300  0.516600  1.0  0.1549
  C  C469  1  0.058700  0.553800  0.536900  1.0  -0.1994
  C  C470  1  0.536600  0.837900  0.864700  1.0  0.0736
  C  C471  1  0.525400  0.840900  0.780700  1.0  -0.0699
  C  C472  1  0.563900  0.899100  0.829800  1.0  -0.1347
  C  C473  1  0.601400  0.950000  0.939400  1.0  0.0972
  C  C474  1  0.607100  0.939300  0.988800  1.0  -0.1674
  S  S475  1  0.311080  0.334620  0.142520  1.0  -0.0626
  S  S476  1  0.692100  0.168560  0.357480  1.0  -0.0602
  S  S477  1  0.807900  0.165380  0.476460  1.0  -0.06
  S  S478  1  0.188920  0.331440  0.023540  1.0  -0.06
  S  S479  1  0.976460  0.807900  0.665380  1.0  -0.0592
  S  S480  1  0.523540  0.188920  0.831440  1.0  -0.0581
  S  S481  1  0.642520  0.311080  0.834620  1.0  -0.0588
  S  S482  1  0.857480  0.692100  0.668560  1.0  -0.0595
  S  S483  1  0.168560  0.857480  0.192100  1.0  -0.0607
  S  S484  1  0.334620  0.642520  0.811080  1.0  -0.0571
  S  S485  1  0.331440  0.523540  0.688920  1.0  -0.0629
  S  S486  1  0.165380  0.976460  0.307900  1.0  -0.0568
  S  S487  1  0.668560  0.192100  0.857480  1.0  -0.0613
  S  S488  1  0.834620  0.811080  0.642520  1.0  -0.0576
  S  S489  1  0.831440  0.688920  0.523540  1.0  -0.0596
  S  S490  1  0.665380  0.307900  0.976460  1.0  -0.0586
  S  S491  1  0.811080  0.142520  0.334620  1.0  -0.06
  S  S492  1  0.192100  0.357480  0.168560  1.0  -0.0579
  S  S493  1  0.307900  0.476460  0.165380  1.0  -0.0591
  S  S494  1  0.688920  0.023540  0.331440  1.0  -0.0607
  S  S495  1  0.476460  0.665380  0.807900  1.0  -0.0616
  S  S496  1  0.023540  0.831440  0.188920  1.0  -0.0606
  S  S497  1  0.142520  0.834620  0.311080  1.0  -0.0604
  S  S498  1  0.357480  0.668560  0.692100  1.0  -0.0598
  Br  Br499  1  0.206120  0.214400  0.173860  1.0  -0.4382
  Br  Br500  1  0.540540  0.032260  0.326140  1.0  -0.4395
  Br  Br501  1  0.959460  0.285600  0.491720  1.0  -0.4372
  Br  Br502  1  0.293880  0.467740  0.008280  1.0  -0.4406
  Br  Br503  1  0.991720  0.959460  0.785600  1.0  -0.4398
  Br  Br504  1  0.508280  0.293880  0.967740  1.0  -0.4378
  Br  Br505  1  0.673860  0.206120  0.714400  1.0  -0.4383
  Br  Br506  1  0.826140  0.540540  0.532260  1.0  -0.4408
  Br  Br507  1  0.032260  0.826140  0.040540  1.0  -0.4374
  Br  Br508  1  0.214400  0.673860  0.706120  1.0  -0.4395
  Br  Br509  1  0.467740  0.508280  0.793880  1.0  -0.4378
  Br  Br510  1  0.285600  0.991720  0.459460  1.0  -0.4404
  Br  Br511  1  0.532260  0.040540  0.826140  1.0  -0.44
  Br  Br512  1  0.714400  0.706120  0.673860  1.0  -0.4378
  Br  Br513  1  0.967740  0.793880  0.508280  1.0  -0.4378
  Br  Br514  1  0.785600  0.459460  0.991720  1.0  -0.4407
  Br  Br515  1  0.706120  0.173860  0.214400  1.0  -0.4391
  Br  Br516  1  0.040540  0.326140  0.032260  1.0  -0.4378
  Br  Br517  1  0.459460  0.491720  0.285600  1.0  -0.438
  Br  Br518  1  0.793880  0.008280  0.467740  1.0  -0.4399
  Br  Br519  1  0.491720  0.785600  0.959460  1.0  -0.4389
  Br  Br520  1  0.008280  0.967740  0.293880  1.0  -0.4403
  Br  Br521  1  0.173860  0.714400  0.206120  1.0  -0.4367
  Br  Br522  1  0.326140  0.532260  0.540540  1.0  -0.4399
  N  N523  1  0.309890  0.363830  0.293940  1.0  -0.412
  N  N524  1  0.385150  0.419660  0.391490  1.0  -0.0466
  N  N525  1  0.289780  0.289810  0.985310  1.0  -0.2848
  N  N526  1  0.326380  0.312470  0.931630  1.0  0.0532
  N  N527  1  0.569890  0.015950  0.206060  1.0  -0.4174
  N  N528  1  0.528170  0.993660  0.108510  1.0  -0.0459
  N  N529  1  0.804500  0.304470  0.514690  1.0  -0.2876
  N  N530  1  0.880840  0.394750  0.568370  1.0  0.054
  N  N531  1  0.930110  0.136170  0.446060  1.0  -0.4138
  N  N532  1  0.971830  0.080340  0.465490  1.0  -0.0473
  N  N533  1  0.695500  0.210190  0.499970  1.0  -0.287
  N  N534  1  0.619160  0.187530  0.513910  1.0  0.0481
  N  N535  1  0.190110  0.484050  0.053940  1.0  -0.4139
  N  N536  1  0.114850  0.506340  0.034510  1.0  -0.0482
  N  N537  1  0.210220  0.195530  0.000030  1.0  -0.2864
  N  N538  1  0.173620  0.105250  0.986090  1.0  0.0525
  N  N539  1  0.946060  0.930110  0.636170  1.0  -0.4157
  N  N540  1  0.965490  0.971830  0.580340  1.0  -0.048
  N  N541  1  0.999970  0.695500  0.710190  1.0  -0.286
  N  N542  1  0.013910  0.619160  0.687530  1.0  0.054
  N  N543  1  0.553940  0.190110  0.984050  1.0  -0.4104
  N  N544  1  0.534510  0.114850  0.006340  1.0  -0.0475
  N  N545  1  0.500030  0.210220  0.695530  1.0  -0.2855
  N  N546  1  0.486090  0.173620  0.605250  1.0  0.0513
  N  N547  1  0.793940  0.309890  0.863830  1.0  -0.4154
  N  N548  1  0.891490  0.385150  0.919660  1.0  -0.0467
  N  N549  1  0.485310  0.289780  0.789810  1.0  -0.2862
  N  N550  1  0.431630  0.326380  0.812470  1.0  0.0496
  N  N551  1  0.706060  0.569890  0.515950  1.0  -0.4097
  N  N552  1  0.608510  0.528170  0.493660  1.0  -0.0466
  N  N553  1  0.014690  0.804500  0.804470  1.0  -0.2863
  N  N554  1  0.068370  0.880840  0.894750  1.0  0.0521
  N  N555  1  0.015950  0.706060  0.069890  1.0  -0.4116
  N  N556  1  0.993660  0.608510  0.028170  1.0  -0.0472
  N  N557  1  0.304470  0.014690  0.304500  1.0  -0.2867
  N  N558  1  0.394750  0.068370  0.380840  1.0  0.0547
  N  N559  1  0.363830  0.793940  0.809890  1.0  -0.4099
  N  N560  1  0.419660  0.891490  0.885150  1.0  -0.0479
  N  N561  1  0.289810  0.485310  0.789780  1.0  -0.2856
  N  N562  1  0.312470  0.431630  0.826380  1.0  0.054
  N  N563  1  0.484050  0.553940  0.690110  1.0  -0.4163
  N  N564  1  0.506340  0.534510  0.614850  1.0  -0.0461
  N  N565  1  0.195530  0.500030  0.710220  1.0  -0.2882
  N  N566  1  0.105250  0.486090  0.673620  1.0  0.0497
  N  N567  1  0.136170  0.946060  0.430110  1.0  -0.4125
  N  N568  1  0.080340  0.965490  0.471830  1.0  -0.046
  N  N569  1  0.210190  0.999970  0.195500  1.0  -0.2829
  N  N570  1  0.187530  0.013910  0.119160  1.0  0.0501
  N  N571  1  0.515950  0.069890  0.706060  1.0  -0.4162
  N  N572  1  0.493660  0.028170  0.608510  1.0  -0.0466
  N  N573  1  0.804470  0.304500  0.014690  1.0  -0.2859
  N  N574  1  0.894750  0.380840  0.068370  1.0  0.0533
  N  N575  1  0.863830  0.809890  0.793940  1.0  -0.4111
  N  N576  1  0.919660  0.885150  0.891490  1.0  -0.0467
  N  N577  1  0.789810  0.789780  0.485310  1.0  -0.2844
  N  N578  1  0.812470  0.826380  0.431630  1.0  0.0524
  N  N579  1  0.984050  0.690110  0.553940  1.0  -0.4136
  N  N580  1  0.006340  0.614850  0.534510  1.0  -0.0477
  N  N581  1  0.695530  0.710220  0.500030  1.0  -0.2876
  N  N582  1  0.605250  0.673620  0.486090  1.0  0.0484
  N  N583  1  0.636170  0.430110  0.946060  1.0  -0.4097
  N  N584  1  0.580340  0.471830  0.965490  1.0  -0.0473
  N  N585  1  0.710190  0.195500  0.999970  1.0  -0.2849
  N  N586  1  0.687530  0.119160  0.013910  1.0  0.0522
  N  N587  1  0.809890  0.293940  0.363830  1.0  -0.41
  N  N588  1  0.885150  0.391490  0.419660  1.0  -0.0463
  N  N589  1  0.789780  0.985310  0.289810  1.0  -0.2864
  N  N590  1  0.826380  0.931630  0.312470  1.0  0.0543
  N  N591  1  0.069890  0.206060  0.015950  1.0  -0.4117
  N  N592  1  0.028170  0.108510  0.993660  1.0  -0.0477
  N  N593  1  0.304500  0.514690  0.304470  1.0  -0.2868
  N  N594  1  0.380840  0.568370  0.394750  1.0  0.0544
  N  N595  1  0.430110  0.446060  0.136170  1.0  -0.4165
  N  N596  1  0.471830  0.465490  0.080340  1.0  -0.0464
  N  N597  1  0.195500  0.499970  0.210190  1.0  -0.2863
  N  N598  1  0.119160  0.513910  0.187530  1.0  0.0492
  N  N599  1  0.690110  0.053940  0.484050  1.0  -0.4127
  N  N600  1  0.614850  0.034510  0.506340  1.0  -0.0462
  N  N601  1  0.710220  0.000030  0.195530  1.0  -0.2845
  N  N602  1  0.673620  0.986090  0.105250  1.0  0.0507
  N  N603  1  0.446060  0.636170  0.930110  1.0  -0.4115
  N  N604  1  0.465490  0.580340  0.971830  1.0  -0.0475
  N  N605  1  0.499970  0.710190  0.695500  1.0  -0.2855
  N  N606  1  0.513910  0.687530  0.619160  1.0  0.0514
  N  N607  1  0.053940  0.984050  0.190110  1.0  -0.4165
  N  N608  1  0.034510  0.006340  0.114850  1.0  -0.0455
  N  N609  1  0.000030  0.695530  0.210220  1.0  -0.287
  N  N610  1  0.986090  0.605250  0.173620  1.0  0.054
  N  N611  1  0.293940  0.863830  0.309890  1.0  -0.414
  N  N612  1  0.391490  0.919660  0.385150  1.0  -0.0471
  N  N613  1  0.985310  0.789810  0.289780  1.0  -0.2868
  N  N614  1  0.931630  0.812470  0.326380  1.0  0.0494
  N  N615  1  0.206060  0.515950  0.569890  1.0  -0.4139
  N  N616  1  0.108510  0.493660  0.528170  1.0  -0.0489
  N  N617  1  0.514690  0.804470  0.804500  1.0  -0.2872
  N  N618  1  0.568370  0.894750  0.880840  1.0  0.0541
