# generated using pymatgen
data_CoH40(C4N)8
_symmetry_space_group_name_H-M   'P 1'
_cell_length_a   12.34180000
_cell_length_b   21.65500000
_cell_length_c   34.18200000
_cell_angle_alpha   90.00000000
_cell_angle_beta   90.00000000
_cell_angle_gamma   90.00000000
_symmetry_Int_Tables_number   1
_chemical_formula_structural   CoH40(C4N)8
_chemical_formula_sum   'Co8 H320 C256 N64'
_cell_volume   9135.53871158
_cell_formula_units_Z   8
loop_
 _symmetry_equiv_pos_site_id
 _symmetry_equiv_pos_as_xyz
  1  'x, y, z'
loop_
 _atom_site_type_symbol
 _atom_site_label
 _atom_site_symmetry_multiplicity
 _atom_site_fract_x
 _atom_site_fract_y
 _atom_site_fract_z
 _atom_site_occupancy
 _atom_site_charge
  Co  Co1  1  0.625000  0.125000  0.125000  1.0  0.5793
  Co  Co2  1  0.625000  0.625000  0.625000  1.0  0.5793
  Co  Co3  1  0.125000  0.625000  0.125000  1.0  0.5793
  Co  Co4  1  0.125000  0.125000  0.625000  1.0  0.5793
  Co  Co5  1  0.375000  0.875000  0.875000  1.0  0.5793
  Co  Co6  1  0.375000  0.375000  0.375000  1.0  0.5793
  Co  Co7  1  0.875000  0.375000  0.875000  1.0  0.5793
  Co  Co8  1  0.875000  0.875000  0.375000  1.0  0.5793
  H  H9  1  0.511200  0.154400  0.048800  1.0  0.0555
  H  H10  1  0.626800  0.310100  0.999400  1.0  0.0841
  H  H11  1  0.740800  0.321700  0.053100  1.0  0.0839
  H  H12  1  0.740500  0.247700  0.102000  1.0  0.0557
  H  H13  1  0.483800  0.180300  0.974800  1.0  0.0775
  H  H14  1  0.483300  0.253100  0.966400  1.0  0.0541
  H  H15  1  0.297900  0.165200  0.961900  1.0  0.0554
  H  H16  1  0.291100  0.235800  0.948000  1.0  0.0392
  H  H17  1  0.343300  0.317200  0.992200  1.0  0.0453
  H  H18  1  0.384400  0.301100  0.035500  1.0  0.0541
  H  H19  1  0.511200  0.654400  0.548800  1.0  0.0555
  H  H20  1  0.626800  0.810100  0.499400  1.0  0.0841
  H  H21  1  0.740800  0.821700  0.553100  1.0  0.0839
  H  H22  1  0.740500  0.747700  0.602000  1.0  0.0557
  H  H23  1  0.483800  0.680300  0.474800  1.0  0.0775
  H  H24  1  0.483300  0.753100  0.466400  1.0  0.0541
  H  H25  1  0.297900  0.665200  0.461900  1.0  0.0554
  H  H26  1  0.291100  0.735800  0.448000  1.0  0.0392
  H  H27  1  0.343300  0.817200  0.492200  1.0  0.0453
  H  H28  1  0.384400  0.801100  0.535500  1.0  0.0541
  H  H29  1  0.011200  0.154400  0.548800  1.0  0.0555
  H  H30  1  0.126800  0.310100  0.499400  1.0  0.0841
  H  H31  1  0.240800  0.321700  0.553100  1.0  0.0839
  H  H32  1  0.240500  0.247700  0.602000  1.0  0.0557
  H  H33  1  0.983800  0.180300  0.474800  1.0  0.0775
  H  H34  1  0.983300  0.253100  0.466400  1.0  0.0541
  H  H35  1  0.797900  0.165200  0.461900  1.0  0.0554
  H  H36  1  0.791100  0.235800  0.448000  1.0  0.0392
  H  H37  1  0.843300  0.317200  0.492200  1.0  0.0453
  H  H38  1  0.884400  0.301100  0.535500  1.0  0.0541
  H  H39  1  0.011200  0.654400  0.048800  1.0  0.0555
  H  H40  1  0.126800  0.810100  0.999400  1.0  0.0841
  H  H41  1  0.240800  0.821700  0.053100  1.0  0.0839
  H  H42  1  0.240500  0.747700  0.102000  1.0  0.0557
  H  H43  1  0.983800  0.680300  0.974800  1.0  0.0775
  H  H44  1  0.983300  0.753100  0.966400  1.0  0.0541
  H  H45  1  0.797900  0.665200  0.961900  1.0  0.0554
  H  H46  1  0.791100  0.735800  0.948000  1.0  0.0392
  H  H47  1  0.843300  0.817200  0.992200  1.0  0.0453
  H  H48  1  0.884400  0.801100  0.035500  1.0  0.0541
  H  H49  1  0.238800  0.595600  0.048800  1.0  0.0553
  H  H50  1  0.123200  0.439900  0.999400  1.0  0.0841
  H  H51  1  0.009200  0.428300  0.053100  1.0  0.0839
  H  H52  1  0.009500  0.502300  0.102000  1.0  0.0563
  H  H53  1  0.266200  0.569700  0.974800  1.0  0.0779
  H  H54  1  0.266700  0.496900  0.966400  1.0  0.0536
  H  H55  1  0.452100  0.584800  0.961900  1.0  0.0561
  H  H56  1  0.458900  0.514200  0.948000  1.0  0.0391
  H  H57  1  0.406700  0.432800  0.992200  1.0  0.0449
  H  H58  1  0.365600  0.448900  0.035500  1.0  0.0538
  H  H59  1  0.238800  0.095600  0.548800  1.0  0.0553
  H  H60  1  0.123200  0.939900  0.499400  1.0  0.0841
  H  H61  1  0.009200  0.928300  0.553100  1.0  0.0839
  H  H62  1  0.009500  0.002300  0.602000  1.0  0.0563
  H  H63  1  0.266200  0.069700  0.474800  1.0  0.0779
  H  H64  1  0.266700  0.996900  0.466400  1.0  0.0536
  H  H65  1  0.452100  0.084800  0.461900  1.0  0.0561
  H  H66  1  0.458900  0.014200  0.448000  1.0  0.0391
  H  H67  1  0.406700  0.932800  0.492200  1.0  0.0449
  H  H68  1  0.365600  0.948900  0.535500  1.0  0.0538
  H  H69  1  0.738800  0.595600  0.548800  1.0  0.0553
  H  H70  1  0.623200  0.439900  0.499400  1.0  0.0841
  H  H71  1  0.509200  0.428300  0.553100  1.0  0.0839
  H  H72  1  0.509500  0.502300  0.602000  1.0  0.0563
  H  H73  1  0.766200  0.569700  0.474800  1.0  0.0779
  H  H74  1  0.766700  0.496900  0.466400  1.0  0.0536
  H  H75  1  0.952100  0.584800  0.461900  1.0  0.0561
  H  H76  1  0.958900  0.514200  0.448000  1.0  0.0391
  H  H77  1  0.906700  0.432800  0.492200  1.0  0.0449
  H  H78  1  0.865600  0.448900  0.535500  1.0  0.0538
  H  H79  1  0.738800  0.095600  0.048800  1.0  0.0553
  H  H80  1  0.623200  0.939900  0.999400  1.0  0.0841
  H  H81  1  0.509200  0.928300  0.053100  1.0  0.0839
  H  H82  1  0.509500  0.002300  0.102000  1.0  0.0563
  H  H83  1  0.766200  0.069700  0.974800  1.0  0.0779
  H  H84  1  0.766700  0.996900  0.966400  1.0  0.0536
  H  H85  1  0.952100  0.084800  0.961900  1.0  0.0561
  H  H86  1  0.958900  0.014200  0.948000  1.0  0.0391
  H  H87  1  0.906700  0.932800  0.992200  1.0  0.0449
  H  H88  1  0.865600  0.948900  0.035500  1.0  0.0538
  H  H89  1  0.238800  0.154400  0.701200  1.0  0.0558
  H  H90  1  0.123200  0.310100  0.750600  1.0  0.083
  H  H91  1  0.009200  0.321700  0.696900  1.0  0.0846
  H  H92  1  0.009500  0.247700  0.648000  1.0  0.0558
  H  H93  1  0.266200  0.180300  0.775200  1.0  0.0783
  H  H94  1  0.266700  0.253100  0.783600  1.0  0.054
  H  H95  1  0.452100  0.165200  0.788100  1.0  0.0551
  H  H96  1  0.458900  0.235800  0.802000  1.0  0.0392
  H  H97  1  0.406700  0.317200  0.757800  1.0  0.0449
  H  H98  1  0.365600  0.301100  0.714500  1.0  0.0538
  H  H99  1  0.238800  0.654400  0.201200  1.0  0.0558
  H  H100  1  0.123200  0.810100  0.250600  1.0  0.083
  H  H101  1  0.009200  0.821700  0.196900  1.0  0.0846
  H  H102  1  0.009500  0.747700  0.148000  1.0  0.0558
  H  H103  1  0.266200  0.680300  0.275200  1.0  0.0783
  H  H104  1  0.266700  0.753100  0.283600  1.0  0.054
  H  H105  1  0.452100  0.665200  0.288100  1.0  0.0551
  H  H106  1  0.458900  0.735800  0.302000  1.0  0.0392
  H  H107  1  0.406700  0.817200  0.257800  1.0  0.0449
  H  H108  1  0.365600  0.801100  0.214500  1.0  0.0538
  H  H109  1  0.738800  0.154400  0.201200  1.0  0.0558
  H  H110  1  0.623200  0.310100  0.250600  1.0  0.083
  H  H111  1  0.509200  0.321700  0.196900  1.0  0.0846
  H  H112  1  0.509500  0.247700  0.148000  1.0  0.0558
  H  H113  1  0.766200  0.180300  0.275200  1.0  0.0783
  H  H114  1  0.766700  0.253100  0.283600  1.0  0.054
  H  H115  1  0.952100  0.165200  0.288100  1.0  0.0551
  H  H116  1  0.958900  0.235800  0.302000  1.0  0.0392
  H  H117  1  0.906700  0.317200  0.257800  1.0  0.0449
  H  H118  1  0.865600  0.301100  0.214500  1.0  0.0538
  H  H119  1  0.738800  0.654400  0.701200  1.0  0.0558
  H  H120  1  0.623200  0.810100  0.750600  1.0  0.083
  H  H121  1  0.509200  0.821700  0.696900  1.0  0.0846
  H  H122  1  0.509500  0.747700  0.648000  1.0  0.0558
  H  H123  1  0.766200  0.680300  0.775200  1.0  0.0783
  H  H124  1  0.766700  0.753100  0.783600  1.0  0.054
  H  H125  1  0.952100  0.665200  0.788100  1.0  0.0551
  H  H126  1  0.958900  0.735800  0.802000  1.0  0.0392
  H  H127  1  0.906700  0.817200  0.757800  1.0  0.0449
  H  H128  1  0.865600  0.801100  0.714500  1.0  0.0538
  H  H129  1  0.511200  0.595600  0.701200  1.0  0.056
  H  H130  1  0.626800  0.439900  0.750600  1.0  0.0836
  H  H131  1  0.740800  0.428300  0.696900  1.0  0.084
  H  H132  1  0.740500  0.502300  0.648000  1.0  0.056
  H  H133  1  0.483800  0.569700  0.775200  1.0  0.0782
  H  H134  1  0.483300  0.496900  0.783600  1.0  0.0545
  H  H135  1  0.297900  0.584800  0.788100  1.0  0.0548
  H  H136  1  0.291100  0.514200  0.802000  1.0  0.039
  H  H137  1  0.343300  0.432800  0.757800  1.0  0.0452
  H  H138  1  0.384400  0.448900  0.714500  1.0  0.0532
  H  H139  1  0.511200  0.095600  0.201200  1.0  0.056
  H  H140  1  0.626800  0.939900  0.250600  1.0  0.0836
  H  H141  1  0.740800  0.928300  0.196900  1.0  0.084
  H  H142  1  0.740500  0.002300  0.148000  1.0  0.056
  H  H143  1  0.483800  0.069700  0.275200  1.0  0.0782
  H  H144  1  0.483300  0.996900  0.283600  1.0  0.0545
  H  H145  1  0.297900  0.084800  0.288100  1.0  0.0548
  H  H146  1  0.291100  0.014200  0.302000  1.0  0.039
  H  H147  1  0.343300  0.932800  0.257800  1.0  0.0452
  H  H148  1  0.384400  0.948900  0.214500  1.0  0.0532
  H  H149  1  0.011200  0.595600  0.201200  1.0  0.056
  H  H150  1  0.126800  0.439900  0.250600  1.0  0.0836
  H  H151  1  0.240800  0.428300  0.196900  1.0  0.084
  H  H152  1  0.240500  0.502300  0.148000  1.0  0.056
  H  H153  1  0.983800  0.569700  0.275200  1.0  0.0782
  H  H154  1  0.983300  0.496900  0.283600  1.0  0.0545
  H  H155  1  0.797900  0.584800  0.288100  1.0  0.0548
  H  H156  1  0.791100  0.514200  0.302000  1.0  0.039
  H  H157  1  0.843300  0.432800  0.257800  1.0  0.0452
  H  H158  1  0.884400  0.448900  0.214500  1.0  0.0532
  H  H159  1  0.011200  0.095600  0.701200  1.0  0.056
  H  H160  1  0.126800  0.939900  0.750600  1.0  0.0836
  H  H161  1  0.240800  0.928300  0.696900  1.0  0.084
  H  H162  1  0.240500  0.002300  0.648000  1.0  0.056
  H  H163  1  0.983800  0.069700  0.775200  1.0  0.0782
  H  H164  1  0.983300  0.996900  0.783600  1.0  0.0545
  H  H165  1  0.797900  0.084800  0.788100  1.0  0.0548
  H  H166  1  0.791100  0.014200  0.802000  1.0  0.039
  H  H167  1  0.843300  0.932800  0.757800  1.0  0.0452
  H  H168  1  0.884400  0.948900  0.714500  1.0  0.0532
  H  H169  1  0.488800  0.845600  0.951200  1.0  0.0561
  H  H170  1  0.373200  0.689900  0.000600  1.0  0.0834
  H  H171  1  0.259200  0.678300  0.946900  1.0  0.0837
  H  H172  1  0.259500  0.752300  0.898000  1.0  0.0558
  H  H173  1  0.516200  0.819700  0.025200  1.0  0.0778
  H  H174  1  0.516700  0.746900  0.033600  1.0  0.0551
  H  H175  1  0.702100  0.834800  0.038100  1.0  0.0549
  H  H176  1  0.708900  0.764200  0.052000  1.0  0.0396
  H  H177  1  0.656700  0.682800  0.007800  1.0  0.0456
  H  H178  1  0.615600  0.698900  0.964500  1.0  0.053
  H  H179  1  0.488800  0.345600  0.451200  1.0  0.0561
  H  H180  1  0.373200  0.189900  0.500600  1.0  0.0834
  H  H181  1  0.259200  0.178300  0.446900  1.0  0.0837
  H  H182  1  0.259500  0.252300  0.398000  1.0  0.0558
  H  H183  1  0.516200  0.319700  0.525200  1.0  0.0778
  H  H184  1  0.516700  0.246900  0.533600  1.0  0.0551
  H  H185  1  0.702100  0.334800  0.538100  1.0  0.0549
  H  H186  1  0.708900  0.264200  0.552000  1.0  0.0396
  H  H187  1  0.656700  0.182800  0.507800  1.0  0.0456
  H  H188  1  0.615600  0.198900  0.464500  1.0  0.053
  H  H189  1  0.988800  0.845600  0.451200  1.0  0.0561
  H  H190  1  0.873200  0.689900  0.500600  1.0  0.0834
  H  H191  1  0.759200  0.678300  0.446900  1.0  0.0837
  H  H192  1  0.759500  0.752300  0.398000  1.0  0.0558
  H  H193  1  0.016200  0.819700  0.525200  1.0  0.0778
  H  H194  1  0.016700  0.746900  0.533600  1.0  0.0551
  H  H195  1  0.202100  0.834800  0.538100  1.0  0.0549
  H  H196  1  0.208900  0.764200  0.552000  1.0  0.0396
  H  H197  1  0.156700  0.682800  0.507800  1.0  0.0456
  H  H198  1  0.115600  0.698900  0.464500  1.0  0.053
  H  H199  1  0.988800  0.345600  0.951200  1.0  0.0561
  H  H200  1  0.873200  0.189900  0.000600  1.0  0.0834
  H  H201  1  0.759200  0.178300  0.946900  1.0  0.0837
  H  H202  1  0.759500  0.252300  0.898000  1.0  0.0558
  H  H203  1  0.016200  0.319700  0.025200  1.0  0.0778
  H  H204  1  0.016700  0.246900  0.033600  1.0  0.0551
  H  H205  1  0.202100  0.334800  0.038100  1.0  0.0549
  H  H206  1  0.208900  0.264200  0.052000  1.0  0.0396
  H  H207  1  0.156700  0.182800  0.007800  1.0  0.0456
  H  H208  1  0.115600  0.198900  0.964500  1.0  0.053
  H  H209  1  0.761200  0.404400  0.951200  1.0  0.0554
  H  H210  1  0.876800  0.560100  0.000600  1.0  0.0832
  H  H211  1  0.990800  0.571700  0.946900  1.0  0.0846
  H  H212  1  0.990500  0.497700  0.898000  1.0  0.0559
  H  H213  1  0.733800  0.430300  0.025200  1.0  0.0782
  H  H214  1  0.733300  0.503100  0.033600  1.0  0.054
  H  H215  1  0.547900  0.415200  0.038100  1.0  0.0553
  H  H216  1  0.541100  0.485800  0.052000  1.0  0.039
  H  H217  1  0.593300  0.567200  0.007800  1.0  0.0448
  H  H218  1  0.634400  0.551100  0.964500  1.0  0.0537
  H  H219  1  0.761200  0.904400  0.451200  1.0  0.0554
  H  H220  1  0.876800  0.060100  0.500600  1.0  0.0832
  H  H221  1  0.990800  0.071700  0.446900  1.0  0.0846
  H  H222  1  0.990500  0.997700  0.398000  1.0  0.0559
  H  H223  1  0.733800  0.930300  0.525200  1.0  0.0782
  H  H224  1  0.733300  0.003100  0.533600  1.0  0.054
  H  H225  1  0.547900  0.915200  0.538100  1.0  0.0553
  H  H226  1  0.541100  0.985800  0.552000  1.0  0.039
  H  H227  1  0.593300  0.067200  0.507800  1.0  0.0448
  H  H228  1  0.634400  0.051100  0.464500  1.0  0.0537
  H  H229  1  0.261200  0.404400  0.451200  1.0  0.0554
  H  H230  1  0.376800  0.560100  0.500600  1.0  0.0832
  H  H231  1  0.490800  0.571700  0.446900  1.0  0.0846
  H  H232  1  0.490500  0.497700  0.398000  1.0  0.0559
  H  H233  1  0.233800  0.430300  0.525200  1.0  0.0782
  H  H234  1  0.233300  0.503100  0.533600  1.0  0.054
  H  H235  1  0.047900  0.415200  0.538100  1.0  0.0553
  H  H236  1  0.041100  0.485800  0.552000  1.0  0.039
  H  H237  1  0.093300  0.567200  0.507800  1.0  0.0448
  H  H238  1  0.134400  0.551100  0.464500  1.0  0.0537
  H  H239  1  0.261200  0.904400  0.951200  1.0  0.0554
  H  H240  1  0.376800  0.060100  0.000600  1.0  0.0832
  H  H241  1  0.490800  0.071700  0.946900  1.0  0.0846
  H  H242  1  0.490500  0.997700  0.898000  1.0  0.0559
  H  H243  1  0.233800  0.930300  0.025200  1.0  0.0782
  H  H244  1  0.233300  0.003100  0.033600  1.0  0.054
  H  H245  1  0.047900  0.915200  0.038100  1.0  0.0553
  H  H246  1  0.041100  0.985800  0.052000  1.0  0.039
  H  H247  1  0.093300  0.067200  0.007800  1.0  0.0448
  H  H248  1  0.134400  0.051100  0.964500  1.0  0.0537
  H  H249  1  0.761200  0.845600  0.298800  1.0  0.0556
  H  H250  1  0.876800  0.689900  0.249400  1.0  0.0842
  H  H251  1  0.990800  0.678300  0.303100  1.0  0.084
  H  H252  1  0.990500  0.752300  0.352000  1.0  0.056
  H  H253  1  0.733800  0.819700  0.224800  1.0  0.0783
  H  H254  1  0.733300  0.746900  0.216400  1.0  0.0536
  H  H255  1  0.547900  0.834800  0.211900  1.0  0.0557
  H  H256  1  0.541100  0.764200  0.198000  1.0  0.0385
  H  H257  1  0.593300  0.682800  0.242200  1.0  0.0447
  H  H258  1  0.634400  0.698900  0.285500  1.0  0.0543
  H  H259  1  0.761200  0.345600  0.798800  1.0  0.0556
  H  H260  1  0.876800  0.189900  0.749400  1.0  0.0842
  H  H261  1  0.990800  0.178300  0.803100  1.0  0.084
  H  H262  1  0.990500  0.252300  0.852000  1.0  0.056
  H  H263  1  0.733800  0.319700  0.724800  1.0  0.0783
  H  H264  1  0.733300  0.246900  0.716400  1.0  0.0536
  H  H265  1  0.547900  0.334800  0.711900  1.0  0.0557
  H  H266  1  0.541100  0.264200  0.698000  1.0  0.0385
  H  H267  1  0.593300  0.182800  0.742200  1.0  0.0447
  H  H268  1  0.634400  0.198900  0.785500  1.0  0.0543
  H  H269  1  0.261200  0.845600  0.798800  1.0  0.0556
  H  H270  1  0.376800  0.689900  0.749400  1.0  0.0842
  H  H271  1  0.490800  0.678300  0.803100  1.0  0.084
  H  H272  1  0.490500  0.752300  0.852000  1.0  0.056
  H  H273  1  0.233800  0.819700  0.724800  1.0  0.0783
  H  H274  1  0.233300  0.746900  0.716400  1.0  0.0536
  H  H275  1  0.047900  0.834800  0.711900  1.0  0.0557
  H  H276  1  0.041100  0.764200  0.698000  1.0  0.0385
  H  H277  1  0.093300  0.682800  0.742200  1.0  0.0447
  H  H278  1  0.134400  0.698900  0.785500  1.0  0.0543
  H  H279  1  0.261200  0.345600  0.298800  1.0  0.0556
  H  H280  1  0.376800  0.189900  0.249400  1.0  0.0842
  H  H281  1  0.490800  0.178300  0.303100  1.0  0.084
  H  H282  1  0.490500  0.252300  0.352000  1.0  0.056
  H  H283  1  0.233800  0.319700  0.224800  1.0  0.0783
  H  H284  1  0.233300  0.246900  0.216400  1.0  0.0536
  H  H285  1  0.047900  0.334800  0.211900  1.0  0.0557
  H  H286  1  0.041100  0.264200  0.198000  1.0  0.0385
  H  H287  1  0.093300  0.182800  0.242200  1.0  0.0447
  H  H288  1  0.134400  0.198900  0.285500  1.0  0.0543
  H  H289  1  0.488800  0.404400  0.298800  1.0  0.0554
  H  H290  1  0.373200  0.560100  0.249400  1.0  0.084
  H  H291  1  0.259200  0.571700  0.303100  1.0  0.0843
  H  H292  1  0.259500  0.497700  0.352000  1.0  0.056
  H  H293  1  0.516200  0.430300  0.224800  1.0  0.0775
  H  H294  1  0.516700  0.503100  0.216400  1.0  0.0537
  H  H295  1  0.702100  0.415200  0.211900  1.0  0.0555
  H  H296  1  0.708900  0.485800  0.198000  1.0  0.0392
  H  H297  1  0.656700  0.567200  0.242200  1.0  0.0454
  H  H298  1  0.615600  0.551100  0.285500  1.0  0.0537
  H  H299  1  0.488800  0.904400  0.798800  1.0  0.0554
  H  H300  1  0.373200  0.060100  0.749400  1.0  0.084
  H  H301  1  0.259200  0.071700  0.803100  1.0  0.0843
  H  H302  1  0.259500  0.997700  0.852000  1.0  0.056
  H  H303  1  0.516200  0.930300  0.724800  1.0  0.0775
  H  H304  1  0.516700  0.003100  0.716400  1.0  0.0537
  H  H305  1  0.702100  0.915200  0.711900  1.0  0.0555
  H  H306  1  0.708900  0.985800  0.698000  1.0  0.0392
  H  H307  1  0.656700  0.067200  0.742200  1.0  0.0454
  H  H308  1  0.615600  0.051100  0.785500  1.0  0.0537
  H  H309  1  0.988800  0.404400  0.798800  1.0  0.0554
  H  H310  1  0.873200  0.560100  0.749400  1.0  0.084
  H  H311  1  0.759200  0.571700  0.803100  1.0  0.0843
  H  H312  1  0.759500  0.497700  0.852000  1.0  0.056
  H  H313  1  0.016200  0.430300  0.724800  1.0  0.0775
  H  H314  1  0.016700  0.503100  0.716400  1.0  0.0537
  H  H315  1  0.202100  0.415200  0.711900  1.0  0.0555
  H  H316  1  0.208900  0.485800  0.698000  1.0  0.0392
  H  H317  1  0.156700  0.567200  0.742200  1.0  0.0454
  H  H318  1  0.115600  0.551100  0.785500  1.0  0.0537
  H  H319  1  0.988800  0.904400  0.298800  1.0  0.0554
  H  H320  1  0.873200  0.060100  0.249400  1.0  0.084
  H  H321  1  0.759200  0.071700  0.303100  1.0  0.0843
  H  H322  1  0.759500  0.997700  0.352000  1.0  0.056
  H  H323  1  0.016200  0.930300  0.224800  1.0  0.0775
  H  H324  1  0.016700  0.003100  0.216400  1.0  0.0537
  H  H325  1  0.202100  0.915200  0.211900  1.0  0.0555
  H  H326  1  0.208900  0.985800  0.198000  1.0  0.0392
  H  H327  1  0.156700  0.067200  0.242200  1.0  0.0454
  H  H328  1  0.115600  0.051100  0.285500  1.0  0.0537
  C  C329  1  0.558900  0.188900  0.049400  1.0  0.1232
  C  C330  1  0.553400  0.230700  0.018950  1.0  0.0771
  C  C331  1  0.625400  0.280900  0.020100  1.0  -0.0967
  C  C332  1  0.693400  0.287200  0.051400  1.0  -0.1429
  C  C333  1  0.692600  0.243000  0.080500  1.0  0.1293
  C  C334  1  0.472300  0.221400  0.986900  1.0  -0.108
  C  C335  1  0.282000  0.207800  0.970700  1.0  -0.0237
  C  C336  1  0.333800  0.288600  0.014500  1.0  -0.0103
  C  C337  1  0.558900  0.688900  0.549400  1.0  0.1232
  C  C338  1  0.553400  0.730700  0.518950  1.0  0.0771
  C  C339  1  0.625400  0.780900  0.520100  1.0  -0.0967
  C  C340  1  0.693400  0.787200  0.551400  1.0  -0.1429
  C  C341  1  0.692600  0.743000  0.580500  1.0  0.1293
  C  C342  1  0.472300  0.721400  0.486900  1.0  -0.108
  C  C343  1  0.282000  0.707800  0.470700  1.0  -0.0237
  C  C344  1  0.333800  0.788600  0.514500  1.0  -0.0103
  C  C345  1  0.058900  0.188900  0.549400  1.0  0.1232
  C  C346  1  0.053400  0.230700  0.518950  1.0  0.0771
  C  C347  1  0.125400  0.280900  0.520100  1.0  -0.0967
  C  C348  1  0.193400  0.287200  0.551400  1.0  -0.1429
  C  C349  1  0.192600  0.243000  0.580500  1.0  0.1293
  C  C350  1  0.972300  0.221400  0.486900  1.0  -0.108
  C  C351  1  0.782000  0.207800  0.470700  1.0  -0.0237
  C  C352  1  0.833800  0.288600  0.514500  1.0  -0.0103
  C  C353  1  0.058900  0.688900  0.049400  1.0  0.1232
  C  C354  1  0.053400  0.730700  0.018950  1.0  0.0771
  C  C355  1  0.125400  0.780900  0.020100  1.0  -0.0967
  C  C356  1  0.193400  0.787200  0.051400  1.0  -0.1429
  C  C357  1  0.192600  0.743000  0.080500  1.0  0.1293
  C  C358  1  0.972300  0.721400  0.986900  1.0  -0.108
  C  C359  1  0.782000  0.707800  0.970700  1.0  -0.0237
  C  C360  1  0.833800  0.788600  0.014500  1.0  -0.0103
  C  C361  1  0.191100  0.561100  0.049400  1.0  0.1228
  C  C362  1  0.196600  0.519300  0.018950  1.0  0.0769
  C  C363  1  0.124600  0.469100  0.020100  1.0  -0.0967
  C  C364  1  0.056600  0.462800  0.051400  1.0  -0.1462
  C  C365  1  0.057400  0.507000  0.080500  1.0  0.1289
  C  C366  1  0.277700  0.528600  0.986900  1.0  -0.1084
  C  C367  1  0.468000  0.542200  0.970700  1.0  -0.0234
  C  C368  1  0.416200  0.461400  0.014500  1.0  -0.0088
  C  C369  1  0.191100  0.061100  0.549400  1.0  0.1228
  C  C370  1  0.196600  0.019300  0.518950  1.0  0.0769
  C  C371  1  0.124600  0.969100  0.520100  1.0  -0.0967
  C  C372  1  0.056600  0.962800  0.551400  1.0  -0.1462
  C  C373  1  0.057400  0.007000  0.580500  1.0  0.1289
  C  C374  1  0.277700  0.028600  0.486900  1.0  -0.1084
  C  C375  1  0.468000  0.042200  0.470700  1.0  -0.0234
  C  C376  1  0.416200  0.961400  0.514500  1.0  -0.0088
  C  C377  1  0.691100  0.561100  0.549400  1.0  0.1228
  C  C378  1  0.696600  0.519300  0.518950  1.0  0.0769
  C  C379  1  0.624600  0.469100  0.520100  1.0  -0.0967
  C  C380  1  0.556600  0.462800  0.551400  1.0  -0.1462
  C  C381  1  0.557400  0.507000  0.580500  1.0  0.1289
  C  C382  1  0.777700  0.528600  0.486900  1.0  -0.1084
  C  C383  1  0.968000  0.542200  0.470700  1.0  -0.0234
  C  C384  1  0.916200  0.461400  0.514500  1.0  -0.0088
  C  C385  1  0.691100  0.061100  0.049400  1.0  0.1228
  C  C386  1  0.696600  0.019300  0.018950  1.0  0.0769
  C  C387  1  0.624600  0.969100  0.020100  1.0  -0.0967
  C  C388  1  0.556600  0.962800  0.051400  1.0  -0.1462
  C  C389  1  0.557400  0.007000  0.080500  1.0  0.1289
  C  C390  1  0.777700  0.028600  0.986900  1.0  -0.1084
  C  C391  1  0.968000  0.042200  0.970700  1.0  -0.0234
  C  C392  1  0.916200  0.961400  0.014500  1.0  -0.0088
  C  C393  1  0.191100  0.188900  0.700600  1.0  0.1226
  C  C394  1  0.196600  0.230700  0.731050  1.0  0.0769
  C  C395  1  0.124600  0.280900  0.729900  1.0  -0.0964
  C  C396  1  0.056600  0.287200  0.698600  1.0  -0.1424
  C  C397  1  0.057400  0.243000  0.669500  1.0  0.1292
  C  C398  1  0.277700  0.221400  0.763100  1.0  -0.1132
  C  C399  1  0.468000  0.207800  0.779300  1.0  -0.023
  C  C400  1  0.416200  0.288600  0.735500  1.0  -0.0108
  C  C401  1  0.191100  0.688900  0.200600  1.0  0.1226
  C  C402  1  0.196600  0.730700  0.231050  1.0  0.0769
  C  C403  1  0.124600  0.780900  0.229900  1.0  -0.0964
  C  C404  1  0.056600  0.787200  0.198600  1.0  -0.1424
  C  C405  1  0.057400  0.743000  0.169500  1.0  0.1292
  C  C406  1  0.277700  0.721400  0.263100  1.0  -0.1132
  C  C407  1  0.468000  0.707800  0.279300  1.0  -0.023
  C  C408  1  0.416200  0.788600  0.235500  1.0  -0.0108
  C  C409  1  0.691100  0.188900  0.200600  1.0  0.1226
  C  C410  1  0.696600  0.230700  0.231050  1.0  0.0769
  C  C411  1  0.624600  0.280900  0.229900  1.0  -0.0964
  C  C412  1  0.556600  0.287200  0.198600  1.0  -0.1424
  C  C413  1  0.557400  0.243000  0.169500  1.0  0.1292
  C  C414  1  0.777700  0.221400  0.263100  1.0  -0.1132
  C  C415  1  0.968000  0.207800  0.279300  1.0  -0.023
  C  C416  1  0.916200  0.288600  0.235500  1.0  -0.0108
  C  C417  1  0.691100  0.688900  0.700600  1.0  0.1226
  C  C418  1  0.696600  0.730700  0.731050  1.0  0.0769
  C  C419  1  0.624600  0.780900  0.729900  1.0  -0.0964
  C  C420  1  0.556600  0.787200  0.698600  1.0  -0.1424
  C  C421  1  0.557400  0.743000  0.669500  1.0  0.1292
  C  C422  1  0.777700  0.721400  0.763100  1.0  -0.1132
  C  C423  1  0.968000  0.707800  0.779300  1.0  -0.023
  C  C424  1  0.916200  0.788600  0.735500  1.0  -0.0108
  C  C425  1  0.558900  0.561100  0.700600  1.0  0.1227
  C  C426  1  0.553400  0.519300  0.731050  1.0  0.0771
  C  C427  1  0.625400  0.469100  0.729900  1.0  -0.0973
  C  C428  1  0.693400  0.462800  0.698600  1.0  -0.1426
  C  C429  1  0.692600  0.507000  0.669500  1.0  0.1292
  C  C430  1  0.472300  0.528600  0.763100  1.0  -0.1123
  C  C431  1  0.282000  0.542200  0.779300  1.0  -0.0226
  C  C432  1  0.333800  0.461400  0.735500  1.0  -0.0107
  C  C433  1  0.558900  0.061100  0.200600  1.0  0.1227
  C  C434  1  0.553400  0.019300  0.231050  1.0  0.0771
  C  C435  1  0.625400  0.969100  0.229900  1.0  -0.0973
  C  C436  1  0.693400  0.962800  0.198600  1.0  -0.1426
  C  C437  1  0.692600  0.007000  0.169500  1.0  0.1292
  C  C438  1  0.472300  0.028600  0.263100  1.0  -0.1123
  C  C439  1  0.282000  0.042200  0.279300  1.0  -0.0226
  C  C440  1  0.333800  0.961400  0.235500  1.0  -0.0107
  C  C441  1  0.058900  0.561100  0.200600  1.0  0.1227
  C  C442  1  0.053400  0.519300  0.231050  1.0  0.0771
  C  C443  1  0.125400  0.469100  0.229900  1.0  -0.0973
  C  C444  1  0.193400  0.462800  0.198600  1.0  -0.1426
  C  C445  1  0.192600  0.507000  0.169500  1.0  0.1292
  C  C446  1  0.972300  0.528600  0.263100  1.0  -0.1123
  C  C447  1  0.782000  0.542200  0.279300  1.0  -0.0226
  C  C448  1  0.833800  0.461400  0.235500  1.0  -0.0107
  C  C449  1  0.058900  0.061100  0.700600  1.0  0.1227
  C  C450  1  0.053400  0.019300  0.731050  1.0  0.0771
  C  C451  1  0.125400  0.969100  0.729900  1.0  -0.0973
  C  C452  1  0.193400  0.962800  0.698600  1.0  -0.1426
  C  C453  1  0.192600  0.007000  0.669500  1.0  0.1292
  C  C454  1  0.972300  0.028600  0.763100  1.0  -0.1123
  C  C455  1  0.782000  0.042200  0.779300  1.0  -0.0226
  C  C456  1  0.833800  0.961400  0.735500  1.0  -0.0107
  C  C457  1  0.441100  0.811100  0.950600  1.0  0.1224
  C  C458  1  0.446600  0.769300  0.981050  1.0  0.0768
  C  C459  1  0.374600  0.719100  0.979900  1.0  -0.0968
  C  C460  1  0.306600  0.712800  0.948600  1.0  -0.1437
  C  C461  1  0.307400  0.757000  0.919500  1.0  0.1293
  C  C462  1  0.527700  0.778600  0.013100  1.0  -0.1129
  C  C463  1  0.718000  0.792200  0.029300  1.0  -0.0232
  C  C464  1  0.666200  0.711400  0.985500  1.0  -0.0095
  C  C465  1  0.441100  0.311100  0.450600  1.0  0.1224
  C  C466  1  0.446600  0.269300  0.481050  1.0  0.0768
  C  C467  1  0.374600  0.219100  0.479900  1.0  -0.0968
  C  C468  1  0.306600  0.212800  0.448600  1.0  -0.1437
  C  C469  1  0.307400  0.257000  0.419500  1.0  0.1293
  C  C470  1  0.527700  0.278600  0.513100  1.0  -0.1129
  C  C471  1  0.718000  0.292200  0.529300  1.0  -0.0232
  C  C472  1  0.666200  0.211400  0.485500  1.0  -0.0095
  C  C473  1  0.941100  0.811100  0.450600  1.0  0.1224
  C  C474  1  0.946600  0.769300  0.481050  1.0  0.0768
  C  C475  1  0.874600  0.719100  0.479900  1.0  -0.0968
  C  C476  1  0.806600  0.712800  0.448600  1.0  -0.1437
  C  C477  1  0.807400  0.757000  0.419500  1.0  0.1293
  C  C478  1  0.027700  0.778600  0.513100  1.0  -0.1129
  C  C479  1  0.218000  0.792200  0.529300  1.0  -0.0232
  C  C480  1  0.166200  0.711400  0.485500  1.0  -0.0095
  C  C481  1  0.941100  0.311100  0.950600  1.0  0.1224
  C  C482  1  0.946600  0.269300  0.981050  1.0  0.0768
  C  C483  1  0.874600  0.219100  0.979900  1.0  -0.0968
  C  C484  1  0.806600  0.212800  0.948600  1.0  -0.1437
  C  C485  1  0.807400  0.257000  0.919500  1.0  0.1293
  C  C486  1  0.027700  0.278600  0.013100  1.0  -0.1129
  C  C487  1  0.218000  0.292200  0.029300  1.0  -0.0232
  C  C488  1  0.166200  0.211400  0.985500  1.0  -0.0095
  C  C489  1  0.808900  0.438900  0.950600  1.0  0.1229
  C  C490  1  0.803400  0.480700  0.981050  1.0  0.077
  C  C491  1  0.875400  0.530900  0.979900  1.0  -0.097
  C  C492  1  0.943400  0.537200  0.948600  1.0  -0.1416
  C  C493  1  0.942600  0.493000  0.919500  1.0  0.129
  C  C494  1  0.722300  0.471400  0.013100  1.0  -0.1128
  C  C495  1  0.532000  0.457800  0.029300  1.0  -0.0227
  C  C496  1  0.583800  0.538600  0.985500  1.0  -0.0114
  C  C497  1  0.808900  0.938900  0.450600  1.0  0.1229
  C  C498  1  0.803400  0.980700  0.481050  1.0  0.077
  C  C499  1  0.875400  0.030900  0.479900  1.0  -0.097
  C  C500  1  0.943400  0.037200  0.448600  1.0  -0.1416
  C  C501  1  0.942600  0.993000  0.419500  1.0  0.129
  C  C502  1  0.722300  0.971400  0.513100  1.0  -0.1128
  C  C503  1  0.532000  0.957800  0.529300  1.0  -0.0227
  C  C504  1  0.583800  0.038600  0.485500  1.0  -0.0114
  C  C505  1  0.308900  0.438900  0.450600  1.0  0.1229
  C  C506  1  0.303400  0.480700  0.481050  1.0  0.077
  C  C507  1  0.375400  0.530900  0.479900  1.0  -0.097
  C  C508  1  0.443400  0.537200  0.448600  1.0  -0.1416
  C  C509  1  0.442600  0.493000  0.419500  1.0  0.129
  C  C510  1  0.222300  0.471400  0.513100  1.0  -0.1128
  C  C511  1  0.032000  0.457800  0.529300  1.0  -0.0227
  C  C512  1  0.083800  0.538600  0.485500  1.0  -0.0114
  C  C513  1  0.308900  0.938900  0.950600  1.0  0.1229
  C  C514  1  0.303400  0.980700  0.981050  1.0  0.077
  C  C515  1  0.375400  0.030900  0.979900  1.0  -0.097
  C  C516  1  0.443400  0.037200  0.948600  1.0  -0.1416
  C  C517  1  0.442600  0.993000  0.919500  1.0  0.129
  C  C518  1  0.222300  0.971400  0.013100  1.0  -0.1128
  C  C519  1  0.032000  0.957800  0.029300  1.0  -0.0227
  C  C520  1  0.083800  0.038600  0.985500  1.0  -0.0114
  C  C521  1  0.808900  0.811100  0.299400  1.0  0.1223
  C  C522  1  0.803400  0.769300  0.268950  1.0  0.0772
  C  C523  1  0.875400  0.719100  0.270100  1.0  -0.0969
  C  C524  1  0.943400  0.712800  0.301400  1.0  -0.1438
  C  C525  1  0.942600  0.757000  0.330500  1.0  0.1295
  C  C526  1  0.722300  0.778600  0.236900  1.0  -0.1077
  C  C527  1  0.532000  0.792200  0.220700  1.0  -0.0241
  C  C528  1  0.583800  0.711400  0.264500  1.0  -0.0096
  C  C529  1  0.808900  0.311100  0.799400  1.0  0.1223
  C  C530  1  0.803400  0.269300  0.768950  1.0  0.0772
  C  C531  1  0.875400  0.219100  0.770100  1.0  -0.0969
  C  C532  1  0.943400  0.212800  0.801400  1.0  -0.1438
  C  C533  1  0.942600  0.257000  0.830500  1.0  0.1295
  C  C534  1  0.722300  0.278600  0.736900  1.0  -0.1077
  C  C535  1  0.532000  0.292200  0.720700  1.0  -0.0241
  C  C536  1  0.583800  0.211400  0.764500  1.0  -0.0096
  C  C537  1  0.308900  0.811100  0.799400  1.0  0.1223
  C  C538  1  0.303400  0.769300  0.768950  1.0  0.0772
  C  C539  1  0.375400  0.719100  0.770100  1.0  -0.0969
  C  C540  1  0.443400  0.712800  0.801400  1.0  -0.1438
  C  C541  1  0.442600  0.757000  0.830500  1.0  0.1295
  C  C542  1  0.222300  0.778600  0.736900  1.0  -0.1077
  C  C543  1  0.032000  0.792200  0.720700  1.0  -0.0241
  C  C544  1  0.083800  0.711400  0.764500  1.0  -0.0096
  C  C545  1  0.308900  0.311100  0.299400  1.0  0.1223
  C  C546  1  0.303400  0.269300  0.268950  1.0  0.0772
  C  C547  1  0.375400  0.219100  0.270100  1.0  -0.0969
  C  C548  1  0.443400  0.212800  0.301400  1.0  -0.1438
  C  C549  1  0.442600  0.257000  0.330500  1.0  0.1295
  C  C550  1  0.222300  0.278600  0.236900  1.0  -0.1077
  C  C551  1  0.032000  0.292200  0.220700  1.0  -0.0241
  C  C552  1  0.083800  0.211400  0.264500  1.0  -0.0096
  C  C553  1  0.441100  0.438900  0.299400  1.0  0.1232
  C  C554  1  0.446600  0.480700  0.268950  1.0  0.0769
  C  C555  1  0.374600  0.530900  0.270100  1.0  -0.096
  C  C556  1  0.306600  0.537200  0.301400  1.0  -0.1454
  C  C557  1  0.307400  0.493000  0.330500  1.0  0.1289
  C  C558  1  0.527700  0.471400  0.236900  1.0  -0.1085
  C  C559  1  0.718000  0.457800  0.220700  1.0  -0.0228
  C  C560  1  0.666200  0.538600  0.264500  1.0  -0.01
  C  C561  1  0.441100  0.938900  0.799400  1.0  0.1232
  C  C562  1  0.446600  0.980700  0.768950  1.0  0.0769
  C  C563  1  0.374600  0.030900  0.770100  1.0  -0.096
  C  C564  1  0.306600  0.037200  0.801400  1.0  -0.1454
  C  C565  1  0.307400  0.993000  0.830500  1.0  0.1289
  C  C566  1  0.527700  0.971400  0.736900  1.0  -0.1085
  C  C567  1  0.718000  0.957800  0.720700  1.0  -0.0228
  C  C568  1  0.666200  0.038600  0.764500  1.0  -0.01
  C  C569  1  0.941100  0.438900  0.799400  1.0  0.1232
  C  C570  1  0.946600  0.480700  0.768950  1.0  0.0769
  C  C571  1  0.874600  0.530900  0.770100  1.0  -0.096
  C  C572  1  0.806600  0.537200  0.801400  1.0  -0.1454
  C  C573  1  0.807400  0.493000  0.830500  1.0  0.1289
  C  C574  1  0.027700  0.471400  0.736900  1.0  -0.1085
  C  C575  1  0.218000  0.457800  0.720700  1.0  -0.0228
  C  C576  1  0.166200  0.538600  0.764500  1.0  -0.01
  C  C577  1  0.941100  0.938900  0.299400  1.0  0.1232
  C  C578  1  0.946600  0.980700  0.268950  1.0  0.0769
  C  C579  1  0.874600  0.030900  0.270100  1.0  -0.096
  C  C580  1  0.806600  0.037200  0.301400  1.0  -0.1454
  C  C581  1  0.807400  0.993000  0.330500  1.0  0.1289
  C  C582  1  0.027700  0.971400  0.236900  1.0  -0.1085
  C  C583  1  0.218000  0.957800  0.220700  1.0  -0.0228
  C  C584  1  0.166200  0.038600  0.264500  1.0  -0.01
  N  N585  1  0.626700  0.193700  0.079490  1.0  -0.3465
  N  N586  1  0.358500  0.225500  0.001990  1.0  -0.3476
  N  N587  1  0.626700  0.693700  0.579490  1.0  -0.3465
  N  N588  1  0.358500  0.725500  0.501990  1.0  -0.3476
  N  N589  1  0.126700  0.193700  0.579490  1.0  -0.3465
  N  N590  1  0.858500  0.225500  0.501990  1.0  -0.3476
  N  N591  1  0.126700  0.693700  0.079490  1.0  -0.3465
  N  N592  1  0.858500  0.725500  0.001990  1.0  -0.3476
  N  N593  1  0.123300  0.556300  0.079490  1.0  -0.3473
  N  N594  1  0.391500  0.524500  0.001990  1.0  -0.3464
  N  N595  1  0.123300  0.056300  0.579490  1.0  -0.3473
  N  N596  1  0.391500  0.024500  0.501990  1.0  -0.3464
  N  N597  1  0.623300  0.556300  0.579490  1.0  -0.3473
  N  N598  1  0.891500  0.524500  0.501990  1.0  -0.3464
  N  N599  1  0.623300  0.056300  0.079490  1.0  -0.3473
  N  N600  1  0.891500  0.024500  0.001990  1.0  -0.3464
  N  N601  1  0.123300  0.193700  0.670510  1.0  -0.3485
  N  N602  1  0.391500  0.225500  0.748010  1.0  -0.3484
  N  N603  1  0.123300  0.693700  0.170510  1.0  -0.3485
  N  N604  1  0.391500  0.725500  0.248010  1.0  -0.3484
  N  N605  1  0.623300  0.193700  0.170510  1.0  -0.3485
  N  N606  1  0.891500  0.225500  0.248010  1.0  -0.3484
  N  N607  1  0.623300  0.693700  0.670510  1.0  -0.3485
  N  N608  1  0.891500  0.725500  0.748010  1.0  -0.3484
  N  N609  1  0.626700  0.556300  0.670510  1.0  -0.3468
  N  N610  1  0.358500  0.524500  0.748010  1.0  -0.346
  N  N611  1  0.626700  0.056300  0.170510  1.0  -0.3468
  N  N612  1  0.358500  0.024500  0.248010  1.0  -0.346
  N  N613  1  0.126700  0.556300  0.170510  1.0  -0.3468
  N  N614  1  0.858500  0.524500  0.248010  1.0  -0.346
  N  N615  1  0.126700  0.056300  0.670510  1.0  -0.3468
  N  N616  1  0.858500  0.024500  0.748010  1.0  -0.346
  N  N617  1  0.373300  0.806300  0.920510  1.0  -0.3467
  N  N618  1  0.641500  0.774500  0.998010  1.0  -0.3462
  N  N619  1  0.373300  0.306300  0.420510  1.0  -0.3467
  N  N620  1  0.641500  0.274500  0.498010  1.0  -0.3462
  N  N621  1  0.873300  0.806300  0.420510  1.0  -0.3467
  N  N622  1  0.141500  0.774500  0.498010  1.0  -0.3462
  N  N623  1  0.873300  0.306300  0.920510  1.0  -0.3467
  N  N624  1  0.141500  0.274500  0.998010  1.0  -0.3462
  N  N625  1  0.876700  0.443700  0.920510  1.0  -0.3486
  N  N626  1  0.608500  0.475500  0.998010  1.0  -0.3479
  N  N627  1  0.876700  0.943700  0.420510  1.0  -0.3486
  N  N628  1  0.608500  0.975500  0.498010  1.0  -0.3479
  N  N629  1  0.376700  0.443700  0.420510  1.0  -0.3486
  N  N630  1  0.108500  0.475500  0.498010  1.0  -0.3479
  N  N631  1  0.376700  0.943700  0.920510  1.0  -0.3486
  N  N632  1  0.108500  0.975500  0.998010  1.0  -0.3479
  N  N633  1  0.876700  0.806300  0.329490  1.0  -0.347
  N  N634  1  0.608500  0.774500  0.251990  1.0  -0.3462
  N  N635  1  0.876700  0.306300  0.829490  1.0  -0.347
  N  N636  1  0.608500  0.274500  0.751990  1.0  -0.3462
  N  N637  1  0.376700  0.806300  0.829490  1.0  -0.347
  N  N638  1  0.108500  0.774500  0.751990  1.0  -0.3462
  N  N639  1  0.376700  0.306300  0.329490  1.0  -0.347
  N  N640  1  0.108500  0.274500  0.251990  1.0  -0.3462
  N  N641  1  0.373300  0.443700  0.329490  1.0  -0.3467
  N  N642  1  0.641500  0.475500  0.251990  1.0  -0.3479
  N  N643  1  0.373300  0.943700  0.829490  1.0  -0.3467
  N  N644  1  0.641500  0.975500  0.751990  1.0  -0.3479
  N  N645  1  0.873300  0.443700  0.829490  1.0  -0.3467
  N  N646  1  0.141500  0.475500  0.751990  1.0  -0.3479
  N  N647  1  0.873300  0.943700  0.329490  1.0  -0.3467
  N  N648  1  0.141500  0.975500  0.251990  1.0  -0.3479
