# generated using pymatgen
data_ZnH40(C4N)8
_symmetry_space_group_name_H-M   'P 1'
_cell_length_a   12.33500000
_cell_length_b   12.49650000
_cell_length_c   18.18580000
_cell_angle_alpha   80.36460000
_cell_angle_beta   70.17580000
_cell_angle_gamma   60.42660000
_symmetry_Int_Tables_number   1
_chemical_formula_structural   ZnH40(C4N)8
_chemical_formula_sum   'Zn2 H80 C64 N16'
_cell_volume   2293.55942356
_cell_formula_units_Z   2
loop_
 _symmetry_equiv_pos_site_id
 _symmetry_equiv_pos_as_xyz
  1  'x, y, z'
loop_
 _atom_site_type_symbol
 _atom_site_label
 _atom_site_symmetry_multiplicity
 _atom_site_fract_x
 _atom_site_fract_y
 _atom_site_fract_z
 _atom_site_occupancy
 _atom_site_charge
  Zn  Zn1  1  0.625000  0.250000  0.750000  1.0  0.6594
  Zn  Zn2  1  0.375000  0.750000  0.250000  1.0  0.6597
  H  H3  1  0.406600  0.309200  0.903000  1.0  0.0608
  H  H4  1  0.317700  0.620000  0.001200  1.0  0.0886
  H  H5  1  0.476400  0.641200  0.892400  1.0  0.087
  H  H6  1  0.595500  0.495400  0.795600  1.0  0.055
  H  H7  1  0.279200  0.360600  0.049000  1.0  0.0822
  H  H8  1  0.197500  0.505200  0.066800  1.0  0.0598
  H  H9  1  0.092900  0.332200  0.076200  1.0  0.0602
  H  H10  1  0.002900  0.473200  0.103400  1.0  0.0427
  H  H11  1  0.019000  0.632200  0.015400  1.0  0.0348
  H  H12  1  0.119000  0.600400  0.928600  1.0  0.0381
  H  H13  1  0.690400  0.190800  0.903000  1.0  0.061
  H  H14  1  0.681100  0.880000  0.001200  1.0  0.0889
  H  H15  1  0.631200  0.858800  0.892400  1.0  0.0863
  H  H16  1  0.608900  0.004600  0.795600  1.0  0.055
  H  H17  1  0.671800  0.139400  0.049000  1.0  0.0823
  H  H18  1  0.735700  0.994800  0.066800  1.0  0.0613
  H  H19  1  0.830900  0.167800  0.076200  1.0  0.0606
  H  H20  1  0.893700  0.026800  0.103400  1.0  0.0434
  H  H21  1  0.965600  0.867800  0.015400  1.0  0.0366
  H  H22  1  0.952400  0.899600  0.928600  1.0  0.0418
  H  H23  1  0.784200  0.309200  0.597000  1.0  0.0611
  H  H24  1  0.562300  0.620000  0.498800  1.0  0.0886
  H  H25  1  0.382400  0.641200  0.607600  1.0  0.0869
  H  H26  1  0.409100  0.495400  0.704400  1.0  0.0542
  H  H27  1  0.860200  0.360600  0.451000  1.0  0.0815
  H  H28  1  0.797300  0.505200  0.433200  1.0  0.0597
  H  H29  1  0.074900  0.332200  0.423800  1.0  0.0599
  H  H30  1  0.023900  0.473200  0.396600  1.0  0.0432
  H  H31  1  0.848800  0.632200  0.484600  1.0  0.0359
  H  H32  1  0.780600  0.600400  0.571400  1.0  0.0362
  H  H33  1  0.618800  0.190800  0.597000  1.0  0.0614
  H  H34  1  0.938900  0.880000  0.498800  1.0  0.0885
  H  H35  1  0.010000  0.858800  0.607600  1.0  0.0867
  H  H36  1  0.886500  0.004600  0.704400  1.0  0.0555
  H  H37  1  0.688800  0.139400  0.451000  1.0  0.0813
  H  H38  1  0.769500  0.994800  0.433200  1.0  0.0598
  H  H39  1  0.501300  0.167800  0.423800  1.0  0.0607
  H  H40  1  0.579500  0.026800  0.396600  1.0  0.0428
  H  H41  1  0.666667  0.867800  0.484600  1.0  0.0343
  H  H42  1  0.648000  0.899600  0.571400  1.0  0.0413
  H  H43  1  0.593400  0.690800  0.097000  1.0  0.0612
  H  H44  1  0.682300  0.380000  0.998800  1.0  0.0887
  H  H45  1  0.523600  0.358800  0.107600  1.0  0.0864
  H  H46  1  0.404500  0.504600  0.204400  1.0  0.0548
  H  H47  1  0.720800  0.639400  0.951000  1.0  0.0821
  H  H48  1  0.802500  0.494800  0.933200  1.0  0.0596
  H  H49  1  0.907100  0.667800  0.923800  1.0  0.0608
  H  H50  1  0.997100  0.526800  0.896600  1.0  0.0421
  H  H51  1  0.981000  0.367800  0.984600  1.0  0.0349
  H  H52  1  0.881000  0.399600  0.071400  1.0  0.0363
  H  H53  1  0.309600  0.809200  0.097000  1.0  0.0612
  H  H54  1  0.318900  0.120000  0.998800  1.0  0.0884
  H  H55  1  0.368800  0.141200  0.107600  1.0  0.0868
  H  H56  1  0.391100  0.995400  0.204400  1.0  0.0552
  H  H57  1  0.328200  0.860600  0.951000  1.0  0.0812
  H  H58  1  0.264300  0.005200  0.933200  1.0  0.0598
  H  H59  1  0.169100  0.832200  0.923800  1.0  0.0605
  H  H60  1  0.106300  0.973200  0.896600  1.0  0.0439
  H  H61  1  0.034400  0.132200  0.984600  1.0  0.0355
  H  H62  1  0.047600  0.100400  0.071400  1.0  0.0414
  H  H63  1  0.215800  0.690800  0.403000  1.0  0.0613
  H  H64  1  0.437700  0.380000  0.501200  1.0  0.089
  H  H65  1  0.617600  0.358800  0.392400  1.0  0.0863
  H  H66  1  0.590900  0.504600  0.295600  1.0  0.0549
  H  H67  1  0.139800  0.639400  0.549000  1.0  0.0817
  H  H68  1  0.202700  0.494800  0.566800  1.0  0.0605
  H  H69  1  0.925100  0.667800  0.576200  1.0  0.06
  H  H70  1  0.976100  0.526800  0.603400  1.0  0.0426
  H  H71  1  0.151200  0.367800  0.515400  1.0  0.0358
  H  H72  1  0.219400  0.399600  0.428600  1.0  0.0373
  H  H73  1  0.381200  0.809200  0.403000  1.0  0.0607
  H  H74  1  0.061100  0.120000  0.501200  1.0  0.0884
  H  H75  1  0.990000  0.141200  0.392400  1.0  0.0871
  H  H76  1  0.113500  0.995400  0.295600  1.0  0.055
  H  H77  1  0.311200  0.860600  0.549000  1.0  0.0821
  H  H78  1  0.230500  0.005200  0.566800  1.0  0.0607
  H  H79  1  0.498700  0.832200  0.576200  1.0  0.0608
  H  H80  1  0.420500  0.973200  0.603400  1.0  0.0434
  H  H81  1  0.333400  0.132200  0.515400  1.0  0.0357
  H  H82  1  0.352000  0.100400  0.428600  1.0  0.0425
  C  C83  1  0.419520  0.378600  0.901160  1.0  0.1265
  C  C84  1  0.341410  0.462600  0.961180  1.0  0.0679
  C  C85  1  0.365340  0.562000  0.959720  1.0  -0.1208
  C  C86  1  0.460370  0.573200  0.896060  1.0  -0.1619
  C  C87  1  0.530550  0.486400  0.838700  1.0  0.1323
  C  C88  1  0.238390  0.442600  0.025420  1.0  -0.1147
  C  C89  1  0.043920  0.417000  0.058360  1.0  -0.0091
  C  C90  1  0.060030  0.575200  0.970740  1.0  -0.0082
  C  C91  1  0.679320  0.121400  0.901160  1.0  0.1225
  C  C92  1  0.697410  0.037400  0.961180  1.0  0.0678
  C  C93  1  0.674940  0.938000  0.959720  1.0  -0.1196
  C  C94  1  0.643570  0.926800  0.896060  1.0  -0.1622
  C  C95  1  0.630750  0.013600  0.838700  1.0  0.1333
  C  C96  1  0.736190  0.057400  0.025420  1.0  -0.1152
  C  C97  1  0.897720  0.083000  0.058360  1.0  -0.0084
  C  C98  1  0.969230  0.924800  0.970740  1.0  -0.0051
  C  C99  1  0.701880  0.378600  0.598840  1.0  0.1264
  C  C100  1  0.695990  0.462600  0.538820  1.0  0.0685
  C  C101  1  0.572660  0.562000  0.540280  1.0  -0.1188
  C  C102  1  0.466430  0.573200  0.603940  1.0  -0.1642
  C  C103  1  0.483050  0.486400  0.661300  1.0  0.1308
  C  C104  1  0.819010  0.442600  0.474580  1.0  -0.1135
  C  C105  1  0.039080  0.417000  0.441640  1.0  -0.0095
  C  C106  1  0.864770  0.575200  0.529260  1.0  -0.0083
  C  C107  1  0.699280  0.121400  0.598840  1.0  0.122
  C  C108  1  0.765190  0.037400  0.538820  1.0  0.0675
  C  C109  1  0.887060  0.938000  0.540280  1.0  -0.1194
  C  C110  1  0.929630  0.926800  0.603940  1.0  -0.1619
  C  C111  1  0.855650  0.013600  0.661300  1.0  0.1326
  C  C112  1  0.706410  0.057400  0.474580  1.0  -0.1109
  C  C113  1  0.519280  0.083000  0.441640  1.0  -0.009
  C  C114  1  0.605970  0.924800  0.529260  1.0  -0.0049
  C  C115  1  0.580480  0.621400  0.098840  1.0  0.1265
  C  C116  1  0.658590  0.537400  0.038820  1.0  0.0684
  C  C117  1  0.634660  0.438000  0.040280  1.0  -0.119
  C  C118  1  0.539630  0.426800  0.103940  1.0  -0.165
  C  C119  1  0.469450  0.513600  0.161300  1.0  0.1305
  C  C120  1  0.761610  0.557400  0.974580  1.0  -0.1134
  C  C121  1  0.956080  0.583000  0.941640  1.0  -0.01
  C  C122  1  0.939970  0.424800  0.029260  1.0  -0.0067
  C  C123  1  0.320680  0.878600  0.098840  1.0  0.122
  C  C124  1  0.302590  0.962600  0.038820  1.0  0.0674
  C  C125  1  0.325060  0.062000  0.040280  1.0  -0.1196
  C  C126  1  0.356430  0.073200  0.103940  1.0  -0.1609
  C  C127  1  0.369250  0.986400  0.161300  1.0  0.1329
  C  C128  1  0.263810  0.942600  0.974580  1.0  -0.1114
  C  C129  1  0.102280  0.917000  0.941640  1.0  -0.0093
  C  C130  1  0.030770  0.075200  0.029260  1.0  -0.0062
  C  C131  1  0.298120  0.621400  0.401160  1.0  0.1264
  C  C132  1  0.304010  0.537400  0.461180  1.0  0.0681
  C  C133  1  0.427340  0.438000  0.459720  1.0  -0.1206
  C  C134  1  0.533570  0.426800  0.396060  1.0  -0.1629
  C  C135  1  0.516950  0.513600  0.338700  1.0  0.1327
  C  C136  1  0.180990  0.557400  0.525420  1.0  -0.1145
  C  C137  1  0.960920  0.583000  0.558360  1.0  -0.0093
  C  C138  1  0.135230  0.424800  0.470740  1.0  -0.0078
  C  C139  1  0.300720  0.878600  0.401160  1.0  0.1223
  C  C140  1  0.234810  0.962600  0.461180  1.0  0.0679
  C  C141  1  0.112940  0.062000  0.459720  1.0  -0.1198
  C  C142  1  0.070370  0.073200  0.396060  1.0  -0.1621
  C  C143  1  0.144350  0.986400  0.338700  1.0  0.1321
  C  C144  1  0.293590  0.942600  0.525420  1.0  -0.1154
  C  C145  1  0.480720  0.917000  0.558360  1.0  -0.008
  C  C146  1  0.394030  0.075200  0.470740  1.0  -0.0064
  N  N147  1  0.512430  0.389000  0.840340  1.0  -0.3418
  N  N148  1  0.134520  0.451400  0.995160  1.0  -0.3466
  N  N149  1  0.647230  0.111000  0.840340  1.0  -0.3435
  N  N150  1  0.870320  0.048600  0.995160  1.0  -0.3453
  N  N151  1  0.598570  0.389000  0.659660  1.0  -0.3417
  N  N152  1  0.914080  0.451400  0.504840  1.0  -0.3471
  N  N153  1  0.741770  0.111000  0.659660  1.0  -0.3444
  N  N154  1  0.581080  0.048600  0.504840  1.0  -0.3458
  N  N155  1  0.487570  0.611000  0.159660  1.0  -0.3418
  N  N156  1  0.865480  0.548600  0.004840  1.0  -0.346
  N  N157  1  0.352770  0.889000  0.159660  1.0  -0.344
  N  N158  1  0.129680  0.951400  0.004840  1.0  -0.3468
  N  N159  1  0.401430  0.611000  0.340340  1.0  -0.3408
  N  N160  1  0.085920  0.548600  0.495160  1.0  -0.3457
  N  N161  1  0.258230  0.889000  0.340340  1.0  -0.3443
  N  N162  1  0.418920  0.951400  0.495160  1.0  -0.3474
