# generated using pymatgen
data_EuH7(C5O2)3
_symmetry_space_group_name_H-M   'P 1'
_cell_length_a   24.62300000
_cell_length_b   12.86600000
_cell_length_c   14.86800000
_cell_angle_alpha   90.00000000
_cell_angle_beta   96.78000000
_cell_angle_gamma   90.00000000
_symmetry_Int_Tables_number   1
_chemical_formula_structural   EuH7(C5O2)3
_chemical_formula_sum   'Eu8 H56 C120 O48'
_cell_volume   4677.23593441
_cell_formula_units_Z   8
loop_
 _symmetry_equiv_pos_site_id
 _symmetry_equiv_pos_as_xyz
  1  'x, y, z'
loop_
 _atom_site_type_symbol
 _atom_site_label
 _atom_site_symmetry_multiplicity
 _atom_site_fract_x
 _atom_site_fract_y
 _atom_site_fract_z
 _atom_site_occupancy
 _atom_site_charge
  Eu  Eu1  1  0.672170  0.797640  0.466790  1.0  2.1218
  Eu  Eu2  1  0.172170  0.297640  0.466790  1.0  2.1218
  Eu  Eu3  1  0.327830  0.797640  0.033210  1.0  2.1255
  Eu  Eu4  1  0.827830  0.297640  0.033210  1.0  2.1255
  Eu  Eu5  1  0.327830  0.202360  0.533210  1.0  2.1242
  Eu  Eu6  1  0.827830  0.702360  0.533210  1.0  2.1242
  Eu  Eu7  1  0.672170  0.202360  0.966790  1.0  2.1219
  Eu  Eu8  1  0.172170  0.702360  0.966790  1.0  2.1219
  H  H9  1  0.230100  0.544600  0.713200  1.0  0.1147
  H  H10  1  0.355900  0.492800  0.569300  1.0  0.1067
  H  H11  1  0.370800  0.700400  0.772700  1.0  0.1039
  H  H12  1  0.419100  0.789700  0.666400  1.0  0.1154
  H  H13  1  0.500200  0.842400  0.615400  1.0  0.1075
  H  H14  1  0.533600  0.549500  0.557300  1.0  0.0949
  H  H15  1  0.452600  0.495300  0.607000  1.0  0.1072
  H  H16  1  0.730100  0.044600  0.713200  1.0  0.1147
  H  H17  1  0.855900  0.992800  0.569300  1.0  0.1067
  H  H18  1  0.870800  0.200400  0.772700  1.0  0.1039
  H  H19  1  0.919100  0.289700  0.666400  1.0  0.1154
  H  H20  1  0.000200  0.342400  0.615400  1.0  0.1075
  H  H21  1  0.033600  0.049500  0.557300  1.0  0.0949
  H  H22  1  0.952600  0.995300  0.607000  1.0  0.1072
  H  H23  1  0.769900  0.544600  0.786800  1.0  0.1143
  H  H24  1  0.644100  0.492800  0.930700  1.0  0.1067
  H  H25  1  0.629200  0.700400  0.727300  1.0  0.1049
  H  H26  1  0.580900  0.789700  0.833600  1.0  0.1153
  H  H27  1  0.499800  0.842400  0.884600  1.0  0.1078
  H  H28  1  0.466400  0.549500  0.942700  1.0  0.0947
  H  H29  1  0.547400  0.495300  0.893000  1.0  0.1082
  H  H30  1  0.269900  0.044600  0.786800  1.0  0.1143
  H  H31  1  0.144100  0.992800  0.930700  1.0  0.1067
  H  H32  1  0.129200  0.200400  0.727300  1.0  0.1049
  H  H33  1  0.080900  0.289700  0.833600  1.0  0.1153
  H  H34  1  0.999800  0.342400  0.884600  1.0  0.1078
  H  H35  1  0.966400  0.049500  0.942700  1.0  0.0947
  H  H36  1  0.047400  0.995300  0.893000  1.0  0.1082
  H  H37  1  0.769900  0.455400  0.286800  1.0  0.1144
  H  H38  1  0.644100  0.507200  0.430700  1.0  0.1066
  H  H39  1  0.629200  0.299600  0.227300  1.0  0.1048
  H  H40  1  0.580900  0.210300  0.333600  1.0  0.1153
  H  H41  1  0.499800  0.157600  0.384600  1.0  0.1075
  H  H42  1  0.466400  0.450500  0.442700  1.0  0.0945
  H  H43  1  0.547400  0.504700  0.393000  1.0  0.1084
  H  H44  1  0.269900  0.955400  0.286800  1.0  0.1144
  H  H45  1  0.144100  0.007200  0.430700  1.0  0.1066
  H  H46  1  0.129200  0.799600  0.227300  1.0  0.1048
  H  H47  1  0.080900  0.710300  0.333600  1.0  0.1153
  H  H48  1  0.999800  0.657600  0.384600  1.0  0.1075
  H  H49  1  0.966400  0.950500  0.442700  1.0  0.0945
  H  H50  1  0.047400  0.004700  0.393000  1.0  0.1084
  H  H51  1  0.230100  0.455400  0.213200  1.0  0.1145
  H  H52  1  0.355900  0.507200  0.069300  1.0  0.1066
  H  H53  1  0.370800  0.299600  0.272700  1.0  0.1047
  H  H54  1  0.419100  0.210300  0.166400  1.0  0.1149
  H  H55  1  0.500200  0.157600  0.115400  1.0  0.1074
  H  H56  1  0.533600  0.450500  0.057300  1.0  0.0948
  H  H57  1  0.452600  0.504700  0.107000  1.0  0.1075
  H  H58  1  0.730100  0.955400  0.213200  1.0  0.1145
  H  H59  1  0.855900  0.007200  0.069300  1.0  0.1066
  H  H60  1  0.870800  0.799600  0.272700  1.0  0.1047
  H  H61  1  0.919100  0.710300  0.166400  1.0  0.1149
  H  H62  1  0.000200  0.657600  0.115400  1.0  0.1074
  H  H63  1  0.033600  0.950500  0.057300  1.0  0.0948
  H  H64  1  0.952600  0.004700  0.107000  1.0  0.1075
  C  C65  1  0.297800  0.627300  0.756700  1.0  -0.154
  C  C66  1  0.265950  0.557800  0.702500  1.0  0.0168
  C  C67  1  0.287630  0.507700  0.631800  1.0  -0.1287
  C  C68  1  0.340990  0.529000  0.614600  1.0  -0.0637
  C  C69  1  0.372160  0.604100  0.664900  1.0  0.0299
  C  C70  1  0.350160  0.651800  0.737200  1.0  -0.0537
  C  C71  1  0.426300  0.636300  0.639500  1.0  0.0226
  C  C72  1  0.441560  0.740900  0.643100  1.0  -0.1171
  C  C73  1  0.490300  0.772600  0.612100  1.0  -0.0631
  C  C74  1  0.523770  0.702100  0.576900  1.0  -0.1673
  C  C75  1  0.510070  0.598500  0.577500  1.0  -0.0544
  C  C76  1  0.461380  0.565600  0.608000  1.0  -0.1366
  C  C77  1  0.276290  0.677700  0.837300  1.0  0.7852
  C  C78  1  0.252660  0.432400  0.573200  1.0  0.7369
  C  C79  1  0.573620  0.735900  0.534700  1.0  0.6805
  C  C80  1  0.797800  0.127300  0.756700  1.0  -0.154
  C  C81  1  0.765950  0.057800  0.702500  1.0  0.0168
  C  C82  1  0.787630  0.007700  0.631800  1.0  -0.1287
  C  C83  1  0.840990  0.029000  0.614600  1.0  -0.0637
  C  C84  1  0.872160  0.104100  0.664900  1.0  0.0299
  C  C85  1  0.850160  0.151800  0.737200  1.0  -0.0537
  C  C86  1  0.926300  0.136300  0.639500  1.0  0.0226
  C  C87  1  0.941560  0.240900  0.643100  1.0  -0.1171
  C  C88  1  0.990300  0.272600  0.612100  1.0  -0.0631
  C  C89  1  0.023770  0.202100  0.576900  1.0  -0.1673
  C  C90  1  0.010070  0.098500  0.577500  1.0  -0.0544
  C  C91  1  0.961380  0.065600  0.608000  1.0  -0.1366
  C  C92  1  0.776290  0.177700  0.837300  1.0  0.7852
  C  C93  1  0.752660  0.932400  0.573200  1.0  0.7369
  C  C94  1  0.073620  0.235900  0.534700  1.0  0.6805
  C  C95  1  0.702200  0.627300  0.743300  1.0  -0.1529
  C  C96  1  0.734050  0.557800  0.797500  1.0  0.0193
  C  C97  1  0.712370  0.507700  0.868200  1.0  -0.129
  C  C98  1  0.659010  0.529000  0.885400  1.0  -0.0656
  C  C99  1  0.627840  0.604100  0.835100  1.0  0.0304
  C  C100  1  0.649840  0.651800  0.762800  1.0  -0.055
  C  C101  1  0.573700  0.636300  0.860500  1.0  0.0218
  C  C102  1  0.558440  0.740900  0.856900  1.0  -0.1158
  C  C103  1  0.509700  0.772600  0.887900  1.0  -0.0634
  C  C104  1  0.476230  0.702100  0.923100  1.0  -0.1686
  C  C105  1  0.489930  0.598500  0.922500  1.0  -0.0528
  C  C106  1  0.538620  0.565600  0.892000  1.0  -0.1358
  C  C107  1  0.723710  0.677700  0.662700  1.0  0.7858
  C  C108  1  0.747340  0.432400  0.926800  1.0  0.7378
  C  C109  1  0.426380  0.735900  0.965300  1.0  0.6797
  C  C110  1  0.202200  0.127300  0.743300  1.0  -0.1529
  C  C111  1  0.234050  0.057800  0.797500  1.0  0.0193
  C  C112  1  0.212370  0.007700  0.868200  1.0  -0.129
  C  C113  1  0.159010  0.029000  0.885400  1.0  -0.0656
  C  C114  1  0.127840  0.104100  0.835100  1.0  0.0304
  C  C115  1  0.149840  0.151800  0.762800  1.0  -0.055
  C  C116  1  0.073700  0.136300  0.860500  1.0  0.0218
  C  C117  1  0.058440  0.240900  0.856900  1.0  -0.1158
  C  C118  1  0.009700  0.272600  0.887900  1.0  -0.0634
  C  C119  1  0.976230  0.202100  0.923100  1.0  -0.1686
  C  C120  1  0.989930  0.098500  0.922500  1.0  -0.0528
  C  C121  1  0.038620  0.065600  0.892000  1.0  -0.1358
  C  C122  1  0.223710  0.177700  0.662700  1.0  0.7858
  C  C123  1  0.247340  0.932400  0.926800  1.0  0.7378
  C  C124  1  0.926380  0.235900  0.965300  1.0  0.6797
  C  C125  1  0.702200  0.372700  0.243300  1.0  -0.1531
  C  C126  1  0.734050  0.442200  0.297500  1.0  0.019
  C  C127  1  0.712370  0.492300  0.368200  1.0  -0.1289
  C  C128  1  0.659010  0.471000  0.385400  1.0  -0.0654
  C  C129  1  0.627840  0.395900  0.335100  1.0  0.0305
  C  C130  1  0.649840  0.348200  0.262800  1.0  -0.0547
  C  C131  1  0.573700  0.363700  0.360500  1.0  0.022
  C  C132  1  0.558440  0.259100  0.356900  1.0  -0.1156
  C  C133  1  0.509700  0.227400  0.387900  1.0  -0.066
  C  C134  1  0.476230  0.297900  0.423100  1.0  -0.1692
  C  C135  1  0.489930  0.401500  0.422500  1.0  -0.0542
  C  C136  1  0.538620  0.434400  0.392000  1.0  -0.1361
  C  C137  1  0.723710  0.322300  0.162700  1.0  0.7855
  C  C138  1  0.747340  0.567600  0.426800  1.0  0.7377
  C  C139  1  0.426380  0.264100  0.465300  1.0  0.6787
  C  C140  1  0.202200  0.872700  0.243300  1.0  -0.1531
  C  C141  1  0.234050  0.942200  0.297500  1.0  0.019
  C  C142  1  0.212370  0.992300  0.368200  1.0  -0.1289
  C  C143  1  0.159010  0.971000  0.385400  1.0  -0.0654
  C  C144  1  0.127840  0.895900  0.335100  1.0  0.0305
  C  C145  1  0.149840  0.848200  0.262800  1.0  -0.0547
  C  C146  1  0.073700  0.863700  0.360500  1.0  0.022
  C  C147  1  0.058440  0.759100  0.356900  1.0  -0.1156
  C  C148  1  0.009700  0.727400  0.387900  1.0  -0.066
  C  C149  1  0.976230  0.797900  0.423100  1.0  -0.1692
  C  C150  1  0.989930  0.901500  0.422500  1.0  -0.0542
  C  C151  1  0.038620  0.934400  0.392000  1.0  -0.1361
  C  C152  1  0.223710  0.822300  0.162700  1.0  0.7855
  C  C153  1  0.247340  0.067600  0.426800  1.0  0.7377
  C  C154  1  0.926380  0.764100  0.465300  1.0  0.6787
  C  C155  1  0.297800  0.372700  0.256700  1.0  -0.1541
  C  C156  1  0.265950  0.442200  0.202500  1.0  0.0164
  C  C157  1  0.287630  0.492300  0.131800  1.0  -0.1284
  C  C158  1  0.340990  0.471000  0.114600  1.0  -0.0638
  C  C159  1  0.372160  0.395900  0.164900  1.0  0.03
  C  C160  1  0.350160  0.348200  0.237200  1.0  -0.0534
  C  C161  1  0.426300  0.363700  0.139500  1.0  0.0226
  C  C162  1  0.441560  0.259100  0.143100  1.0  -0.1163
  C  C163  1  0.490300  0.227400  0.112100  1.0  -0.0662
  C  C164  1  0.523770  0.297900  0.076900  1.0  -0.1682
  C  C165  1  0.510070  0.401500  0.077500  1.0  -0.0558
  C  C166  1  0.461380  0.434400  0.108000  1.0  -0.1368
  C  C167  1  0.276290  0.322300  0.337300  1.0  0.7847
  C  C168  1  0.252660  0.567600  0.073200  1.0  0.7371
  C  C169  1  0.573620  0.264100  0.034700  1.0  0.679
  C  C170  1  0.797800  0.872700  0.256700  1.0  -0.1541
  C  C171  1  0.765950  0.942200  0.202500  1.0  0.0164
  C  C172  1  0.787630  0.992300  0.131800  1.0  -0.1284
  C  C173  1  0.840990  0.971000  0.114600  1.0  -0.0638
  C  C174  1  0.872160  0.895900  0.164900  1.0  0.03
  C  C175  1  0.850160  0.848200  0.237200  1.0  -0.0534
  C  C176  1  0.926300  0.863700  0.139500  1.0  0.0226
  C  C177  1  0.941560  0.759100  0.143100  1.0  -0.1163
  C  C178  1  0.990300  0.727400  0.112100  1.0  -0.0662
  C  C179  1  0.023770  0.797900  0.076900  1.0  -0.1682
  C  C180  1  0.010070  0.901500  0.077500  1.0  -0.0558
  C  C181  1  0.961380  0.934400  0.108000  1.0  -0.1368
  C  C182  1  0.776290  0.822300  0.337300  1.0  0.7847
  C  C183  1  0.752660  0.067600  0.073200  1.0  0.7371
  C  C184  1  0.073620  0.764100  0.034700  1.0  0.679
  O  O185  1  0.307390  0.741400  0.881050  1.0  -0.7073
  O  O186  1  0.228860  0.652800  0.853100  1.0  -0.736
  O  O187  1  0.274610  0.355000  0.539570  1.0  -0.8223
  O  O188  1  0.202590  0.449500  0.558000  1.0  -0.6144
  O  O189  1  0.587070  0.831200  0.536500  1.0  -0.6943
  O  O190  1  0.600860  0.669400  0.498600  1.0  -0.6358
  O  O191  1  0.807390  0.241400  0.881050  1.0  -0.7073
  O  O192  1  0.728860  0.152800  0.853100  1.0  -0.736
  O  O193  1  0.774610  0.855000  0.539570  1.0  -0.8223
  O  O194  1  0.702590  0.949500  0.558000  1.0  -0.6146
  O  O195  1  0.087070  0.331200  0.536500  1.0  -0.6945
  O  O196  1  0.100860  0.169400  0.498600  1.0  -0.6358
  O  O197  1  0.692610  0.741400  0.618950  1.0  -0.7074
  O  O198  1  0.771140  0.652800  0.646900  1.0  -0.7328
  O  O199  1  0.725390  0.355000  0.960430  1.0  -0.8219
  O  O200  1  0.797410  0.449500  0.942000  1.0  -0.6106
  O  O201  1  0.412930  0.831200  0.963500  1.0  -0.6933
  O  O202  1  0.399140  0.669400  0.001400  1.0  -0.6336
  O  O203  1  0.192610  0.241400  0.618950  1.0  -0.7074
  O  O204  1  0.271140  0.152800  0.646900  1.0  -0.7328
  O  O205  1  0.225390  0.855000  0.960430  1.0  -0.8219
  O  O206  1  0.297410  0.949500  0.942000  1.0  -0.6106
  O  O207  1  0.912930  0.331200  0.963500  1.0  -0.6932
  O  O208  1  0.899140  0.169400  0.001400  1.0  -0.6336
  O  O209  1  0.692610  0.258600  0.118950  1.0  -0.7087
  O  O210  1  0.771140  0.347200  0.146900  1.0  -0.733
  O  O211  1  0.725390  0.645000  0.460430  1.0  -0.8228
  O  O212  1  0.797410  0.550500  0.442000  1.0  -0.611
  O  O213  1  0.412930  0.168800  0.463500  1.0  -0.6949
  O  O214  1  0.399140  0.330600  0.501400  1.0  -0.6337
  O  O215  1  0.192610  0.758600  0.118950  1.0  -0.7087
  O  O216  1  0.271140  0.847200  0.146900  1.0  -0.733
  O  O217  1  0.225390  0.145000  0.460430  1.0  -0.8228
  O  O218  1  0.297410  0.050500  0.442000  1.0  -0.6114
  O  O219  1  0.912930  0.668800  0.463500  1.0  -0.6953
  O  O220  1  0.899140  0.830600  0.501400  1.0  -0.6337
  O  O221  1  0.307390  0.258600  0.381050  1.0  -0.7082
  O  O222  1  0.228860  0.347200  0.353100  1.0  -0.7373
  O  O223  1  0.274610  0.645000  0.039570  1.0  -0.8231
  O  O224  1  0.202590  0.550500  0.058000  1.0  -0.6118
  O  O225  1  0.587070  0.168800  0.036500  1.0  -0.6926
  O  O226  1  0.600860  0.330600  0.998600  1.0  -0.636
  O  O227  1  0.807390  0.758600  0.381050  1.0  -0.7082
  O  O228  1  0.728860  0.847200  0.353100  1.0  -0.7373
  O  O229  1  0.774610  0.145000  0.039570  1.0  -0.8231
  O  O230  1  0.702590  0.050500  0.058000  1.0  -0.6118
  O  O231  1  0.087070  0.668800  0.036500  1.0  -0.6926
  O  O232  1  0.100860  0.830600  0.998600  1.0  -0.636
