# generated using pymatgen
data_TbEu3H28(C5O2)12
_symmetry_space_group_name_H-M   'P 1'
_cell_length_a   13.00600000
_cell_length_b   13.82100000
_cell_length_c   27.98200000
_cell_angle_alpha   75.67000000
_cell_angle_beta   79.35000000
_cell_angle_gamma   85.62000000
_symmetry_Int_Tables_number   1
_chemical_formula_structural   TbEu3H28(C5O2)12
_chemical_formula_sum   'Tb2 Eu6 H56 C120 O48'
_cell_volume   4787.00433396
_cell_formula_units_Z   2
loop_
 _symmetry_equiv_pos_site_id
 _symmetry_equiv_pos_as_xyz
  1  'x, y, z'
loop_
 _atom_site_type_symbol
 _atom_site_label
 _atom_site_symmetry_multiplicity
 _atom_site_fract_x
 _atom_site_fract_y
 _atom_site_fract_z
 _atom_site_occupancy
 _atom_site_charge
  Tb  Tb1  1  0.119720  0.978820  0.445950  1.0  2.2569
  Tb  Tb2  1  0.969320  0.124760  0.939500  1.0  2.2579
  Eu  Eu3  1  0.880280  0.021180  0.554050  1.0  2.1497
  Eu  Eu4  1  0.471450  0.537820  0.415080  1.0  2.0324
  Eu  Eu5  1  0.030680  0.875240  0.060500  1.0  2.1531
  Eu  Eu6  1  0.517090  0.480780  0.914150  1.0  2.0658
  Eu  Eu7  1  0.528550  0.462180  0.584920  1.0  2.0346
  Eu  Eu8  1  0.482910  0.519220  0.085850  1.0  2.0643
  H  H9  1  0.724300  0.745100  0.515400  1.0  0.1172
  H  H10  1  0.725900  0.667100  0.386800  1.0  0.109
  H  H11  1  0.917800  0.878900  0.391100  1.0  0.1008
  H  H12  1  0.003400  0.855100  0.320100  1.0  0.1101
  H  H13  1  0.058700  0.874000  0.235300  1.0  0.0949
  H  H14  1  0.809200  0.735500  0.225900  1.0  0.1165
  H  H15  1  0.751400  0.718400  0.310100  1.0  0.1143
  H  H16  1  0.750100  0.271500  0.437100  1.0  0.1105
  H  H17  1  0.026600  0.262300  0.346900  1.0  0.0988
  H  H18  1  0.815500  0.480600  0.309500  1.0  0.0998
  H  H19  1  0.968100  0.568900  0.276000  1.0  0.0966
  H  H20  1  0.094200  0.644300  0.210600  1.0  0.094
  H  H21  1  0.206700  0.375000  0.194400  1.0  0.089
  H  H22  1  0.077600  0.300800  0.258500  1.0  0.0917
  H  H23  1  0.738200  0.240400  0.057300  1.0  0.1109
  H  H24  1  0.543900  0.182300  0.188900  1.0  0.0997
  H  H25  1  0.757800  0.975600  0.153800  1.0  0.0982
  H  H26  1  0.626600  0.871400  0.201500  1.0  0.1117
  H  H27  1  0.558400  0.760300  0.274700  1.0  0.1065
  H  H28  1  0.495900  0.983300  0.344300  1.0  0.1097
  H  H29  1  0.561100  0.095000  0.270400  1.0  0.1156
  H  H30  1  0.744700  0.729500  0.013600  1.0  0.1089
  H  H31  1  0.862600  0.926300  0.888200  1.0  0.1028
  H  H32  1  0.679300  0.711400  0.881500  1.0  0.0994
  H  H33  1  0.651200  0.822600  0.810200  1.0  0.1017
  H  H34  1  0.674900  0.877600  0.724900  1.0  0.1051
  H  H35  1  0.963700  0.957500  0.723500  1.0  0.1031
  H  H36  1  0.937000  0.907000  0.810300  1.0  0.109
  H  H37  1  0.275700  0.254900  0.484600  1.0  0.1173
  H  H38  1  0.274100  0.332900  0.613200  1.0  0.1088
  H  H39  1  0.082200  0.121100  0.608900  1.0  0.1014
  H  H40  1  0.996600  0.144900  0.679900  1.0  0.1099
  H  H41  1  0.941300  0.126000  0.764700  1.0  0.0951
  H  H42  1  0.190800  0.264500  0.774100  1.0  0.1169
  H  H43  1  0.248600  0.281600  0.689900  1.0  0.1148
  H  H44  1  0.249900  0.728500  0.562900  1.0  0.1103
  H  H45  1  0.973400  0.737700  0.653100  1.0  0.0981
  H  H46  1  0.184500  0.519400  0.690500  1.0  0.1003
  H  H47  1  0.031900  0.431100  0.724000  1.0  0.0972
  H  H48  1  0.905800  0.355700  0.789400  1.0  0.0916
  H  H49  1  0.793300  0.625000  0.805600  1.0  0.0888
  H  H50  1  0.922400  0.699200  0.741500  1.0  0.0912
  H  H51  1  0.261800  0.759600  0.942700  1.0  0.1108
  H  H52  1  0.456100  0.817700  0.811100  1.0  0.0993
  H  H53  1  0.242200  0.024400  0.846200  1.0  0.0985
  H  H54  1  0.373400  0.128600  0.798500  1.0  0.1112
  H  H55  1  0.441600  0.239700  0.725300  1.0  0.1067
  H  H56  1  0.504100  0.016700  0.655700  1.0  0.1092
  H  H57  1  0.438900  0.905000  0.729600  1.0  0.116
  H  H58  1  0.255300  0.270500  0.986400  1.0  0.1091
  H  H59  1  0.137400  0.073700  0.111800  1.0  0.1032
  H  H60  1  0.320700  0.288600  0.118500  1.0  0.0984
  H  H61  1  0.348800  0.177400  0.189800  1.0  0.1013
  H  H62  1  0.325100  0.122400  0.275100  1.0  0.105
  H  H63  1  0.036300  0.042500  0.276500  1.0  0.1043
  H  H64  1  0.063000  0.093000  0.189700  1.0  0.11
  C  C65  1  0.825300  0.822900  0.457300  1.0  -0.1458
  C  C66  1  0.750700  0.752500  0.481500  1.0  0.033
  C  C67  1  0.715800  0.693100  0.454900  1.0  -0.1427
  C  C68  1  0.752000  0.705800  0.404500  1.0  -0.0498
  C  C69  1  0.828400  0.776600  0.379100  1.0  0.0275
  C  C70  1  0.865600  0.833500  0.406700  1.0  -0.0607
  C  C71  1  0.866100  0.788800  0.324400  1.0  0.0489
  C  C72  1  0.962100  0.833400  0.301200  1.0  -0.1702
  C  C73  1  0.994900  0.844900  0.250100  1.0  -0.0675
  C  C74  1  0.936500  0.814800  0.220800  1.0  -0.1443
  C  C75  1  0.846700  0.762900  0.244300  1.0  -0.1141
  C  C76  1  0.812800  0.752000  0.295200  1.0  -0.1071
  C  C77  1  0.859800  0.888700  0.486700  1.0  0.7402
  C  C78  1  0.640200  0.612600  0.482200  1.0  0.7197
  C  C79  1  0.973600  0.830500  0.165400  1.0  0.673
  C  C80  1  0.765700  0.383500  0.374900  1.0  -0.17
  C  C81  1  0.795700  0.298500  0.407800  1.0  0.0131
  C  C82  1  0.894400  0.252900  0.397300  1.0  -0.1679
  C  C83  1  0.961300  0.293100  0.353900  1.0  -0.0343
  C  C84  1  0.933000  0.379300  0.320000  1.0  0.0147
  C  C85  1  0.835300  0.423000  0.331500  1.0  -0.0875
  C  C86  1  0.011000  0.426400  0.275300  1.0  0.0349
  C  C87  1  0.016600  0.529400  0.259900  1.0  -0.1267
  C  C88  1  0.092900  0.575000  0.220800  1.0  -0.0581
  C  C89  1  0.167000  0.517300  0.197100  1.0  -0.1408
  C  C90  1  0.159400  0.414700  0.211100  1.0  -0.0432
  C  C91  1  0.081800  0.370000  0.249700  1.0  -0.1121
  C  C92  1  0.661100  0.432900  0.385700  1.0  0.6659
  C  C93  1  0.929600  0.162900  0.435300  1.0  0.7826
  C  C94  1  0.255900  0.566100  0.159000  1.0  0.6304
  C  C95  1  0.762000  0.102700  0.100100  1.0  -0.1557
  C  C96  1  0.714800  0.196900  0.087900  1.0  0.032
  C  C97  1  0.632700  0.226800  0.121100  1.0  -0.1547
  C  C98  1  0.598300  0.161700  0.166600  1.0  -0.0416
  C  C99  1  0.642900  0.066500  0.179700  1.0  0.0027
  C  C100  1  0.726000  0.038700  0.145600  1.0  -0.065
  C  C101  1  0.600700  0.996100  0.227400  1.0  0.0392
  C  C102  1  0.599700  0.894900  0.229800  1.0  -0.1392
  C  C103  1  0.559100  0.827800  0.274000  1.0  -0.0306
  C  C104  1  0.519800  0.860100  0.316900  1.0  -0.1322
  C  C105  1  0.521300  0.960500  0.315600  1.0  -0.0832
  C  C106  1  0.561000  0.027400  0.271000  1.0  -0.1299
  C  C107  1  0.849100  0.068400  0.064000  1.0  0.7729
  C  C108  1  0.580200  0.328000  0.108100  1.0  0.6792
  C  C109  1  0.480800  0.784800  0.365100  1.0  0.6947
  C  C110  1  0.700000  0.708000  0.952000  1.0  -0.1544
  C  C111  1  0.751800  0.753400  0.979000  1.0  0.0085
  C  C112  1  0.814700  0.834400  0.955100  1.0  -0.1394
  C  C113  1  0.823600  0.870000  0.904000  1.0  -0.0633
  C  C114  1  0.775400  0.823300  0.875400  1.0  0.03
  C  C115  1  0.712900  0.742700  0.899800  1.0  -0.0561
  C  C116  1  0.790400  0.858900  0.820000  1.0  0.0421
  C  C117  1  0.714300  0.850900  0.793200  1.0  -0.1165
  C  C118  1  0.728400  0.883300  0.741800  1.0  -0.0677
  C  C119  1  0.821700  0.924300  0.715400  1.0  -0.1521
  C  C120  1  0.899800  0.931600  0.740900  1.0  -0.0357
  C  C121  1  0.884100  0.900100  0.793300  1.0  -0.1137
  C  C122  1  0.630400  0.623400  0.978900  1.0  0.7632
  C  C123  1  0.873000  0.880100  0.984700  1.0  0.7674
  C  C124  1  0.838700  0.961100  0.659300  1.0  0.7012
  C  C125  1  0.174700  0.177100  0.542700  1.0  -0.146
  C  C126  1  0.249300  0.247500  0.518500  1.0  0.0338
  C  C127  1  0.284200  0.306900  0.545100  1.0  -0.1425
  C  C128  1  0.248000  0.294200  0.595500  1.0  -0.0497
  C  C129  1  0.171600  0.223400  0.620900  1.0  0.0263
  C  C130  1  0.134400  0.166500  0.593300  1.0  -0.0602
  C  C131  1  0.133900  0.211200  0.675600  1.0  0.048
  C  C132  1  0.037900  0.166600  0.698800  1.0  -0.1695
  C  C133  1  0.005100  0.155100  0.749900  1.0  -0.0644
  C  C134  1  0.063500  0.185200  0.779200  1.0  -0.1448
  C  C135  1  0.153300  0.237100  0.755700  1.0  -0.1142
  C  C136  1  0.187200  0.248000  0.704800  1.0  -0.1085
  C  C137  1  0.140200  0.111300  0.513300  1.0  0.7427
  C  C138  1  0.359800  0.387400  0.517800  1.0  0.7194
  C  C139  1  0.026400  0.169500  0.834600  1.0  0.6716
  C  C140  1  0.234300  0.616500  0.625100  1.0  -0.1698
  C  C141  1  0.204300  0.701500  0.592200  1.0  0.0137
  C  C142  1  0.105600  0.747100  0.602700  1.0  -0.1684
  C  C143  1  0.038700  0.706900  0.646100  1.0  -0.0338
  C  C144  1  0.067000  0.620700  0.680000  1.0  0.0141
  C  C145  1  0.164700  0.577000  0.668500  1.0  -0.0872
  C  C146  1  0.989000  0.573600  0.724700  1.0  0.0348
  C  C147  1  0.983400  0.470600  0.740100  1.0  -0.1261
  C  C148  1  0.907100  0.425000  0.779200  1.0  -0.0567
  C  C149  1  0.833000  0.482700  0.802900  1.0  -0.1415
  C  C150  1  0.840600  0.585300  0.788900  1.0  -0.043
  C  C151  1  0.918200  0.630000  0.750300  1.0  -0.1116
  C  C152  1  0.338900  0.567100  0.614300  1.0  0.6659
  C  C153  1  0.070400  0.837100  0.564700  1.0  0.7847
  C  C154  1  0.744100  0.433900  0.841000  1.0  0.6297
  C  C155  1  0.238000  0.897300  0.899900  1.0  -0.1564
  C  C156  1  0.285200  0.803100  0.912100  1.0  0.0313
  C  C157  1  0.367300  0.773200  0.878900  1.0  -0.1556
  C  C158  1  0.401700  0.838300  0.833400  1.0  -0.0396
  C  C159  1  0.357100  0.933500  0.820300  1.0  0.0022
  C  C160  1  0.274000  0.961300  0.854400  1.0  -0.0658
  C  C161  1  0.399300  0.003900  0.772600  1.0  0.0381
  C  C162  1  0.400300  0.105100  0.770200  1.0  -0.1388
  C  C163  1  0.440900  0.172200  0.726000  1.0  -0.0311
  C  C164  1  0.480200  0.139900  0.683100  1.0  -0.1331
  C  C165  1  0.478700  0.039500  0.684400  1.0  -0.0821
  C  C166  1  0.439000  0.972600  0.729000  1.0  -0.1307
  C  C167  1  0.150900  0.931600  0.936000  1.0  0.772
  C  C168  1  0.419800  0.672000  0.891900  1.0  0.6804
  C  C169  1  0.519200  0.215200  0.634900  1.0  0.6942
  C  C170  1  0.300000  0.292000  0.048000  1.0  -0.1524
  C  C171  1  0.248200  0.246600  0.021000  1.0  0.0071
  C  C172  1  0.185300  0.165600  0.044900  1.0  -0.1404
  C  C173  1  0.176400  0.130000  0.096000  1.0  -0.0651
  C  C174  1  0.224600  0.176700  0.124600  1.0  0.0291
  C  C175  1  0.287100  0.257300  0.100200  1.0  -0.0557
  C  C176  1  0.209600  0.141100  0.180000  1.0  0.0417
  C  C177  1  0.285700  0.149100  0.206800  1.0  -0.1177
  C  C178  1  0.271600  0.116700  0.258200  1.0  -0.0692
  C  C179  1  0.178300  0.075700  0.284600  1.0  -0.1522
  C  C180  1  0.100200  0.068400  0.259100  1.0  -0.0346
  C  C181  1  0.115900  0.099900  0.206700  1.0  -0.1137
  C  C182  1  0.369600  0.376600  0.021100  1.0  0.7621
  C  C183  1  0.127000  0.119900  0.015300  1.0  0.7665
  C  C184  1  0.161300  0.038900  0.340700  1.0  0.6997
  O  O185  1  0.945700  0.932000  0.472150  1.0  -0.8424
  O  O186  1  0.799100  0.899000  0.525890  1.0  -0.6429
  O  O187  1  0.599700  0.567300  0.456700  1.0  -0.748
  O  O188  1  0.623800  0.590600  0.528780  1.0  -0.6638
  O  O189  1  0.045200  0.889600  0.144470  1.0  -0.6484
  O  O190  1  0.931300  0.785800  0.140870  1.0  -0.6607
  O  O191  1  0.639900  0.516900  0.358080  1.0  -0.6856
  O  O192  1  0.595500  0.392500  0.423540  1.0  -0.6687
  O  O193  1  0.868700  0.135100  0.475890  1.0  -0.7454
  O  O194  1  0.018800  0.126600  0.422460  1.0  -0.7183
  O  O195  1  0.259900  0.659300  0.146920  1.0  -0.484
  O  O196  1  0.325700  0.508000  0.141530  1.0  -0.7434
  O  O197  1  0.889100  0.983600  0.077570  1.0  -0.6996
  O  O198  1  0.875900  0.127300  0.021520  1.0  -0.8092
  O  O199  1  0.504100  0.351100  0.138330  1.0  -0.687
  O  O200  1  0.612400  0.387200  0.066810  1.0  -0.6847
  O  O201  1  0.490500  0.694200  0.363180  1.0  -0.6933
  O  O202  1  0.443900  0.814400  0.403000  1.0  -0.5156
  O  O203  1  0.597600  0.572000  0.954800  1.0  -0.7643
  O  O204  1  0.611300  0.607000  0.025580  1.0  -0.7019
  O  O205  1  0.901200  0.967900  0.967190  1.0  -0.8076
  O  O206  1  0.893800  0.826700  0.025360  1.0  -0.6718
  O  O207  1  0.778300  0.935400  0.635160  1.0  -0.6299
  O  O208  1  0.913000  0.017600  0.638370  1.0  -0.6484
  O  O209  1  0.054300  0.068000  0.527850  1.0  -0.8457
  O  O210  1  0.200900  0.101000  0.474110  1.0  -0.6435
  O  O211  1  0.400300  0.432700  0.543300  1.0  -0.7498
  O  O212  1  0.376200  0.409400  0.471220  1.0  -0.6694
  O  O213  1  0.954800  0.110400  0.855530  1.0  -0.6468
  O  O214  1  0.068700  0.214200  0.859130  1.0  -0.6614
  O  O215  1  0.360100  0.483100  0.641920  1.0  -0.6881
  O  O216  1  0.404500  0.607500  0.576460  1.0  -0.6709
  O  O217  1  0.131300  0.864900  0.524110  1.0  -0.7459
  O  O218  1  0.981200  0.873400  0.577540  1.0  -0.7187
  O  O219  1  0.740100  0.340700  0.853080  1.0  -0.4875
  O  O220  1  0.674300  0.492000  0.858470  1.0  -0.7434
  O  O221  1  0.110900  0.016400  0.922430  1.0  -0.6978
  O  O222  1  0.124100  0.872700  0.978480  1.0  -0.8062
  O  O223  1  0.495900  0.648900  0.861670  1.0  -0.6891
  O  O224  1  0.387600  0.612800  0.933190  1.0  -0.684
  O  O225  1  0.509500  0.305800  0.636820  1.0  -0.6898
  O  O226  1  0.556100  0.185600  0.597000  1.0  -0.5125
  O  O227  1  0.402400  0.428000  0.045200  1.0  -0.7661
  O  O228  1  0.388700  0.393000  0.974420  1.0  -0.7014
  O  O229  1  0.098800  0.032100  0.032810  1.0  -0.8067
  O  O230  1  0.106200  0.173300  0.974640  1.0  -0.6732
  O  O231  1  0.221700  0.064600  0.364840  1.0  -0.6334
  O  O232  1  0.087000  0.982400  0.361630  1.0  -0.6496
