# generated using pymatgen
data_Tb3Eu5H56(C5O2)24
_symmetry_space_group_name_H-M   'P 1'
_cell_length_a   13.02900000
_cell_length_b   13.82800000
_cell_length_c   28.02100000
_cell_angle_alpha   75.72000000
_cell_angle_beta   79.23000000
_cell_angle_gamma   85.59000000
_symmetry_Int_Tables_number   1
_chemical_formula_structural   Tb3Eu5H56(C5O2)24
_chemical_formula_sum   'Tb3 Eu5 H56 C120 O48'
_cell_volume   4803.72293580
_cell_formula_units_Z   1
loop_
 _symmetry_equiv_pos_site_id
 _symmetry_equiv_pos_as_xyz
  1  'x, y, z'
loop_
 _atom_site_type_symbol
 _atom_site_label
 _atom_site_symmetry_multiplicity
 _atom_site_fract_x
 _atom_site_fract_y
 _atom_site_fract_z
 _atom_site_occupancy
 _atom_site_charge
  Tb  Tb1  1  0.969210  0.124770  0.939550  1.0  2.2549
  Tb  Tb2  1  0.119870  0.978710  0.445970  1.0  2.2545
  Tb  Tb3  1  0.528470  0.462400  0.585020  1.0  2.1177
  Eu  Eu4  1  0.516870  0.480810  0.914150  1.0  2.0575
  Eu  Eu5  1  0.030790  0.875230  0.060440  1.0  2.155
  Eu  Eu6  1  0.880130  0.021290  0.554030  1.0  2.1473
  Eu  Eu7  1  0.471530  0.537600  0.414980  1.0  2.0429
  Eu  Eu8  1  0.483130  0.519190  0.085850  1.0  2.0579
  H  H9  1  0.723900  0.745000  0.515000  1.0  0.1074
  H  H10  1  0.725900  0.667000  0.386500  1.0  0.1109
  H  H11  1  0.917900  0.878600  0.390900  1.0  0.0982
  H  H12  1  0.002700  0.852500  0.321000  1.0  0.1104
  H  H13  1  0.058300  0.874800  0.235300  1.0  0.0972
  H  H14  1  0.808600  0.738600  0.225200  1.0  0.1095
  H  H15  1  0.752300  0.717100  0.310200  1.0  0.113
  H  H16  1  0.749700  0.271300  0.437200  1.0  0.1111
  H  H17  1  0.026200  0.261400  0.346100  1.0  0.0966
  H  H18  1  0.815300  0.480500  0.309700  1.0  0.1023
  H  H19  1  0.968000  0.568200  0.275900  1.0  0.0871
  H  H20  1  0.095300  0.644400  0.212300  1.0  0.0996
  H  H21  1  0.206800  0.375600  0.194100  1.0  0.0834
  H  H22  1  0.078600  0.300100  0.259000  1.0  0.098
  H  H23  1  0.738700  0.239600  0.057500  1.0  0.1089
  H  H24  1  0.545200  0.182900  0.189200  1.0  0.0969
  H  H25  1  0.758100  0.975200  0.154200  1.0  0.0995
  H  H26  1  0.624300  0.872300  0.201000  1.0  0.1178
  H  H27  1  0.558900  0.760200  0.274900  1.0  0.1063
  H  H28  1  0.495700  0.982900  0.344300  1.0  0.1031
  H  H29  1  0.560400  0.095500  0.270800  1.0  0.1123
  H  H30  1  0.745600  0.729600  0.013700  1.0  0.1078
  H  H31  1  0.863400  0.925000  0.887900  1.0  0.1019
  H  H32  1  0.678800  0.710500  0.881500  1.0  0.0996
  H  H33  1  0.650500  0.823000  0.810200  1.0  0.104
  H  H34  1  0.674300  0.878800  0.724500  1.0  0.105
  H  H35  1  0.963200  0.956500  0.723800  1.0  0.0989
  H  H36  1  0.936600  0.907900  0.810300  1.0  0.1103
  H  H37  1  0.276100  0.255000  0.485000  1.0  0.1076
  H  H38  1  0.274100  0.333000  0.613500  1.0  0.111
  H  H39  1  0.082100  0.121400  0.609100  1.0  0.0994
  H  H40  1  0.997300  0.147500  0.679000  1.0  0.1106
  H  H41  1  0.941700  0.125200  0.764700  1.0  0.0973
  H  H42  1  0.191400  0.261400  0.774800  1.0  0.1095
  H  H43  1  0.247700  0.282900  0.689800  1.0  0.1138
  H  H44  1  0.250300  0.728700  0.562800  1.0  0.111
  H  H45  1  0.973800  0.738600  0.653900  1.0  0.0952
  H  H46  1  0.184700  0.519500  0.690300  1.0  0.1026
  H  H47  1  0.032000  0.431800  0.724100  1.0  0.0876
  H  H48  1  0.904700  0.355600  0.787700  1.0  0.0991
  H  H49  1  0.793200  0.624400  0.805900  1.0  0.0832
  H  H50  1  0.921400  0.699900  0.741000  1.0  0.0974
  H  H51  1  0.261300  0.760400  0.942500  1.0  0.1088
  H  H52  1  0.454800  0.817100  0.810800  1.0  0.0968
  H  H53  1  0.241900  0.024800  0.845800  1.0  0.0995
  H  H54  1  0.375700  0.127700  0.799000  1.0  0.1164
  H  H55  1  0.441100  0.239800  0.725100  1.0  0.1063
  H  H56  1  0.504300  0.017100  0.655700  1.0  0.103
  H  H57  1  0.439600  0.904500  0.729200  1.0  0.1124
  H  H58  1  0.254400  0.270400  0.986300  1.0  0.1071
  H  H59  1  0.136600  0.075000  0.112100  1.0  0.1024
  H  H60  1  0.321200  0.289500  0.118500  1.0  0.0986
  H  H61  1  0.349500  0.177000  0.189800  1.0  0.1038
  H  H62  1  0.325700  0.121200  0.275500  1.0  0.105
  H  H63  1  0.036800  0.043500  0.276200  1.0  0.1
  H  H64  1  0.063400  0.092100  0.189700  1.0  0.1114
  C  C65  1  0.825200  0.823500  0.457300  1.0  -0.1462
  C  C66  1  0.750500  0.752400  0.481100  1.0  0.03
  C  C67  1  0.715700  0.692900  0.455000  1.0  -0.1379
  C  C68  1  0.752000  0.705300  0.404300  1.0  -0.0481
  C  C69  1  0.828900  0.776200  0.379300  1.0  -0.0101
  C  C70  1  0.865700  0.833300  0.406600  1.0  -0.0677
  C  C71  1  0.867100  0.788200  0.324000  1.0  0.0027
  C  C72  1  0.961600  0.831900  0.301800  1.0  -0.1459
  C  C73  1  0.994900  0.844800  0.250200  1.0  -0.0494
  C  C74  1  0.936300  0.814300  0.221200  1.0  -0.1509
  C  C75  1  0.846800  0.764100  0.244000  1.0  -0.0705
  C  C76  1  0.813100  0.751400  0.295200  1.0  -0.1217
  C  C77  1  0.859300  0.888700  0.486700  1.0  0.7455
  C  C78  1  0.639900  0.612100  0.481700  1.0  0.7333
  C  C79  1  0.972800  0.830400  0.165300  1.0  0.6706
  C  C80  1  0.766200  0.382700  0.374900  1.0  -0.1536
  C  C81  1  0.795400  0.298100  0.408000  1.0  0.0258
  C  C82  1  0.894400  0.252600  0.397500  1.0  -0.1448
  C  C83  1  0.961300  0.292700  0.353400  1.0  -0.0284
  C  C84  1  0.933400  0.379000  0.319600  1.0  -0.0047
  C  C85  1  0.835300  0.422800  0.331400  1.0  -0.0742
  C  C86  1  0.010900  0.426200  0.275200  1.0  0.0032
  C  C87  1  0.017000  0.528800  0.259900  1.0  -0.1255
  C  C88  1  0.093400  0.575100  0.221500  1.0  -0.1068
  C  C89  1  0.167700  0.517700  0.196600  1.0  -0.1437
  C  C90  1  0.159700  0.415200  0.210800  1.0  -0.0373
  C  C91  1  0.082000  0.369400  0.250000  1.0  -0.1169
  C  C92  1  0.660700  0.432500  0.385900  1.0  0.6705
  C  C93  1  0.929800  0.163700  0.434800  1.0  0.7818
  C  C94  1  0.256400  0.564700  0.158600  1.0  0.6499
  C  C95  1  0.762500  0.102600  0.100100  1.0  -0.1551
  C  C96  1  0.715200  0.196300  0.088100  1.0  0.0369
  C  C97  1  0.633100  0.226900  0.121100  1.0  -0.1622
  C  C98  1  0.599100  0.162200  0.166700  1.0  -0.0436
  C  C99  1  0.643600  0.066900  0.179600  1.0  0.0164
  C  C100  1  0.726600  0.038300  0.145900  1.0  -0.0789
  C  C101  1  0.601700  0.995500  0.227700  1.0  0.0335
  C  C102  1  0.599200  0.895400  0.229700  1.0  -0.1287
  C  C103  1  0.559200  0.827800  0.274200  1.0  -0.0431
  C  C104  1  0.520300  0.860400  0.317100  1.0  -0.1323
  C  C105  1  0.521500  0.960200  0.315600  1.0  -0.0565
  C  C106  1  0.561000  0.027900  0.271400  1.0  -0.1192
  C  C107  1  0.849200  0.068400  0.063700  1.0  0.7744
  C  C108  1  0.580800  0.327600  0.107700  1.0  0.6743
  C  C109  1  0.481100  0.784300  0.365000  1.0  0.6968
  C  C110  1  0.698500  0.707900  0.952300  1.0  -0.1602
  C  C111  1  0.751800  0.753500  0.979200  1.0  0.0221
  C  C112  1  0.814400  0.834900  0.954800  1.0  -0.13
  C  C113  1  0.823700  0.869300  0.903900  1.0  -0.0753
  C  C114  1  0.775600  0.823500  0.875500  1.0  0.0226
  C  C115  1  0.712000  0.741900  0.899900  1.0  -0.0675
  C  C116  1  0.790300  0.859000  0.819900  1.0  0.0594
  C  C117  1  0.713500  0.851000  0.793100  1.0  -0.1085
  C  C118  1  0.727800  0.883600  0.741500  1.0  -0.059
  C  C119  1  0.822100  0.923400  0.715300  1.0  -0.1662
  C  C120  1  0.899300  0.930800  0.741200  1.0  -0.05
  C  C121  1  0.883900  0.900400  0.793300  1.0  -0.1354
  C  C122  1  0.630400  0.623300  0.979000  1.0  0.7651
  C  C123  1  0.872700  0.880300  0.984900  1.0  0.7791
  C  C124  1  0.839400  0.961600  0.659100  1.0  0.7077
  C  C125  1  0.174800  0.176500  0.542700  1.0  -0.1465
  C  C126  1  0.249500  0.247600  0.518900  1.0  0.0307
  C  C127  1  0.284300  0.307100  0.545000  1.0  -0.1381
  C  C128  1  0.248000  0.294700  0.595700  1.0  -0.0475
  C  C129  1  0.171100  0.223800  0.620700  1.0  -0.0108
  C  C130  1  0.134300  0.166700  0.593400  1.0  -0.068
  C  C131  1  0.132900  0.211800  0.676000  1.0  0.0016
  C  C132  1  0.038400  0.168100  0.698200  1.0  -0.1444
  C  C133  1  0.005100  0.155200  0.749800  1.0  -0.0473
  C  C134  1  0.063700  0.185700  0.778800  1.0  -0.1515
  C  C135  1  0.153200  0.235900  0.756000  1.0  -0.0703
  C  C136  1  0.186900  0.248600  0.704800  1.0  -0.1227
  C  C137  1  0.140700  0.111300  0.513300  1.0  0.7478
  C  C138  1  0.360100  0.387900  0.518300  1.0  0.7329
  C  C139  1  0.027200  0.169600  0.834700  1.0  0.6691
  C  C140  1  0.233800  0.617300  0.625100  1.0  -0.1542
  C  C141  1  0.204600  0.701900  0.592000  1.0  0.0261
  C  C142  1  0.105600  0.747400  0.602500  1.0  -0.144
  C  C143  1  0.038700  0.707300  0.646600  1.0  -0.0293
  C  C144  1  0.066600  0.621000  0.680400  1.0  -0.0057
  C  C145  1  0.164700  0.577200  0.668600  1.0  -0.0721
  C  C146  1  0.989100  0.573800  0.724800  1.0  0.003
  C  C147  1  0.983000  0.471200  0.740100  1.0  -0.1267
  C  C148  1  0.906600  0.424900  0.778500  1.0  -0.1051
  C  C149  1  0.832300  0.482300  0.803400  1.0  -0.1454
  C  C150  1  0.840300  0.584800  0.789200  1.0  -0.0374
  C  C151  1  0.918000  0.630600  0.750000  1.0  -0.1174
  C  C152  1  0.339300  0.567500  0.614100  1.0  0.6713
  C  C153  1  0.070200  0.836300  0.565200  1.0  0.7832
  C  C154  1  0.743600  0.435300  0.841400  1.0  0.6499
  C  C155  1  0.237500  0.897400  0.899900  1.0  -0.1553
  C  C156  1  0.284800  0.803700  0.911900  1.0  0.0374
  C  C157  1  0.366900  0.773100  0.878900  1.0  -0.1631
  C  C158  1  0.400900  0.837800  0.833300  1.0  -0.0426
  C  C159  1  0.356400  0.933100  0.820400  1.0  0.0163
  C  C160  1  0.273400  0.961700  0.854100  1.0  -0.0803
  C  C161  1  0.398300  0.004500  0.772300  1.0  0.0328
  C  C162  1  0.400800  0.104600  0.770300  1.0  -0.1288
  C  C163  1  0.440800  0.172200  0.725800  1.0  -0.0424
  C  C164  1  0.479700  0.139600  0.682900  1.0  -0.1343
  C  C165  1  0.478500  0.039800  0.684400  1.0  -0.0565
  C  C166  1  0.439000  0.972100  0.728600  1.0  -0.118
  C  C167  1  0.150800  0.931600  0.936300  1.0  0.7727
  C  C168  1  0.419200  0.672400  0.892300  1.0  0.675
  C  C169  1  0.518900  0.215700  0.635000  1.0  0.6966
  C  C170  1  0.301500  0.292100  0.047700  1.0  -0.1597
  C  C171  1  0.248200  0.246500  0.020800  1.0  0.0194
  C  C172  1  0.185600  0.165100  0.045200  1.0  -0.1314
  C  C173  1  0.176300  0.130700  0.096100  1.0  -0.0758
  C  C174  1  0.224400  0.176500  0.124500  1.0  0.0213
  C  C175  1  0.288000  0.258100  0.100100  1.0  -0.067
  C  C176  1  0.209700  0.141000  0.180100  1.0  0.0596
  C  C177  1  0.286500  0.149000  0.206900  1.0  -0.1087
  C  C178  1  0.272200  0.116400  0.258500  1.0  -0.0603
  C  C179  1  0.177900  0.076600  0.284700  1.0  -0.1674
  C  C180  1  0.100700  0.069200  0.258800  1.0  -0.0471
  C  C181  1  0.116100  0.099600  0.206700  1.0  -0.1352
  C  C182  1  0.369600  0.376700  0.021000  1.0  0.7633
  C  C183  1  0.127300  0.119700  0.015100  1.0  0.7791
  C  C184  1  0.160600  0.038400  0.340900  1.0  0.7071
  O  O185  1  0.945800  0.931900  0.472030  1.0  -0.8403
  O  O186  1  0.799000  0.899600  0.526060  1.0  -0.645
  O  O187  1  0.600400  0.568000  0.456290  1.0  -0.7226
  O  O188  1  0.623700  0.590700  0.528740  1.0  -0.6652
  O  O189  1  0.045500  0.889300  0.144450  1.0  -0.6678
  O  O190  1  0.931600  0.786000  0.140630  1.0  -0.6333
  O  O191  1  0.639300  0.516300  0.357910  1.0  -0.6943
  O  O192  1  0.595400  0.392100  0.423190  1.0  -0.6595
  O  O193  1  0.869000  0.134500  0.476040  1.0  -0.7578
  O  O194  1  0.018900  0.126600  0.422230  1.0  -0.7241
  O  O195  1  0.260900  0.658700  0.146990  1.0  -0.5056
  O  O196  1  0.325300  0.508000  0.141240  1.0  -0.7279
  O  O197  1  0.889300  0.983300  0.077750  1.0  -0.7142
  O  O198  1  0.876100  0.127700  0.021610  1.0  -0.7928
  O  O199  1  0.504100  0.351500  0.138670  1.0  -0.6546
  O  O200  1  0.612500  0.386800  0.067020  1.0  -0.6327
  O  O201  1  0.490400  0.694200  0.363180  1.0  -0.7573
  O  O202  1  0.444000  0.814500  0.403300  1.0  -0.5316
  O  O203  1  0.597000  0.572500  0.954540  1.0  -0.7717
  O  O204  1  0.611000  0.606800  0.025510  1.0  -0.7017
  O  O205  1  0.901200  0.968400  0.966930  1.0  -0.7956
  O  O206  1  0.893600  0.827100  0.025330  1.0  -0.669
  O  O207  1  0.778400  0.936200  0.635360  1.0  -0.63
  O  O208  1  0.913500  0.017900  0.637960  1.0  -0.6668
  O  O209  1  0.054200  0.068100  0.527970  1.0  -0.8432
  O  O210  1  0.201000  0.100400  0.473940  1.0  -0.6475
  O  O211  1  0.399600  0.432000  0.543710  1.0  -0.7497
  O  O212  1  0.376300  0.409300  0.471260  1.0  -0.6681
  O  O213  1  0.954500  0.110700  0.855550  1.0  -0.6657
  O  O214  1  0.068400  0.214000  0.859370  1.0  -0.6352
  O  O215  1  0.360700  0.483700  0.642090  1.0  -0.6977
  O  O216  1  0.404600  0.607900  0.576810  1.0  -0.6614
  O  O217  1  0.131000  0.865500  0.523960  1.0  -0.7559
  O  O218  1  0.981100  0.873400  0.577770  1.0  -0.7247
  O  O219  1  0.739100  0.341300  0.853010  1.0  -0.5088
  O  O220  1  0.674700  0.492000  0.858760  1.0  -0.7283
  O  O221  1  0.110700  0.016700  0.922250  1.0  -0.7127
  O  O222  1  0.123900  0.872300  0.978390  1.0  -0.7915
  O  O223  1  0.495900  0.648500  0.861330  1.0  -0.6563
  O  O224  1  0.387500  0.613200  0.932980  1.0  -0.6317
  O  O225  1  0.509600  0.305800  0.636820  1.0  -0.7556
  O  O226  1  0.556000  0.185500  0.596700  1.0  -0.5297
  O  O227  1  0.403000  0.427500  0.045460  1.0  -0.7739
  O  O228  1  0.389000  0.393200  0.974490  1.0  -0.7002
  O  O229  1  0.098800  0.031600  0.033070  1.0  -0.7944
  O  O230  1  0.106400  0.172900  0.974670  1.0  -0.6705
  O  O231  1  0.221600  0.063800  0.364640  1.0  -0.6337
  O  O232  1  0.086500  0.982100  0.362040  1.0  -0.6671
