# generated using pymatgen
data_TbEu7H56(C5O2)24
_symmetry_space_group_name_H-M   'P 1'
_cell_length_a   13.01300000
_cell_length_b   13.84600000
_cell_length_c   28.02900000
_cell_angle_alpha   75.71000000
_cell_angle_beta   79.28000000
_cell_angle_gamma   85.59000000
_symmetry_Int_Tables_number   1
_chemical_formula_structural   TbEu7H56(C5O2)24
_chemical_formula_sum   'Tb1 Eu7 H56 C120 O48'
_cell_volume   4805.99411704
_cell_formula_units_Z   1
loop_
 _symmetry_equiv_pos_site_id
 _symmetry_equiv_pos_as_xyz
  1  'x, y, z'
loop_
 _atom_site_type_symbol
 _atom_site_label
 _atom_site_symmetry_multiplicity
 _atom_site_fract_x
 _atom_site_fract_y
 _atom_site_fract_z
 _atom_site_occupancy
 _atom_site_charge
  Tb  Tb1  1  0.119550  0.978870  0.445870  1.0  2.2563
  Eu  Eu2  1  0.471580  0.538080  0.415130  1.0  2.0392
  Eu  Eu3  1  0.030640  0.875340  0.060600  1.0  2.1578
  Eu  Eu4  1  0.517210  0.480920  0.914100  1.0  2.0633
  Eu  Eu5  1  0.880450  0.021130  0.554130  1.0  2.1496
  Eu  Eu6  1  0.528420  0.461920  0.584870  1.0  2.0415
  Eu  Eu7  1  0.969360  0.124660  0.939400  1.0  2.157
  Eu  Eu8  1  0.482790  0.519080  0.085900  1.0  2.0632
  H  H9  1  0.725200  0.744300  0.515700  1.0  0.1144
  H  H10  1  0.727900  0.666100  0.386900  1.0  0.1102
  H  H11  1  0.916700  0.879300  0.391500  1.0  0.1001
  H  H12  1  0.003100  0.853400  0.320700  1.0  0.1107
  H  H13  1  0.059200  0.872900  0.235900  1.0  0.0983
  H  H14  1  0.808700  0.738300  0.225800  1.0  0.1102
  H  H15  1  0.753600  0.716300  0.310500  1.0  0.1154
  H  H16  1  0.750400  0.274000  0.437800  1.0  0.1152
  H  H17  1  0.025700  0.262400  0.346500  1.0  0.0985
  H  H18  1  0.816100  0.480700  0.309300  1.0  0.1054
  H  H19  1  0.967900  0.569500  0.275800  1.0  0.0981
  H  H20  1  0.096300  0.644700  0.212000  1.0  0.1115
  H  H21  1  0.207100  0.376600  0.194600  1.0  0.0917
  H  H22  1  0.078000  0.301600  0.258600  1.0  0.0951
  H  H23  1  0.738200  0.240600  0.057300  1.0  0.1177
  H  H24  1  0.541700  0.181300  0.187900  1.0  0.1013
  H  H25  1  0.759100  0.975600  0.154100  1.0  0.1036
  H  H26  1  0.624000  0.872600  0.201100  1.0  0.1135
  H  H27  1  0.558800  0.760900  0.274500  1.0  0.1062
  H  H28  1  0.492700  0.982900  0.343800  1.0  0.109
  H  H29  1  0.562700  0.094200  0.270400  1.0  0.1161
  H  H30  1  0.747200  0.728300  0.013700  1.0  0.1115
  H  H31  1  0.862900  0.925100  0.888200  1.0  0.1031
  H  H32  1  0.680300  0.710300  0.881500  1.0  0.1023
  H  H33  1  0.650200  0.823800  0.810500  1.0  0.1026
  H  H34  1  0.676100  0.875700  0.724800  1.0  0.0978
  H  H35  1  0.963500  0.957900  0.724100  1.0  0.1027
  H  H36  1  0.938500  0.904400  0.810000  1.0  0.1088
  H  H37  1  0.274800  0.255700  0.484300  1.0  0.1146
  H  H38  1  0.272100  0.333900  0.613100  1.0  0.1097
  H  H39  1  0.083300  0.120700  0.608500  1.0  0.1004
  H  H40  1  0.996900  0.146600  0.679300  1.0  0.1108
  H  H41  1  0.940800  0.127100  0.764100  1.0  0.0982
  H  H42  1  0.191300  0.261700  0.774200  1.0  0.11
  H  H43  1  0.246400  0.283700  0.689500  1.0  0.1162
  H  H44  1  0.249600  0.726000  0.562200  1.0  0.115
  H  H45  1  0.974300  0.737600  0.653500  1.0  0.097
  H  H46  1  0.183900  0.519300  0.690700  1.0  0.106
  H  H47  1  0.032100  0.430500  0.724200  1.0  0.0986
  H  H48  1  0.903700  0.355300  0.788000  1.0  0.1107
  H  H49  1  0.792900  0.623400  0.805400  1.0  0.0912
  H  H50  1  0.922000  0.698400  0.741400  1.0  0.0948
  H  H51  1  0.261800  0.759400  0.942700  1.0  0.1175
  H  H52  1  0.458300  0.818700  0.812100  1.0  0.1006
  H  H53  1  0.240900  0.024400  0.845900  1.0  0.1039
  H  H54  1  0.376000  0.127400  0.798900  1.0  0.1124
  H  H55  1  0.441200  0.239100  0.725500  1.0  0.106
  H  H56  1  0.507300  0.017100  0.656200  1.0  0.1087
  H  H57  1  0.437300  0.905800  0.729600  1.0  0.1166
  H  H58  1  0.252800  0.271700  0.986300  1.0  0.111
  H  H59  1  0.137100  0.074900  0.111800  1.0  0.1034
  H  H60  1  0.319700  0.289700  0.118500  1.0  0.1013
  H  H61  1  0.349800  0.176200  0.189500  1.0  0.1027
  H  H62  1  0.323900  0.124300  0.275200  1.0  0.0981
  H  H63  1  0.036500  0.042100  0.275900  1.0  0.1036
  H  H64  1  0.061500  0.095600  0.190000  1.0  0.1093
  C  C65  1  0.824500  0.822800  0.457600  1.0  -0.1328
  C  C66  1  0.750800  0.752200  0.481700  1.0  0.034
  C  C67  1  0.714800  0.693100  0.455300  1.0  -0.148
  C  C68  1  0.753000  0.705200  0.404600  1.0  -0.0596
  C  C69  1  0.829400  0.776400  0.379300  1.0  0.0216
  C  C70  1  0.865100  0.833400  0.406900  1.0  -0.0575
  C  C71  1  0.867200  0.788400  0.324400  1.0  0.045
  C  C72  1  0.962000  0.832100  0.301700  1.0  -0.159
  C  C73  1  0.995300  0.844000  0.250600  1.0  -0.0689
  C  C74  1  0.936700  0.814500  0.221300  1.0  -0.1745
  C  C75  1  0.847100  0.764000  0.244500  1.0  -0.0868
  C  C76  1  0.814000  0.751200  0.295400  1.0  -0.129
  C  C77  1  0.859200  0.888300  0.486700  1.0  0.726
  C  C78  1  0.639500  0.611800  0.482300  1.0  0.7464
  C  C79  1  0.973200  0.830900  0.165600  1.0  0.6869
  C  C80  1  0.766200  0.383800  0.374800  1.0  -0.1517
  C  C81  1  0.795600  0.299900  0.408200  1.0  0.0265
  C  C82  1  0.893900  0.253700  0.397400  1.0  -0.1621
  C  C83  1  0.960900  0.293800  0.353600  1.0  -0.0273
  C  C84  1  0.934100  0.379500  0.319900  1.0  -0.0241
  C  C85  1  0.835900  0.423300  0.331300  1.0  -0.0838
  C  C86  1  0.010300  0.427400  0.275900  1.0  0.0295
  C  C87  1  0.016800  0.529700  0.260000  1.0  -0.1119
  C  C88  1  0.093600  0.575500  0.221500  1.0  -0.0751
  C  C89  1  0.166500  0.516800  0.197200  1.0  -0.1431
  C  C90  1  0.159400  0.416000  0.211200  1.0  -0.0259
  C  C91  1  0.081800  0.370700  0.250000  1.0  -0.1302
  C  C92  1  0.660900  0.432800  0.385800  1.0  0.671
  C  C93  1  0.929500  0.164400  0.435400  1.0  0.7802
  C  C94  1  0.255700  0.565600  0.158800  1.0  0.6343
  C  C95  1  0.761000  0.103000  0.100200  1.0  -0.1424
  C  C96  1  0.714500  0.197200  0.087800  1.0  0.0382
  C  C97  1  0.632500  0.226500  0.121100  1.0  -0.1755
  C  C98  1  0.597400  0.161400  0.166000  1.0  -0.038
  C  C99  1  0.642700  0.067000  0.179400  1.0  0.0207
  C  C100  1  0.726600  0.038200  0.145700  1.0  -0.0731
  C  C101  1  0.600900  0.995500  0.227500  1.0  0.0323
  C  C102  1  0.598600  0.895700  0.229600  1.0  -0.1321
  C  C103  1  0.558900  0.828400  0.273900  1.0  -0.0225
  C  C104  1  0.520000  0.859800  0.316600  1.0  -0.1361
  C  C105  1  0.520000  0.959900  0.315300  1.0  -0.0673
  C  C106  1  0.561500  0.026900  0.270900  1.0  -0.1302
  C  C107  1  0.848200  0.068300  0.063600  1.0  0.7709
  C  C108  1  0.579700  0.327900  0.108000  1.0  0.6865
  C  C109  1  0.480400  0.784800  0.364900  1.0  0.6917
  C  C110  1  0.699500  0.708200  0.952200  1.0  -0.1569
  C  C111  1  0.752900  0.752900  0.979300  1.0  0.0345
  C  C112  1  0.814700  0.834400  0.955100  1.0  -0.1532
  C  C113  1  0.823600  0.869200  0.904100  1.0  -0.0511
  C  C114  1  0.775400  0.822900  0.875800  1.0  0.0054
  C  C115  1  0.713100  0.742000  0.899900  1.0  -0.062
  C  C116  1  0.791000  0.858300  0.820400  1.0  0.0643
  C  C117  1  0.713800  0.850800  0.793500  1.0  -0.1216
  C  C118  1  0.729000  0.882300  0.741900  1.0  -0.0501
  C  C119  1  0.822100  0.923500  0.715600  1.0  -0.1504
  C  C120  1  0.900000  0.931000  0.741400  1.0  -0.0594
  C  C121  1  0.884800  0.898800  0.793200  1.0  -0.1211
  C  C122  1  0.630800  0.623900  0.979200  1.0  0.7617
  C  C123  1  0.873100  0.880000  0.985100  1.0  0.7805
  C  C124  1  0.839200  0.961400  0.659600  1.0  0.7245
  C  C125  1  0.175500  0.177200  0.542400  1.0  -0.133
  C  C126  1  0.249200  0.247800  0.518300  1.0  0.0352
  C  C127  1  0.285200  0.306900  0.544700  1.0  -0.1473
  C  C128  1  0.247000  0.294800  0.595400  1.0  -0.0595
  C  C129  1  0.170600  0.223600  0.620700  1.0  0.0207
  C  C130  1  0.134900  0.166600  0.593100  1.0  -0.057
  C  C131  1  0.132800  0.211600  0.675600  1.0  0.0444
  C  C132  1  0.038000  0.167900  0.698300  1.0  -0.1585
  C  C133  1  0.004700  0.156000  0.749400  1.0  -0.0656
  C  C134  1  0.063300  0.185500  0.778700  1.0  -0.1753
  C  C135  1  0.152900  0.236000  0.755500  1.0  -0.087
  C  C136  1  0.186000  0.248800  0.704600  1.0  -0.1305
  C  C137  1  0.140800  0.111700  0.513300  1.0  0.7287
  C  C138  1  0.360500  0.388200  0.517700  1.0  0.7469
  C  C139  1  0.026800  0.169100  0.834400  1.0  0.6859
  C  C140  1  0.233800  0.616200  0.625200  1.0  -0.1521
  C  C141  1  0.204400  0.700100  0.591800  1.0  0.027
  C  C142  1  0.106100  0.746300  0.602600  1.0  -0.162
  C  C143  1  0.039100  0.706200  0.646400  1.0  -0.0276
  C  C144  1  0.065900  0.620500  0.680100  1.0  -0.0249
  C  C145  1  0.164100  0.576700  0.668700  1.0  -0.0829
  C  C146  1  0.989700  0.572600  0.724100  1.0  0.0296
  C  C147  1  0.983200  0.470300  0.740000  1.0  -0.113
  C  C148  1  0.906400  0.424500  0.778500  1.0  -0.0742
  C  C149  1  0.833500  0.483200  0.802800  1.0  -0.1434
  C  C150  1  0.840600  0.584000  0.788800  1.0  -0.0253
  C  C151  1  0.918200  0.629300  0.750000  1.0  -0.1309
  C  C152  1  0.339100  0.567200  0.614200  1.0  0.6707
  C  C153  1  0.070500  0.835600  0.564600  1.0  0.7825
  C  C154  1  0.744300  0.434400  0.841200  1.0  0.6343
  C  C155  1  0.239000  0.897000  0.899800  1.0  -0.1422
  C  C156  1  0.285500  0.802800  0.912200  1.0  0.0385
  C  C157  1  0.367500  0.773500  0.878900  1.0  -0.1765
  C  C158  1  0.402600  0.838600  0.834000  1.0  -0.0379
  C  C159  1  0.357300  0.933000  0.820600  1.0  0.0203
  C  C160  1  0.273400  0.961800  0.854300  1.0  -0.0734
  C  C161  1  0.399100  0.004500  0.772500  1.0  0.0319
  C  C162  1  0.401400  0.104300  0.770400  1.0  -0.1325
  C  C163  1  0.441100  0.171600  0.726100  1.0  -0.0218
  C  C164  1  0.480000  0.140200  0.683400  1.0  -0.1361
  C  C165  1  0.480000  0.040100  0.684700  1.0  -0.0659
  C  C166  1  0.438500  0.973100  0.729100  1.0  -0.1323
  C  C167  1  0.151800  0.931700  0.936400  1.0  0.7697
  C  C168  1  0.420300  0.672100  0.892000  1.0  0.6871
  C  C169  1  0.519600  0.215200  0.635100  1.0  0.6923
  C  C170  1  0.300500  0.291800  0.047800  1.0  -0.1562
  C  C171  1  0.247100  0.247100  0.020700  1.0  0.0327
  C  C172  1  0.185300  0.165600  0.044900  1.0  -0.1537
  C  C173  1  0.176400  0.130800  0.095900  1.0  -0.052
  C  C174  1  0.224600  0.177100  0.124200  1.0  0.0043
  C  C175  1  0.286900  0.258000  0.100100  1.0  -0.0611
  C  C176  1  0.209000  0.141700  0.179600  1.0  0.0641
  C  C177  1  0.286200  0.149200  0.206500  1.0  -0.122
  C  C178  1  0.271000  0.117700  0.258100  1.0  -0.0513
  C  C179  1  0.177900  0.076500  0.284400  1.0  -0.1508
  C  C180  1  0.100000  0.069000  0.258600  1.0  -0.0563
  C  C181  1  0.115200  0.101200  0.206800  1.0  -0.1208
  C  C182  1  0.369200  0.376100  0.020800  1.0  0.7605
  C  C183  1  0.126900  0.120000  0.014900  1.0  0.7804
  C  C184  1  0.160800  0.038600  0.340400  1.0  0.7241
  O  O185  1  0.944700  0.932100  0.472400  1.0  -0.8294
  O  O186  1  0.798900  0.898900  0.526150  1.0  -0.6396
  O  O187  1  0.600000  0.567100  0.456820  1.0  -0.7482
  O  O188  1  0.624600  0.590600  0.528980  1.0  -0.6507
  O  O189  1  0.044700  0.888900  0.144830  1.0  -0.6267
  O  O190  1  0.930500  0.785900  0.141010  1.0  -0.6521
  O  O191  1  0.639800  0.517000  0.358100  1.0  -0.6929
  O  O192  1  0.595700  0.391900  0.423490  1.0  -0.6677
  O  O193  1  0.868800  0.135300  0.476130  1.0  -0.7486
  O  O194  1  0.018800  0.126900  0.422190  1.0  -0.7139
  O  O195  1  0.259400  0.659600  0.147200  1.0  -0.5147
  O  O196  1  0.324600  0.508200  0.141310  1.0  -0.7114
  O  O197  1  0.889200  0.984200  0.077530  1.0  -0.7142
  O  O198  1  0.876400  0.127500  0.021660  1.0  -0.8072
  O  O199  1  0.504000  0.350800  0.138240  1.0  -0.7018
  O  O200  1  0.612900  0.386700  0.066860  1.0  -0.6991
  O  O201  1  0.490800  0.694500  0.363140  1.0  -0.7601
  O  O202  1  0.443300  0.815000  0.403100  1.0  -0.522
  O  O203  1  0.598200  0.572000  0.955050  1.0  -0.764
  O  O204  1  0.611300  0.607100  0.025700  1.0  -0.7016
  O  O205  1  0.901600  0.967600  0.966990  1.0  -0.813
  O  O206  1  0.892600  0.826900  0.025650  1.0  -0.6586
  O  O207  1  0.779600  0.935500  0.635740  1.0  -0.6471
  O  O208  1  0.912900  0.017900  0.638640  1.0  -0.6598
  O  O209  1  0.055300  0.067900  0.527600  1.0  -0.8313
  O  O210  1  0.201100  0.101100  0.473850  1.0  -0.6412
  O  O211  1  0.400000  0.432900  0.543180  1.0  -0.7502
  O  O212  1  0.375400  0.409400  0.471020  1.0  -0.6559
  O  O213  1  0.955300  0.111100  0.855170  1.0  -0.6248
  O  O214  1  0.069500  0.214100  0.858990  1.0  -0.6542
  O  O215  1  0.360200  0.483000  0.641900  1.0  -0.6939
  O  O216  1  0.404300  0.608100  0.576510  1.0  -0.6702
  O  O217  1  0.131200  0.864700  0.523870  1.0  -0.7472
  O  O218  1  0.981200  0.873100  0.577810  1.0  -0.7144
  O  O219  1  0.740600  0.340400  0.852800  1.0  -0.5177
  O  O220  1  0.675400  0.491800  0.858690  1.0  -0.7115
  O  O221  1  0.110800  0.015800  0.922470  1.0  -0.7132
  O  O222  1  0.123600  0.872500  0.978340  1.0  -0.8035
  O  O223  1  0.496000  0.649200  0.861760  1.0  -0.7029
  O  O224  1  0.387100  0.613300  0.933140  1.0  -0.6972
  O  O225  1  0.509200  0.305500  0.636860  1.0  -0.7593
  O  O226  1  0.556700  0.185000  0.596900  1.0  -0.5185
  O  O227  1  0.401800  0.428000  0.044950  1.0  -0.7659
  O  O228  1  0.388700  0.392900  0.974300  1.0  -0.701
  O  O229  1  0.098400  0.032400  0.033010  1.0  -0.8118
  O  O230  1  0.107400  0.173100  0.974350  1.0  -0.6611
  O  O231  1  0.220400  0.064500  0.364260  1.0  -0.6507
  O  O232  1  0.087100  0.982100  0.361360  1.0  -0.6622
