# generated using pymatgen
data_TbEuH14(C5O2)6
_symmetry_space_group_name_H-M   'P 1'
_cell_length_a   12.95500000
_cell_length_b   13.81400000
_cell_length_c   27.96200000
_cell_angle_alpha   75.69000000
_cell_angle_beta   79.38000000
_cell_angle_gamma   85.69000000
_symmetry_Int_Tables_number   1
_chemical_formula_structural   TbEuH14(C5O2)6
_chemical_formula_sum   'Tb4 Eu4 H56 C120 O48'
_cell_volume   4763.46830704
_cell_formula_units_Z   4
loop_
 _symmetry_equiv_pos_site_id
 _symmetry_equiv_pos_as_xyz
  1  'x, y, z'
loop_
 _atom_site_type_symbol
 _atom_site_label
 _atom_site_symmetry_multiplicity
 _atom_site_fract_x
 _atom_site_fract_y
 _atom_site_fract_z
 _atom_site_occupancy
 _atom_site_charge
  Tb  Tb1  1  0.120090  0.978760  0.446160  1.0  2.257
  Tb  Tb2  1  0.528910  0.462450  0.585080  1.0  2.1226
  Tb  Tb3  1  0.969000  0.125070  0.939660  1.0  2.262
  Tb  Tb4  1  0.483740  0.519340  0.085800  1.0  2.1438
  Eu  Eu5  1  0.879910  0.021240  0.553840  1.0  2.148
  Eu  Eu6  1  0.471090  0.537550  0.414920  1.0  2.0471
  Eu  Eu7  1  0.031000  0.874930  0.060340  1.0  2.1572
  Eu  Eu8  1  0.516260  0.480660  0.914200  1.0  2.0705
  H  H9  1  0.723100  0.746500  0.514800  1.0  0.1116
  H  H10  1  0.726600  0.666400  0.386400  1.0  0.1078
  H  H11  1  0.918200  0.879600  0.390600  1.0  0.0982
  H  H12  1  0.005000  0.852100  0.320200  1.0  0.1063
  H  H13  1  0.059400  0.875000  0.234300  1.0  0.0978
  H  H14  1  0.809400  0.735600  0.225000  1.0  0.1202
  H  H15  1  0.752700  0.715700  0.309500  1.0  0.1148
  H  H16  1  0.750500  0.272400  0.437500  1.0  0.1081
  H  H17  1  0.026700  0.261800  0.346500  1.0  0.099
  H  H18  1  0.815600  0.480400  0.309100  1.0  0.0953
  H  H19  1  0.968300  0.569200  0.275800  1.0  0.098
  H  H20  1  0.096900  0.643500  0.211300  1.0  0.0912
  H  H21  1  0.207200  0.374700  0.193800  1.0  0.0868
  H  H22  1  0.079600  0.300300  0.259000  1.0  0.0931
  H  H23  1  0.738500  0.240700  0.057100  1.0  0.1117
  H  H24  1  0.544900  0.183000  0.189300  1.0  0.0991
  H  H25  1  0.757900  0.974500  0.154400  1.0  0.1001
  H  H26  1  0.625300  0.872600  0.201200  1.0  0.1142
  H  H27  1  0.558200  0.760300  0.274900  1.0  0.1061
  H  H28  1  0.496400  0.983700  0.343900  1.0  0.1003
  H  H29  1  0.562900  0.095400  0.271300  1.0  0.1169
  H  H30  1  0.745800  0.729300  0.013300  1.0  0.1084
  H  H31  1  0.861700  0.927000  0.887700  1.0  0.1007
  H  H32  1  0.679100  0.711100  0.881000  1.0  0.1023
  H  H33  1  0.649400  0.824600  0.809800  1.0  0.1013
  H  H34  1  0.673900  0.877600  0.724600  1.0  0.0995
  H  H35  1  0.963600  0.957500  0.723500  1.0  0.1012
  H  H36  1  0.936900  0.907300  0.809700  1.0  0.1098
  H  H37  1  0.276900  0.253500  0.485200  1.0  0.1108
  H  H38  1  0.273400  0.333600  0.613600  1.0  0.1074
  H  H39  1  0.081800  0.120400  0.609400  1.0  0.0988
  H  H40  1  0.995000  0.147900  0.679800  1.0  0.107
  H  H41  1  0.940600  0.125000  0.765700  1.0  0.0979
  H  H42  1  0.190600  0.264400  0.775000  1.0  0.1205
  H  H43  1  0.247300  0.284300  0.690500  1.0  0.1153
  H  H44  1  0.249500  0.727600  0.562500  1.0  0.1078
  H  H45  1  0.973300  0.738200  0.653500  1.0  0.0979
  H  H46  1  0.184400  0.519600  0.690900  1.0  0.0954
  H  H47  1  0.031700  0.430800  0.724200  1.0  0.0988
  H  H48  1  0.903100  0.356500  0.788700  1.0  0.0906
  H  H49  1  0.792800  0.625300  0.806200  1.0  0.0868
  H  H50  1  0.920400  0.699700  0.741000  1.0  0.093
  H  H51  1  0.261500  0.759300  0.942900  1.0  0.1117
  H  H52  1  0.455100  0.817000  0.810700  1.0  0.0988
  H  H53  1  0.242100  0.025500  0.845600  1.0  0.1004
  H  H54  1  0.374700  0.127400  0.798800  1.0  0.1143
  H  H55  1  0.441800  0.239700  0.725100  1.0  0.106
  H  H56  1  0.503600  0.016300  0.656100  1.0  0.1003
  H  H57  1  0.437100  0.904600  0.728700  1.0  0.1173
  H  H58  1  0.254200  0.270700  0.986700  1.0  0.108
  H  H59  1  0.138300  0.073000  0.112300  1.0  0.101
  H  H60  1  0.320900  0.288900  0.119000  1.0  0.1015
  H  H61  1  0.350600  0.175400  0.190200  1.0  0.1013
  H  H62  1  0.326100  0.122400  0.275400  1.0  0.0996
  H  H63  1  0.036400  0.042500  0.276500  1.0  0.1019
  H  H64  1  0.063100  0.092700  0.190300  1.0  0.1104
  C  C65  1  0.825600  0.823200  0.457000  1.0  -0.1478
  C  C66  1  0.750300  0.753000  0.481100  1.0  0.0322
  C  C67  1  0.715400  0.692100  0.454600  1.0  -0.1672
  C  C68  1  0.752400  0.705200  0.404200  1.0  -0.0523
  C  C69  1  0.829100  0.776700  0.378700  1.0  0.014
  C  C70  1  0.866000  0.833900  0.406200  1.0  -0.0624
  C  C71  1  0.866000  0.788300  0.324100  1.0  0.0053
  C  C72  1  0.962800  0.831900  0.301100  1.0  -0.1558
  C  C73  1  0.995800  0.844900  0.249300  1.0  -0.046
  C  C74  1  0.937100  0.814500  0.220600  1.0  -0.1544
  C  C75  1  0.847100  0.762500  0.243600  1.0  -0.115
  C  C76  1  0.813500  0.750700  0.294600  1.0  -0.1195
  C  C77  1  0.860700  0.888800  0.486100  1.0  0.7368
  C  C78  1  0.639500  0.611900  0.481500  1.0  0.7314
  C  C79  1  0.973700  0.830300  0.164900  1.0  0.6713
  C  C80  1  0.765000  0.383200  0.374200  1.0  -0.1556
  C  C81  1  0.795900  0.298300  0.407800  1.0  0.0111
  C  C82  1  0.893700  0.251600  0.397700  1.0  -0.1583
  C  C83  1  0.961200  0.292500  0.353600  1.0  -0.0455
  C  C84  1  0.932700  0.379000  0.319600  1.0  -0.0082
  C  C85  1  0.835100  0.422500  0.331100  1.0  -0.0908
  C  C86  1  0.010700  0.426100  0.275200  1.0  0.0336
  C  C87  1  0.016900  0.529300  0.259800  1.0  -0.1334
  C  C88  1  0.094500  0.574100  0.221000  1.0  -0.045
  C  C89  1  0.168100  0.516900  0.196700  1.0  -0.1498
  C  C90  1  0.160300  0.414400  0.210700  1.0  -0.0422
  C  C91  1  0.082800  0.369600  0.249800  1.0  -0.1158
  C  C92  1  0.659900  0.432700  0.385400  1.0  0.6709
  C  C93  1  0.930400  0.162400  0.435100  1.0  0.7566
  C  C94  1  0.256900  0.565300  0.158400  1.0  0.6429
  C  C95  1  0.762500  0.102500  0.100100  1.0  -0.1572
  C  C96  1  0.715100  0.197300  0.087800  1.0  0.0133
  C  C97  1  0.633600  0.226900  0.121000  1.0  -0.1491
  C  C98  1  0.599200  0.162300  0.166900  1.0  -0.0518
  C  C99  1  0.644300  0.067400  0.179900  1.0  0.009
  C  C100  1  0.726700  0.037900  0.146100  1.0  -0.0787
  C  C101  1  0.601400  0.996100  0.227800  1.0  0.067
  C  C102  1  0.599400  0.895700  0.229800  1.0  -0.133
  C  C103  1  0.559100  0.827900  0.274300  1.0  -0.0422
  C  C104  1  0.520500  0.860200  0.317600  1.0  -0.1261
  C  C105  1  0.522500  0.960600  0.315300  1.0  -0.0558
  C  C106  1  0.562200  0.028000  0.271700  1.0  -0.1357
  C  C107  1  0.849700  0.068400  0.063900  1.0  0.7737
  C  C108  1  0.581300  0.327800  0.108000  1.0  0.6684
  C  C109  1  0.480700  0.783800  0.365200  1.0  0.6874
  C  C110  1  0.699100  0.707800  0.951800  1.0  -0.1784
  C  C111  1  0.752000  0.753400  0.978800  1.0  0.028
  C  C112  1  0.814200  0.834900  0.954700  1.0  -0.1484
  C  C113  1  0.822900  0.870500  0.903600  1.0  -0.0637
  C  C114  1  0.774800  0.823600  0.875000  1.0  0.0158
  C  C115  1  0.712400  0.742700  0.899500  1.0  -0.0684
  C  C116  1  0.789500  0.858600  0.819400  1.0  0.0391
  C  C117  1  0.713200  0.851700  0.792700  1.0  -0.1177
  C  C118  1  0.727700  0.883400  0.741600  1.0  -0.0473
  C  C119  1  0.822000  0.924000  0.714800  1.0  -0.1473
  C  C120  1  0.899400  0.931300  0.740800  1.0  -0.0545
  C  C121  1  0.883800  0.900300  0.792600  1.0  -0.1333
  C  C122  1  0.630300  0.623000  0.978700  1.0  0.7617
  C  C123  1  0.873700  0.880900  0.984500  1.0  0.7737
  C  C124  1  0.839200  0.961500  0.658600  1.0  0.7151
  C  C125  1  0.174400  0.176800  0.543000  1.0  -0.1485
  C  C126  1  0.249700  0.247000  0.518900  1.0  0.0332
  C  C127  1  0.284600  0.307900  0.545400  1.0  -0.1669
  C  C128  1  0.247600  0.294800  0.595800  1.0  -0.0507
  C  C129  1  0.170900  0.223300  0.621300  1.0  0.0133
  C  C130  1  0.134000  0.166100  0.593800  1.0  -0.0616
  C  C131  1  0.134000  0.211700  0.675900  1.0  0.0044
  C  C132  1  0.037200  0.168100  0.698900  1.0  -0.1554
  C  C133  1  0.004200  0.155100  0.750700  1.0  -0.0439
  C  C134  1  0.062900  0.185500  0.779400  1.0  -0.1541
  C  C135  1  0.152900  0.237500  0.756400  1.0  -0.115
  C  C136  1  0.186500  0.249300  0.705400  1.0  -0.1205
  C  C137  1  0.139300  0.111200  0.513900  1.0  0.739
  C  C138  1  0.360500  0.388100  0.518500  1.0  0.7314
  C  C139  1  0.026300  0.169700  0.835100  1.0  0.6692
  C  C140  1  0.235000  0.616800  0.625800  1.0  -0.155
  C  C141  1  0.204100  0.701700  0.592200  1.0  0.0119
  C  C142  1  0.106300  0.748400  0.602300  1.0  -0.1581
  C  C143  1  0.038800  0.707500  0.646400  1.0  -0.0457
  C  C144  1  0.067300  0.621000  0.680400  1.0  -0.0089
  C  C145  1  0.164900  0.577500  0.668900  1.0  -0.0889
  C  C146  1  0.989300  0.573900  0.724800  1.0  0.0332
  C  C147  1  0.983100  0.470700  0.740200  1.0  -0.1338
  C  C148  1  0.905500  0.425900  0.779000  1.0  -0.0436
  C  C149  1  0.831900  0.483100  0.803300  1.0  -0.1509
  C  C150  1  0.839700  0.585600  0.789300  1.0  -0.0418
  C  C151  1  0.917200  0.630400  0.750200  1.0  -0.1164
  C  C152  1  0.340100  0.567300  0.614600  1.0  0.6702
  C  C153  1  0.069600  0.837600  0.564900  1.0  0.7578
  C  C154  1  0.743100  0.434700  0.841600  1.0  0.6423
  C  C155  1  0.237500  0.897500  0.899900  1.0  -0.1576
  C  C156  1  0.284900  0.802700  0.912200  1.0  0.0136
  C  C157  1  0.366400  0.773100  0.879000  1.0  -0.1499
  C  C158  1  0.400800  0.837700  0.833100  1.0  -0.0511
  C  C159  1  0.355700  0.932600  0.820100  1.0  0.0088
  C  C160  1  0.273300  0.962100  0.853900  1.0  -0.0787
  C  C161  1  0.398600  0.003900  0.772200  1.0  0.0669
  C  C162  1  0.400600  0.104300  0.770200  1.0  -0.1336
  C  C163  1  0.440900  0.172100  0.725700  1.0  -0.0405
  C  C164  1  0.479500  0.139800  0.682400  1.0  -0.126
  C  C165  1  0.477500  0.039400  0.684700  1.0  -0.0567
  C  C166  1  0.437800  0.972000  0.728300  1.0  -0.1363
  C  C167  1  0.150300  0.931600  0.936100  1.0  0.7735
  C  C168  1  0.418700  0.672200  0.892000  1.0  0.6684
  C  C169  1  0.519300  0.216200  0.634800  1.0  0.6858
  C  C170  1  0.300900  0.292200  0.048200  1.0  -0.1764
  C  C171  1  0.248000  0.246600  0.021200  1.0  0.0263
  C  C172  1  0.185800  0.165100  0.045300  1.0  -0.1481
  C  C173  1  0.177100  0.129500  0.096400  1.0  -0.0643
  C  C174  1  0.225200  0.176400  0.125000  1.0  0.015
  C  C175  1  0.287600  0.257300  0.100500  1.0  -0.0683
  C  C176  1  0.210500  0.141400  0.180600  1.0  0.039
  C  C177  1  0.286800  0.148300  0.207300  1.0  -0.1189
  C  C178  1  0.272300  0.116600  0.258400  1.0  -0.0475
  C  C179  1  0.178000  0.076000  0.285200  1.0  -0.1485
  C  C180  1  0.100600  0.068700  0.259200  1.0  -0.0516
  C  C181  1  0.116200  0.099700  0.207400  1.0  -0.1329
  C  C182  1  0.369700  0.377000  0.021300  1.0  0.7605
  C  C183  1  0.126300  0.119100  0.015500  1.0  0.7744
  C  C184  1  0.160800  0.038500  0.341400  1.0  0.7149
  O  O185  1  0.946800  0.931000  0.471670  1.0  -0.8119
  O  O186  1  0.799600  0.899700  0.525480  1.0  -0.6518
  O  O187  1  0.599300  0.567400  0.455880  1.0  -0.7182
  O  O188  1  0.623800  0.590100  0.528350  1.0  -0.6777
  O  O189  1  0.045700  0.888800  0.144070  1.0  -0.6469
  O  O190  1  0.931600  0.784800  0.140230  1.0  -0.6431
  O  O191  1  0.638300  0.516200  0.357750  1.0  -0.6847
  O  O192  1  0.594700  0.391600  0.423310  1.0  -0.6672
  O  O193  1  0.868200  0.134300  0.475820  1.0  -0.7609
  O  O194  1  0.019100  0.125800  0.422520  1.0  -0.7082
  O  O195  1  0.260400  0.659300  0.146740  1.0  -0.5128
  O  O196  1  0.326600  0.507700  0.141350  1.0  -0.6946
  O  O197  1  0.889600  0.982400  0.077750  1.0  -0.7229
  O  O198  1  0.876500  0.126900  0.021350  1.0  -0.7982
  O  O199  1  0.505600  0.352500  0.138610  1.0  -0.6525
  O  O200  1  0.613000  0.387400  0.066480  1.0  -0.69
  O  O201  1  0.489800  0.693600  0.363250  1.0  -0.751
  O  O202  1  0.444300  0.814300  0.403670  1.0  -0.5362
  O  O203  1  0.596800  0.572100  0.954250  1.0  -0.7699
  O  O204  1  0.611200  0.607200  0.025150  1.0  -0.6982
  O  O205  1  0.900600  0.969300  0.966440  1.0  -0.8016
  O  O206  1  0.894200  0.827300  0.024920  1.0  -0.6461
  O  O207  1  0.779000  0.934400  0.634880  1.0  -0.6301
  O  O208  1  0.912400  0.018500  0.637690  1.0  -0.6349
  O  O209  1  0.053200  0.069000  0.528330  1.0  -0.8125
  O  O210  1  0.200400  0.100300  0.474520  1.0  -0.6529
  O  O211  1  0.400700  0.432600  0.544120  1.0  -0.7209
  O  O212  1  0.376200  0.409900  0.471650  1.0  -0.6778
  O  O213  1  0.954300  0.111200  0.855930  1.0  -0.6454
  O  O214  1  0.068400  0.215200  0.859770  1.0  -0.6424
  O  O215  1  0.361700  0.483800  0.642250  1.0  -0.687
  O  O216  1  0.405300  0.608400  0.576690  1.0  -0.6686
  O  O217  1  0.131800  0.865700  0.524180  1.0  -0.7618
  O  O218  1  0.980900  0.874200  0.577480  1.0  -0.7089
  O  O219  1  0.739600  0.340700  0.853260  1.0  -0.5165
  O  O220  1  0.673400  0.492300  0.858650  1.0  -0.6949
  O  O221  1  0.110400  0.017600  0.922250  1.0  -0.7203
  O  O222  1  0.123500  0.873100  0.978650  1.0  -0.7957
  O  O223  1  0.494400  0.647500  0.861390  1.0  -0.6514
  O  O224  1  0.387000  0.612600  0.933520  1.0  -0.6871
  O  O225  1  0.510200  0.306400  0.636750  1.0  -0.7496
  O  O226  1  0.555700  0.185700  0.596330  1.0  -0.5335
  O  O227  1  0.403200  0.427900  0.045750  1.0  -0.7709
  O  O228  1  0.388800  0.392800  0.974850  1.0  -0.6955
  O  O229  1  0.099400  0.030700  0.033560  1.0  -0.8008
  O  O230  1  0.105800  0.172700  0.975080  1.0  -0.6471
  O  O231  1  0.221000  0.065600  0.365120  1.0  -0.6334
  O  O232  1  0.087600  0.981500  0.362310  1.0  -0.6353
