# generated using pymatgen
data_Zn2H18C40S(N2O5)2
_symmetry_space_group_name_H-M   'P 1'
_cell_length_a   19.61900000
_cell_length_b   15.51160000
_cell_length_c   13.28620000
_cell_angle_alpha   90.00000000
_cell_angle_beta   94.34300000
_cell_angle_gamma   90.00000000
_symmetry_Int_Tables_number   1
_chemical_formula_structural   Zn2H18C40S(N2O5)2
_chemical_formula_sum   'Zn8 H72 C160 S4 N16 O40'
_cell_volume   4031.67406528
_cell_formula_units_Z   4
loop_
 _symmetry_equiv_pos_site_id
 _symmetry_equiv_pos_as_xyz
  1  'x, y, z'
loop_
 _atom_site_type_symbol
 _atom_site_label
 _atom_site_symmetry_multiplicity
 _atom_site_fract_x
 _atom_site_fract_y
 _atom_site_fract_z
 _atom_site_occupancy
 _atom_site_charge
  Zn  Zn1  1  0.268160  0.041660  0.660580  1.0  0.8806
  Zn  Zn2  1  0.768160  0.541660  0.660580  1.0  0.8806
  Zn  Zn3  1  0.731840  0.041660  0.839420  1.0  0.8807
  Zn  Zn4  1  0.231840  0.541660  0.839420  1.0  0.8807
  Zn  Zn5  1  0.731840  0.958340  0.339420  1.0  0.8803
  Zn  Zn6  1  0.231840  0.458340  0.339420  1.0  0.8803
  Zn  Zn7  1  0.268160  0.958340  0.160580  1.0  0.8803
  Zn  Zn8  1  0.768160  0.458340  0.160580  1.0  0.8803
  H  H9  1  0.395700  0.792900  0.704300  1.0  0.0885
  H  H10  1  0.496800  0.709100  0.956500  1.0  0.0921
  H  H11  1  0.429900  0.795100  0.050500  1.0  0.0912
  H  H12  1  0.141300  0.944900  0.705400  1.0  0.0611
  H  H13  1  0.029000  0.931200  0.644800  1.0  0.1097
  H  H14  1  0.071200  0.076600  0.410900  1.0  0.1085
  H  H15  1  0.180100  0.092000  0.481100  1.0  0.0627
  H  H16  1  0.173100  0.077600  0.824500  1.0  0.04
  H  H17  1  0.166400  0.154800  0.966200  1.0  0.1001
  H  H18  1  0.895700  0.292900  0.704300  1.0  0.0885
  H  H19  1  0.996800  0.209100  0.956500  1.0  0.0921
  H  H20  1  0.929900  0.295100  0.050500  1.0  0.0912
  H  H21  1  0.641300  0.444900  0.705400  1.0  0.0611
  H  H22  1  0.529000  0.431200  0.644800  1.0  0.1097
  H  H23  1  0.571200  0.576600  0.410900  1.0  0.1085
  H  H24  1  0.680100  0.592000  0.481100  1.0  0.0627
  H  H25  1  0.673100  0.577600  0.824500  1.0  0.04
  H  H26  1  0.666400  0.654800  0.966200  1.0  0.1001
  H  H27  1  0.604300  0.792900  0.795700  1.0  0.0891
  H  H28  1  0.503200  0.709100  0.543500  1.0  0.0917
  H  H29  1  0.570100  0.795100  0.449500  1.0  0.0914
  H  H30  1  0.858700  0.944900  0.794600  1.0  0.0608
  H  H31  1  0.971000  0.931200  0.855200  1.0  0.1103
  H  H32  1  0.928800  0.076600  0.089100  1.0  0.1083
  H  H33  1  0.819900  0.092000  0.018900  1.0  0.0626
  H  H34  1  0.826900  0.077600  0.675500  1.0  0.0401
  H  H35  1  0.833600  0.154800  0.533800  1.0  0.1002
  H  H36  1  0.104300  0.292900  0.795700  1.0  0.0891
  H  H37  1  0.003200  0.209100  0.543500  1.0  0.0917
  H  H38  1  0.070100  0.295100  0.449500  1.0  0.0914
  H  H39  1  0.358700  0.444900  0.794600  1.0  0.0608
  H  H40  1  0.471000  0.431200  0.855200  1.0  0.1103
  H  H41  1  0.428800  0.576600  0.089100  1.0  0.1083
  H  H42  1  0.319900  0.592000  0.018900  1.0  0.0626
  H  H43  1  0.326900  0.577600  0.675500  1.0  0.0401
  H  H44  1  0.333600  0.654800  0.533800  1.0  0.1002
  H  H45  1  0.604300  0.207100  0.295700  1.0  0.0893
  H  H46  1  0.503200  0.290900  0.043500  1.0  0.091
  H  H47  1  0.570100  0.204900  0.949500  1.0  0.0917
  H  H48  1  0.858700  0.055100  0.294600  1.0  0.0611
  H  H49  1  0.971000  0.068800  0.355200  1.0  0.1114
  H  H50  1  0.928800  0.923400  0.589100  1.0  0.1081
  H  H51  1  0.819900  0.908000  0.518900  1.0  0.0625
  H  H52  1  0.826900  0.922400  0.175500  1.0  0.0395
  H  H53  1  0.833600  0.845200  0.033800  1.0  0.1003
  H  H54  1  0.104300  0.707100  0.295700  1.0  0.0893
  H  H55  1  0.003200  0.790900  0.043500  1.0  0.091
  H  H56  1  0.070100  0.704900  0.949500  1.0  0.0917
  H  H57  1  0.358700  0.555100  0.294600  1.0  0.0611
  H  H58  1  0.471000  0.568800  0.355200  1.0  0.1114
  H  H59  1  0.428800  0.423400  0.589100  1.0  0.1081
  H  H60  1  0.319900  0.408000  0.518900  1.0  0.0625
  H  H61  1  0.326900  0.422400  0.175500  1.0  0.0395
  H  H62  1  0.333600  0.345200  0.033800  1.0  0.1003
  H  H63  1  0.395700  0.207100  0.204300  1.0  0.0889
  H  H64  1  0.496800  0.290900  0.456500  1.0  0.0926
  H  H65  1  0.429900  0.204900  0.550500  1.0  0.0914
  H  H66  1  0.141300  0.055100  0.205400  1.0  0.0612
  H  H67  1  0.029000  0.068800  0.144800  1.0  0.1112
  H  H68  1  0.071200  0.923400  0.910900  1.0  0.1081
  H  H69  1  0.180100  0.908000  0.981100  1.0  0.0628
  H  H70  1  0.173100  0.922400  0.324500  1.0  0.0401
  H  H71  1  0.166400  0.845200  0.466200  1.0  0.1003
  H  H72  1  0.895700  0.707100  0.204300  1.0  0.0889
  H  H73  1  0.996800  0.790900  0.456500  1.0  0.0926
  H  H74  1  0.929900  0.704900  0.550500  1.0  0.0914
  H  H75  1  0.641300  0.555100  0.205400  1.0  0.0612
  H  H76  1  0.529000  0.568800  0.144800  1.0  0.1112
  H  H77  1  0.571200  0.423400  0.910900  1.0  0.1081
  H  H78  1  0.680100  0.408000  0.981100  1.0  0.0628
  H  H79  1  0.673100  0.422400  0.324500  1.0  0.0401
  H  H80  1  0.666400  0.345200  0.466200  1.0  0.1003
  C  C81  1  0.309400  0.904300  0.775800  1.0  0.6869
  C  C82  1  0.362100  0.848700  0.829100  1.0  -0.111
  C  C83  1  0.402300  0.794200  0.774300  1.0  -0.0202
  C  C84  1  0.451600  0.742500  0.822700  1.0  -0.1497
  C  C85  1  0.462700  0.743200  0.924600  1.0  -0.0816
  C  C86  1  0.422700  0.795200  0.980500  1.0  -0.0786
  C  C87  1  0.372400  0.847100  0.935300  1.0  -0.0874
  C  C88  1  0.333000  0.906500  0.998600  1.0  0.6924
  C  C89  1  0.126900  0.972600  0.645500  1.0  0.1662
  C  C90  1  0.059200  0.963500  0.609300  1.0  -0.2034
  C  C91  1  0.037500  0.002800  0.520800  1.0  0.0196
  C  C92  1  0.084100  0.050000  0.472100  1.0  -0.2205
  C  C93  1  0.149700  0.057800  0.513800  1.0  0.1523
  C  C94  1  0.208600  0.115600  0.842700  1.0  0.1405
  C  C95  1  0.203300  0.162900  0.927400  1.0  -0.2215
  C  C96  1  0.251900  0.221900  0.955500  1.0  0.0824
  C  C97  1  0.285100  0.255600  0.870400  1.0  0.2834
  C  C98  1  0.288500  0.198200  0.788400  1.0  -0.0342
  C  C99  1  0.320300  0.200300  0.915400  1.0  0.2077
  C  C100  1  0.319800  0.146800  0.830800  1.0  -0.0313
  C  C101  1  0.809400  0.404300  0.775800  1.0  0.6869
  C  C102  1  0.862100  0.348700  0.829100  1.0  -0.111
  C  C103  1  0.902300  0.294200  0.774300  1.0  -0.0202
  C  C104  1  0.951600  0.242500  0.822700  1.0  -0.1497
  C  C105  1  0.962700  0.243200  0.924600  1.0  -0.0816
  C  C106  1  0.922700  0.295200  0.980500  1.0  -0.0786
  C  C107  1  0.872400  0.347100  0.935300  1.0  -0.0874
  C  C108  1  0.833000  0.406500  0.998600  1.0  0.6924
  C  C109  1  0.626900  0.472600  0.645500  1.0  0.1662
  C  C110  1  0.559200  0.463500  0.609300  1.0  -0.2034
  C  C111  1  0.537500  0.502800  0.520800  1.0  0.0196
  C  C112  1  0.584100  0.550000  0.472100  1.0  -0.2205
  C  C113  1  0.649700  0.557800  0.513800  1.0  0.1523
  C  C114  1  0.708600  0.615600  0.842700  1.0  0.1405
  C  C115  1  0.703300  0.662900  0.927400  1.0  -0.2215
  C  C116  1  0.751900  0.721900  0.955500  1.0  0.0824
  C  C117  1  0.785100  0.755600  0.870400  1.0  0.2834
  C  C118  1  0.788500  0.698200  0.788400  1.0  -0.0342
  C  C119  1  0.820300  0.700300  0.915400  1.0  0.2077
  C  C120  1  0.819800  0.646800  0.830800  1.0  -0.0313
  C  C121  1  0.690600  0.904300  0.724200  1.0  0.6881
  C  C122  1  0.637900  0.848700  0.670900  1.0  -0.1111
  C  C123  1  0.597700  0.794200  0.725700  1.0  -0.0193
  C  C124  1  0.548400  0.742500  0.677300  1.0  -0.1507
  C  C125  1  0.537300  0.743200  0.575400  1.0  -0.0803
  C  C126  1  0.577300  0.795200  0.519500  1.0  -0.0806
  C  C127  1  0.627600  0.847100  0.564700  1.0  -0.0888
  C  C128  1  0.667000  0.906500  0.501400  1.0  0.6924
  C  C129  1  0.873100  0.972600  0.854500  1.0  0.1648
  C  C130  1  0.940800  0.963500  0.890700  1.0  -0.2048
  C  C131  1  0.962500  0.002800  0.979200  1.0  0.0191
  C  C132  1  0.915900  0.050000  0.027900  1.0  -0.2202
  C  C133  1  0.850300  0.057800  0.986200  1.0  0.1525
  C  C134  1  0.791400  0.115600  0.657300  1.0  0.1404
  C  C135  1  0.796700  0.162900  0.572600  1.0  -0.2211
  C  C136  1  0.748100  0.221900  0.544500  1.0  0.0835
  C  C137  1  0.714900  0.255600  0.629600  1.0  0.2832
  C  C138  1  0.711500  0.198200  0.711600  1.0  -0.0404
  C  C139  1  0.679700  0.200300  0.584600  1.0  0.2083
  C  C140  1  0.680200  0.146800  0.669200  1.0  -0.0329
  C  C141  1  0.190600  0.404300  0.724200  1.0  0.6881
  C  C142  1  0.137900  0.348700  0.670900  1.0  -0.1111
  C  C143  1  0.097700  0.294200  0.725700  1.0  -0.0193
  C  C144  1  0.048400  0.242500  0.677300  1.0  -0.1507
  C  C145  1  0.037300  0.243200  0.575400  1.0  -0.0803
  C  C146  1  0.077300  0.295200  0.519500  1.0  -0.0806
  C  C147  1  0.127600  0.347100  0.564700  1.0  -0.0888
  C  C148  1  0.167000  0.406500  0.501400  1.0  0.6924
  C  C149  1  0.373100  0.472600  0.854500  1.0  0.1648
  C  C150  1  0.440800  0.463500  0.890700  1.0  -0.2048
  C  C151  1  0.462500  0.502800  0.979200  1.0  0.0191
  C  C152  1  0.415900  0.550000  0.027900  1.0  -0.2202
  C  C153  1  0.350300  0.557800  0.986200  1.0  0.1525
  C  C154  1  0.291400  0.615600  0.657300  1.0  0.1404
  C  C155  1  0.296700  0.662900  0.572600  1.0  -0.2211
  C  C156  1  0.248100  0.721900  0.544500  1.0  0.0835
  C  C157  1  0.214900  0.755600  0.629600  1.0  0.2832
  C  C158  1  0.211500  0.698200  0.711600  1.0  -0.0404
  C  C159  1  0.179700  0.700300  0.584600  1.0  0.2083
  C  C160  1  0.180200  0.646800  0.669200  1.0  -0.0329
  C  C161  1  0.690600  0.095700  0.224200  1.0  0.6886
  C  C162  1  0.637900  0.151300  0.170900  1.0  -0.1119
  C  C163  1  0.597700  0.205800  0.225700  1.0  -0.02
  C  C164  1  0.548400  0.257500  0.177300  1.0  -0.1515
  C  C165  1  0.537300  0.256800  0.075400  1.0  -0.0795
  C  C166  1  0.577300  0.204800  0.019500  1.0  -0.0796
  C  C167  1  0.627600  0.152900  0.064700  1.0  -0.088
  C  C168  1  0.667000  0.093500  0.001400  1.0  0.692
  C  C169  1  0.873100  0.027400  0.354500  1.0  0.1655
  C  C170  1  0.940800  0.036500  0.390700  1.0  -0.2058
  C  C171  1  0.962500  0.997200  0.479200  1.0  0.0193
  C  C172  1  0.915900  0.950000  0.527900  1.0  -0.2139
  C  C173  1  0.850300  0.942200  0.486200  1.0  0.1532
  C  C174  1  0.791400  0.884400  0.157300  1.0  0.1403
  C  C175  1  0.796700  0.837100  0.072600  1.0  -0.2208
  C  C176  1  0.748100  0.778100  0.044500  1.0  0.0832
  C  C177  1  0.714900  0.744400  0.129600  1.0  0.2868
  C  C178  1  0.711500  0.801800  0.211600  1.0  -0.0372
  C  C179  1  0.679700  0.799700  0.084600  1.0  0.2096
  C  C180  1  0.680200  0.853200  0.169200  1.0  -0.0362
  C  C181  1  0.190600  0.595700  0.224200  1.0  0.6886
  C  C182  1  0.137900  0.651300  0.170900  1.0  -0.1119
  C  C183  1  0.097700  0.705800  0.225700  1.0  -0.02
  C  C184  1  0.048400  0.757500  0.177300  1.0  -0.1515
  C  C185  1  0.037300  0.756800  0.075400  1.0  -0.0795
  C  C186  1  0.077300  0.704800  0.019500  1.0  -0.0796
  C  C187  1  0.127600  0.652900  0.064700  1.0  -0.088
  C  C188  1  0.167000  0.593500  0.001400  1.0  0.692
  C  C189  1  0.373100  0.527400  0.354500  1.0  0.1655
  C  C190  1  0.440800  0.536500  0.390700  1.0  -0.2058
  C  C191  1  0.462500  0.497200  0.479200  1.0  0.0193
  C  C192  1  0.415900  0.450000  0.527900  1.0  -0.2139
  C  C193  1  0.350300  0.442200  0.486200  1.0  0.1532
  C  C194  1  0.291400  0.384400  0.157300  1.0  0.1403
  C  C195  1  0.296700  0.337100  0.072600  1.0  -0.2208
  C  C196  1  0.248100  0.278100  0.044500  1.0  0.0832
  C  C197  1  0.214900  0.244400  0.129600  1.0  0.2868
  C  C198  1  0.211500  0.301800  0.211600  1.0  -0.0372
  C  C199  1  0.179700  0.299700  0.084600  1.0  0.2096
  C  C200  1  0.180200  0.353200  0.169200  1.0  -0.0362
  C  C201  1  0.309400  0.095700  0.275800  1.0  0.6873
  C  C202  1  0.362100  0.151300  0.329100  1.0  -0.1119
  C  C203  1  0.402300  0.205800  0.274300  1.0  -0.0199
  C  C204  1  0.451600  0.257500  0.322700  1.0  -0.1499
  C  C205  1  0.462700  0.256800  0.424600  1.0  -0.0807
  C  C206  1  0.422700  0.204800  0.480500  1.0  -0.0791
  C  C207  1  0.372400  0.152900  0.435300  1.0  -0.0869
  C  C208  1  0.333000  0.093500  0.498600  1.0  0.6928
  C  C209  1  0.126900  0.027400  0.145500  1.0  0.1661
  C  C210  1  0.059200  0.036500  0.109300  1.0  -0.2042
  C  C211  1  0.037500  0.997200  0.020800  1.0  0.0197
  C  C212  1  0.084100  0.950000  0.972100  1.0  -0.2145
  C  C213  1  0.149700  0.942200  0.013800  1.0  0.1527
  C  C214  1  0.208600  0.884400  0.342700  1.0  0.1405
  C  C215  1  0.203300  0.837100  0.427400  1.0  -0.2214
  C  C216  1  0.251900  0.778100  0.455500  1.0  0.0825
  C  C217  1  0.285100  0.744400  0.370400  1.0  0.2872
  C  C218  1  0.288500  0.801800  0.288400  1.0  -0.0326
  C  C219  1  0.320300  0.799700  0.415400  1.0  0.2069
  C  C220  1  0.319800  0.853200  0.330800  1.0  -0.0329
  C  C221  1  0.809400  0.595700  0.275800  1.0  0.6873
  C  C222  1  0.862100  0.651300  0.329100  1.0  -0.1119
  C  C223  1  0.902300  0.705800  0.274300  1.0  -0.0199
  C  C224  1  0.951600  0.757500  0.322700  1.0  -0.1499
  C  C225  1  0.962700  0.756800  0.424600  1.0  -0.0807
  C  C226  1  0.922700  0.704800  0.480500  1.0  -0.0791
  C  C227  1  0.872400  0.652900  0.435300  1.0  -0.0869
  C  C228  1  0.833000  0.593500  0.498600  1.0  0.6928
  C  C229  1  0.626900  0.527400  0.145500  1.0  0.1661
  C  C230  1  0.559200  0.536500  0.109300  1.0  -0.2042
  C  C231  1  0.537500  0.497200  0.020800  1.0  0.0197
  C  C232  1  0.584100  0.450000  0.972100  1.0  -0.2145
  C  C233  1  0.649700  0.442200  0.013800  1.0  0.1527
  C  C234  1  0.708600  0.384400  0.342700  1.0  0.1405
  C  C235  1  0.703300  0.337100  0.427400  1.0  -0.2214
  C  C236  1  0.751900  0.278100  0.455500  1.0  0.0825
  C  C237  1  0.785100  0.244400  0.370400  1.0  0.2872
  C  C238  1  0.788500  0.301800  0.288400  1.0  -0.0326
  C  C239  1  0.820300  0.299700  0.415400  1.0  0.2069
  C  C240  1  0.819800  0.353200  0.330800  1.0  -0.0329
  S  S241  1  0.500000  0.672900  0.750000  1.0  1.1103
  S  S242  1  0.000000  0.172900  0.750000  1.0  1.1103
  S  S243  1  0.500000  0.327100  0.250000  1.0  1.111
  S  S244  1  0.000000  0.827100  0.250000  1.0  1.111
  N  N245  1  0.172100  0.018400  0.599500  1.0  -0.353
  N  N246  1  0.258300  0.119000  0.785400  1.0  -0.0381
  N  N247  1  0.672100  0.518400  0.599500  1.0  -0.353
  N  N248  1  0.758300  0.619000  0.785400  1.0  -0.0381
  N  N249  1  0.827900  0.018400  0.900500  1.0  -0.3556
  N  N250  1  0.741700  0.119000  0.714600  1.0  -0.0382
  N  N251  1  0.327900  0.518400  0.900500  1.0  -0.3556
  N  N252  1  0.241700  0.619000  0.714600  1.0  -0.0382
  N  N253  1  0.827900  0.981600  0.400500  1.0  -0.3558
  N  N254  1  0.741700  0.881000  0.214600  1.0  -0.0396
  N  N255  1  0.327900  0.481600  0.400500  1.0  -0.3558
  N  N256  1  0.241700  0.381000  0.214600  1.0  -0.0396
  N  N257  1  0.172100  0.981600  0.099500  1.0  -0.353
  N  N258  1  0.258300  0.881000  0.285400  1.0  -0.0392
  N  N259  1  0.672100  0.481600  0.099500  1.0  -0.353
  N  N260  1  0.758300  0.381000  0.285400  1.0  -0.0392
  O  O261  1  0.330600  0.951700  0.707100  1.0  -0.6159
  O  O262  1  0.249000  0.903600  0.798000  1.0  -0.5989
  O  O263  1  0.325200  0.982300  0.976400  1.0  -0.5548
  O  O264  1  0.311600  0.872600  0.077500  1.0  -0.6147
  O  O265  1  0.546500  0.625500  0.819100  1.0  -0.606
  O  O266  1  0.830600  0.451700  0.707100  1.0  -0.6159
  O  O267  1  0.749000  0.403600  0.798000  1.0  -0.5989
  O  O268  1  0.825200  0.482300  0.976400  1.0  -0.5548
  O  O269  1  0.811600  0.372600  0.077500  1.0  -0.6147
  O  O270  1  0.046500  0.125500  0.819100  1.0  -0.606
  O  O271  1  0.669400  0.951700  0.792900  1.0  -0.6153
  O  O272  1  0.751000  0.903600  0.702000  1.0  -0.5999
  O  O273  1  0.674800  0.982300  0.523600  1.0  -0.554
  O  O274  1  0.688400  0.872600  0.422500  1.0  -0.6148
  O  O275  1  0.453500  0.625500  0.680900  1.0  -0.6048
  O  O276  1  0.169400  0.451700  0.792900  1.0  -0.6153
  O  O277  1  0.251000  0.403600  0.702000  1.0  -0.5999
  O  O278  1  0.174800  0.482300  0.523600  1.0  -0.554
  O  O279  1  0.188400  0.372600  0.422500  1.0  -0.6148
  O  O280  1  0.953500  0.125500  0.680900  1.0  -0.6048
  O  O281  1  0.669400  0.048300  0.292900  1.0  -0.6146
  O  O282  1  0.751000  0.096400  0.202000  1.0  -0.5998
  O  O283  1  0.674800  0.017700  0.023600  1.0  -0.5544
  O  O284  1  0.688400  0.127400  0.922500  1.0  -0.6161
  O  O285  1  0.453500  0.374500  0.180900  1.0  -0.6046
  O  O286  1  0.169400  0.548300  0.292900  1.0  -0.6146
  O  O287  1  0.251000  0.596400  0.202000  1.0  -0.5998
  O  O288  1  0.174800  0.517700  0.023600  1.0  -0.5544
  O  O289  1  0.188400  0.627400  0.922500  1.0  -0.6161
  O  O290  1  0.953500  0.874500  0.180900  1.0  -0.6046
  O  O291  1  0.330600  0.048300  0.207100  1.0  -0.6164
  O  O292  1  0.249000  0.096400  0.298000  1.0  -0.5987
  O  O293  1  0.325200  0.017700  0.476400  1.0  -0.555
  O  O294  1  0.311600  0.127400  0.577500  1.0  -0.6164
  O  O295  1  0.546500  0.374500  0.319100  1.0  -0.6052
  O  O296  1  0.830600  0.548300  0.207100  1.0  -0.6164
  O  O297  1  0.749000  0.596400  0.298000  1.0  -0.5987
  O  O298  1  0.825200  0.517700  0.476400  1.0  -0.555
  O  O299  1  0.811600  0.627400  0.577500  1.0  -0.6164
  O  O300  1  0.046500  0.874500  0.319100  1.0  -0.6052
