# generated using pymatgen
data_CdNiC7N6
_symmetry_space_group_name_H-M   'P 1'
_cell_length_a   13.83800000
_cell_length_b   26.89300000
_cell_length_c   7.54300000
_cell_angle_alpha   90.00000000
_cell_angle_beta   90.00000000
_cell_angle_gamma   90.92000000
_symmetry_Int_Tables_number   1
_chemical_formula_structural   CdNiC7N6
_chemical_formula_sum   'Cd8 Ni8 C56 N48'
_cell_volume   2806.73038839
_cell_formula_units_Z   8
loop_
 _symmetry_equiv_pos_site_id
 _symmetry_equiv_pos_as_xyz
  1  'x, y, z'
loop_
 _atom_site_type_symbol
 _atom_site_label
 _atom_site_symmetry_multiplicity
 _atom_site_fract_x
 _atom_site_fract_y
 _atom_site_fract_z
 _atom_site_occupancy
 _atom_site_charge
  Cd  Cd1  1  0.265920  0.369600  0.379520  1.0  1.0558
  Cd  Cd2  1  0.191540  0.637030  0.379370  1.0  1.031
  Cd  Cd3  1  0.234080  0.130400  0.879520  1.0  1.0572
  Cd  Cd4  1  0.308460  0.862970  0.879370  1.0  1.0307
  Cd  Cd5  1  0.734080  0.630400  0.620480  1.0  1.0566
  Cd  Cd6  1  0.808460  0.362970  0.620630  1.0  1.0309
  Cd  Cd7  1  0.765920  0.869600  0.120480  1.0  1.0549
  Cd  Cd8  1  0.691540  0.137030  0.120630  1.0  1.0315
  Ni  Ni9  1  0.196690  0.500060  0.872300  1.0  0.1886
  Ni  Ni10  1  0.995900  0.236060  0.260400  1.0  0.3177
  Ni  Ni11  1  0.303310  0.999940  0.372300  1.0  0.1876
  Ni  Ni12  1  0.504100  0.263940  0.760400  1.0  0.3169
  Ni  Ni13  1  0.803310  0.499940  0.127700  1.0  0.1872
  Ni  Ni14  1  0.004100  0.763940  0.739600  1.0  0.317
  Ni  Ni15  1  0.696690  0.000060  0.627700  1.0  0.1883
  Ni  Ni16  1  0.495900  0.736060  0.239600  1.0  0.3178
  C  C17  1  0.211600  0.450600  0.044000  1.0  0.1873
  C  C18  1  0.201000  0.451900  0.694000  1.0  0.1517
  C  C19  1  0.078900  0.286900  0.333000  1.0  0.1772
  C  C20  1  0.399200  0.296900  0.664000  1.0  0.1323
  C  C21  1  0.200600  0.547700  0.051000  1.0  0.184
  C  C22  1  0.188300  0.551000  0.704000  1.0  0.1884
  C  C23  1  0.909700  0.186800  0.181000  1.0  0.1655
  C  C24  1  0.894000  0.270900  0.358000  1.0  0.1779
  C  C25  1  0.429000  0.321200  0.148000  1.0  0.1218
  C  C26  1  0.470000  0.366800  0.189000  1.0  0.1617
  C  C27  1  0.580000  0.373000  0.167000  1.0  0.0199
  C  C28  1  0.068000  0.697100  0.114000  1.0  0.1575
  C  C29  1  0.999100  0.669800  0.187000  1.0  0.1846
  C  C30  1  0.894400  0.676100  0.147000  1.0  -0.0206
  C  C31  1  0.288400  0.049400  0.544000  1.0  0.1859
  C  C32  1  0.299000  0.048100  0.194000  1.0  0.1511
  C  C33  1  0.421100  0.213100  0.833000  1.0  0.1809
  C  C34  1  0.100800  0.203100  0.164000  1.0  0.1337
  C  C35  1  0.299400  0.952300  0.551000  1.0  0.185
  C  C36  1  0.311700  0.949000  0.204000  1.0  0.1878
  C  C37  1  0.590300  0.313200  0.681000  1.0  0.1648
  C  C38  1  0.606000  0.229100  0.858000  1.0  0.177
  C  C39  1  0.071000  0.178800  0.648000  1.0  0.1227
  C  C40  1  0.030000  0.133200  0.689000  1.0  0.1604
  C  C41  1  0.920000  0.127000  0.667000  1.0  0.0234
  C  C42  1  0.432000  0.802900  0.614000  1.0  0.1584
  C  C43  1  0.500900  0.830200  0.687000  1.0  0.1839
  C  C44  1  0.605600  0.823900  0.647000  1.0  -0.0249
  C  C45  1  0.788400  0.549400  0.956000  1.0  0.1858
  C  C46  1  0.799000  0.548100  0.306000  1.0  0.1513
  C  C47  1  0.921100  0.713100  0.667000  1.0  0.1785
  C  C48  1  0.600800  0.703100  0.336000  1.0  0.1346
  C  C49  1  0.799400  0.452300  0.949000  1.0  0.1851
  C  C50  1  0.811700  0.449000  0.296000  1.0  0.1873
  C  C51  1  0.090300  0.813200  0.819000  1.0  0.1645
  C  C52  1  0.106000  0.729100  0.642000  1.0  0.1777
  C  C53  1  0.571000  0.678800  0.852000  1.0  0.1218
  C  C54  1  0.530000  0.633200  0.811000  1.0  0.1609
  C  C55  1  0.420000  0.627000  0.833000  1.0  0.0236
  C  C56  1  0.932000  0.302900  0.886000  1.0  0.1576
  C  C57  1  0.000900  0.330200  0.813000  1.0  0.1839
  C  C58  1  0.105600  0.323900  0.853000  1.0  -0.0259
  C  C59  1  0.711600  0.950600  0.456000  1.0  0.1869
  C  C60  1  0.701000  0.951900  0.806000  1.0  0.1523
  C  C61  1  0.578900  0.786900  0.167000  1.0  0.1796
  C  C62  1  0.899200  0.796900  0.836000  1.0  0.1329
  C  C63  1  0.700600  0.047700  0.449000  1.0  0.1844
  C  C64  1  0.688300  0.051000  0.796000  1.0  0.1879
  C  C65  1  0.409700  0.686800  0.319000  1.0  0.1652
  C  C66  1  0.394000  0.770900  0.142000  1.0  0.1786
  C  C67  1  0.929000  0.821200  0.352000  1.0  0.121
  C  C68  1  0.970000  0.866800  0.311000  1.0  0.1614
  C  C69  1  0.080000  0.873000  0.333000  1.0  0.0196
  C  C70  1  0.568000  0.197100  0.386000  1.0  0.1572
  C  C71  1  0.499100  0.169800  0.313000  1.0  0.1849
  C  C72  1  0.394400  0.176100  0.353000  1.0  -0.021
  N  N73  1  0.222000  0.421500  0.148000  1.0  -0.399
  N  N74  1  0.209700  0.422700  0.587000  1.0  -0.4155
  N  N75  1  0.130200  0.318400  0.372000  1.0  -0.4498
  N  N76  1  0.334200  0.316200  0.602000  1.0  -0.455
  N  N77  1  0.326600  0.313900  0.157000  1.0  -0.2819
  N  N78  1  0.428800  0.392430  0.338000  1.0  -0.3011
  N  N79  1  0.205200  0.575700  0.163000  1.0  -0.3786
  N  N80  1  0.186100  0.582100  0.604000  1.0  -0.3952
  N  N81  1  0.853400  0.157900  0.130000  1.0  -0.4696
  N  N82  1  0.832100  0.293000  0.420000  1.0  -0.4645
  N  N83  1  0.168700  0.694400  0.144000  1.0  -0.2951
  N  N84  1  0.023800  0.634600  0.326000  1.0  -0.2784
  N  N85  1  0.278000  0.078500  0.648000  1.0  -0.3986
  N  N86  1  0.290300  0.077300  0.087000  1.0  -0.4148
  N  N87  1  0.369800  0.181600  0.872000  1.0  -0.4494
  N  N88  1  0.165800  0.183800  0.102000  1.0  -0.4552
  N  N89  1  0.173400  0.186100  0.657000  1.0  -0.279
  N  N90  1  0.071200  0.107570  0.838000  1.0  -0.2985
  N  N91  1  0.294800  0.924300  0.663000  1.0  -0.3787
  N  N92  1  0.313900  0.917900  0.104000  1.0  -0.3923
  N  N93  1  0.646600  0.342100  0.630000  1.0  -0.4715
  N  N94  1  0.667900  0.207000  0.920000  1.0  -0.4649
  N  N95  1  0.331300  0.805600  0.644000  1.0  -0.2968
  N  N96  1  0.476200  0.865400  0.826000  1.0  -0.279
  N  N97  1  0.778000  0.578500  0.852000  1.0  -0.3982
  N  N98  1  0.790300  0.577300  0.413000  1.0  -0.4141
  N  N99  1  0.869800  0.681600  0.628000  1.0  -0.4489
  N  N100  1  0.665800  0.683800  0.398000  1.0  -0.456
  N  N101  1  0.673400  0.686100  0.843000  1.0  -0.2792
  N  N102  1  0.571200  0.607570  0.662000  1.0  -0.2983
  N  N103  1  0.794800  0.424300  0.837000  1.0  -0.3797
  N  N104  1  0.813900  0.417900  0.396000  1.0  -0.3925
  N  N105  1  0.146600  0.842100  0.870000  1.0  -0.4717
  N  N106  1  0.167900  0.707000  0.580000  1.0  -0.465
  N  N107  1  0.831300  0.305600  0.856000  1.0  -0.2966
  N  N108  1  0.976200  0.365400  0.674000  1.0  -0.2782
  N  N109  1  0.722000  0.921500  0.352000  1.0  -0.3984
  N  N110  1  0.709700  0.922700  0.913000  1.0  -0.4153
  N  N111  1  0.630200  0.818400  0.128000  1.0  -0.4498
  N  N112  1  0.834200  0.816200  0.898000  1.0  -0.4556
  N  N113  1  0.826600  0.813900  0.343000  1.0  -0.2819
  N  N114  1  0.928800  0.892430  0.162000  1.0  -0.3007
  N  N115  1  0.705200  0.075700  0.337000  1.0  -0.3796
  N  N116  1  0.686100  0.082100  0.896000  1.0  -0.3956
  N  N117  1  0.353400  0.657900  0.370000  1.0  -0.4702
  N  N118  1  0.332100  0.793000  0.080000  1.0  -0.4649
  N  N119  1  0.668700  0.194400  0.356000  1.0  -0.2956
  N  N120  1  0.523800  0.134600  0.174000  1.0  -0.2782
