# generated using pymatgen
data_CdNiC7N6
_symmetry_space_group_name_H-M   'P 1'
_cell_length_a   13.89500000
_cell_length_b   26.90000000
_cell_length_c   7.61300000
_cell_angle_alpha   90.00000000
_cell_angle_beta   90.00000000
_cell_angle_gamma   91.06000000
_symmetry_Int_Tables_number   1
_chemical_formula_structural   CdNiC7N6
_chemical_formula_sum   'Cd8 Ni8 C56 N48'
_cell_volume   2845.06592435
_cell_formula_units_Z   8
loop_
 _symmetry_equiv_pos_site_id
 _symmetry_equiv_pos_as_xyz
  1  'x, y, z'
loop_
 _atom_site_type_symbol
 _atom_site_label
 _atom_site_symmetry_multiplicity
 _atom_site_fract_x
 _atom_site_fract_y
 _atom_site_fract_z
 _atom_site_occupancy
 _atom_site_charge
  Cd  Cd1  1  0.266810  0.369890  0.382870  1.0  1.0778
  Cd  Cd2  1  0.190600  0.636350  0.378970  1.0  1.0242
  Cd  Cd3  1  0.233190  0.130110  0.882870  1.0  1.0796
  Cd  Cd4  1  0.309400  0.863650  0.878970  1.0  1.0244
  Cd  Cd5  1  0.733190  0.630110  0.617130  1.0  1.0786
  Cd  Cd6  1  0.809400  0.363650  0.621030  1.0  1.0249
  Cd  Cd7  1  0.766810  0.869890  0.117130  1.0  1.0766
  Cd  Cd8  1  0.690600  0.136350  0.121030  1.0  1.0249
  Ni  Ni9  1  0.197230  0.499670  0.872800  1.0  0.2389
  Ni  Ni10  1  0.995980  0.236300  0.266400  1.0  0.3466
  Ni  Ni11  1  0.302770  0.000330  0.372800  1.0  0.2379
  Ni  Ni12  1  0.504020  0.263700  0.766400  1.0  0.3469
  Ni  Ni13  1  0.802770  0.500330  0.127200  1.0  0.2378
  Ni  Ni14  1  0.004020  0.763700  0.733600  1.0  0.3469
  Ni  Ni15  1  0.697230  0.999670  0.627200  1.0  0.2388
  Ni  Ni16  1  0.495980  0.736300  0.233600  1.0  0.3466
  C  C17  1  0.213700  0.450900  0.043000  1.0  0.1767
  C  C18  1  0.201000  0.452000  0.696000  1.0  0.1147
  C  C19  1  0.079500  0.287800  0.338000  1.0  0.1682
  C  C20  1  0.400400  0.297200  0.671000  1.0  0.1652
  C  C21  1  0.199600  0.547000  0.052000  1.0  0.1704
  C  C22  1  0.187800  0.550700  0.705000  1.0  0.1674
  C  C23  1  0.909000  0.187300  0.188000  1.0  0.1797
  C  C24  1  0.893300  0.271400  0.362000  1.0  0.1673
  C  C25  1  0.429400  0.316600  0.164000  1.0  0.0486
  C  C26  1  0.470300  0.362700  0.200000  1.0  0.1999
  C  C27  1  0.581400  0.365900  0.188000  1.0  0.0107
  C  C28  1  0.068000  0.696100  0.106000  1.0  0.1306
  C  C29  1  0.999800  0.669300  0.186000  1.0  0.1572
  C  C30  1  0.895700  0.674900  0.140000  1.0  -0.0129
  C  C31  1  0.286300  0.049100  0.543000  1.0  0.1756
  C  C32  1  0.299000  0.048000  0.196000  1.0  0.1146
  C  C33  1  0.420500  0.212200  0.838000  1.0  0.1694
  C  C34  1  0.099600  0.202800  0.171000  1.0  0.1654
  C  C35  1  0.300400  0.953000  0.552000  1.0  0.1717
  C  C36  1  0.312200  0.949300  0.205000  1.0  0.1662
  C  C37  1  0.591000  0.312700  0.688000  1.0  0.1787
  C  C38  1  0.606700  0.228600  0.862000  1.0  0.1678
  C  C39  1  0.070600  0.183400  0.664000  1.0  0.048
  C  C40  1  0.029700  0.137300  0.700000  1.0  0.1998
  C  C41  1  0.918600  0.134100  0.688000  1.0  0.0134
  C  C42  1  0.432000  0.803900  0.606000  1.0  0.1321
  C  C43  1  0.500200  0.830700  0.686000  1.0  0.1579
  C  C44  1  0.604300  0.825100  0.640000  1.0  -0.0178
  C  C45  1  0.786300  0.549100  0.957000  1.0  0.1762
  C  C46  1  0.799000  0.548000  0.304000  1.0  0.1141
  C  C47  1  0.920500  0.712200  0.662000  1.0  0.1692
  C  C48  1  0.599600  0.702800  0.329000  1.0  0.1656
  C  C49  1  0.800400  0.453000  0.948000  1.0  0.1721
  C  C50  1  0.812200  0.449300  0.295000  1.0  0.1653
  C  C51  1  0.091000  0.812700  0.812000  1.0  0.1785
  C  C52  1  0.106700  0.728600  0.638000  1.0  0.1676
  C  C53  1  0.570600  0.683400  0.836000  1.0  0.047
  C  C54  1  0.529700  0.637300  0.800000  1.0  0.1993
  C  C55  1  0.418600  0.634100  0.812000  1.0  0.0133
  C  C56  1  0.932000  0.303900  0.894000  1.0  0.1312
  C  C57  1  0.000200  0.330700  0.814000  1.0  0.1576
  C  C58  1  0.104300  0.325100  0.860000  1.0  -0.019
  C  C59  1  0.713700  0.950900  0.457000  1.0  0.1772
  C  C60  1  0.701000  0.952000  0.804000  1.0  0.1146
  C  C61  1  0.579500  0.787800  0.162000  1.0  0.1681
  C  C62  1  0.900400  0.797200  0.829000  1.0  0.1651
  C  C63  1  0.699600  0.047000  0.448000  1.0  0.1709
  C  C64  1  0.687800  0.050700  0.795000  1.0  0.1667
  C  C65  1  0.409000  0.687300  0.312000  1.0  0.1797
  C  C66  1  0.393300  0.771400  0.138000  1.0  0.1669
  C  C67  1  0.929400  0.816600  0.336000  1.0  0.0483
  C  C68  1  0.970300  0.862700  0.300000  1.0  0.1986
  C  C69  1  0.081400  0.865900  0.312000  1.0  0.0104
  C  C70  1  0.568000  0.196100  0.394000  1.0  0.1303
  C  C71  1  0.499800  0.169300  0.314000  1.0  0.1572
  C  C72  1  0.395700  0.174900  0.360000  1.0  -0.0141
  N  N73  1  0.226500  0.422100  0.149000  1.0  -0.4264
  N  N74  1  0.210600  0.422700  0.586800  1.0  -0.4212
  N  N75  1  0.130200  0.319400  0.380000  1.0  -0.4462
  N  N76  1  0.334600  0.316200  0.612000  1.0  -0.4419
  N  N77  1  0.324600  0.311700  0.170000  1.0  -0.2693
  N  N78  1  0.430700  0.390700  0.347000  1.0  -0.3283
  N  N79  1  0.203400  0.575200  0.162000  1.0  -0.3727
  N  N80  1  0.186500  0.581600  0.605000  1.0  -0.3859
  N  N81  1  0.853700  0.158400  0.140000  1.0  -0.4418
  N  N82  1  0.833700  0.293800  0.427000  1.0  -0.426
  N  N83  1  0.169300  0.692900  0.140000  1.0  -0.2904
  N  N84  1  0.022500  0.634300  0.322600  1.0  -0.2793
  N  N85  1  0.273500  0.077900  0.649000  1.0  -0.4253
  N  N86  1  0.289400  0.077300  0.086800  1.0  -0.4214
  N  N87  1  0.369800  0.180600  0.880000  1.0  -0.4451
  N  N88  1  0.165400  0.183800  0.112000  1.0  -0.4424
  N  N89  1  0.175400  0.188300  0.670000  1.0  -0.2699
  N  N90  1  0.069300  0.109300  0.847000  1.0  -0.3262
  N  N91  1  0.296600  0.924800  0.662000  1.0  -0.3728
  N  N92  1  0.313500  0.918400  0.105000  1.0  -0.3837
  N  N93  1  0.646300  0.341600  0.640000  1.0  -0.4446
  N  N94  1  0.666300  0.206200  0.927000  1.0  -0.4258
  N  N95  1  0.330700  0.807100  0.640000  1.0  -0.2948
  N  N96  1  0.477500  0.865700  0.822600  1.0  -0.2793
  N  N97  1  0.773500  0.577900  0.851000  1.0  -0.425
  N  N98  1  0.789400  0.577300  0.413200  1.0  -0.4214
  N  N99  1  0.869800  0.680600  0.620000  1.0  -0.4441
  N  N100  1  0.665400  0.683800  0.388000  1.0  -0.4428
  N  N101  1  0.675400  0.688300  0.830000  1.0  -0.2693
  N  N102  1  0.569300  0.609300  0.653000  1.0  -0.3249
  N  N103  1  0.796600  0.424800  0.838000  1.0  -0.3725
  N  N104  1  0.813500  0.418400  0.395000  1.0  -0.3842
  N  N105  1  0.146300  0.841600  0.860000  1.0  -0.4451
  N  N106  1  0.166300  0.706200  0.573000  1.0  -0.4255
  N  N107  1  0.830700  0.307100  0.860000  1.0  -0.2944
  N  N108  1  0.977500  0.365700  0.677400  1.0  -0.2785
  N  N109  1  0.726500  0.922100  0.351000  1.0  -0.426
  N  N110  1  0.710600  0.922700  0.913200  1.0  -0.4212
  N  N111  1  0.630200  0.819400  0.120000  1.0  -0.4456
  N  N112  1  0.834600  0.816200  0.888000  1.0  -0.442
  N  N113  1  0.824600  0.811700  0.330000  1.0  -0.2688
  N  N114  1  0.930700  0.890700  0.153000  1.0  -0.3271
  N  N115  1  0.703400  0.075200  0.338000  1.0  -0.3724
  N  N116  1  0.686500  0.081600  0.895000  1.0  -0.3867
  N  N117  1  0.353700  0.658400  0.360000  1.0  -0.442
  N  N118  1  0.333700  0.793800  0.073000  1.0  -0.4258
  N  N119  1  0.669300  0.192900  0.360000  1.0  -0.2907
  N  N120  1  0.522500  0.134300  0.177400  1.0  -0.2793
