# generated using pymatgen
data_Ni2MoH56(C2N)16
_symmetry_space_group_name_H-M   'P 1'
_cell_length_a   15.99810000
_cell_length_b   15.99810000
_cell_length_c   16.57610000
_cell_angle_alpha   74.53330000
_cell_angle_beta   74.53300000
_cell_angle_gamma   116.57500000
_symmetry_Int_Tables_number   1
_chemical_formula_structural   Ni2MoH56(C2N)16
_chemical_formula_sum   'Ni4 Mo2 H112 C64 N32'
_cell_volume   3269.70965593
_cell_formula_units_Z   2
loop_
 _symmetry_equiv_pos_site_id
 _symmetry_equiv_pos_as_xyz
  1  'x, y, z'
loop_
 _atom_site_type_symbol
 _atom_site_label
 _atom_site_symmetry_multiplicity
 _atom_site_fract_x
 _atom_site_fract_y
 _atom_site_fract_z
 _atom_site_occupancy
 _atom_site_charge
  Ni  Ni1  1  0.500000  0.000000  0.000000  1.0  0.4904
  Ni  Ni2  1  0.500000  0.500000  0.500000  1.0  0.4904
  Ni  Ni3  1  0.500000  0.000000  0.500000  1.0  0.4904
  Ni  Ni4  1  0.000000  0.000000  0.000000  1.0  0.4904
  Mo  Mo5  1  0.375000  0.125000  0.750000  1.0  -0.0357
  Mo  Mo6  1  0.625000  0.875000  0.250000  1.0  -0.0359
  H  H7  1  0.696300  0.216100  0.956000  1.0  0.0914
  H  H8  1  0.817900  0.330500  0.812400  1.0  0.0664
  H  H9  1  0.737300  0.336700  0.778600  1.0  0.0779
  H  H10  1  0.816500  0.484500  0.798200  1.0  0.0729
  H  H11  1  0.807900  0.423100  0.894200  1.0  0.0787
  H  H12  1  0.647600  0.431000  0.863000  1.0  0.0647
  H  H13  1  0.691200  0.464800  0.931200  1.0  0.06
  H  H14  1  0.527400  0.302200  0.008200  1.0  0.0658
  H  H15  1  0.612600  0.299000  0.035400  1.0  0.0731
  H  H16  1  0.543100  0.225300  0.919600  1.0  0.0854
  H  H17  1  0.641200  0.145000  0.837200  1.0  0.3253
  H  H18  1  0.694700  0.121100  0.889000  1.0  0.3103
  H  H19  1  0.504000  0.108000  0.089800  1.0  0.3217
  H  H20  1  0.430100  0.102100  0.052200  1.0  0.311
  H  H21  1  0.672100  0.652300  0.544000  1.0  0.0901
  H  H22  1  0.642900  0.630300  0.687600  1.0  0.0629
  H  H23  1  0.615300  0.515900  0.721400  1.0  0.0779
  H  H24  1  0.782700  0.614700  0.701800  1.0  0.0717
  H  H25  1  0.817300  0.702100  0.605800  1.0  0.0824
  H  H26  1  0.794000  0.510600  0.637000  1.0  0.0667
  H  H27  1  0.896000  0.622400  0.568800  1.0  0.06
  H  H28  1  0.810400  0.535600  0.491800  1.0  0.0655
  H  H29  1  0.834400  0.648000  0.464600  1.0  0.0726
  H  H30  1  0.644900  0.462700  0.580400  1.0  0.084
  H  H31  1  0.482200  0.478400  0.662800  1.0  0.3223
  H  H32  1  0.510100  0.583700  0.611000  1.0  0.3029
  H  H33  1  0.697800  0.593800  0.410200  1.0  0.3227
  H  H34  1  0.654300  0.482300  0.447800  1.0  0.3057
  H  H35  1  0.283900  0.803700  0.544000  1.0  0.0917
  H  H36  1  0.169500  0.682100  0.687600  1.0  0.0622
  H  H37  1  0.163300  0.762700  0.721400  1.0  0.0743
  H  H38  1  0.015500  0.683500  0.701800  1.0  0.0727
  H  H39  1  0.076900  0.692100  0.605800  1.0  0.0806
  H  H40  1  0.069000  0.852400  0.637000  1.0  0.064
  H  H41  1  0.035200  0.808800  0.568800  1.0  0.0576
  H  H42  1  0.197800  0.972600  0.491800  1.0  0.0652
  H  H43  1  0.201000  0.887400  0.464600  1.0  0.0712
  H  H44  1  0.274700  0.956900  0.580400  1.0  0.0862
  H  H45  1  0.355000  0.858800  0.662800  1.0  0.3233
  H  H46  1  0.378900  0.805300  0.611000  1.0  0.3014
  H  H47  1  0.392000  0.996000  0.410200  1.0  0.3201
  H  H48  1  0.397900  0.069900  0.447800  1.0  0.3022
  H  H49  1  0.847700  0.827900  0.956000  1.0  0.0914
  H  H50  1  0.869700  0.857100  0.812400  1.0  0.0635
  H  H51  1  0.984100  0.884700  0.778600  1.0  0.0732
  H  H52  1  0.885300  0.717300  0.798200  1.0  0.0758
  H  H53  1  0.797900  0.682700  0.894200  1.0  0.0818
  H  H54  1  0.989400  0.706000  0.863000  1.0  0.0666
  H  H55  1  0.877600  0.604000  0.931200  1.0  0.0598
  H  H56  1  0.964400  0.689600  0.008200  1.0  0.0636
  H  H57  1  0.852000  0.665600  0.035400  1.0  0.0745
  H  H58  1  0.037300  0.855100  0.919600  1.0  0.0891
  H  H59  1  0.021600  0.017800  0.837200  1.0  0.3177
  H  H60  1  0.916300  0.989900  0.889000  1.0  0.3043
  H  H61  1  0.906200  0.802200  0.089800  1.0  0.3191
  H  H62  1  0.017700  0.845700  0.052200  1.0  0.3069
  H  H63  1  0.303700  0.783900  0.044000  1.0  0.0911
  H  H64  1  0.182100  0.669500  0.187600  1.0  0.0651
  H  H65  1  0.262700  0.663300  0.221400  1.0  0.0789
  H  H66  1  0.183500  0.515500  0.201800  1.0  0.0728
  H  H67  1  0.192100  0.576900  0.105800  1.0  0.081
  H  H68  1  0.352400  0.569000  0.137000  1.0  0.0644
  H  H69  1  0.308800  0.535200  0.068800  1.0  0.0587
  H  H70  1  0.472600  0.697800  0.991800  1.0  0.0672
  H  H71  1  0.387400  0.701000  0.964600  1.0  0.0727
  H  H72  1  0.456900  0.774700  0.080400  1.0  0.0849
  H  H73  1  0.358800  0.855000  0.162800  1.0  0.3252
  H  H74  1  0.305300  0.878900  0.111000  1.0  0.3049
  H  H75  1  0.496000  0.892000  0.910200  1.0  0.3227
  H  H76  1  0.569900  0.897900  0.947800  1.0  0.3169
  H  H77  1  0.327900  0.347700  0.456000  1.0  0.0849
  H  H78  1  0.357100  0.369700  0.312400  1.0  0.0634
  H  H79  1  0.384700  0.484100  0.278600  1.0  0.0776
  H  H80  1  0.217300  0.385300  0.298200  1.0  0.0727
  H  H81  1  0.182700  0.297900  0.394200  1.0  0.0787
  H  H82  1  0.206000  0.489400  0.363000  1.0  0.0675
  H  H83  1  0.104000  0.377600  0.431200  1.0  0.0596
  H  H84  1  0.189600  0.464400  0.508200  1.0  0.0656
  H  H85  1  0.165600  0.352000  0.535400  1.0  0.07
  H  H86  1  0.355100  0.537300  0.419600  1.0  0.0875
  H  H87  1  0.517800  0.521600  0.337200  1.0  0.3235
  H  H88  1  0.489900  0.416300  0.389000  1.0  0.3022
  H  H89  1  0.302200  0.406200  0.589800  1.0  0.3212
  H  H90  1  0.345700  0.517700  0.552200  1.0  0.3037
  H  H91  1  0.716100  0.196300  0.456000  1.0  0.0905
  H  H92  1  0.830500  0.317900  0.312400  1.0  0.0634
  H  H93  1  0.836700  0.237300  0.278600  1.0  0.075
  H  H94  1  0.984500  0.316500  0.298200  1.0  0.072
  H  H95  1  0.923100  0.307900  0.394200  1.0  0.0796
  H  H96  1  0.931000  0.147600  0.363000  1.0  0.0639
  H  H97  1  0.964800  0.191200  0.431200  1.0  0.0576
  H  H98  1  0.802200  0.027400  0.508200  1.0  0.0634
  H  H99  1  0.799000  0.112600  0.535400  1.0  0.0724
  H  H100  1  0.725300  0.043100  0.419600  1.0  0.0871
  H  H101  1  0.645000  0.141200  0.337200  1.0  0.3242
  H  H102  1  0.621100  0.194700  0.389000  1.0  0.3023
  H  H103  1  0.608000  0.004000  0.589800  1.0  0.3206
  H  H104  1  0.602100  0.930100  0.552200  1.0  0.3021
  H  H105  1  0.152300  0.172100  0.044000  1.0  0.0948
  H  H106  1  0.130300  0.142900  0.187600  1.0  0.0623
  H  H107  1  0.015900  0.115300  0.221400  1.0  0.0753
  H  H108  1  0.114700  0.282700  0.201800  1.0  0.0735
  H  H109  1  0.202100  0.317300  0.105800  1.0  0.0819
  H  H110  1  0.010600  0.294000  0.137000  1.0  0.0654
  H  H111  1  0.122400  0.396000  0.068800  1.0  0.0595
  H  H112  1  0.035600  0.310400  0.991800  1.0  0.0642
  H  H113  1  0.148000  0.334400  0.964600  1.0  0.0732
  H  H114  1  0.962700  0.144900  0.080400  1.0  0.0866
  H  H115  1  0.978400  0.982200  0.162800  1.0  0.3188
  H  H116  1  0.083700  0.010100  0.111000  1.0  0.3091
  H  H117  1  0.093800  0.197800  0.910200  1.0  0.3195
  H  H118  1  0.982300  0.154300  0.947800  1.0  0.3079
  C  C119  1  0.407570  0.058210  0.857720  1.0  0.1507
  C  C120  1  0.279680  0.955480  0.808000  1.0  0.1425
  C  C121  1  0.667800  0.223940  0.911060  1.0  0.1443
  C  C122  1  0.753750  0.328070  0.831240  1.0  -0.1826
  C  C123  1  0.771270  0.419850  0.855880  1.0  -0.1363
  C  C124  1  0.674340  0.414060  0.906400  1.0  -0.1379
  C  C125  1  0.592530  0.306750  0.984920  1.0  -0.1491
  C  C126  1  0.572330  0.218230  0.964040  1.0  0.0935
  C  C127  1  0.415930  0.265290  0.642280  1.0  0.1509
  C  C128  1  0.263480  0.087680  0.692000  1.0  0.1404
  C  C129  1  0.635000  0.578860  0.588940  1.0  0.1441
  C  C130  1  0.659310  0.584990  0.668760  1.0  -0.1794
  C  C131  1  0.775730  0.627150  0.644120  1.0  -0.1388
  C  C132  1  0.820460  0.580740  0.593600  1.0  -0.1346
  C  C133  1  0.791670  0.577450  0.515080  1.0  -0.15
  C  C134  1  0.682270  0.536370  0.535960  1.0  0.0919
  C  C135  1  0.441790  0.092430  0.642280  1.0  0.1497
  C  C136  1  0.544520  0.220320  0.692000  1.0  0.1406
  C  C137  1  0.276060  0.832200  0.588940  1.0  0.1426
  C  C138  1  0.171930  0.746250  0.668760  1.0  -0.1798
  C  C139  1  0.080150  0.728730  0.644120  1.0  -0.1342
  C  C140  1  0.085940  0.825660  0.593600  1.0  -0.1308
  C  C141  1  0.193250  0.907470  0.515080  1.0  -0.148
  C  C142  1  0.281770  0.927670  0.535960  1.0  0.0926
  C  C143  1  0.234710  0.084070  0.857720  1.0  0.1501
  C  C144  1  0.412320  0.236520  0.808000  1.0  0.1406
  C  C145  1  0.921140  0.865000  0.911060  1.0  0.1453
  C  C146  1  0.915010  0.840690  0.831240  1.0  -0.1782
  C  C147  1  0.872850  0.724270  0.855880  1.0  -0.1393
  C  C148  1  0.919260  0.679540  0.906400  1.0  -0.1352
  C  C149  1  0.922550  0.708330  0.984920  1.0  -0.1499
  C  C150  1  0.963630  0.817730  0.964040  1.0  0.0951
  C  C151  1  0.592430  0.941790  0.142280  1.0  0.1515
  C  C152  1  0.720320  0.044520  0.192000  1.0  0.1393
  C  C153  1  0.332200  0.776060  0.088940  1.0  0.1439
  C  C154  1  0.246250  0.671930  0.168760  1.0  -0.1815
  C  C155  1  0.228730  0.580150  0.144120  1.0  -0.1372
  C  C156  1  0.325660  0.585940  0.093600  1.0  -0.1385
  C  C157  1  0.407470  0.693250  0.015080  1.0  -0.1494
  C  C158  1  0.427670  0.781770  0.035960  1.0  0.0953
  C  C159  1  0.584070  0.734710  0.357720  1.0  0.1499
  C  C160  1  0.736520  0.912320  0.308000  1.0  0.1419
  C  C161  1  0.365000  0.421140  0.411060  1.0  0.1417
  C  C162  1  0.340690  0.415010  0.331240  1.0  -0.1779
  C  C163  1  0.224270  0.372850  0.355880  1.0  -0.1361
  C  C164  1  0.179540  0.419260  0.406400  1.0  -0.1301
  C  C165  1  0.208330  0.422550  0.484920  1.0  -0.1509
  C  C166  1  0.317730  0.463630  0.464040  1.0  0.0922
  C  C167  1  0.558210  0.907570  0.357720  1.0  0.1492
  C  C168  1  0.455480  0.779680  0.308000  1.0  0.1387
  C  C169  1  0.723940  0.167800  0.411060  1.0  0.1444
  C  C170  1  0.828070  0.253750  0.331240  1.0  -0.1806
  C  C171  1  0.919850  0.271270  0.355880  1.0  -0.1328
  C  C172  1  0.914060  0.174340  0.406400  1.0  -0.1351
  C  C173  1  0.806750  0.092530  0.484920  1.0  -0.1496
  C  C174  1  0.718230  0.072330  0.464040  1.0  0.0932
  C  C175  1  0.765290  0.915930  0.142280  1.0  0.1507
  C  C176  1  0.587680  0.763480  0.192000  1.0  0.1415
  C  C177  1  0.078860  0.135000  0.088940  1.0  0.1442
  C  C178  1  0.084990  0.159310  0.168760  1.0  -0.1808
  C  C179  1  0.127150  0.275730  0.144120  1.0  -0.1413
  C  C180  1  0.080740  0.320460  0.093600  1.0  -0.1367
  C  C181  1  0.077450  0.291670  0.015080  1.0  -0.1506
  C  C182  1  0.036370  0.182270  0.035960  1.0  0.0926
  N  N183  1  0.428390  0.025770  0.913840  1.0  -0.4073
  N  N184  1  0.235620  0.868920  0.838680  1.0  -0.4452
  N  N185  1  0.643980  0.132460  0.892320  1.0  -0.6602
  N  N186  1  0.493960  0.113740  0.038280  1.0  -0.6422
  N  N187  1  0.439610  0.342230  0.586160  1.0  -0.4073
  N  N188  1  0.207600  0.074300  0.661320  1.0  -0.4454
  N  N189  1  0.524780  0.536300  0.607680  1.0  -0.6535
  N  N190  1  0.652020  0.532240  0.461720  1.0  -0.6382
  N  N191  1  0.474230  0.071610  0.586160  1.0  -0.4109
  N  N192  1  0.631080  0.264380  0.661320  1.0  -0.4444
  N  N193  1  0.367540  0.856020  0.607680  1.0  -0.6588
  N  N194  1  0.386260  0.006040  0.461720  1.0  -0.6412
  N  N195  1  0.157770  0.060390  0.913840  1.0  -0.4091
  N  N196  1  0.425700  0.292400  0.838680  1.0  -0.4457
  N  N197  1  0.963700  0.975220  0.892320  1.0  -0.6567
  N  N198  1  0.967760  0.847980  0.038280  1.0  -0.6401
  N  N199  1  0.571610  0.974230  0.086160  1.0  -0.4091
  N  N200  1  0.764380  0.131080  0.161320  1.0  -0.4451
  N  N201  1  0.356020  0.867540  0.107680  1.0  -0.6578
  N  N202  1  0.506040  0.886260  0.961720  1.0  -0.6388
  N  N203  1  0.560390  0.657770  0.413840  1.0  -0.4108
  N  N204  1  0.792400  0.925700  0.338680  1.0  -0.444
  N  N205  1  0.475220  0.463700  0.392320  1.0  -0.6527
  N  N206  1  0.347980  0.467760  0.538280  1.0  -0.6397
  N  N207  1  0.525770  0.928390  0.413840  1.0  -0.409
  N  N208  1  0.368920  0.735620  0.338680  1.0  -0.4451
  N  N209  1  0.632460  0.143980  0.392320  1.0  -0.657
  N  N210  1  0.613740  0.993960  0.538280  1.0  -0.6403
  N  N211  1  0.842230  0.939610  0.086160  1.0  -0.4068
  N  N212  1  0.574300  0.707600  0.161320  1.0  -0.4451
  N  N213  1  0.036300  0.024780  0.107680  1.0  -0.6567
  N  N214  1  0.032240  0.152020  0.961720  1.0  -0.6406
