# generated using pymatgen
data_Li4SiH16(C7O2)4
_symmetry_space_group_name_H-M   'P 1'
_cell_length_a   13.72500000
_cell_length_b   14.07400000
_cell_length_c   14.18700000
_cell_angle_alpha   114.15000000
_cell_angle_beta   114.20000000
_cell_angle_gamma   98.24000000
_symmetry_Int_Tables_number   1
_chemical_formula_structural   Li4SiH16(C7O2)4
_chemical_formula_sum   'Li8 Si2 H32 C56 O16'
_cell_volume   2115.58710413
_cell_formula_units_Z   2
loop_
 _symmetry_equiv_pos_site_id
 _symmetry_equiv_pos_as_xyz
  1  'x, y, z'
loop_
 _atom_site_type_symbol
 _atom_site_label
 _atom_site_symmetry_multiplicity
 _atom_site_fract_x
 _atom_site_fract_y
 _atom_site_fract_z
 _atom_site_occupancy
 _atom_site_charge
  Li  Li1  1  0.182800  0.925900  0.852800  1.0  0.9215
  Li  Li2  1  0.916900  0.938000  0.503000  1.0  0.8703
  Li  Li3  1  0.964400  0.566700  0.457100  1.0  0.8951
  Li  Li4  1  0.082100  0.825500  0.599900  1.0  0.8656
  Li  Li5  1  0.817200  0.074100  0.147200  1.0  0.9308
  Li  Li6  1  0.083100  0.062000  0.497000  1.0  0.8674
  Li  Li7  1  0.035600  0.433300  0.542900  1.0  0.8952
  Li  Li8  1  0.917900  0.174500  0.400100  1.0  0.866
  Si  Si9  1  0.328170  0.560070  0.099720  1.0  0.8874
  Si  Si10  1  0.671830  0.439930  0.900280  1.0  0.887
  H  H11  1  0.393200  0.363100  0.093600  1.0  0.0798
  H  H12  1  0.316400  0.171300  0.951600  1.0  0.099
  H  H13  1  0.055600  0.212900  0.721000  1.0  0.0904
  H  H14  1  0.126200  0.401700  0.866000  1.0  0.0763
  H  H15  1  0.549300  0.706800  0.159100  1.0  0.0896
  H  H16  1  0.743200  0.770000  0.305800  1.0  0.0751
  H  H17  1  0.656800  0.574800  0.425500  1.0  0.0996
  H  H18  1  0.462800  0.526300  0.293100  1.0  0.085
  H  H19  1  0.393000  0.745300  0.334600  1.0  0.0884
  H  H20  1  0.307600  0.800700  0.448500  1.0  0.0931
  H  H21  1  0.019900  0.521300  0.189400  1.0  0.0831
  H  H22  1  0.102100  0.470100  0.070900  1.0  0.0782
  H  H23  1  0.356300  0.528000  0.897000  1.0  0.077
  H  H24  1  0.275600  0.562500  0.740500  1.0  0.0911
  H  H25  1  0.157700  0.771500  0.920600  1.0  0.1055
  H  H26  1  0.225200  0.725100  0.069400  1.0  0.0926
  H  H27  1  0.606800  0.636900  0.906400  1.0  0.0775
  H  H28  1  0.683600  0.828700  0.048400  1.0  0.0988
  H  H29  1  0.944400  0.787100  0.279000  1.0  0.0904
  H  H30  1  0.873800  0.598300  0.134000  1.0  0.0764
  H  H31  1  0.450700  0.293200  0.840900  1.0  0.0892
  H  H32  1  0.256800  0.230000  0.694200  1.0  0.0749
  H  H33  1  0.343200  0.425200  0.574500  1.0  0.0998
  H  H34  1  0.537200  0.473700  0.706900  1.0  0.0858
  H  H35  1  0.607000  0.254700  0.665400  1.0  0.0884
  H  H36  1  0.692400  0.199300  0.551500  1.0  0.0929
  H  H37  1  0.980100  0.478700  0.810600  1.0  0.0819
  H  H38  1  0.897900  0.529900  0.929100  1.0  0.0789
  H  H39  1  0.643700  0.472000  0.103000  1.0  0.0771
  H  H40  1  0.724400  0.437500  0.259500  1.0  0.0912
  H  H41  1  0.842300  0.228500  0.079400  1.0  0.1039
  H  H42  1  0.774800  0.274900  0.930600  1.0  0.0919
  C  C43  1  0.268400  0.403770  0.995230  1.0  -0.3478
  C  C44  1  0.323970  0.332760  0.018430  1.0  -0.0566
  C  C45  1  0.279390  0.218760  0.933280  1.0  -0.0801
  C  C46  1  0.180450  0.174280  0.821170  1.0  -0.1237
  C  C47  1  0.123830  0.243290  0.796930  1.0  -0.0846
  C  C48  1  0.166600  0.355800  0.883050  1.0  -0.068
  C  C49  1  0.137620  0.054680  0.722550  1.0  0.7047
  C  C50  1  0.484920  0.609590  0.209590  1.0  -0.3619
  C  C51  1  0.570210  0.681770  0.214840  1.0  -0.0244
  C  C52  1  0.686280  0.717970  0.300910  1.0  -0.0528
  C  C53  1  0.718760  0.678170  0.379320  1.0  -0.1421
  C  C54  1  0.634980  0.604160  0.373730  1.0  -0.043
  C  C55  1  0.519630  0.573140  0.292690  1.0  -0.0798
  C  C56  1  0.844020  0.710030  0.467650  1.0  0.6982
  C  C57  1  0.256930  0.601150  0.189700  1.0  -0.3674
  C  C58  1  0.316630  0.699950  0.303880  1.0  -0.0331
  C  C59  1  0.266160  0.732480  0.372410  1.0  -0.0664
  C  C60  1  0.155300  0.666420  0.331250  1.0  -0.1414
  C  C61  1  0.095250  0.567680  0.218520  1.0  -0.0631
  C  C62  1  0.145040  0.536620  0.148450  1.0  -0.0371
  C  C63  1  0.101940  0.699190  0.407810  1.0  0.6662
  C  C64  1  0.295490  0.618750  0.998170  1.0  -0.3366
  C  C65  1  0.312260  0.574230  0.900130  1.0  -0.0652
  C  C66  1  0.266030  0.596250  0.807700  1.0  -0.1083
  C  C67  1  0.205510  0.667900  0.813350  1.0  -0.1154
  C  C68  1  0.194300  0.718690  0.913460  1.0  -0.0892
  C  C69  1  0.236580  0.692410  0.003290  1.0  -0.046
  C  C70  1  0.145190  0.681460  0.706260  1.0  0.7302
  C  C71  1  0.731600  0.596230  0.004770  1.0  -0.347
  C  C72  1  0.676030  0.667240  0.981570  1.0  -0.0589
  C  C73  1  0.720610  0.781240  0.066720  1.0  -0.0795
  C  C74  1  0.819550  0.825720  0.178830  1.0  -0.1159
  C  C75  1  0.876170  0.756710  0.203070  1.0  -0.083
  C  C76  1  0.833400  0.644200  0.116950  1.0  -0.0677
  C  C77  1  0.862380  0.945320  0.277450  1.0  0.7059
  C  C78  1  0.515080  0.390410  0.790410  1.0  -0.3623
  C  C79  1  0.429790  0.318230  0.785160  1.0  -0.0252
  C  C80  1  0.313720  0.282030  0.699090  1.0  -0.0538
  C  C81  1  0.281240  0.321830  0.620680  1.0  -0.1402
  C  C82  1  0.365020  0.395840  0.626270  1.0  -0.0461
  C  C83  1  0.480370  0.426860  0.707310  1.0  -0.0772
  C  C84  1  0.155980  0.289970  0.532350  1.0  0.6953
  C  C85  1  0.743070  0.398850  0.810300  1.0  -0.3671
  C  C86  1  0.683370  0.300050  0.696120  1.0  -0.0323
  C  C87  1  0.733840  0.267520  0.627590  1.0  -0.0676
  C  C88  1  0.844700  0.333580  0.668750  1.0  -0.1408
  C  C89  1  0.904750  0.432320  0.781480  1.0  -0.0642
  C  C90  1  0.854960  0.463380  0.851550  1.0  -0.0377
  C  C91  1  0.898060  0.300810  0.592190  1.0  0.6666
  C  C92  1  0.704510  0.381250  0.001830  1.0  -0.3411
  C  C93  1  0.687740  0.425770  0.099870  1.0  -0.0638
  C  C94  1  0.733970  0.403750  0.192300  1.0  -0.1068
  C  C95  1  0.794490  0.332100  0.186650  1.0  -0.1147
  C  C96  1  0.805700  0.281310  0.086540  1.0  -0.0915
  C  C97  1  0.763420  0.307590  0.996710  1.0  -0.0466
  C  C98  1  0.854810  0.318540  0.293740  1.0  0.7309
  O  O99  1  0.161640  0.983050  0.748690  1.0  -0.7369
  O  O100  1  0.078630  0.032800  0.615760  1.0  -0.8394
  O  O101  1  0.915370  0.804090  0.507270  1.0  -0.729
  O  O102  1  0.869070  0.640760  0.497540  1.0  -0.6152
  O  O103  1  0.146170  0.800510  0.494020  1.0  -0.6021
  O  O104  1  0.018050  0.623960  0.381210  1.0  -0.6598
  O  O105  1  0.095060  0.593760  0.604210  1.0  -0.7859
  O  O106  1  0.147720  0.777440  0.724500  1.0  -0.7422
  O  O107  1  0.838360  0.016950  0.251310  1.0  -0.736
  O  O108  1  0.921370  0.967200  0.384240  1.0  -0.8377
  O  O109  1  0.084630  0.195910  0.492730  1.0  -0.7289
  O  O110  1  0.130930  0.359240  0.502460  1.0  -0.6187
  O  O111  1  0.853830  0.199490  0.505980  1.0  -0.6024
  O  O112  1  0.981950  0.376040  0.618790  1.0  -0.6603
  O  O113  1  0.904940  0.406240  0.395790  1.0  -0.7872
  O  O114  1  0.852280  0.222560  0.275500  1.0  -0.7404
