# generated using pymatgen
data_NiH8(C3O2)6
_symmetry_space_group_name_H-M   'P 1'
_cell_length_a   11.18130000
_cell_length_b   11.18130000
_cell_length_c   31.55200000
_cell_angle_alpha   90.00000000
_cell_angle_beta   90.00000000
_cell_angle_gamma   90.00000000
_symmetry_Int_Tables_number   1
_chemical_formula_structural   NiH8(C3O2)6
_chemical_formula_sum   'Ni4 H32 C72 O48'
_cell_volume   3944.67741166
_cell_formula_units_Z   4
loop_
 _symmetry_equiv_pos_site_id
 _symmetry_equiv_pos_as_xyz
  1  'x, y, z'
loop_
 _atom_site_type_symbol
 _atom_site_label
 _atom_site_symmetry_multiplicity
 _atom_site_fract_x
 _atom_site_fract_y
 _atom_site_fract_z
 _atom_site_occupancy
 _atom_site_charge
  Ni  Ni1  1  0.300510  0.699490  0.750000  1.0  0.7172
  Ni  Ni2  1  0.699490  0.300510  0.250000  1.0  0.7171
  Ni  Ni3  1  0.800510  0.800510  0.000000  1.0  0.7171
  Ni  Ni4  1  0.199490  0.199490  0.500000  1.0  0.7172
  H  H5  1  0.175600  0.988000  0.614600  1.0  0.1401
  H  H6  1  0.827800  0.957500  0.584600  1.0  0.1418
  H  H7  1  0.967500  0.758900  0.678800  1.0  0.1398
  H  H8  1  0.686000  0.683000  0.676500  1.0  0.4071
  H  H9  1  0.824400  0.012000  0.114600  1.0  0.1404
  H  H10  1  0.172200  0.042500  0.084600  1.0  0.1418
  H  H11  1  0.032500  0.241100  0.178800  1.0  0.1395
  H  H12  1  0.314000  0.317000  0.176500  1.0  0.4085
  H  H13  1  0.512000  0.675600  0.864600  1.0  0.1403
  H  H14  1  0.542500  0.327800  0.834600  1.0  0.1413
  H  H15  1  0.741100  0.467500  0.928800  1.0  0.139
  H  H16  1  0.817000  0.186000  0.926500  1.0  0.4062
  H  H17  1  0.488000  0.324400  0.364600  1.0  0.1409
  H  H18  1  0.457500  0.672200  0.334600  1.0  0.1411
  H  H19  1  0.258900  0.532500  0.428800  1.0  0.1388
  H  H20  1  0.183000  0.814000  0.426500  1.0  0.4058
  H  H21  1  0.324400  0.488000  0.635400  1.0  0.1398
  H  H22  1  0.672200  0.457500  0.665400  1.0  0.1425
  H  H23  1  0.532500  0.258900  0.571200  1.0  0.1394
  H  H24  1  0.814000  0.183000  0.573500  1.0  0.4078
  H  H25  1  0.675600  0.512000  0.135400  1.0  0.14
  H  H26  1  0.327800  0.542500  0.165400  1.0  0.1423
  H  H27  1  0.467500  0.741100  0.071200  1.0  0.1396
  H  H28  1  0.186000  0.817000  0.073500  1.0  0.4076
  H  H29  1  0.988000  0.175600  0.385400  1.0  0.1402
  H  H30  1  0.957500  0.827800  0.415400  1.0  0.1415
  H  H31  1  0.758900  0.967500  0.321200  1.0  0.1385
  H  H32  1  0.683000  0.686000  0.323500  1.0  0.4064
  H  H33  1  0.012000  0.824400  0.885400  1.0  0.1407
  H  H34  1  0.042500  0.172200  0.915400  1.0  0.1415
  H  H35  1  0.241100  0.032500  0.821200  1.0  0.1388
  H  H36  1  0.317000  0.314000  0.823500  1.0  0.4065
  C  C37  1  0.088040  0.869520  0.651440  1.0  -0.1313
  C  C38  1  0.101200  0.953290  0.619250  1.0  0.0646
  C  C39  1  0.004440  0.986010  0.593860  1.0  -0.0953
  C  C40  1  0.893180  0.934470  0.600820  1.0  0.0106
  C  C41  1  0.879930  0.847630  0.632440  1.0  -0.1509
  C  C42  1  0.976920  0.816080  0.657620  1.0  0.0502
  C  C43  1  0.192980  0.841750  0.680100  1.0  0.6738
  C  C44  1  0.024930  0.077960  0.559590  1.0  0.7516
  C  C45  1  0.759350  0.791860  0.639060  1.0  0.6647
  C  C46  1  0.911960  0.130480  0.151440  1.0  -0.1314
  C  C47  1  0.898800  0.046710  0.119250  1.0  0.0638
  C  C48  1  0.995560  0.013990  0.093860  1.0  -0.0956
  C  C49  1  0.106820  0.065530  0.100820  1.0  0.0115
  C  C50  1  0.120070  0.152370  0.132440  1.0  -0.1504
  C  C51  1  0.023080  0.183920  0.157620  1.0  0.0485
  C  C52  1  0.807020  0.158250  0.180100  1.0  0.6758
  C  C53  1  0.975070  0.922040  0.059590  1.0  0.7517
  C  C54  1  0.240650  0.208140  0.139060  1.0  0.6634
  C  C55  1  0.630480  0.588040  0.901440  1.0  -0.1309
  C  C56  1  0.546710  0.601200  0.869250  1.0  0.0661
  C  C57  1  0.513990  0.504440  0.843860  1.0  -0.0943
  C  C58  1  0.565530  0.393180  0.850820  1.0  0.0135
  C  C59  1  0.652370  0.379930  0.882440  1.0  -0.1513
  C  C60  1  0.683920  0.476920  0.907620  1.0  0.0478
  C  C61  1  0.658250  0.692980  0.930100  1.0  0.6731
  C  C62  1  0.422040  0.524930  0.809590  1.0  0.75
  C  C63  1  0.708140  0.259350  0.889060  1.0  0.6666
  C  C64  1  0.369520  0.411960  0.401440  1.0  -0.1307
  C  C65  1  0.453290  0.398800  0.369250  1.0  0.0661
  C  C66  1  0.486010  0.495560  0.343860  1.0  -0.0947
  C  C67  1  0.434470  0.606820  0.350820  1.0  0.0126
  C  C68  1  0.347630  0.620070  0.382440  1.0  -0.1505
  C  C69  1  0.316080  0.523080  0.407620  1.0  0.0483
  C  C70  1  0.341750  0.307020  0.430100  1.0  0.6734
  C  C71  1  0.577960  0.475070  0.309590  1.0  0.7494
  C  C72  1  0.291860  0.740650  0.389060  1.0  0.6661
  C  C73  1  0.411960  0.369520  0.598560  1.0  -0.1321
  C  C74  1  0.398800  0.453290  0.630750  1.0  0.0633
  C  C75  1  0.495560  0.486010  0.656140  1.0  -0.095
  C  C76  1  0.606820  0.434470  0.649180  1.0  0.0104
  C  C77  1  0.620070  0.347630  0.617560  1.0  -0.1506
  C  C78  1  0.523080  0.316080  0.592380  1.0  0.0495
  C  C79  1  0.307020  0.341750  0.569900  1.0  0.6763
  C  C80  1  0.475070  0.577960  0.690410  1.0  0.7498
  C  C81  1  0.740650  0.291860  0.610940  1.0  0.6639
  C  C82  1  0.588040  0.630480  0.098560  1.0  -0.1309
  C  C83  1  0.601200  0.546710  0.130750  1.0  0.0654
  C  C84  1  0.504440  0.513990  0.156140  1.0  -0.0953
  C  C85  1  0.393180  0.565530  0.149180  1.0  0.0103
  C  C86  1  0.379930  0.652370  0.117560  1.0  -0.1503
  C  C87  1  0.476920  0.683920  0.092380  1.0  0.0491
  C  C88  1  0.692980  0.658250  0.069900  1.0  0.6739
  C  C89  1  0.524930  0.422040  0.190410  1.0  0.7504
  C  C90  1  0.259350  0.708140  0.110940  1.0  0.6646
  C  C91  1  0.869520  0.088040  0.348560  1.0  -0.1306
  C  C92  1  0.953290  0.101200  0.380750  1.0  0.0669
  C  C93  1  0.986010  0.004440  0.406140  1.0  -0.0942
  C  C94  1  0.934470  0.893180  0.399180  1.0  0.0126
  C  C95  1  0.847630  0.879930  0.367560  1.0  -0.1515
  C  C96  1  0.816080  0.976920  0.342380  1.0  0.0482
  C  C97  1  0.841750  0.192980  0.319900  1.0  0.6736
  C  C98  1  0.077960  0.024930  0.440410  1.0  0.7488
  C  C99  1  0.791860  0.759350  0.360940  1.0  0.6671
  C  C100  1  0.130480  0.911960  0.848560  1.0  -0.1307
  C  C101  1  0.046710  0.898800  0.880750  1.0  0.0656
  C  C102  1  0.013990  0.995560  0.906140  1.0  -0.0944
  C  C103  1  0.065530  0.106820  0.899180  1.0  0.012
  C  C104  1  0.152370  0.120070  0.867560  1.0  -0.1511
  C  C105  1  0.183920  0.023080  0.842380  1.0  0.0481
  C  C106  1  0.158250  0.807020  0.819900  1.0  0.6732
  C  C107  1  0.922040  0.975070  0.940410  1.0  0.7483
  C  C108  1  0.208140  0.240650  0.860940  1.0  0.6663
  O  O109  1  0.179610  0.757330  0.706070  1.0  -0.5541
  O  O110  1  0.284130  0.906500  0.676080  1.0  -0.4598
  O  O111  1  0.129360  0.084880  0.545180  1.0  -0.57
  O  O112  1  0.937860  0.142470  0.547870  1.0  -0.5574
  O  O113  1  0.671460  0.818570  0.618930  1.0  -0.4104
  O  O114  1  0.760900  0.710430  0.669390  1.0  -0.4796
  O  O115  1  0.820390  0.242670  0.206070  1.0  -0.555
  O  O116  1  0.715870  0.093500  0.176080  1.0  -0.4567
  O  O117  1  0.870640  0.915120  0.045180  1.0  -0.5686
  O  O118  1  0.062140  0.857530  0.047870  1.0  -0.5568
  O  O119  1  0.328540  0.181430  0.118930  1.0  -0.4104
  O  O120  1  0.239100  0.289570  0.169390  1.0  -0.479
  O  O121  1  0.742670  0.679610  0.956070  1.0  -0.5542
  O  O122  1  0.593500  0.784130  0.926080  1.0  -0.4549
  O  O123  1  0.415120  0.629360  0.795180  1.0  -0.5682
  O  O124  1  0.357530  0.437860  0.797870  1.0  -0.5567
  O  O125  1  0.681430  0.171460  0.868930  1.0  -0.4107
  O  O126  1  0.789570  0.260900  0.919390  1.0  -0.4771
  O  O127  1  0.257330  0.320390  0.456070  1.0  -0.5543
  O  O128  1  0.406500  0.215870  0.426080  1.0  -0.4546
  O  O129  1  0.584880  0.370640  0.295180  1.0  -0.5675
  O  O130  1  0.642470  0.562140  0.297870  1.0  -0.5573
  O  O131  1  0.318570  0.828540  0.368930  1.0  -0.4106
  O  O132  1  0.210430  0.739100  0.419390  1.0  -0.4773
  O  O133  1  0.320390  0.257330  0.543930  1.0  -0.5537
  O  O134  1  0.215870  0.406500  0.573920  1.0  -0.4581
  O  O135  1  0.370640  0.584880  0.704820  1.0  -0.5683
  O  O136  1  0.562140  0.642470  0.702130  1.0  -0.5578
  O  O137  1  0.828540  0.318570  0.631070  1.0  -0.4105
  O  O138  1  0.739100  0.210430  0.580610  1.0  -0.4785
  O  O139  1  0.679610  0.742670  0.043930  1.0  -0.5544
  O  O140  1  0.784130  0.593500  0.073920  1.0  -0.4587
  O  O141  1  0.629360  0.415120  0.204820  1.0  -0.5691
  O  O142  1  0.437860  0.357530  0.202130  1.0  -0.5581
  O  O143  1  0.171460  0.681430  0.131070  1.0  -0.4104
  O  O144  1  0.260900  0.789570  0.080610  1.0  -0.4792
  O  O145  1  0.757330  0.179610  0.293930  1.0  -0.5539
  O  O146  1  0.906500  0.284130  0.323920  1.0  -0.4552
  O  O147  1  0.084880  0.129360  0.454820  1.0  -0.5689
  O  O148  1  0.142470  0.937860  0.452130  1.0  -0.5574
  O  O149  1  0.818570  0.671460  0.381070  1.0  -0.4114
  O  O150  1  0.710430  0.760900  0.330610  1.0  -0.4773
  O  O151  1  0.242670  0.820390  0.793930  1.0  -0.5539
  O  O152  1  0.093500  0.715870  0.823920  1.0  -0.4534
  O  O153  1  0.915120  0.870640  0.954820  1.0  -0.5663
  O  O154  1  0.857530  0.062140  0.952130  1.0  -0.5582
  O  O155  1  0.181430  0.328540  0.881070  1.0  -0.4102
  O  O156  1  0.289570  0.239100  0.830610  1.0  -0.4767
