# generated using pymatgen
data_NiH6(C3O2)6
_symmetry_space_group_name_H-M   'P 1'
_cell_length_a   11.19180000
_cell_length_b   11.19180000
_cell_length_c   31.56100000
_cell_angle_alpha   90.00000000
_cell_angle_beta   90.00000000
_cell_angle_gamma   90.00000000
_symmetry_Int_Tables_number   1
_chemical_formula_structural   NiH6(C3O2)6
_chemical_formula_sum   'Ni4 H24 C72 O48'
_cell_volume   3953.21683768
_cell_formula_units_Z   4
loop_
 _symmetry_equiv_pos_site_id
 _symmetry_equiv_pos_as_xyz
  1  'x, y, z'
loop_
 _atom_site_type_symbol
 _atom_site_label
 _atom_site_symmetry_multiplicity
 _atom_site_fract_x
 _atom_site_fract_y
 _atom_site_fract_z
 _atom_site_occupancy
 _atom_site_charge
  Ni  Ni1  1  0.800660  0.800660  0.000000  1.0  0.7307
  Ni  Ni2  1  0.199340  0.199340  0.500000  1.0  0.731
  Ni  Ni3  1  0.699340  0.300660  0.750000  1.0  0.7309
  Ni  Ni4  1  0.300660  0.699340  0.250000  1.0  0.731
  H  H5  1  0.011900  0.824100  0.114700  1.0  0.1572
  H  H6  1  0.041200  0.172300  0.084900  1.0  0.1588
  H  H7  1  0.240700  0.031500  0.178800  1.0  0.1597
  H  H8  1  0.988100  0.175900  0.614700  1.0  0.1567
  H  H9  1  0.958800  0.827700  0.584900  1.0  0.1588
  H  H10  1  0.759300  0.968500  0.678800  1.0  0.1596
  H  H11  1  0.675900  0.511900  0.864700  1.0  0.1562
  H  H12  1  0.327700  0.541200  0.834900  1.0  0.1588
  H  H13  1  0.468500  0.740700  0.928800  1.0  0.1602
  H  H14  1  0.324100  0.488100  0.364700  1.0  0.1559
  H  H15  1  0.672300  0.458800  0.334900  1.0  0.1587
  H  H16  1  0.531500  0.259300  0.428800  1.0  0.1601
  H  H17  1  0.488100  0.324100  0.635300  1.0  0.1568
  H  H18  1  0.458800  0.672300  0.665100  1.0  0.1576
  H  H19  1  0.259300  0.531500  0.571200  1.0  0.1597
  H  H20  1  0.511900  0.675900  0.135300  1.0  0.1568
  H  H21  1  0.541200  0.327700  0.165100  1.0  0.1577
  H  H22  1  0.740700  0.468500  0.071200  1.0  0.1595
  H  H23  1  0.824100  0.011900  0.885300  1.0  0.1563
  H  H24  1  0.172300  0.041200  0.915100  1.0  0.1574
  H  H25  1  0.031500  0.240700  0.821200  1.0  0.1602
  H  H26  1  0.175900  0.988100  0.385300  1.0  0.1561
  H  H27  1  0.827700  0.958800  0.415100  1.0  0.1574
  H  H28  1  0.968500  0.759300  0.321200  1.0  0.16
  C  C29  1  0.046400  0.898500  0.119420  1.0  0.0853
  C  C30  1  0.013500  0.995000  0.094000  1.0  -0.0982
  C  C31  1  0.064600  0.106800  0.101040  1.0  0.0601
  C  C32  1  0.151600  0.119900  0.132710  1.0  -0.1271
  C  C33  1  0.183200  0.022300  0.157750  1.0  0.0852
  C  C34  1  0.130100  0.911900  0.151720  1.0  -0.119
  C  C35  1  0.922300  0.975100  0.059770  1.0  0.725
  C  C36  1  0.207000  0.240900  0.139340  1.0  0.6594
  C  C37  1  0.158000  0.807100  0.180040  1.0  0.6785
  C  C38  1  0.953600  0.101500  0.619420  1.0  0.0861
  C  C39  1  0.986500  0.005000  0.594000  1.0  -0.0981
  C  C40  1  0.935400  0.893200  0.601040  1.0  0.0608
  C  C41  1  0.848400  0.880100  0.632710  1.0  -0.1271
  C  C42  1  0.816800  0.977700  0.657750  1.0  0.0854
  C  C43  1  0.869900  0.088100  0.651720  1.0  -0.119
  C  C44  1  0.077700  0.024900  0.559770  1.0  0.7236
  C  C45  1  0.793000  0.759100  0.639340  1.0  0.6588
  C  C46  1  0.842000  0.192900  0.680040  1.0  0.677
  C  C47  1  0.601500  0.546400  0.869420  1.0  0.085
  C  C48  1  0.505000  0.513500  0.844000  1.0  -0.0985
  C  C49  1  0.393200  0.564600  0.851040  1.0  0.0597
  C  C50  1  0.380100  0.651600  0.882710  1.0  -0.1268
  C  C51  1  0.477700  0.683200  0.907750  1.0  0.0853
  C  C52  1  0.588100  0.630100  0.901720  1.0  -0.1196
  C  C53  1  0.524900  0.422300  0.809770  1.0  0.7232
  C  C54  1  0.259100  0.707000  0.889340  1.0  0.6587
  C  C55  1  0.692900  0.658000  0.930040  1.0  0.6781
  C  C56  1  0.398500  0.453600  0.369420  1.0  0.0821
  C  C57  1  0.495000  0.486500  0.344000  1.0  -0.0981
  C  C58  1  0.606800  0.435400  0.351040  1.0  0.0602
  C  C59  1  0.619900  0.348400  0.382710  1.0  -0.1267
  C  C60  1  0.522300  0.316800  0.407750  1.0  0.086
  C  C61  1  0.411900  0.369900  0.401720  1.0  -0.1194
  C  C62  1  0.475100  0.577700  0.309770  1.0  0.7243
  C  C63  1  0.740900  0.293000  0.389340  1.0  0.6602
  C  C64  1  0.307100  0.342000  0.430040  1.0  0.6797
  C  C65  1  0.453600  0.398500  0.630580  1.0  0.0858
  C  C66  1  0.486500  0.495000  0.656000  1.0  -0.0991
  C  C67  1  0.435400  0.606800  0.648960  1.0  0.0608
  C  C68  1  0.348400  0.619900  0.617290  1.0  -0.1269
  C  C69  1  0.316800  0.522300  0.592250  1.0  0.0857
  C  C70  1  0.369900  0.411900  0.598280  1.0  -0.1193
  C  C71  1  0.577700  0.475100  0.690230  1.0  0.7237
  C  C72  1  0.293000  0.740900  0.610660  1.0  0.6596
  C  C73  1  0.342000  0.307100  0.569960  1.0  0.6767
  C  C74  1  0.546400  0.601500  0.130580  1.0  0.0857
  C  C75  1  0.513500  0.505000  0.156000  1.0  -0.0991
  C  C76  1  0.564600  0.393200  0.148960  1.0  0.0614
  C  C77  1  0.651600  0.380100  0.117290  1.0  -0.1268
  C  C78  1  0.683200  0.477700  0.092250  1.0  0.0855
  C  C79  1  0.630100  0.588100  0.098280  1.0  -0.1181
  C  C80  1  0.422300  0.524900  0.190230  1.0  0.7237
  C  C81  1  0.707000  0.259100  0.110660  1.0  0.6594
  C  C82  1  0.658000  0.692900  0.069960  1.0  0.679
  C  C83  1  0.898500  0.046400  0.880580  1.0  0.0827
  C  C84  1  0.995000  0.013500  0.906000  1.0  -0.0989
  C  C85  1  0.106800  0.064600  0.898960  1.0  0.0607
  C  C86  1  0.119900  0.151600  0.867290  1.0  -0.1269
  C  C87  1  0.022300  0.183200  0.842250  1.0  0.0854
  C  C88  1  0.911900  0.130100  0.848280  1.0  -0.1192
  C  C89  1  0.975100  0.922300  0.940230  1.0  0.7237
  C  C90  1  0.240900  0.207000  0.860660  1.0  0.66
  C  C91  1  0.807100  0.158000  0.819960  1.0  0.6806
  C  C92  1  0.101500  0.953600  0.380580  1.0  0.0841
  C  C93  1  0.005000  0.986500  0.406000  1.0  -0.0991
  C  C94  1  0.893200  0.935400  0.398960  1.0  0.0604
  C  C95  1  0.880100  0.848400  0.367290  1.0  -0.1272
  C  C96  1  0.977700  0.816800  0.342250  1.0  0.0864
  C  C97  1  0.088100  0.869900  0.348280  1.0  -0.119
  C  C98  1  0.024900  0.077700  0.440230  1.0  0.7227
  C  C99  1  0.759100  0.793000  0.360660  1.0  0.6592
  C  C100  1  0.192900  0.842000  0.319960  1.0  0.6776
  O  O101  1  0.093620  0.715790  0.176130  1.0  -0.4391
  O  O102  1  0.242330  0.820610  0.206180  1.0  -0.537
  O  O103  1  0.857110  0.061670  0.048100  1.0  -0.4514
  O  O104  1  0.915250  0.870590  0.045210  1.0  -0.5449
  O  O105  1  0.289200  0.239500  0.169360  1.0  -0.3904
  O  O106  1  0.180000  0.327980  0.119230  1.0  -0.4185
  O  O107  1  0.906380  0.284210  0.676130  1.0  -0.4409
  O  O108  1  0.757670  0.179390  0.706180  1.0  -0.5365
  O  O109  1  0.142890  0.938330  0.548100  1.0  -0.4488
  O  O110  1  0.084750  0.129410  0.545210  1.0  -0.5468
  O  O111  1  0.710800  0.760500  0.669360  1.0  -0.3911
  O  O112  1  0.820000  0.672020  0.619230  1.0  -0.4182
  O  O113  1  0.784210  0.593620  0.926130  1.0  -0.446
  O  O114  1  0.679390  0.742330  0.956180  1.0  -0.5371
  O  O115  1  0.438330  0.357110  0.798100  1.0  -0.4511
  O  O116  1  0.629410  0.415250  0.795210  1.0  -0.548
  O  O117  1  0.260500  0.789200  0.919360  1.0  -0.3912
  O  O118  1  0.172020  0.680000  0.869230  1.0  -0.4232
  O  O119  1  0.215790  0.406380  0.426130  1.0  -0.4445
  O  O120  1  0.320610  0.257670  0.456180  1.0  -0.5366
  O  O121  1  0.561670  0.642890  0.298100  1.0  -0.4486
  O  O122  1  0.370590  0.584750  0.295210  1.0  -0.5467
  O  O123  1  0.739500  0.210800  0.419360  1.0  -0.3895
  O  O124  1  0.827980  0.320000  0.369230  1.0  -0.4194
  O  O125  1  0.406380  0.215790  0.573870  1.0  -0.4395
  O  O126  1  0.257670  0.320610  0.543820  1.0  -0.5375
  O  O127  1  0.642890  0.561670  0.701900  1.0  -0.4487
  O  O128  1  0.584750  0.370590  0.704790  1.0  -0.5452
  O  O129  1  0.210800  0.739500  0.580640  1.0  -0.394
  O  O130  1  0.320000  0.827980  0.630770  1.0  -0.4188
  O  O131  1  0.593620  0.784210  0.073870  1.0  -0.4404
  O  O132  1  0.742330  0.679390  0.043820  1.0  -0.5378
  O  O133  1  0.357110  0.438330  0.201900  1.0  -0.4498
  O  O134  1  0.415250  0.629410  0.204790  1.0  -0.5457
  O  O135  1  0.789200  0.260500  0.080640  1.0  -0.3925
  O  O136  1  0.680000  0.172020  0.130770  1.0  -0.4201
  O  O137  1  0.715790  0.093620  0.823870  1.0  -0.4422
  O  O138  1  0.820610  0.242330  0.793820  1.0  -0.5388
  O  O139  1  0.061670  0.857110  0.951900  1.0  -0.4482
  O  O140  1  0.870590  0.915250  0.954790  1.0  -0.5462
  O  O141  1  0.239500  0.289200  0.830640  1.0  -0.3935
  O  O142  1  0.327980  0.180000  0.880770  1.0  -0.4204
  O  O143  1  0.284210  0.906380  0.323870  1.0  -0.4465
  O  O144  1  0.179390  0.757670  0.293820  1.0  -0.5376
  O  O145  1  0.938330  0.142890  0.451900  1.0  -0.4502
  O  O146  1  0.129410  0.084750  0.454790  1.0  -0.5475
  O  O147  1  0.760500  0.710800  0.330640  1.0  -0.3911
  O  O148  1  0.672020  0.820000  0.380770  1.0  -0.4233
