# generated using pymatgen
data_AgH20C15N4
_symmetry_space_group_name_H-M   'P 1'
_cell_length_a   8.60680000
_cell_length_b   24.65340000
_cell_length_c   35.74040000
_cell_angle_alpha   90.00000000
_cell_angle_beta   90.00000000
_cell_angle_gamma   90.00000000
_symmetry_Int_Tables_number   1
_chemical_formula_structural   AgH20C15N4
_chemical_formula_sum   'Ag16 H320 C240 N64'
_cell_volume   7583.64407746
_cell_formula_units_Z   16
loop_
 _symmetry_equiv_pos_site_id
 _symmetry_equiv_pos_as_xyz
  1  'x, y, z'
loop_
 _atom_site_type_symbol
 _atom_site_label
 _atom_site_symmetry_multiplicity
 _atom_site_fract_x
 _atom_site_fract_y
 _atom_site_fract_z
 _atom_site_occupancy
 _atom_site_charge
  Ag  Ag1  1  0.375000  0.375000  0.291550  1.0  0.3384
  Ag  Ag2  1  0.375000  0.875000  0.791550  1.0  0.3384
  Ag  Ag3  1  0.875000  0.375000  0.791550  1.0  0.3384
  Ag  Ag4  1  0.875000  0.875000  0.291550  1.0  0.3384
  Ag  Ag5  1  0.375000  0.375000  0.458450  1.0  0.3384
  Ag  Ag6  1  0.375000  0.875000  0.958450  1.0  0.3384
  Ag  Ag7  1  0.875000  0.375000  0.958450  1.0  0.3384
  Ag  Ag8  1  0.875000  0.875000  0.458450  1.0  0.3384
  Ag  Ag9  1  0.625000  0.625000  0.708450  1.0  0.339
  Ag  Ag10  1  0.625000  0.125000  0.208450  1.0  0.339
  Ag  Ag11  1  0.125000  0.625000  0.208450  1.0  0.339
  Ag  Ag12  1  0.125000  0.125000  0.708450  1.0  0.339
  Ag  Ag13  1  0.625000  0.625000  0.541550  1.0  0.3391
  Ag  Ag14  1  0.625000  0.125000  0.041550  1.0  0.3391
  Ag  Ag15  1  0.125000  0.625000  0.041550  1.0  0.3391
  Ag  Ag16  1  0.125000  0.125000  0.541550  1.0  0.3391
  H  H17  1  0.756300  0.207600  0.164300  1.0  0.2472
  H  H18  1  0.589600  0.272600  0.301700  1.0  0.0689
  H  H19  1  0.764800  0.214800  0.273900  1.0  0.0981
  H  H20  1  0.778900  0.313800  0.186500  1.0  0.1194
  H  H21  1  0.610700  0.369700  0.216300  1.0  0.0567
  H  H22  1  0.976000  0.240600  0.192600  1.0  0.0624
  H  H23  1  0.951700  0.196400  0.223700  1.0  0.0784
  H  H24  1  0.977100  0.129100  0.169500  1.0  0.0547
  H  H25  1  0.991100  0.179500  0.142800  1.0  0.0571
  H  H26  1  0.756100  0.098900  0.137500  1.0  0.063
  H  H27  1  0.756300  0.707600  0.664300  1.0  0.2472
  H  H28  1  0.589600  0.772600  0.801700  1.0  0.0689
  H  H29  1  0.764800  0.714800  0.773900  1.0  0.0981
  H  H30  1  0.778900  0.813800  0.686500  1.0  0.1194
  H  H31  1  0.610700  0.869700  0.716300  1.0  0.0567
  H  H32  1  0.976000  0.740600  0.692600  1.0  0.0624
  H  H33  1  0.951700  0.696400  0.723700  1.0  0.0784
  H  H34  1  0.977100  0.629100  0.669500  1.0  0.0547
  H  H35  1  0.991100  0.679500  0.642800  1.0  0.0571
  H  H36  1  0.756100  0.598900  0.637500  1.0  0.063
  H  H37  1  0.256300  0.207600  0.664300  1.0  0.2472
  H  H38  1  0.089600  0.272600  0.801700  1.0  0.0689
  H  H39  1  0.264800  0.214800  0.773900  1.0  0.0981
  H  H40  1  0.278900  0.313800  0.686500  1.0  0.1194
  H  H41  1  0.110700  0.369700  0.716300  1.0  0.0567
  H  H42  1  0.476000  0.240600  0.692600  1.0  0.0624
  H  H43  1  0.451700  0.196400  0.723700  1.0  0.0784
  H  H44  1  0.477100  0.129100  0.669500  1.0  0.0547
  H  H45  1  0.491100  0.179500  0.642800  1.0  0.0571
  H  H46  1  0.256100  0.098900  0.637500  1.0  0.063
  H  H47  1  0.256300  0.707600  0.164300  1.0  0.2472
  H  H48  1  0.089600  0.772600  0.301700  1.0  0.0689
  H  H49  1  0.264800  0.714800  0.273900  1.0  0.0981
  H  H50  1  0.278900  0.813800  0.186500  1.0  0.1194
  H  H51  1  0.110700  0.869700  0.216300  1.0  0.0567
  H  H52  1  0.476000  0.740600  0.192600  1.0  0.0624
  H  H53  1  0.451700  0.696400  0.223700  1.0  0.0784
  H  H54  1  0.477100  0.629100  0.169500  1.0  0.0547
  H  H55  1  0.491100  0.679500  0.142800  1.0  0.0571
  H  H56  1  0.256100  0.598900  0.137500  1.0  0.063
  H  H57  1  0.993700  0.542400  0.164300  1.0  0.2459
  H  H58  1  0.160400  0.477400  0.301700  1.0  0.0688
  H  H59  1  0.985200  0.535200  0.273900  1.0  0.0973
  H  H60  1  0.971100  0.436200  0.186500  1.0  0.119
  H  H61  1  0.139300  0.380300  0.216300  1.0  0.0577
  H  H62  1  0.774000  0.509400  0.192600  1.0  0.0617
  H  H63  1  0.798300  0.553600  0.223700  1.0  0.0773
  H  H64  1  0.772900  0.620900  0.169500  1.0  0.0545
  H  H65  1  0.758900  0.570500  0.142800  1.0  0.0574
  H  H66  1  0.993900  0.651100  0.137500  1.0  0.0617
  H  H67  1  0.993700  0.042400  0.664300  1.0  0.2459
  H  H68  1  0.160400  0.977400  0.801700  1.0  0.0688
  H  H69  1  0.985200  0.035200  0.773900  1.0  0.0973
  H  H70  1  0.971100  0.936200  0.686500  1.0  0.119
  H  H71  1  0.139300  0.880300  0.716300  1.0  0.0577
  H  H72  1  0.774000  0.009400  0.692600  1.0  0.0617
  H  H73  1  0.798300  0.053600  0.723700  1.0  0.0773
  H  H74  1  0.772900  0.120900  0.669500  1.0  0.0545
  H  H75  1  0.758900  0.070500  0.642800  1.0  0.0574
  H  H76  1  0.993900  0.151100  0.637500  1.0  0.0617
  H  H77  1  0.493700  0.542400  0.664300  1.0  0.2459
  H  H78  1  0.660400  0.477400  0.801700  1.0  0.0688
  H  H79  1  0.485200  0.535200  0.773900  1.0  0.0973
  H  H80  1  0.471100  0.436200  0.686500  1.0  0.119
  H  H81  1  0.639300  0.380300  0.716300  1.0  0.0577
  H  H82  1  0.274000  0.509400  0.692600  1.0  0.0617
  H  H83  1  0.298300  0.553600  0.723700  1.0  0.0773
  H  H84  1  0.272900  0.620900  0.669500  1.0  0.0545
  H  H85  1  0.258900  0.570500  0.642800  1.0  0.0574
  H  H86  1  0.493900  0.651100  0.637500  1.0  0.0617
  H  H87  1  0.493700  0.042400  0.164300  1.0  0.2459
  H  H88  1  0.660400  0.977400  0.301700  1.0  0.0688
  H  H89  1  0.485200  0.035200  0.273900  1.0  0.0973
  H  H90  1  0.471100  0.936200  0.186500  1.0  0.119
  H  H91  1  0.639300  0.880300  0.216300  1.0  0.0577
  H  H92  1  0.274000  0.009400  0.192600  1.0  0.0617
  H  H93  1  0.298300  0.053600  0.223700  1.0  0.0773
  H  H94  1  0.272900  0.120900  0.169500  1.0  0.0545
  H  H95  1  0.258900  0.070500  0.142800  1.0  0.0574
  H  H96  1  0.493900  0.151100  0.137500  1.0  0.0617
  H  H97  1  0.993700  0.207600  0.585700  1.0  0.2449
  H  H98  1  0.160400  0.272600  0.448300  1.0  0.0703
  H  H99  1  0.985200  0.214800  0.476100  1.0  0.0969
  H  H100  1  0.971100  0.313800  0.563500  1.0  0.1183
  H  H101  1  0.139300  0.369700  0.533700  1.0  0.0563
  H  H102  1  0.774000  0.240600  0.557400  1.0  0.0634
  H  H103  1  0.798300  0.196400  0.526300  1.0  0.0785
  H  H104  1  0.772900  0.129100  0.580500  1.0  0.0547
  H  H105  1  0.758900  0.179500  0.607200  1.0  0.0583
  H  H106  1  0.993900  0.098900  0.612500  1.0  0.0605
  H  H107  1  0.993700  0.707600  0.085700  1.0  0.2449
  H  H108  1  0.160400  0.772600  0.948300  1.0  0.0703
  H  H109  1  0.985200  0.714800  0.976100  1.0  0.0969
  H  H110  1  0.971100  0.813800  0.063500  1.0  0.1183
  H  H111  1  0.139300  0.869700  0.033700  1.0  0.0563
  H  H112  1  0.774000  0.740600  0.057400  1.0  0.0634
  H  H113  1  0.798300  0.696400  0.026300  1.0  0.0785
  H  H114  1  0.772900  0.629100  0.080500  1.0  0.0547
  H  H115  1  0.758900  0.679500  0.107200  1.0  0.0583
  H  H116  1  0.993900  0.598900  0.112500  1.0  0.0605
  H  H117  1  0.493700  0.207600  0.085700  1.0  0.2449
  H  H118  1  0.660400  0.272600  0.948300  1.0  0.0703
  H  H119  1  0.485200  0.214800  0.976100  1.0  0.0969
  H  H120  1  0.471100  0.313800  0.063500  1.0  0.1183
  H  H121  1  0.639300  0.369700  0.033700  1.0  0.0563
  H  H122  1  0.274000  0.240600  0.057400  1.0  0.0634
  H  H123  1  0.298300  0.196400  0.026300  1.0  0.0785
  H  H124  1  0.272900  0.129100  0.080500  1.0  0.0547
  H  H125  1  0.258900  0.179500  0.107200  1.0  0.0583
  H  H126  1  0.493900  0.098900  0.112500  1.0  0.0605
  H  H127  1  0.493700  0.707600  0.585700  1.0  0.2449
  H  H128  1  0.660400  0.772600  0.448300  1.0  0.0703
  H  H129  1  0.485200  0.714800  0.476100  1.0  0.0969
  H  H130  1  0.471100  0.813800  0.563500  1.0  0.1183
  H  H131  1  0.639300  0.869700  0.533700  1.0  0.0563
  H  H132  1  0.274000  0.740600  0.557400  1.0  0.0634
  H  H133  1  0.298300  0.696400  0.526300  1.0  0.0785
  H  H134  1  0.272900  0.629100  0.580500  1.0  0.0547
  H  H135  1  0.258900  0.679500  0.607200  1.0  0.0583
  H  H136  1  0.493900  0.598900  0.612500  1.0  0.0605
  H  H137  1  0.756300  0.542400  0.585700  1.0  0.2467
  H  H138  1  0.589600  0.477400  0.448300  1.0  0.07
  H  H139  1  0.764800  0.535200  0.476100  1.0  0.0974
  H  H140  1  0.778900  0.436200  0.563500  1.0  0.1188
  H  H141  1  0.610700  0.380300  0.533700  1.0  0.0577
  H  H142  1  0.976000  0.509400  0.557400  1.0  0.0626
  H  H143  1  0.951700  0.553600  0.526300  1.0  0.0782
  H  H144  1  0.977100  0.620900  0.580500  1.0  0.0549
  H  H145  1  0.991100  0.570500  0.607200  1.0  0.0577
  H  H146  1  0.756100  0.651100  0.612500  1.0  0.0623
  H  H147  1  0.756300  0.042400  0.085700  1.0  0.2467
  H  H148  1  0.589600  0.977400  0.948300  1.0  0.07
  H  H149  1  0.764800  0.035200  0.976100  1.0  0.0974
  H  H150  1  0.778900  0.936200  0.063500  1.0  0.1188
  H  H151  1  0.610700  0.880300  0.033700  1.0  0.0577
  H  H152  1  0.976000  0.009400  0.057400  1.0  0.0626
  H  H153  1  0.951700  0.053600  0.026300  1.0  0.0782
  H  H154  1  0.977100  0.120900  0.080500  1.0  0.0549
  H  H155  1  0.991100  0.070500  0.107200  1.0  0.0577
  H  H156  1  0.756100  0.151100  0.112500  1.0  0.0623
  H  H157  1  0.256300  0.542400  0.085700  1.0  0.2467
  H  H158  1  0.089600  0.477400  0.948300  1.0  0.07
  H  H159  1  0.264800  0.535200  0.976100  1.0  0.0974
  H  H160  1  0.278900  0.436200  0.063500  1.0  0.1188
  H  H161  1  0.110700  0.380300  0.033700  1.0  0.0577
  H  H162  1  0.476000  0.509400  0.057400  1.0  0.0626
  H  H163  1  0.451700  0.553600  0.026300  1.0  0.0782
  H  H164  1  0.477100  0.620900  0.080500  1.0  0.0549
  H  H165  1  0.491100  0.570500  0.107200  1.0  0.0577
  H  H166  1  0.256100  0.651100  0.112500  1.0  0.0623
  H  H167  1  0.256300  0.042400  0.585700  1.0  0.2467
  H  H168  1  0.089600  0.977400  0.448300  1.0  0.07
  H  H169  1  0.264800  0.035200  0.476100  1.0  0.0974
  H  H170  1  0.278900  0.936200  0.563500  1.0  0.1188
  H  H171  1  0.110700  0.880300  0.533700  1.0  0.0577
  H  H172  1  0.476000  0.009400  0.557400  1.0  0.0626
  H  H173  1  0.451700  0.053600  0.526300  1.0  0.0782
  H  H174  1  0.477100  0.120900  0.580500  1.0  0.0549
  H  H175  1  0.491100  0.070500  0.607200  1.0  0.0577
  H  H176  1  0.256100  0.151100  0.612500  1.0  0.0623
  H  H177  1  0.243700  0.792400  0.835700  1.0  0.2465
  H  H178  1  0.410400  0.727400  0.698300  1.0  0.0699
  H  H179  1  0.235200  0.785200  0.726100  1.0  0.0972
  H  H180  1  0.221100  0.686200  0.813500  1.0  0.1185
  H  H181  1  0.389300  0.630300  0.783700  1.0  0.0569
  H  H182  1  0.024000  0.759400  0.807400  1.0  0.0631
  H  H183  1  0.048300  0.803600  0.776300  1.0  0.0781
  H  H184  1  0.022900  0.870900  0.830500  1.0  0.0556
  H  H185  1  0.008900  0.820500  0.857200  1.0  0.0588
  H  H186  1  0.243900  0.901100  0.862500  1.0  0.061
  H  H187  1  0.243700  0.292400  0.335700  1.0  0.2465
  H  H188  1  0.410400  0.227400  0.198300  1.0  0.0699
  H  H189  1  0.235200  0.285200  0.226100  1.0  0.0972
  H  H190  1  0.221100  0.186200  0.313500  1.0  0.1185
  H  H191  1  0.389300  0.130300  0.283700  1.0  0.0569
  H  H192  1  0.024000  0.259400  0.307400  1.0  0.0631
  H  H193  1  0.048300  0.303600  0.276300  1.0  0.0781
  H  H194  1  0.022900  0.370900  0.330500  1.0  0.0556
  H  H195  1  0.008900  0.320500  0.357200  1.0  0.0588
  H  H196  1  0.243900  0.401100  0.362500  1.0  0.061
  H  H197  1  0.743700  0.792400  0.335700  1.0  0.2465
  H  H198  1  0.910400  0.727400  0.198300  1.0  0.0699
  H  H199  1  0.735200  0.785200  0.226100  1.0  0.0972
  H  H200  1  0.721100  0.686200  0.313500  1.0  0.1185
  H  H201  1  0.889300  0.630300  0.283700  1.0  0.0569
  H  H202  1  0.524000  0.759400  0.307400  1.0  0.0631
  H  H203  1  0.548300  0.803600  0.276300  1.0  0.0781
  H  H204  1  0.522900  0.870900  0.330500  1.0  0.0556
  H  H205  1  0.508900  0.820500  0.357200  1.0  0.0588
  H  H206  1  0.743900  0.901100  0.362500  1.0  0.061
  H  H207  1  0.743700  0.292400  0.835700  1.0  0.2465
  H  H208  1  0.910400  0.227400  0.698300  1.0  0.0699
  H  H209  1  0.735200  0.285200  0.726100  1.0  0.0972
  H  H210  1  0.721100  0.186200  0.813500  1.0  0.1185
  H  H211  1  0.889300  0.130300  0.783700  1.0  0.0569
  H  H212  1  0.524000  0.259400  0.807400  1.0  0.0631
  H  H213  1  0.548300  0.303600  0.776300  1.0  0.0781
  H  H214  1  0.522900  0.370900  0.830500  1.0  0.0556
  H  H215  1  0.508900  0.320500  0.857200  1.0  0.0588
  H  H216  1  0.743900  0.401100  0.862500  1.0  0.061
  H  H217  1  0.006300  0.457600  0.835700  1.0  0.2457
  H  H218  1  0.839600  0.522600  0.698300  1.0  0.0703
  H  H219  1  0.014800  0.464800  0.726100  1.0  0.0969
  H  H220  1  0.028900  0.563800  0.813500  1.0  0.1185
  H  H221  1  0.860700  0.619700  0.783700  1.0  0.0569
  H  H222  1  0.226000  0.490600  0.807400  1.0  0.0625
  H  H223  1  0.201700  0.446400  0.776300  1.0  0.0785
  H  H224  1  0.227100  0.379100  0.830500  1.0  0.0541
  H  H225  1  0.241100  0.429500  0.857200  1.0  0.0575
  H  H226  1  0.006100  0.348900  0.862500  1.0  0.0616
  H  H227  1  0.006300  0.957600  0.335700  1.0  0.2457
  H  H228  1  0.839600  0.022600  0.198300  1.0  0.0703
  H  H229  1  0.014800  0.964800  0.226100  1.0  0.0969
  H  H230  1  0.028900  0.063800  0.313500  1.0  0.1185
  H  H231  1  0.860700  0.119700  0.283700  1.0  0.0569
  H  H232  1  0.226000  0.990600  0.307400  1.0  0.0625
  H  H233  1  0.201700  0.946400  0.276300  1.0  0.0785
  H  H234  1  0.227100  0.879100  0.330500  1.0  0.0541
  H  H235  1  0.241100  0.929500  0.357200  1.0  0.0575
  H  H236  1  0.006100  0.848900  0.362500  1.0  0.0616
  H  H237  1  0.506300  0.457600  0.335700  1.0  0.2457
  H  H238  1  0.339600  0.522600  0.198300  1.0  0.0703
  H  H239  1  0.514800  0.464800  0.226100  1.0  0.0969
  H  H240  1  0.528900  0.563800  0.313500  1.0  0.1185
  H  H241  1  0.360700  0.619700  0.283700  1.0  0.0569
  H  H242  1  0.726000  0.490600  0.307400  1.0  0.0625
  H  H243  1  0.701700  0.446400  0.276300  1.0  0.0785
  H  H244  1  0.727100  0.379100  0.330500  1.0  0.0541
  H  H245  1  0.741100  0.429500  0.357200  1.0  0.0575
  H  H246  1  0.506100  0.348900  0.362500  1.0  0.0616
  H  H247  1  0.506300  0.957600  0.835700  1.0  0.2457
  H  H248  1  0.339600  0.022600  0.698300  1.0  0.0703
  H  H249  1  0.514800  0.964800  0.726100  1.0  0.0969
  H  H250  1  0.528900  0.063800  0.813500  1.0  0.1185
  H  H251  1  0.360700  0.119700  0.783700  1.0  0.0569
  H  H252  1  0.726000  0.990600  0.807400  1.0  0.0625
  H  H253  1  0.701700  0.946400  0.776300  1.0  0.0785
  H  H254  1  0.727100  0.879100  0.830500  1.0  0.0541
  H  H255  1  0.741100  0.929500  0.857200  1.0  0.0575
  H  H256  1  0.506100  0.848900  0.862500  1.0  0.0616
  H  H257  1  0.006300  0.792400  0.414300  1.0  0.2464
  H  H258  1  0.839600  0.727400  0.551700  1.0  0.0688
  H  H259  1  0.014800  0.785200  0.523900  1.0  0.0977
  H  H260  1  0.028900  0.686200  0.436500  1.0  0.1192
  H  H261  1  0.860700  0.630300  0.466300  1.0  0.0574
  H  H262  1  0.226000  0.759400  0.442600  1.0  0.0612
  H  H263  1  0.201700  0.803600  0.473700  1.0  0.0778
  H  H264  1  0.227100  0.870900  0.419500  1.0  0.0539
  H  H265  1  0.241100  0.820500  0.392800  1.0  0.0565
  H  H266  1  0.006100  0.901100  0.387500  1.0  0.0625
  H  H267  1  0.006300  0.292400  0.914300  1.0  0.2464
  H  H268  1  0.839600  0.227400  0.051700  1.0  0.0688
  H  H269  1  0.014800  0.285200  0.023900  1.0  0.0977
  H  H270  1  0.028900  0.186200  0.936500  1.0  0.1192
  H  H271  1  0.860700  0.130300  0.966300  1.0  0.0574
  H  H272  1  0.226000  0.259400  0.942600  1.0  0.0612
  H  H273  1  0.201700  0.303600  0.973700  1.0  0.0778
  H  H274  1  0.227100  0.370900  0.919500  1.0  0.0539
  H  H275  1  0.241100  0.320500  0.892800  1.0  0.0565
  H  H276  1  0.006100  0.401100  0.887500  1.0  0.0625
  H  H277  1  0.506300  0.792400  0.914300  1.0  0.2464
  H  H278  1  0.339600  0.727400  0.051700  1.0  0.0688
  H  H279  1  0.514800  0.785200  0.023900  1.0  0.0977
  H  H280  1  0.528900  0.686200  0.936500  1.0  0.1192
  H  H281  1  0.360700  0.630300  0.966300  1.0  0.0574
  H  H282  1  0.726000  0.759400  0.942600  1.0  0.0612
  H  H283  1  0.701700  0.803600  0.973700  1.0  0.0778
  H  H284  1  0.727100  0.870900  0.919500  1.0  0.0539
  H  H285  1  0.741100  0.820500  0.892800  1.0  0.0565
  H  H286  1  0.506100  0.901100  0.887500  1.0  0.0625
  H  H287  1  0.506300  0.292400  0.414300  1.0  0.2464
  H  H288  1  0.339600  0.227400  0.551700  1.0  0.0688
  H  H289  1  0.514800  0.285200  0.523900  1.0  0.0977
  H  H290  1  0.528900  0.186200  0.436500  1.0  0.1192
  H  H291  1  0.360700  0.130300  0.466300  1.0  0.0574
  H  H292  1  0.726000  0.259400  0.442600  1.0  0.0612
  H  H293  1  0.701700  0.303600  0.473700  1.0  0.0778
  H  H294  1  0.727100  0.370900  0.419500  1.0  0.0539
  H  H295  1  0.741100  0.320500  0.392800  1.0  0.0565
  H  H296  1  0.506100  0.401100  0.387500  1.0  0.0625
  H  H297  1  0.243700  0.457600  0.414300  1.0  0.2459
  H  H298  1  0.410400  0.522600  0.551700  1.0  0.069
  H  H299  1  0.235200  0.464800  0.523900  1.0  0.098
  H  H300  1  0.221100  0.563800  0.436500  1.0  0.1193
  H  H301  1  0.389300  0.619700  0.466300  1.0  0.0568
  H  H302  1  0.024000  0.490600  0.442600  1.0  0.0633
  H  H303  1  0.048300  0.446400  0.473700  1.0  0.0782
  H  H304  1  0.022900  0.379100  0.419500  1.0  0.0555
  H  H305  1  0.008900  0.429500  0.392800  1.0  0.058
  H  H306  1  0.243900  0.348900  0.387500  1.0  0.0622
  H  H307  1  0.243700  0.957600  0.914300  1.0  0.2459
  H  H308  1  0.410400  0.022600  0.051700  1.0  0.069
  H  H309  1  0.235200  0.964800  0.023900  1.0  0.098
  H  H310  1  0.221100  0.063800  0.936500  1.0  0.1193
  H  H311  1  0.389300  0.119700  0.966300  1.0  0.0568
  H  H312  1  0.024000  0.990600  0.942600  1.0  0.0633
  H  H313  1  0.048300  0.946400  0.973700  1.0  0.0782
  H  H314  1  0.022900  0.879100  0.919500  1.0  0.0555
  H  H315  1  0.008900  0.929500  0.892800  1.0  0.058
  H  H316  1  0.243900  0.848900  0.887500  1.0  0.0622
  H  H317  1  0.743700  0.457600  0.914300  1.0  0.2459
  H  H318  1  0.910400  0.522600  0.051700  1.0  0.069
  H  H319  1  0.735200  0.464800  0.023900  1.0  0.098
  H  H320  1  0.721100  0.563800  0.936500  1.0  0.1193
  H  H321  1  0.889300  0.619700  0.966300  1.0  0.0568
  H  H322  1  0.524000  0.490600  0.942600  1.0  0.0633
  H  H323  1  0.548300  0.446400  0.973700  1.0  0.0782
  H  H324  1  0.522900  0.379100  0.919500  1.0  0.0555
  H  H325  1  0.508900  0.429500  0.892800  1.0  0.058
  H  H326  1  0.743900  0.348900  0.887500  1.0  0.0622
  H  H327  1  0.743700  0.957600  0.414300  1.0  0.2459
  H  H328  1  0.910400  0.022600  0.551700  1.0  0.069
  H  H329  1  0.735200  0.964800  0.523900  1.0  0.098
  H  H330  1  0.721100  0.063800  0.436500  1.0  0.1193
  H  H331  1  0.889300  0.119700  0.466300  1.0  0.0568
  H  H332  1  0.524000  0.990600  0.442600  1.0  0.0633
  H  H333  1  0.548300  0.946400  0.473700  1.0  0.0782
  H  H334  1  0.522900  0.879100  0.419500  1.0  0.0555
  H  H335  1  0.508900  0.929500  0.392800  1.0  0.058
  H  H336  1  0.743900  0.848900  0.387500  1.0  0.0622
  C  C337  1  0.627500  0.281200  0.278100  1.0  0.1559
  C  C338  1  0.732900  0.246000  0.261400  1.0  -0.2039
  C  C339  1  0.789400  0.257400  0.226600  1.0  0.0905
  C  C340  1  0.741700  0.304400  0.210100  1.0  -0.2897
  C  C341  1  0.639200  0.337700  0.228200  1.0  0.1586
  C  C342  1  0.898500  0.219600  0.205900  1.0  -0.0786
  C  C343  1  0.918500  0.154900  0.154700  1.0  -0.0084
  C  C344  1  0.627500  0.781200  0.778100  1.0  0.1559
  C  C345  1  0.732900  0.746000  0.761400  1.0  -0.2039
  C  C346  1  0.789400  0.757400  0.726600  1.0  0.0905
  C  C347  1  0.741700  0.804400  0.710100  1.0  -0.2897
  C  C348  1  0.639200  0.837700  0.728200  1.0  0.1586
  C  C349  1  0.898500  0.719600  0.705900  1.0  -0.0786
  C  C350  1  0.918500  0.654900  0.654700  1.0  -0.0084
  C  C351  1  0.127500  0.281200  0.778100  1.0  0.1559
  C  C352  1  0.232900  0.246000  0.761400  1.0  -0.2039
  C  C353  1  0.289400  0.257400  0.726600  1.0  0.0905
  C  C354  1  0.241700  0.304400  0.710100  1.0  -0.2897
  C  C355  1  0.139200  0.337700  0.728200  1.0  0.1586
  C  C356  1  0.398500  0.219600  0.705900  1.0  -0.0786
  C  C357  1  0.418500  0.154900  0.654700  1.0  -0.0084
  C  C358  1  0.127500  0.781200  0.278100  1.0  0.1559
  C  C359  1  0.232900  0.746000  0.261400  1.0  -0.2039
  C  C360  1  0.289400  0.757400  0.226600  1.0  0.0905
  C  C361  1  0.241700  0.804400  0.210100  1.0  -0.2897
  C  C362  1  0.139200  0.837700  0.228200  1.0  0.1586
  C  C363  1  0.398500  0.719600  0.205900  1.0  -0.0786
  C  C364  1  0.418500  0.654900  0.154700  1.0  -0.0084
  C  C365  1  0.122500  0.468800  0.278100  1.0  0.1559
  C  C366  1  0.017100  0.504000  0.261400  1.0  -0.2044
  C  C367  1  0.960600  0.492600  0.226600  1.0  0.0906
  C  C368  1  0.008300  0.445600  0.210100  1.0  -0.2889
  C  C369  1  0.110800  0.412300  0.228200  1.0  0.1571
  C  C370  1  0.851500  0.530400  0.205900  1.0  -0.0791
  C  C371  1  0.831500  0.595100  0.154700  1.0  -0.0111
  C  C372  1  0.122500  0.968800  0.778100  1.0  0.1559
  C  C373  1  0.017100  0.004000  0.761400  1.0  -0.2044
  C  C374  1  0.960600  0.992600  0.726600  1.0  0.0906
  C  C375  1  0.008300  0.945600  0.710100  1.0  -0.2889
  C  C376  1  0.110800  0.912300  0.728200  1.0  0.1571
  C  C377  1  0.851500  0.030400  0.705900  1.0  -0.0791
  C  C378  1  0.831500  0.095100  0.654700  1.0  -0.0111
  C  C379  1  0.622500  0.468800  0.778100  1.0  0.1559
  C  C380  1  0.517100  0.504000  0.761400  1.0  -0.2044
  C  C381  1  0.460600  0.492600  0.726600  1.0  0.0906
  C  C382  1  0.508300  0.445600  0.710100  1.0  -0.2889
  C  C383  1  0.610800  0.412300  0.728200  1.0  0.1571
  C  C384  1  0.351500  0.530400  0.705900  1.0  -0.0791
  C  C385  1  0.331500  0.595100  0.654700  1.0  -0.0111
  C  C386  1  0.622500  0.968800  0.278100  1.0  0.1559
  C  C387  1  0.517100  0.004000  0.261400  1.0  -0.2044
  C  C388  1  0.460600  0.992600  0.226600  1.0  0.0906
  C  C389  1  0.508300  0.945600  0.210100  1.0  -0.2889
  C  C390  1  0.610800  0.912300  0.228200  1.0  0.1571
  C  C391  1  0.351500  0.030400  0.205900  1.0  -0.0791
  C  C392  1  0.331500  0.095100  0.154700  1.0  -0.0111
  C  C393  1  0.122500  0.281200  0.471900  1.0  0.1569
  C  C394  1  0.017100  0.246000  0.488600  1.0  -0.2053
  C  C395  1  0.960600  0.257400  0.523400  1.0  0.0907
  C  C396  1  0.008300  0.304400  0.539900  1.0  -0.2909
  C  C397  1  0.110800  0.337700  0.521800  1.0  0.1588
  C  C398  1  0.851500  0.219600  0.544100  1.0  -0.0798
  C  C399  1  0.831500  0.154900  0.595300  1.0  -0.0116
  C  C400  1  0.122500  0.781200  0.971900  1.0  0.1569
  C  C401  1  0.017100  0.746000  0.988600  1.0  -0.2053
  C  C402  1  0.960600  0.757400  0.023400  1.0  0.0907
  C  C403  1  0.008300  0.804400  0.039900  1.0  -0.2909
  C  C404  1  0.110800  0.837700  0.021800  1.0  0.1588
  C  C405  1  0.851500  0.719600  0.044100  1.0  -0.0798
  C  C406  1  0.831500  0.654900  0.095300  1.0  -0.0116
  C  C407  1  0.622500  0.281200  0.971900  1.0  0.1569
  C  C408  1  0.517100  0.246000  0.988600  1.0  -0.2053
  C  C409  1  0.460600  0.257400  0.023400  1.0  0.0907
  C  C410  1  0.508300  0.304400  0.039900  1.0  -0.2909
  C  C411  1  0.610800  0.337700  0.021800  1.0  0.1588
  C  C412  1  0.351500  0.219600  0.044100  1.0  -0.0798
  C  C413  1  0.331500  0.154900  0.095300  1.0  -0.0116
  C  C414  1  0.622500  0.781200  0.471900  1.0  0.1569
  C  C415  1  0.517100  0.746000  0.488600  1.0  -0.2053
  C  C416  1  0.460600  0.757400  0.523400  1.0  0.0907
  C  C417  1  0.508300  0.804400  0.539900  1.0  -0.2909
  C  C418  1  0.610800  0.837700  0.521800  1.0  0.1588
  C  C419  1  0.351500  0.719600  0.544100  1.0  -0.0798
  C  C420  1  0.331500  0.654900  0.595300  1.0  -0.0116
  C  C421  1  0.627500  0.468800  0.471900  1.0  0.1561
  C  C422  1  0.732900  0.504000  0.488600  1.0  -0.2054
  C  C423  1  0.789400  0.492600  0.523400  1.0  0.0908
  C  C424  1  0.741700  0.445600  0.539900  1.0  -0.2888
  C  C425  1  0.639200  0.412300  0.521800  1.0  0.1579
  C  C426  1  0.898500  0.530400  0.544100  1.0  -0.0793
  C  C427  1  0.918500  0.595100  0.595300  1.0  -0.0087
  C  C428  1  0.627500  0.968800  0.971900  1.0  0.1561
  C  C429  1  0.732900  0.004000  0.988600  1.0  -0.2054
  C  C430  1  0.789400  0.992600  0.023400  1.0  0.0908
  C  C431  1  0.741700  0.945600  0.039900  1.0  -0.2888
  C  C432  1  0.639200  0.912300  0.021800  1.0  0.1579
  C  C433  1  0.898500  0.030400  0.044100  1.0  -0.0793
  C  C434  1  0.918500  0.095100  0.095300  1.0  -0.0087
  C  C435  1  0.127500  0.468800  0.971900  1.0  0.1561
  C  C436  1  0.232900  0.504000  0.988600  1.0  -0.2054
  C  C437  1  0.289400  0.492600  0.023400  1.0  0.0908
  C  C438  1  0.241700  0.445600  0.039900  1.0  -0.2888
  C  C439  1  0.139200  0.412300  0.021800  1.0  0.1579
  C  C440  1  0.398500  0.530400  0.044100  1.0  -0.0793
  C  C441  1  0.418500  0.595100  0.095300  1.0  -0.0087
  C  C442  1  0.127500  0.968800  0.471900  1.0  0.1561
  C  C443  1  0.232900  0.004000  0.488600  1.0  -0.2054
  C  C444  1  0.289400  0.992600  0.523400  1.0  0.0908
  C  C445  1  0.241700  0.945600  0.539900  1.0  -0.2888
  C  C446  1  0.139200  0.912300  0.521800  1.0  0.1579
  C  C447  1  0.398500  0.030400  0.544100  1.0  -0.0793
  C  C448  1  0.418500  0.095100  0.595300  1.0  -0.0087
  C  C449  1  0.372500  0.718800  0.721900  1.0  0.1561
  C  C450  1  0.267100  0.754000  0.738600  1.0  -0.2062
  C  C451  1  0.210600  0.742600  0.773400  1.0  0.0909
  C  C452  1  0.258300  0.695600  0.789900  1.0  -0.2896
  C  C453  1  0.360800  0.662300  0.771800  1.0  0.1588
  C  C454  1  0.101500  0.780400  0.794100  1.0  -0.0796
  C  C455  1  0.081500  0.845100  0.845300  1.0  -0.0114
  C  C456  1  0.372500  0.218800  0.221900  1.0  0.1561
  C  C457  1  0.267100  0.254000  0.238600  1.0  -0.2062
  C  C458  1  0.210600  0.242600  0.273400  1.0  0.0909
  C  C459  1  0.258300  0.195600  0.289900  1.0  -0.2896
  C  C460  1  0.360800  0.162300  0.271800  1.0  0.1588
  C  C461  1  0.101500  0.280400  0.294100  1.0  -0.0796
  C  C462  1  0.081500  0.345100  0.345300  1.0  -0.0114
  C  C463  1  0.872500  0.718800  0.221900  1.0  0.1561
  C  C464  1  0.767100  0.754000  0.238600  1.0  -0.2062
  C  C465  1  0.710600  0.742600  0.273400  1.0  0.0909
  C  C466  1  0.758300  0.695600  0.289900  1.0  -0.2896
  C  C467  1  0.860800  0.662300  0.271800  1.0  0.1588
  C  C468  1  0.601500  0.780400  0.294100  1.0  -0.0796
  C  C469  1  0.581500  0.845100  0.345300  1.0  -0.0114
  C  C470  1  0.872500  0.218800  0.721900  1.0  0.1561
  C  C471  1  0.767100  0.254000  0.738600  1.0  -0.2062
  C  C472  1  0.710600  0.242600  0.773400  1.0  0.0909
  C  C473  1  0.758300  0.195600  0.789900  1.0  -0.2896
  C  C474  1  0.860800  0.162300  0.771800  1.0  0.1588
  C  C475  1  0.601500  0.280400  0.794100  1.0  -0.0796
  C  C476  1  0.581500  0.345100  0.845300  1.0  -0.0114
  C  C477  1  0.877500  0.531200  0.721900  1.0  0.1567
  C  C478  1  0.982900  0.496000  0.738600  1.0  -0.2047
  C  C479  1  0.039400  0.507400  0.773400  1.0  0.0907
  C  C480  1  0.991700  0.554400  0.789900  1.0  -0.29
  C  C481  1  0.889200  0.587700  0.771800  1.0  0.1571
  C  C482  1  0.148500  0.469600  0.794100  1.0  -0.0792
  C  C483  1  0.168500  0.404900  0.845300  1.0  -0.0084
  C  C484  1  0.877500  0.031200  0.221900  1.0  0.1567
  C  C485  1  0.982900  0.996000  0.238600  1.0  -0.2047
  C  C486  1  0.039400  0.007400  0.273400  1.0  0.0907
  C  C487  1  0.991700  0.054400  0.289900  1.0  -0.29
  C  C488  1  0.889200  0.087700  0.271800  1.0  0.1571
  C  C489  1  0.148500  0.969600  0.294100  1.0  -0.0792
  C  C490  1  0.168500  0.904900  0.345300  1.0  -0.0084
  C  C491  1  0.377500  0.531200  0.221900  1.0  0.1567
  C  C492  1  0.482900  0.496000  0.238600  1.0  -0.2047
  C  C493  1  0.539400  0.507400  0.273400  1.0  0.0907
  C  C494  1  0.491700  0.554400  0.289900  1.0  -0.29
  C  C495  1  0.389200  0.587700  0.271800  1.0  0.1571
  C  C496  1  0.648500  0.469600  0.294100  1.0  -0.0792
  C  C497  1  0.668500  0.404900  0.345300  1.0  -0.0084
  C  C498  1  0.377500  0.031200  0.721900  1.0  0.1567
  C  C499  1  0.482900  0.996000  0.738600  1.0  -0.2047
  C  C500  1  0.539400  0.007400  0.773400  1.0  0.0907
  C  C501  1  0.491700  0.054400  0.789900  1.0  -0.29
  C  C502  1  0.389200  0.087700  0.771800  1.0  0.1571
  C  C503  1  0.648500  0.969600  0.794100  1.0  -0.0792
  C  C504  1  0.668500  0.904900  0.845300  1.0  -0.0084
  C  C505  1  0.877500  0.718800  0.528100  1.0  0.1555
  C  C506  1  0.982900  0.754000  0.511400  1.0  -0.2037
  C  C507  1  0.039400  0.742600  0.476600  1.0  0.0906
  C  C508  1  0.991700  0.695600  0.460100  1.0  -0.2889
  C  C509  1  0.889200  0.662300  0.478200  1.0  0.1576
  C  C510  1  0.148500  0.780400  0.455900  1.0  -0.0789
  C  C511  1  0.168500  0.845100  0.404700  1.0  -0.0086
  C  C512  1  0.877500  0.218800  0.028100  1.0  0.1555
  C  C513  1  0.982900  0.254000  0.011400  1.0  -0.2037
  C  C514  1  0.039400  0.242600  0.976600  1.0  0.0906
  C  C515  1  0.991700  0.195600  0.960100  1.0  -0.2889
  C  C516  1  0.889200  0.162300  0.978200  1.0  0.1576
  C  C517  1  0.148500  0.280400  0.955900  1.0  -0.0789
  C  C518  1  0.168500  0.345100  0.904700  1.0  -0.0086
  C  C519  1  0.377500  0.718800  0.028100  1.0  0.1555
  C  C520  1  0.482900  0.754000  0.011400  1.0  -0.2037
  C  C521  1  0.539400  0.742600  0.976600  1.0  0.0906
  C  C522  1  0.491700  0.695600  0.960100  1.0  -0.2889
  C  C523  1  0.389200  0.662300  0.978200  1.0  0.1576
  C  C524  1  0.648500  0.780400  0.955900  1.0  -0.0789
  C  C525  1  0.668500  0.845100  0.904700  1.0  -0.0086
  C  C526  1  0.377500  0.218800  0.528100  1.0  0.1555
  C  C527  1  0.482900  0.254000  0.511400  1.0  -0.2037
  C  C528  1  0.539400  0.242600  0.476600  1.0  0.0906
  C  C529  1  0.491700  0.195600  0.460100  1.0  -0.2889
  C  C530  1  0.389200  0.162300  0.478200  1.0  0.1576
  C  C531  1  0.648500  0.280400  0.455900  1.0  -0.0789
  C  C532  1  0.668500  0.345100  0.404700  1.0  -0.0086
  C  C533  1  0.372500  0.531200  0.528100  1.0  0.1564
  C  C534  1  0.267100  0.496000  0.511400  1.0  -0.2046
  C  C535  1  0.210600  0.507400  0.476600  1.0  0.0904
  C  C536  1  0.258300  0.554400  0.460100  1.0  -0.2903
  C  C537  1  0.360800  0.587700  0.478200  1.0  0.1585
  C  C538  1  0.101500  0.469600  0.455900  1.0  -0.0793
  C  C539  1  0.081500  0.404900  0.404700  1.0  -0.0116
  C  C540  1  0.372500  0.031200  0.028100  1.0  0.1564
  C  C541  1  0.267100  0.996000  0.011400  1.0  -0.2046
  C  C542  1  0.210600  0.007400  0.976600  1.0  0.0904
  C  C543  1  0.258300  0.054400  0.960100  1.0  -0.2903
  C  C544  1  0.360800  0.087700  0.978200  1.0  0.1585
  C  C545  1  0.101500  0.969600  0.955900  1.0  -0.0793
  C  C546  1  0.081500  0.904900  0.904700  1.0  -0.0116
  C  C547  1  0.872500  0.531200  0.028100  1.0  0.1564
  C  C548  1  0.767100  0.496000  0.011400  1.0  -0.2046
  C  C549  1  0.710600  0.507400  0.976600  1.0  0.0904
  C  C550  1  0.758300  0.554400  0.960100  1.0  -0.2903
  C  C551  1  0.860800  0.587700  0.978200  1.0  0.1585
  C  C552  1  0.601500  0.469600  0.955900  1.0  -0.0793
  C  C553  1  0.581500  0.404900  0.904700  1.0  -0.0116
  C  C554  1  0.872500  0.031200  0.528100  1.0  0.1564
  C  C555  1  0.767100  0.996000  0.511400  1.0  -0.2046
  C  C556  1  0.710600  0.007400  0.476600  1.0  0.0904
  C  C557  1  0.758300  0.054400  0.460100  1.0  -0.2903
  C  C558  1  0.860800  0.087700  0.478200  1.0  0.1585
  C  C559  1  0.601500  0.969600  0.455900  1.0  -0.0793
  C  C560  1  0.581500  0.904900  0.404700  1.0  -0.0116
  C  C561  1  0.822700  0.125000  0.125000  1.0  -0.1388
  C  C562  1  0.822700  0.625000  0.625000  1.0  -0.1388
  C  C563  1  0.322700  0.125000  0.625000  1.0  -0.1388
  C  C564  1  0.927300  0.625000  0.125000  1.0  -0.1328
  C  C565  1  0.427300  0.625000  0.625000  1.0  -0.1328
  C  C566  1  0.927300  0.125000  0.625000  1.0  -0.1328
  C  C567  1  0.427300  0.125000  0.125000  1.0  -0.1328
  C  C568  1  0.322700  0.625000  0.125000  1.0  -0.1388
  C  C569  1  0.177300  0.875000  0.875000  1.0  -0.1328
  C  C570  1  0.177300  0.375000  0.375000  1.0  -0.1328
  C  C571  1  0.677300  0.875000  0.375000  1.0  -0.1328
  C  C572  1  0.072700  0.375000  0.875000  1.0  -0.1388
  C  C573  1  0.572700  0.375000  0.375000  1.0  -0.1388
  C  C574  1  0.072700  0.875000  0.375000  1.0  -0.1388
  C  C575  1  0.572700  0.875000  0.875000  1.0  -0.1388
  C  C576  1  0.677300  0.375000  0.875000  1.0  -0.1328
  N  N577  1  0.577400  0.327500  0.261500  1.0  -0.3933
  N  N578  1  0.809300  0.185500  0.178830  1.0  -0.433
  N  N579  1  0.577400  0.827500  0.761500  1.0  -0.3933
  N  N580  1  0.809300  0.685500  0.678830  1.0  -0.433
  N  N581  1  0.077400  0.327500  0.761500  1.0  -0.3933
  N  N582  1  0.309300  0.185500  0.678830  1.0  -0.433
  N  N583  1  0.077400  0.827500  0.261500  1.0  -0.3933
  N  N584  1  0.309300  0.685500  0.178830  1.0  -0.433
  N  N585  1  0.172600  0.422500  0.261500  1.0  -0.3925
  N  N586  1  0.940700  0.564500  0.178830  1.0  -0.4328
  N  N587  1  0.172600  0.922500  0.761500  1.0  -0.3925
  N  N588  1  0.940700  0.064500  0.678830  1.0  -0.4328
  N  N589  1  0.672600  0.422500  0.761500  1.0  -0.3925
  N  N590  1  0.440700  0.564500  0.678830  1.0  -0.4328
  N  N591  1  0.672600  0.922500  0.261500  1.0  -0.3925
  N  N592  1  0.440700  0.064500  0.178830  1.0  -0.4328
  N  N593  1  0.172600  0.327500  0.488500  1.0  -0.3937
  N  N594  1  0.940700  0.185500  0.571170  1.0  -0.4357
  N  N595  1  0.172600  0.827500  0.988500  1.0  -0.3937
  N  N596  1  0.940700  0.685500  0.071170  1.0  -0.4357
  N  N597  1  0.672600  0.327500  0.988500  1.0  -0.3937
  N  N598  1  0.440700  0.185500  0.071170  1.0  -0.4357
  N  N599  1  0.672600  0.827500  0.488500  1.0  -0.3937
  N  N600  1  0.440700  0.685500  0.571170  1.0  -0.4357
  N  N601  1  0.577400  0.422500  0.488500  1.0  -0.3927
  N  N602  1  0.809300  0.564500  0.571170  1.0  -0.4333
  N  N603  1  0.577400  0.922500  0.988500  1.0  -0.3927
  N  N604  1  0.809300  0.064500  0.071170  1.0  -0.4333
  N  N605  1  0.077400  0.422500  0.988500  1.0  -0.3927
  N  N606  1  0.309300  0.564500  0.071170  1.0  -0.4333
  N  N607  1  0.077400  0.922500  0.488500  1.0  -0.3927
  N  N608  1  0.309300  0.064500  0.571170  1.0  -0.4333
  N  N609  1  0.422600  0.672500  0.738500  1.0  -0.3921
  N  N610  1  0.190700  0.814500  0.821170  1.0  -0.4346
  N  N611  1  0.422600  0.172500  0.238500  1.0  -0.3921
  N  N612  1  0.190700  0.314500  0.321170  1.0  -0.4346
  N  N613  1  0.922600  0.672500  0.238500  1.0  -0.3921
  N  N614  1  0.690700  0.814500  0.321170  1.0  -0.4346
  N  N615  1  0.922600  0.172500  0.738500  1.0  -0.3921
  N  N616  1  0.690700  0.314500  0.821170  1.0  -0.4346
  N  N617  1  0.827400  0.577500  0.738500  1.0  -0.3936
  N  N618  1  0.059300  0.435500  0.821170  1.0  -0.433
  N  N619  1  0.827400  0.077500  0.238500  1.0  -0.3936
  N  N620  1  0.059300  0.935500  0.321170  1.0  -0.433
  N  N621  1  0.327400  0.577500  0.238500  1.0  -0.3936
  N  N622  1  0.559300  0.435500  0.321170  1.0  -0.433
  N  N623  1  0.327400  0.077500  0.738500  1.0  -0.3936
  N  N624  1  0.559300  0.935500  0.821170  1.0  -0.433
  N  N625  1  0.827400  0.672500  0.511500  1.0  -0.3934
  N  N626  1  0.059300  0.814500  0.428830  1.0  -0.4331
  N  N627  1  0.827400  0.172500  0.011500  1.0  -0.3934
  N  N628  1  0.059300  0.314500  0.928830  1.0  -0.4331
  N  N629  1  0.327400  0.672500  0.011500  1.0  -0.3934
  N  N630  1  0.559300  0.814500  0.928830  1.0  -0.4331
  N  N631  1  0.327400  0.172500  0.511500  1.0  -0.3934
  N  N632  1  0.559300  0.314500  0.428830  1.0  -0.4331
  N  N633  1  0.422600  0.577500  0.511500  1.0  -0.3935
  N  N634  1  0.190700  0.435500  0.428830  1.0  -0.4336
  N  N635  1  0.422600  0.077500  0.011500  1.0  -0.3935
  N  N636  1  0.190700  0.935500  0.928830  1.0  -0.4336
  N  N637  1  0.922600  0.577500  0.011500  1.0  -0.3935
  N  N638  1  0.690700  0.435500  0.928830  1.0  -0.4336
  N  N639  1  0.922600  0.077500  0.511500  1.0  -0.3935
  N  N640  1  0.690700  0.935500  0.428830  1.0  -0.4336
