# generated using pymatgen
data_AgH20C15N4
_symmetry_space_group_name_H-M   'P 1'
_cell_length_a   24.36500000
_cell_length_b   8.61230000
_cell_length_c   36.09200000
_cell_angle_alpha   90.00000000
_cell_angle_beta   90.00000000
_cell_angle_gamma   90.00000000
_symmetry_Int_Tables_number   1
_chemical_formula_structural   AgH20C15N4
_chemical_formula_sum   'Ag16 H320 C240 N64'
_cell_volume   7573.49798143
_cell_formula_units_Z   16
loop_
 _symmetry_equiv_pos_site_id
 _symmetry_equiv_pos_as_xyz
  1  'x, y, z'
loop_
 _atom_site_type_symbol
 _atom_site_label
 _atom_site_symmetry_multiplicity
 _atom_site_fract_x
 _atom_site_fract_y
 _atom_site_fract_z
 _atom_site_occupancy
 _atom_site_charge
  Ag  Ag1  1  0.625000  0.625000  0.042630  1.0  0.3408
  Ag  Ag2  1  0.625000  0.125000  0.542630  1.0  0.3408
  Ag  Ag3  1  0.125000  0.125000  0.042630  1.0  0.3408
  Ag  Ag4  1  0.125000  0.625000  0.542630  1.0  0.3408
  Ag  Ag5  1  0.125000  0.625000  0.707370  1.0  0.3426
  Ag  Ag6  1  0.125000  0.125000  0.207370  1.0  0.3426
  Ag  Ag7  1  0.625000  0.125000  0.707370  1.0  0.3426
  Ag  Ag8  1  0.625000  0.625000  0.207370  1.0  0.3426
  Ag  Ag9  1  0.375000  0.375000  0.957370  1.0  0.3423
  Ag  Ag10  1  0.375000  0.875000  0.457370  1.0  0.3423
  Ag  Ag11  1  0.875000  0.875000  0.957370  1.0  0.3423
  Ag  Ag12  1  0.875000  0.375000  0.457370  1.0  0.3423
  Ag  Ag13  1  0.875000  0.375000  0.292630  1.0  0.3408
  Ag  Ag14  1  0.875000  0.875000  0.792630  1.0  0.3408
  Ag  Ag15  1  0.375000  0.375000  0.792630  1.0  0.3408
  Ag  Ag16  1  0.375000  0.875000  0.292630  1.0  0.3408
  H  H17  1  0.792500  0.016000  0.913900  1.0  0.1661
  H  H18  1  0.631900  0.851700  0.968000  1.0  0.047
  H  H19  1  0.686500  0.025400  0.937800  1.0  0.1141
  H  H20  1  0.787400  0.017100  0.024400  1.0  0.0848
  H  H21  1  0.729500  0.846300  0.053000  1.0  0.0551
  H  H22  1  0.761000  0.228300  0.944400  1.0  0.0633
  H  H23  1  0.806800  0.199000  0.974100  1.0  0.0678
  H  H24  1  0.872200  0.225300  0.918700  1.0  0.0474
  H  H25  1  0.820700  0.239300  0.892700  1.0  0.0477
  H  H26  1  0.848500  0.008200  0.863100  1.0  0.0643
  H  H27  1  0.792500  0.516000  0.413900  1.0  0.1661
  H  H28  1  0.631900  0.351700  0.468000  1.0  0.047
  H  H29  1  0.686500  0.525400  0.437800  1.0  0.1141
  H  H30  1  0.787400  0.517100  0.524400  1.0  0.0848
  H  H31  1  0.729500  0.346300  0.553000  1.0  0.0551
  H  H32  1  0.761000  0.728300  0.444400  1.0  0.0633
  H  H33  1  0.806800  0.699000  0.474100  1.0  0.0678
  H  H34  1  0.872200  0.725300  0.418700  1.0  0.0474
  H  H35  1  0.820700  0.739300  0.392700  1.0  0.0477
  H  H36  1  0.848500  0.508200  0.363100  1.0  0.0643
  H  H37  1  0.292500  0.016000  0.413900  1.0  0.1661
  H  H38  1  0.131900  0.851700  0.468000  1.0  0.047
  H  H39  1  0.186500  0.025400  0.437800  1.0  0.1141
  H  H40  1  0.287400  0.017100  0.524400  1.0  0.0848
  H  H41  1  0.229500  0.846300  0.553000  1.0  0.0551
  H  H42  1  0.261000  0.228300  0.444400  1.0  0.0633
  H  H43  1  0.306800  0.199000  0.474100  1.0  0.0678
  H  H44  1  0.372200  0.225300  0.418700  1.0  0.0474
  H  H45  1  0.320700  0.239300  0.392700  1.0  0.0477
  H  H46  1  0.348500  0.008200  0.363100  1.0  0.0643
  H  H47  1  0.292500  0.516000  0.913900  1.0  0.1661
  H  H48  1  0.131900  0.351700  0.968000  1.0  0.047
  H  H49  1  0.186500  0.525400  0.937800  1.0  0.1141
  H  H50  1  0.287400  0.517100  0.024400  1.0  0.0848
  H  H51  1  0.229500  0.346300  0.053000  1.0  0.0551
  H  H52  1  0.261000  0.728300  0.944400  1.0  0.0633
  H  H53  1  0.306800  0.699000  0.974100  1.0  0.0678
  H  H54  1  0.372200  0.725300  0.918700  1.0  0.0474
  H  H55  1  0.320700  0.739300  0.892700  1.0  0.0477
  H  H56  1  0.348500  0.508200  0.863100  1.0  0.0643
  H  H57  1  0.957500  0.734000  0.913900  1.0  0.1663
  H  H58  1  0.118100  0.898300  0.968000  1.0  0.048
  H  H59  1  0.063500  0.724600  0.937800  1.0  0.1148
  H  H60  1  0.962600  0.732900  0.024400  1.0  0.0849
  H  H61  1  0.020500  0.903700  0.053000  1.0  0.0554
  H  H62  1  0.989000  0.521700  0.944400  1.0  0.0626
  H  H63  1  0.943200  0.551000  0.974100  1.0  0.0684
  H  H64  1  0.877800  0.524700  0.918700  1.0  0.0484
  H  H65  1  0.929300  0.510700  0.892700  1.0  0.0476
  H  H66  1  0.901500  0.741800  0.863100  1.0  0.0641
  H  H67  1  0.957500  0.234000  0.413900  1.0  0.1663
  H  H68  1  0.118100  0.398300  0.468000  1.0  0.048
  H  H69  1  0.063500  0.224600  0.437800  1.0  0.1148
  H  H70  1  0.962600  0.232900  0.524400  1.0  0.0849
  H  H71  1  0.020500  0.403700  0.553000  1.0  0.0554
  H  H72  1  0.989000  0.021700  0.444400  1.0  0.0626
  H  H73  1  0.943200  0.051000  0.474100  1.0  0.0684
  H  H74  1  0.877800  0.024700  0.418700  1.0  0.0484
  H  H75  1  0.929300  0.010700  0.392700  1.0  0.0476
  H  H76  1  0.901500  0.241800  0.363100  1.0  0.0641
  H  H77  1  0.457500  0.734000  0.413900  1.0  0.1663
  H  H78  1  0.618100  0.898300  0.468000  1.0  0.048
  H  H79  1  0.563500  0.724600  0.437800  1.0  0.1148
  H  H80  1  0.462600  0.732900  0.524400  1.0  0.0849
  H  H81  1  0.520500  0.903700  0.553000  1.0  0.0554
  H  H82  1  0.489000  0.521700  0.444400  1.0  0.0626
  H  H83  1  0.443200  0.551000  0.474100  1.0  0.0684
  H  H84  1  0.377800  0.524700  0.418700  1.0  0.0484
  H  H85  1  0.429300  0.510700  0.392700  1.0  0.0476
  H  H86  1  0.401500  0.741800  0.363100  1.0  0.0641
  H  H87  1  0.457500  0.234000  0.913900  1.0  0.1663
  H  H88  1  0.618100  0.398300  0.968000  1.0  0.048
  H  H89  1  0.563500  0.224600  0.937800  1.0  0.1148
  H  H90  1  0.462600  0.232900  0.024400  1.0  0.0849
  H  H91  1  0.520500  0.403700  0.053000  1.0  0.0554
  H  H92  1  0.489000  0.021700  0.944400  1.0  0.0626
  H  H93  1  0.443200  0.051000  0.974100  1.0  0.0684
  H  H94  1  0.377800  0.024700  0.918700  1.0  0.0484
  H  H95  1  0.429300  0.010700  0.892700  1.0  0.0476
  H  H96  1  0.401500  0.241800  0.863100  1.0  0.0641
  H  H97  1  0.957500  0.016000  0.836100  1.0  0.1655
  H  H98  1  0.118100  0.851700  0.782000  1.0  0.0479
  H  H99  1  0.063500  0.025400  0.812200  1.0  0.1125
  H  H100  1  0.962600  0.017100  0.725600  1.0  0.0843
  H  H101  1  0.020500  0.846300  0.697000  1.0  0.056
  H  H102  1  0.989000  0.228300  0.805600  1.0  0.0636
  H  H103  1  0.943200  0.199000  0.775900  1.0  0.069
  H  H104  1  0.877800  0.225300  0.831300  1.0  0.0485
  H  H105  1  0.929300  0.239300  0.857300  1.0  0.047
  H  H106  1  0.901500  0.008200  0.886900  1.0  0.0645
  H  H107  1  0.957500  0.516000  0.336100  1.0  0.1655
  H  H108  1  0.118100  0.351700  0.282000  1.0  0.0479
  H  H109  1  0.063500  0.525400  0.312200  1.0  0.1125
  H  H110  1  0.962600  0.517100  0.225600  1.0  0.0843
  H  H111  1  0.020500  0.346300  0.197000  1.0  0.056
  H  H112  1  0.989000  0.728300  0.305600  1.0  0.0636
  H  H113  1  0.943200  0.699000  0.275900  1.0  0.069
  H  H114  1  0.877800  0.725300  0.331300  1.0  0.0485
  H  H115  1  0.929300  0.739300  0.357300  1.0  0.047
  H  H116  1  0.901500  0.508200  0.386900  1.0  0.0645
  H  H117  1  0.457500  0.016000  0.336100  1.0  0.1655
  H  H118  1  0.618100  0.851700  0.282000  1.0  0.0479
  H  H119  1  0.563500  0.025400  0.312200  1.0  0.1125
  H  H120  1  0.462600  0.017100  0.225600  1.0  0.0843
  H  H121  1  0.520500  0.846300  0.197000  1.0  0.056
  H  H122  1  0.489000  0.228300  0.305600  1.0  0.0636
  H  H123  1  0.443200  0.199000  0.275900  1.0  0.069
  H  H124  1  0.377800  0.225300  0.331300  1.0  0.0485
  H  H125  1  0.429300  0.239300  0.357300  1.0  0.047
  H  H126  1  0.401500  0.008200  0.386900  1.0  0.0645
  H  H127  1  0.457500  0.516000  0.836100  1.0  0.1655
  H  H128  1  0.618100  0.351700  0.782000  1.0  0.0479
  H  H129  1  0.563500  0.525400  0.812200  1.0  0.1125
  H  H130  1  0.462600  0.517100  0.725600  1.0  0.0843
  H  H131  1  0.520500  0.346300  0.697000  1.0  0.056
  H  H132  1  0.489000  0.728300  0.805600  1.0  0.0636
  H  H133  1  0.443200  0.699000  0.775900  1.0  0.069
  H  H134  1  0.377800  0.725300  0.831300  1.0  0.0485
  H  H135  1  0.429300  0.739300  0.857300  1.0  0.047
  H  H136  1  0.401500  0.508200  0.886900  1.0  0.0645
  H  H137  1  0.792500  0.734000  0.836100  1.0  0.1651
  H  H138  1  0.631900  0.898300  0.782000  1.0  0.0475
  H  H139  1  0.686500  0.724600  0.812200  1.0  0.1137
  H  H140  1  0.787400  0.732900  0.725600  1.0  0.0828
  H  H141  1  0.729500  0.903700  0.697000  1.0  0.0554
  H  H142  1  0.761000  0.521700  0.805600  1.0  0.0646
  H  H143  1  0.806800  0.551000  0.775900  1.0  0.0684
  H  H144  1  0.872200  0.524700  0.831300  1.0  0.0473
  H  H145  1  0.820700  0.510700  0.857300  1.0  0.049
  H  H146  1  0.848500  0.741800  0.886900  1.0  0.0656
  H  H147  1  0.792500  0.234000  0.336100  1.0  0.1651
  H  H148  1  0.631900  0.398300  0.282000  1.0  0.0475
  H  H149  1  0.686500  0.224600  0.312200  1.0  0.1137
  H  H150  1  0.787400  0.232900  0.225600  1.0  0.0828
  H  H151  1  0.729500  0.403700  0.197000  1.0  0.0554
  H  H152  1  0.761000  0.021700  0.305600  1.0  0.0646
  H  H153  1  0.806800  0.051000  0.275900  1.0  0.0684
  H  H154  1  0.872200  0.024700  0.331300  1.0  0.0473
  H  H155  1  0.820700  0.010700  0.357300  1.0  0.049
  H  H156  1  0.848500  0.241800  0.386900  1.0  0.0656
  H  H157  1  0.292500  0.734000  0.336100  1.0  0.1651
  H  H158  1  0.131900  0.898300  0.282000  1.0  0.0475
  H  H159  1  0.186500  0.724600  0.312200  1.0  0.1137
  H  H160  1  0.287400  0.732900  0.225600  1.0  0.0828
  H  H161  1  0.229500  0.903700  0.197000  1.0  0.0554
  H  H162  1  0.261000  0.521700  0.305600  1.0  0.0646
  H  H163  1  0.306800  0.551000  0.275900  1.0  0.0684
  H  H164  1  0.372200  0.524700  0.331300  1.0  0.0473
  H  H165  1  0.320700  0.510700  0.357300  1.0  0.049
  H  H166  1  0.348500  0.741800  0.386900  1.0  0.0656
  H  H167  1  0.292500  0.234000  0.836100  1.0  0.1651
  H  H168  1  0.131900  0.398300  0.782000  1.0  0.0475
  H  H169  1  0.186500  0.224600  0.812200  1.0  0.1137
  H  H170  1  0.287400  0.232900  0.725600  1.0  0.0828
  H  H171  1  0.229500  0.403700  0.697000  1.0  0.0554
  H  H172  1  0.261000  0.021700  0.805600  1.0  0.0646
  H  H173  1  0.306800  0.051000  0.775900  1.0  0.0684
  H  H174  1  0.372200  0.024700  0.831300  1.0  0.0473
  H  H175  1  0.320700  0.010700  0.857300  1.0  0.049
  H  H176  1  0.348500  0.241800  0.886900  1.0  0.0656
  H  H177  1  0.207500  0.984000  0.086100  1.0  0.165
  H  H178  1  0.368100  0.148300  0.032000  1.0  0.0476
  H  H179  1  0.313500  0.974600  0.062200  1.0  0.1126
  H  H180  1  0.212600  0.982900  0.975600  1.0  0.0837
  H  H181  1  0.270500  0.153700  0.947000  1.0  0.0558
  H  H182  1  0.239000  0.771700  0.055600  1.0  0.0635
  H  H183  1  0.193200  0.801000  0.025900  1.0  0.0689
  H  H184  1  0.127800  0.774700  0.081300  1.0  0.0481
  H  H185  1  0.179300  0.760700  0.107300  1.0  0.048
  H  H186  1  0.151500  0.991800  0.136900  1.0  0.0648
  H  H187  1  0.207500  0.484000  0.586100  1.0  0.165
  H  H188  1  0.368100  0.648300  0.532000  1.0  0.0476
  H  H189  1  0.313500  0.474600  0.562200  1.0  0.1126
  H  H190  1  0.212600  0.482900  0.475600  1.0  0.0837
  H  H191  1  0.270500  0.653700  0.447000  1.0  0.0558
  H  H192  1  0.239000  0.271700  0.555600  1.0  0.0635
  H  H193  1  0.193200  0.301000  0.525900  1.0  0.0689
  H  H194  1  0.127800  0.274700  0.581300  1.0  0.0481
  H  H195  1  0.179300  0.260700  0.607300  1.0  0.048
  H  H196  1  0.151500  0.491800  0.636900  1.0  0.0648
  H  H197  1  0.707500  0.984000  0.586100  1.0  0.165
  H  H198  1  0.868100  0.148300  0.532000  1.0  0.0476
  H  H199  1  0.813500  0.974600  0.562200  1.0  0.1126
  H  H200  1  0.712600  0.982900  0.475600  1.0  0.0837
  H  H201  1  0.770500  0.153700  0.447000  1.0  0.0558
  H  H202  1  0.739000  0.771700  0.555600  1.0  0.0635
  H  H203  1  0.693200  0.801000  0.525900  1.0  0.0689
  H  H204  1  0.627800  0.774700  0.581300  1.0  0.0481
  H  H205  1  0.679300  0.760700  0.607300  1.0  0.048
  H  H206  1  0.651500  0.991800  0.636900  1.0  0.0648
  H  H207  1  0.707500  0.484000  0.086100  1.0  0.165
  H  H208  1  0.868100  0.648300  0.032000  1.0  0.0476
  H  H209  1  0.813500  0.474600  0.062200  1.0  0.1126
  H  H210  1  0.712600  0.482900  0.975600  1.0  0.0837
  H  H211  1  0.770500  0.653700  0.947000  1.0  0.0558
  H  H212  1  0.739000  0.271700  0.055600  1.0  0.0635
  H  H213  1  0.693200  0.301000  0.025900  1.0  0.0689
  H  H214  1  0.627800  0.274700  0.081300  1.0  0.0481
  H  H215  1  0.679300  0.260700  0.107300  1.0  0.048
  H  H216  1  0.651500  0.491800  0.136900  1.0  0.0648
  H  H217  1  0.042500  0.266000  0.086100  1.0  0.1656
  H  H218  1  0.881900  0.101700  0.032000  1.0  0.0475
  H  H219  1  0.936500  0.275400  0.062200  1.0  0.1135
  H  H220  1  0.037400  0.267100  0.975600  1.0  0.0833
  H  H221  1  0.979500  0.096300  0.947000  1.0  0.0556
  H  H222  1  0.011000  0.478300  0.055600  1.0  0.064
  H  H223  1  0.056800  0.449000  0.025900  1.0  0.0683
  H  H224  1  0.122200  0.475300  0.081300  1.0  0.0478
  H  H225  1  0.070700  0.489300  0.107300  1.0  0.0475
  H  H226  1  0.098500  0.258200  0.136900  1.0  0.0653
  H  H227  1  0.042500  0.766000  0.586100  1.0  0.1656
  H  H228  1  0.881900  0.601700  0.532000  1.0  0.0475
  H  H229  1  0.936500  0.775400  0.562200  1.0  0.1135
  H  H230  1  0.037400  0.767100  0.475600  1.0  0.0833
  H  H231  1  0.979500  0.596300  0.447000  1.0  0.0556
  H  H232  1  0.011000  0.978300  0.555600  1.0  0.064
  H  H233  1  0.056800  0.949000  0.525900  1.0  0.0683
  H  H234  1  0.122200  0.975300  0.581300  1.0  0.0478
  H  H235  1  0.070700  0.989300  0.607300  1.0  0.0475
  H  H236  1  0.098500  0.758200  0.636900  1.0  0.0653
  H  H237  1  0.542500  0.266000  0.586100  1.0  0.1656
  H  H238  1  0.381900  0.101700  0.532000  1.0  0.0475
  H  H239  1  0.436500  0.275400  0.562200  1.0  0.1135
  H  H240  1  0.537400  0.267100  0.475600  1.0  0.0833
  H  H241  1  0.479500  0.096300  0.447000  1.0  0.0556
  H  H242  1  0.511000  0.478300  0.555600  1.0  0.064
  H  H243  1  0.556800  0.449000  0.525900  1.0  0.0683
  H  H244  1  0.622200  0.475300  0.581300  1.0  0.0478
  H  H245  1  0.570700  0.489300  0.607300  1.0  0.0475
  H  H246  1  0.598500  0.258200  0.636900  1.0  0.0653
  H  H247  1  0.542500  0.766000  0.086100  1.0  0.1656
  H  H248  1  0.381900  0.601700  0.032000  1.0  0.0475
  H  H249  1  0.436500  0.775400  0.062200  1.0  0.1135
  H  H250  1  0.537400  0.767100  0.975600  1.0  0.0833
  H  H251  1  0.479500  0.596300  0.947000  1.0  0.0556
  H  H252  1  0.511000  0.978300  0.055600  1.0  0.064
  H  H253  1  0.556800  0.949000  0.025900  1.0  0.0683
  H  H254  1  0.622200  0.975300  0.081300  1.0  0.0478
  H  H255  1  0.570700  0.989300  0.107300  1.0  0.0475
  H  H256  1  0.598500  0.758200  0.136900  1.0  0.0653
  H  H257  1  0.042500  0.984000  0.163900  1.0  0.1666
  H  H258  1  0.881900  0.148300  0.218000  1.0  0.0477
  H  H259  1  0.936500  0.974600  0.187800  1.0  0.114
  H  H260  1  0.037400  0.982900  0.274400  1.0  0.0848
  H  H261  1  0.979500  0.153700  0.303000  1.0  0.0551
  H  H262  1  0.011000  0.771700  0.194400  1.0  0.0628
  H  H263  1  0.056800  0.801000  0.224100  1.0  0.0684
  H  H264  1  0.122200  0.774700  0.168700  1.0  0.0474
  H  H265  1  0.070700  0.760700  0.142700  1.0  0.0483
  H  H266  1  0.098500  0.991800  0.113100  1.0  0.0647
  H  H267  1  0.042500  0.484000  0.663900  1.0  0.1666
  H  H268  1  0.881900  0.648300  0.718000  1.0  0.0477
  H  H269  1  0.936500  0.474600  0.687800  1.0  0.114
  H  H270  1  0.037400  0.482900  0.774400  1.0  0.0848
  H  H271  1  0.979500  0.653700  0.803000  1.0  0.0551
  H  H272  1  0.011000  0.271700  0.694400  1.0  0.0628
  H  H273  1  0.056800  0.301000  0.724100  1.0  0.0684
  H  H274  1  0.122200  0.274700  0.668700  1.0  0.0474
  H  H275  1  0.070700  0.260700  0.642700  1.0  0.0483
  H  H276  1  0.098500  0.491800  0.613100  1.0  0.0647
  H  H277  1  0.542500  0.984000  0.663900  1.0  0.1666
  H  H278  1  0.381900  0.148300  0.718000  1.0  0.0477
  H  H279  1  0.436500  0.974600  0.687800  1.0  0.114
  H  H280  1  0.537400  0.982900  0.774400  1.0  0.0848
  H  H281  1  0.479500  0.153700  0.803000  1.0  0.0551
  H  H282  1  0.511000  0.771700  0.694400  1.0  0.0628
  H  H283  1  0.556800  0.801000  0.724100  1.0  0.0684
  H  H284  1  0.622200  0.774700  0.668700  1.0  0.0474
  H  H285  1  0.570700  0.760700  0.642700  1.0  0.0483
  H  H286  1  0.598500  0.991800  0.613100  1.0  0.0647
  H  H287  1  0.542500  0.484000  0.163900  1.0  0.1666
  H  H288  1  0.381900  0.648300  0.218000  1.0  0.0477
  H  H289  1  0.436500  0.474600  0.187800  1.0  0.114
  H  H290  1  0.537400  0.482900  0.274400  1.0  0.0848
  H  H291  1  0.479500  0.653700  0.303000  1.0  0.0551
  H  H292  1  0.511000  0.271700  0.194400  1.0  0.0628
  H  H293  1  0.556800  0.301000  0.224100  1.0  0.0684
  H  H294  1  0.622200  0.274700  0.168700  1.0  0.0474
  H  H295  1  0.570700  0.260700  0.142700  1.0  0.0483
  H  H296  1  0.598500  0.491800  0.113100  1.0  0.0647
  H  H297  1  0.207500  0.266000  0.163900  1.0  0.1658
  H  H298  1  0.368100  0.101700  0.218000  1.0  0.0478
  H  H299  1  0.313500  0.275400  0.187800  1.0  0.1149
  H  H300  1  0.212600  0.267100  0.274400  1.0  0.0851
  H  H301  1  0.270500  0.096300  0.303000  1.0  0.0555
  H  H302  1  0.239000  0.478300  0.194400  1.0  0.0636
  H  H303  1  0.193200  0.449000  0.224100  1.0  0.0677
  H  H304  1  0.127800  0.475300  0.168700  1.0  0.0482
  H  H305  1  0.179300  0.489300  0.142700  1.0  0.0472
  H  H306  1  0.151500  0.258200  0.113100  1.0  0.0639
  H  H307  1  0.207500  0.766000  0.663900  1.0  0.1658
  H  H308  1  0.368100  0.601700  0.718000  1.0  0.0478
  H  H309  1  0.313500  0.775400  0.687800  1.0  0.1149
  H  H310  1  0.212600  0.767100  0.774400  1.0  0.0851
  H  H311  1  0.270500  0.596300  0.803000  1.0  0.0555
  H  H312  1  0.239000  0.978300  0.694400  1.0  0.0636
  H  H313  1  0.193200  0.949000  0.724100  1.0  0.0677
  H  H314  1  0.127800  0.975300  0.668700  1.0  0.0482
  H  H315  1  0.179300  0.989300  0.642700  1.0  0.0472
  H  H316  1  0.151500  0.758200  0.613100  1.0  0.0639
  H  H317  1  0.707500  0.266000  0.663900  1.0  0.1658
  H  H318  1  0.868100  0.101700  0.718000  1.0  0.0478
  H  H319  1  0.813500  0.275400  0.687800  1.0  0.1149
  H  H320  1  0.712600  0.267100  0.774400  1.0  0.0851
  H  H321  1  0.770500  0.096300  0.803000  1.0  0.0555
  H  H322  1  0.739000  0.478300  0.694400  1.0  0.0636
  H  H323  1  0.693200  0.449000  0.724100  1.0  0.0677
  H  H324  1  0.627800  0.475300  0.668700  1.0  0.0482
  H  H325  1  0.679300  0.489300  0.642700  1.0  0.0472
  H  H326  1  0.651500  0.258200  0.613100  1.0  0.0639
  H  H327  1  0.707500  0.766000  0.163900  1.0  0.1658
  H  H328  1  0.868100  0.601700  0.218000  1.0  0.0478
  H  H329  1  0.813500  0.775400  0.187800  1.0  0.1149
  H  H330  1  0.712600  0.767100  0.274400  1.0  0.0851
  H  H331  1  0.770500  0.596300  0.303000  1.0  0.0555
  H  H332  1  0.739000  0.978300  0.194400  1.0  0.0636
  H  H333  1  0.693200  0.949000  0.224100  1.0  0.0677
  H  H334  1  0.627800  0.975300  0.168700  1.0  0.0482
  H  H335  1  0.679300  0.989300  0.142700  1.0  0.0472
  H  H336  1  0.651500  0.758200  0.113100  1.0  0.0639
  C  C337  1  0.663800  0.885100  0.979640  1.0  0.1539
  C  C338  1  0.696600  0.989400  0.961130  1.0  -0.2532
  C  C339  1  0.744220  0.039900  0.977370  1.0  0.13
  C  C340  1  0.755700  0.984500  0.012270  1.0  -0.2326
  C  C341  1  0.720800  0.881100  0.029320  1.0  0.1562
  C  C342  1  0.782300  0.148500  0.956730  1.0  -0.0884
  C  C343  1  0.845700  0.166500  0.904310  1.0  -0.0407
  C  C344  1  0.663800  0.385100  0.479640  1.0  0.1539
  C  C345  1  0.696600  0.489400  0.461130  1.0  -0.2532
  C  C346  1  0.744220  0.539900  0.477370  1.0  0.13
  C  C347  1  0.755700  0.484500  0.512270  1.0  -0.2326
  C  C348  1  0.720800  0.381100  0.529320  1.0  0.1562
  C  C349  1  0.782300  0.648500  0.456730  1.0  -0.0884
  C  C350  1  0.845700  0.666500  0.404310  1.0  -0.0407
  C  C351  1  0.163800  0.885100  0.479640  1.0  0.1539
  C  C352  1  0.196600  0.989400  0.461130  1.0  -0.2532
  C  C353  1  0.244220  0.039900  0.477370  1.0  0.13
  C  C354  1  0.255700  0.984500  0.512270  1.0  -0.2326
  C  C355  1  0.220800  0.881100  0.529320  1.0  0.1562
  C  C356  1  0.282300  0.148500  0.456730  1.0  -0.0884
  C  C357  1  0.345700  0.166500  0.404310  1.0  -0.0407
  C  C358  1  0.163800  0.385100  0.979640  1.0  0.1539
  C  C359  1  0.196600  0.489400  0.961130  1.0  -0.2532
  C  C360  1  0.244220  0.539900  0.977370  1.0  0.13
  C  C361  1  0.255700  0.484500  0.012270  1.0  -0.2326
  C  C362  1  0.220800  0.381100  0.029320  1.0  0.1562
  C  C363  1  0.282300  0.648500  0.956730  1.0  -0.0884
  C  C364  1  0.345700  0.666500  0.904310  1.0  -0.0407
  C  C365  1  0.086200  0.864900  0.979640  1.0  0.1543
  C  C366  1  0.053400  0.760600  0.961130  1.0  -0.2559
  C  C367  1  0.005780  0.710100  0.977370  1.0  0.131
  C  C368  1  0.994300  0.765500  0.012270  1.0  -0.2303
  C  C369  1  0.029200  0.868900  0.029320  1.0  0.1553
  C  C370  1  0.967700  0.601500  0.956730  1.0  -0.0865
  C  C371  1  0.904300  0.583500  0.904310  1.0  -0.0402
  C  C372  1  0.086200  0.364900  0.479640  1.0  0.1543
  C  C373  1  0.053400  0.260600  0.461130  1.0  -0.2559
  C  C374  1  0.005780  0.210100  0.477370  1.0  0.131
  C  C375  1  0.994300  0.265500  0.512270  1.0  -0.2303
  C  C376  1  0.029200  0.368900  0.529320  1.0  0.1553
  C  C377  1  0.967700  0.101500  0.456730  1.0  -0.0865
  C  C378  1  0.904300  0.083500  0.404310  1.0  -0.0402
  C  C379  1  0.586200  0.864900  0.479640  1.0  0.1543
  C  C380  1  0.553400  0.760600  0.461130  1.0  -0.2559
  C  C381  1  0.505780  0.710100  0.477370  1.0  0.131
  C  C382  1  0.494300  0.765500  0.512270  1.0  -0.2303
  C  C383  1  0.529200  0.868900  0.529320  1.0  0.1553
  C  C384  1  0.467700  0.601500  0.456730  1.0  -0.0865
  C  C385  1  0.404300  0.583500  0.404310  1.0  -0.0402
  C  C386  1  0.586200  0.364900  0.979640  1.0  0.1543
  C  C387  1  0.553400  0.260600  0.961130  1.0  -0.2559
  C  C388  1  0.505780  0.210100  0.977370  1.0  0.131
  C  C389  1  0.494300  0.265500  0.012270  1.0  -0.2303
  C  C390  1  0.529200  0.368900  0.029320  1.0  0.1553
  C  C391  1  0.467700  0.101500  0.956730  1.0  -0.0865
  C  C392  1  0.404300  0.083500  0.904310  1.0  -0.0402
  C  C393  1  0.086200  0.885100  0.770360  1.0  0.1561
  C  C394  1  0.053400  0.989400  0.788870  1.0  -0.2552
  C  C395  1  0.005780  0.039900  0.772630  1.0  0.1315
  C  C396  1  0.994300  0.984500  0.737730  1.0  -0.2316
  C  C397  1  0.029200  0.881100  0.720680  1.0  0.1557
  C  C398  1  0.967700  0.148500  0.793270  1.0  -0.0869
  C  C399  1  0.904300  0.166500  0.845690  1.0  -0.0402
  C  C400  1  0.086200  0.385100  0.270360  1.0  0.1561
  C  C401  1  0.053400  0.489400  0.288870  1.0  -0.2552
  C  C402  1  0.005780  0.539900  0.272630  1.0  0.1315
  C  C403  1  0.994300  0.484500  0.237730  1.0  -0.2316
  C  C404  1  0.029200  0.381100  0.220680  1.0  0.1557
  C  C405  1  0.967700  0.648500  0.293270  1.0  -0.0869
  C  C406  1  0.904300  0.666500  0.345690  1.0  -0.0402
  C  C407  1  0.586200  0.885100  0.270360  1.0  0.1561
  C  C408  1  0.553400  0.989400  0.288870  1.0  -0.2552
  C  C409  1  0.505780  0.039900  0.272630  1.0  0.1315
  C  C410  1  0.494300  0.984500  0.237730  1.0  -0.2316
  C  C411  1  0.529200  0.881100  0.220680  1.0  0.1557
  C  C412  1  0.467700  0.148500  0.293270  1.0  -0.0869
  C  C413  1  0.404300  0.166500  0.345690  1.0  -0.0402
  C  C414  1  0.586200  0.385100  0.770360  1.0  0.1561
  C  C415  1  0.553400  0.489400  0.788870  1.0  -0.2552
  C  C416  1  0.505780  0.539900  0.772630  1.0  0.1315
  C  C417  1  0.494300  0.484500  0.737730  1.0  -0.2316
  C  C418  1  0.529200  0.381100  0.720680  1.0  0.1557
  C  C419  1  0.467700  0.648500  0.793270  1.0  -0.0869
  C  C420  1  0.404300  0.666500  0.845690  1.0  -0.0402
  C  C421  1  0.663800  0.864900  0.770360  1.0  0.1538
  C  C422  1  0.696600  0.760600  0.788870  1.0  -0.2547
  C  C423  1  0.744220  0.710100  0.772630  1.0  0.1305
  C  C424  1  0.755700  0.765500  0.737730  1.0  -0.2342
  C  C425  1  0.720800  0.868900  0.720680  1.0  0.1559
  C  C426  1  0.782300  0.601500  0.793270  1.0  -0.0877
  C  C427  1  0.845700  0.583500  0.845690  1.0  -0.0409
  C  C428  1  0.663800  0.364900  0.270360  1.0  0.1538
  C  C429  1  0.696600  0.260600  0.288870  1.0  -0.2547
  C  C430  1  0.744220  0.210100  0.272630  1.0  0.1305
  C  C431  1  0.755700  0.265500  0.237730  1.0  -0.2342
  C  C432  1  0.720800  0.368900  0.220680  1.0  0.1559
  C  C433  1  0.782300  0.101500  0.293270  1.0  -0.0877
  C  C434  1  0.845700  0.083500  0.345690  1.0  -0.0409
  C  C435  1  0.163800  0.864900  0.270360  1.0  0.1538
  C  C436  1  0.196600  0.760600  0.288870  1.0  -0.2547
  C  C437  1  0.244220  0.710100  0.272630  1.0  0.1305
  C  C438  1  0.255700  0.765500  0.237730  1.0  -0.2342
  C  C439  1  0.220800  0.868900  0.220680  1.0  0.1559
  C  C440  1  0.282300  0.601500  0.293270  1.0  -0.0877
  C  C441  1  0.345700  0.583500  0.345690  1.0  -0.0409
  C  C442  1  0.163800  0.364900  0.770360  1.0  0.1538
  C  C443  1  0.196600  0.260600  0.788870  1.0  -0.2547
  C  C444  1  0.244220  0.210100  0.772630  1.0  0.1305
  C  C445  1  0.255700  0.265500  0.737730  1.0  -0.2342
  C  C446  1  0.220800  0.368900  0.720680  1.0  0.1559
  C  C447  1  0.282300  0.101500  0.793270  1.0  -0.0877
  C  C448  1  0.345700  0.083500  0.845690  1.0  -0.0409
  C  C449  1  0.336200  0.114900  0.020360  1.0  0.1556
  C  C450  1  0.303400  0.010600  0.038870  1.0  -0.2551
  C  C451  1  0.255780  0.960100  0.022630  1.0  0.1314
  C  C452  1  0.244300  0.015500  0.987730  1.0  -0.2316
  C  C453  1  0.279200  0.118900  0.970680  1.0  0.1557
  C  C454  1  0.217700  0.851500  0.043270  1.0  -0.0864
  C  C455  1  0.154300  0.833500  0.095690  1.0  -0.0407
  C  C456  1  0.336200  0.614900  0.520360  1.0  0.1556
  C  C457  1  0.303400  0.510600  0.538870  1.0  -0.2551
  C  C458  1  0.255780  0.460100  0.522630  1.0  0.1314
  C  C459  1  0.244300  0.515500  0.487730  1.0  -0.2316
  C  C460  1  0.279200  0.618900  0.470680  1.0  0.1557
  C  C461  1  0.217700  0.351500  0.543270  1.0  -0.0864
  C  C462  1  0.154300  0.333500  0.595690  1.0  -0.0407
  C  C463  1  0.836200  0.114900  0.520360  1.0  0.1556
  C  C464  1  0.803400  0.010600  0.538870  1.0  -0.2551
  C  C465  1  0.755780  0.960100  0.522630  1.0  0.1314
  C  C466  1  0.744300  0.015500  0.487730  1.0  -0.2316
  C  C467  1  0.779200  0.118900  0.470680  1.0  0.1557
  C  C468  1  0.717700  0.851500  0.543270  1.0  -0.0864
  C  C469  1  0.654300  0.833500  0.595690  1.0  -0.0407
  C  C470  1  0.836200  0.614900  0.020360  1.0  0.1556
  C  C471  1  0.803400  0.510600  0.038870  1.0  -0.2551
  C  C472  1  0.755780  0.460100  0.022630  1.0  0.1314
  C  C473  1  0.744300  0.515500  0.987730  1.0  -0.2316
  C  C474  1  0.779200  0.618900  0.970680  1.0  0.1557
  C  C475  1  0.717700  0.351500  0.043270  1.0  -0.0864
  C  C476  1  0.654300  0.333500  0.095690  1.0  -0.0407
  C  C477  1  0.913800  0.135100  0.020360  1.0  0.1548
  C  C478  1  0.946600  0.239400  0.038870  1.0  -0.2552
  C  C479  1  0.994220  0.289900  0.022630  1.0  0.1306
  C  C480  1  0.005700  0.234500  0.987730  1.0  -0.2343
  C  C481  1  0.970800  0.131100  0.970680  1.0  0.1558
  C  C482  1  0.032300  0.398500  0.043270  1.0  -0.0881
  C  C483  1  0.095700  0.416500  0.095690  1.0  -0.0407
  C  C484  1  0.913800  0.635100  0.520360  1.0  0.1548
  C  C485  1  0.946600  0.739400  0.538870  1.0  -0.2552
  C  C486  1  0.994220  0.789900  0.522630  1.0  0.1306
  C  C487  1  0.005700  0.734500  0.487730  1.0  -0.2343
  C  C488  1  0.970800  0.631100  0.470680  1.0  0.1558
  C  C489  1  0.032300  0.898500  0.543270  1.0  -0.0881
  C  C490  1  0.095700  0.916500  0.595690  1.0  -0.0407
  C  C491  1  0.413800  0.135100  0.520360  1.0  0.1548
  C  C492  1  0.446600  0.239400  0.538870  1.0  -0.2552
  C  C493  1  0.494220  0.289900  0.522630  1.0  0.1306
  C  C494  1  0.505700  0.234500  0.487730  1.0  -0.2343
  C  C495  1  0.470800  0.131100  0.470680  1.0  0.1558
  C  C496  1  0.532300  0.398500  0.543270  1.0  -0.0881
  C  C497  1  0.595700  0.416500  0.595690  1.0  -0.0407
  C  C498  1  0.413800  0.635100  0.020360  1.0  0.1548
  C  C499  1  0.446600  0.739400  0.038870  1.0  -0.2552
  C  C500  1  0.494220  0.789900  0.022630  1.0  0.1306
  C  C501  1  0.505700  0.734500  0.987730  1.0  -0.2343
  C  C502  1  0.470800  0.631100  0.970680  1.0  0.1558
  C  C503  1  0.532300  0.898500  0.043270  1.0  -0.0881
  C  C504  1  0.595700  0.916500  0.095690  1.0  -0.0407
  C  C505  1  0.913800  0.114900  0.229640  1.0  0.1532
  C  C506  1  0.946600  0.010600  0.211130  1.0  -0.2528
  C  C507  1  0.994220  0.960100  0.227370  1.0  0.13
  C  C508  1  0.005700  0.015500  0.262270  1.0  -0.2325
  C  C509  1  0.970800  0.118900  0.279320  1.0  0.156
  C  C510  1  0.032300  0.851500  0.206730  1.0  -0.088
  C  C511  1  0.095700  0.833500  0.154310  1.0  -0.0405
  C  C512  1  0.913800  0.614900  0.729640  1.0  0.1532
  C  C513  1  0.946600  0.510600  0.711130  1.0  -0.2528
  C  C514  1  0.994220  0.460100  0.727370  1.0  0.13
  C  C515  1  0.005700  0.515500  0.762270  1.0  -0.2325
  C  C516  1  0.970800  0.618900  0.779320  1.0  0.156
  C  C517  1  0.032300  0.351500  0.706730  1.0  -0.088
  C  C518  1  0.095700  0.333500  0.654310  1.0  -0.0405
  C  C519  1  0.413800  0.114900  0.729640  1.0  0.1532
  C  C520  1  0.446600  0.010600  0.711130  1.0  -0.2528
  C  C521  1  0.494220  0.960100  0.727370  1.0  0.13
  C  C522  1  0.505700  0.015500  0.762270  1.0  -0.2325
  C  C523  1  0.470800  0.118900  0.779320  1.0  0.156
  C  C524  1  0.532300  0.851500  0.706730  1.0  -0.088
  C  C525  1  0.595700  0.833500  0.654310  1.0  -0.0405
  C  C526  1  0.413800  0.614900  0.229640  1.0  0.1532
  C  C527  1  0.446600  0.510600  0.211130  1.0  -0.2528
  C  C528  1  0.494220  0.460100  0.227370  1.0  0.13
  C  C529  1  0.505700  0.515500  0.262270  1.0  -0.2325
  C  C530  1  0.470800  0.618900  0.279320  1.0  0.156
  C  C531  1  0.532300  0.351500  0.206730  1.0  -0.088
  C  C532  1  0.595700  0.333500  0.154310  1.0  -0.0405
  C  C533  1  0.336200  0.135100  0.229640  1.0  0.1545
  C  C534  1  0.303400  0.239400  0.211130  1.0  -0.256
  C  C535  1  0.255780  0.289900  0.227370  1.0  0.1312
  C  C536  1  0.244300  0.234500  0.262270  1.0  -0.2303
  C  C537  1  0.279200  0.131100  0.279320  1.0  0.1556
  C  C538  1  0.217700  0.398500  0.206730  1.0  -0.0872
  C  C539  1  0.154300  0.416500  0.154310  1.0  -0.04
  C  C540  1  0.336200  0.635100  0.729640  1.0  0.1545
  C  C541  1  0.303400  0.739400  0.711130  1.0  -0.256
  C  C542  1  0.255780  0.789900  0.727370  1.0  0.1312
  C  C543  1  0.244300  0.734500  0.762270  1.0  -0.2303
  C  C544  1  0.279200  0.631100  0.779320  1.0  0.1556
  C  C545  1  0.217700  0.898500  0.706730  1.0  -0.0872
  C  C546  1  0.154300  0.916500  0.654310  1.0  -0.04
  C  C547  1  0.836200  0.135100  0.729640  1.0  0.1545
  C  C548  1  0.803400  0.239400  0.711130  1.0  -0.256
  C  C549  1  0.755780  0.289900  0.727370  1.0  0.1312
  C  C550  1  0.744300  0.234500  0.762270  1.0  -0.2303
  C  C551  1  0.779200  0.131100  0.779320  1.0  0.1556
  C  C552  1  0.717700  0.398500  0.706730  1.0  -0.0872
  C  C553  1  0.654300  0.416500  0.654310  1.0  -0.04
  C  C554  1  0.836200  0.635100  0.229640  1.0  0.1545
  C  C555  1  0.803400  0.739400  0.211130  1.0  -0.256
  C  C556  1  0.755780  0.789900  0.227370  1.0  0.1312
  C  C557  1  0.744300  0.734500  0.262270  1.0  -0.2303
  C  C558  1  0.779200  0.631100  0.279320  1.0  0.1556
  C  C559  1  0.717700  0.898500  0.206730  1.0  -0.0872
  C  C560  1  0.654300  0.916500  0.154310  1.0  -0.04
  C  C561  1  0.875000  0.074100  0.875000  1.0  -0.1429
  C  C562  1  0.875000  0.574100  0.375000  1.0  -0.1429
  C  C563  1  0.375000  0.074100  0.375000  1.0  -0.1429
  C  C564  1  0.375000  0.574100  0.875000  1.0  -0.1429
  C  C565  1  0.875000  0.675900  0.875000  1.0  -0.1417
  C  C566  1  0.875000  0.175900  0.375000  1.0  -0.1417
  C  C567  1  0.375000  0.675900  0.375000  1.0  -0.1417
  C  C568  1  0.375000  0.175900  0.875000  1.0  -0.1417
  C  C569  1  0.125000  0.925900  0.125000  1.0  -0.1417
  C  C570  1  0.125000  0.425900  0.625000  1.0  -0.1417
  C  C571  1  0.625000  0.925900  0.625000  1.0  -0.1417
  C  C572  1  0.625000  0.425900  0.125000  1.0  -0.1417
  C  C573  1  0.125000  0.324100  0.125000  1.0  -0.1429
  C  C574  1  0.125000  0.824100  0.625000  1.0  -0.1429
  C  C575  1  0.625000  0.324100  0.625000  1.0  -0.1429
  C  C576  1  0.625000  0.824100  0.125000  1.0  -0.1429
  N  N577  1  0.674990  0.828700  0.013290  1.0  -0.3836
  N  N578  1  0.814940  0.060900  0.928930  1.0  -0.3001
  N  N579  1  0.674990  0.328700  0.513290  1.0  -0.3836
  N  N580  1  0.814940  0.560900  0.428930  1.0  -0.3001
  N  N581  1  0.174990  0.828700  0.513290  1.0  -0.3836
  N  N582  1  0.314940  0.060900  0.428930  1.0  -0.3001
  N  N583  1  0.174990  0.328700  0.013290  1.0  -0.3836
  N  N584  1  0.314940  0.560900  0.928930  1.0  -0.3001
  N  N585  1  0.075010  0.921300  0.013290  1.0  -0.3851
  N  N586  1  0.935060  0.689100  0.928930  1.0  -0.2997
  N  N587  1  0.075010  0.421300  0.513290  1.0  -0.3851
  N  N588  1  0.935060  0.189100  0.428930  1.0  -0.2997
  N  N589  1  0.575010  0.921300  0.513290  1.0  -0.3851
  N  N590  1  0.435060  0.689100  0.428930  1.0  -0.2997
  N  N591  1  0.575010  0.421300  0.013290  1.0  -0.3851
  N  N592  1  0.435060  0.189100  0.928930  1.0  -0.2997
  N  N593  1  0.075010  0.828700  0.736710  1.0  -0.384
  N  N594  1  0.935060  0.060900  0.821070  1.0  -0.2993
  N  N595  1  0.075010  0.328700  0.236710  1.0  -0.384
  N  N596  1  0.935060  0.560900  0.321070  1.0  -0.2993
  N  N597  1  0.575010  0.828700  0.236710  1.0  -0.384
  N  N598  1  0.435060  0.060900  0.321070  1.0  -0.2993
  N  N599  1  0.575010  0.328700  0.736710  1.0  -0.384
  N  N600  1  0.435060  0.560900  0.821070  1.0  -0.2993
  N  N601  1  0.674990  0.921300  0.736710  1.0  -0.3864
  N  N602  1  0.814940  0.689100  0.821070  1.0  -0.3018
  N  N603  1  0.674990  0.421300  0.236710  1.0  -0.3864
  N  N604  1  0.814940  0.189100  0.321070  1.0  -0.3018
  N  N605  1  0.174990  0.921300  0.236710  1.0  -0.3864
  N  N606  1  0.314940  0.689100  0.321070  1.0  -0.3018
  N  N607  1  0.174990  0.421300  0.736710  1.0  -0.3864
  N  N608  1  0.314940  0.189100  0.821070  1.0  -0.3018
  N  N609  1  0.325010  0.171300  0.986710  1.0  -0.3863
  N  N610  1  0.185060  0.939100  0.071070  1.0  -0.3004
  N  N611  1  0.325010  0.671300  0.486710  1.0  -0.3863
  N  N612  1  0.185060  0.439100  0.571070  1.0  -0.3004
  N  N613  1  0.825010  0.171300  0.486710  1.0  -0.3863
  N  N614  1  0.685060  0.939100  0.571070  1.0  -0.3004
  N  N615  1  0.825010  0.671300  0.986710  1.0  -0.3863
  N  N616  1  0.685060  0.439100  0.071070  1.0  -0.3004
  N  N617  1  0.924990  0.078700  0.986710  1.0  -0.3841
  N  N618  1  0.064940  0.310900  0.071070  1.0  -0.3011
  N  N619  1  0.924990  0.578700  0.486710  1.0  -0.3841
  N  N620  1  0.064940  0.810900  0.571070  1.0  -0.3011
  N  N621  1  0.424990  0.078700  0.486710  1.0  -0.3841
  N  N622  1  0.564940  0.310900  0.571070  1.0  -0.3011
  N  N623  1  0.424990  0.578700  0.986710  1.0  -0.3841
  N  N624  1  0.564940  0.810900  0.071070  1.0  -0.3011
  N  N625  1  0.924990  0.171300  0.263290  1.0  -0.3847
  N  N626  1  0.064940  0.939100  0.178930  1.0  -0.3006
  N  N627  1  0.924990  0.671300  0.763290  1.0  -0.3847
  N  N628  1  0.064940  0.439100  0.678930  1.0  -0.3006
  N  N629  1  0.424990  0.171300  0.763290  1.0  -0.3847
  N  N630  1  0.564940  0.939100  0.678930  1.0  -0.3006
  N  N631  1  0.424990  0.671300  0.263290  1.0  -0.3847
  N  N632  1  0.564940  0.439100  0.178930  1.0  -0.3006
  N  N633  1  0.325010  0.078700  0.263290  1.0  -0.3837
  N  N634  1  0.185060  0.310900  0.178930  1.0  -0.299
  N  N635  1  0.325010  0.578700  0.763290  1.0  -0.3837
  N  N636  1  0.185060  0.810900  0.678930  1.0  -0.299
  N  N637  1  0.825010  0.078700  0.763290  1.0  -0.3837
  N  N638  1  0.685060  0.310900  0.678930  1.0  -0.299
  N  N639  1  0.825010  0.578700  0.263290  1.0  -0.3837
  N  N640  1  0.685060  0.810900  0.178930  1.0  -0.299
