# generated using pymatgen
data_Co2P3(O5F)2
_symmetry_space_group_name_H-M   'P 1'
_cell_length_a   12.91450000
_cell_length_b   12.91450000
_cell_length_c   9.84820000
_cell_angle_alpha   90.00000000
_cell_angle_beta   90.00000000
_cell_angle_gamma   90.00000000
_symmetry_Int_Tables_number   1
_chemical_formula_structural   Co2P3(O5F)2
_chemical_formula_sum   'Co8 P12 O40 F8'
_cell_volume   1642.52524420
_cell_formula_units_Z   4
loop_
 _symmetry_equiv_pos_site_id
 _symmetry_equiv_pos_as_xyz
  1  'x, y, z'
loop_
 _atom_site_type_symbol
 _atom_site_label
 _atom_site_symmetry_multiplicity
 _atom_site_fract_x
 _atom_site_fract_y
 _atom_site_fract_z
 _atom_site_occupancy
 _atom_site_charge
  Co  Co1  1  0.136190  0.054800  0.131180  1.0  1.0596
  Co  Co2  1  0.863810  0.945200  0.131180  1.0  1.0598
  Co  Co3  1  0.054800  0.863810  0.868820  1.0  1.0605
  Co  Co4  1  0.945200  0.136190  0.868820  1.0  1.0612
  Co  Co5  1  0.636190  0.445200  0.631180  1.0  1.0597
  Co  Co6  1  0.363810  0.554800  0.631180  1.0  1.0598
  Co  Co7  1  0.554800  0.636190  0.368820  1.0  1.0606
  Co  Co8  1  0.445200  0.363810  0.368820  1.0  1.0612
  P  P9  1  0.072350  0.824140  0.183700  1.0  1.7034
  P  P10  1  0.927650  0.175860  0.183700  1.0  1.7024
  P  P11  1  0.824140  0.927650  0.816300  1.0  1.7015
  P  P12  1  0.175860  0.072350  0.816300  1.0  1.7015
  P  P13  1  0.572350  0.675860  0.683700  1.0  1.7026
  P  P14  1  0.427650  0.324140  0.683700  1.0  1.7031
  P  P15  1  0.324140  0.572350  0.316300  1.0  1.7014
  P  P16  1  0.675860  0.427650  0.316300  1.0  1.7014
  P  P17  1  0.365200  0.134800  0.250000  1.0  1.2363
  P  P18  1  0.634800  0.865200  0.250000  1.0  1.2508
  P  P19  1  0.134800  0.634800  0.750000  1.0  1.2403
  P  P20  1  0.865200  0.365200  0.750000  1.0  1.2464
  O  O21  1  0.254900  0.109500  0.250500  1.0  -0.6133
  O  O22  1  0.388300  0.111100  0.069900  1.0  -0.4783
  O  O23  1  0.138100  0.918300  0.214100  1.0  -0.678
  O  O24  1  0.085700  0.789400  0.036900  1.0  -0.7042
  O  O25  1  0.957200  0.845700  0.214600  1.0  -0.6788
  O  O26  1  0.745100  0.890500  0.250500  1.0  -0.6146
  O  O27  1  0.611700  0.888900  0.069900  1.0  -0.479
  O  O28  1  0.861900  0.081700  0.214100  1.0  -0.6776
  O  O29  1  0.914300  0.210600  0.036900  1.0  -0.7041
  O  O30  1  0.042800  0.154300  0.214600  1.0  -0.677
  O  O31  1  0.109500  0.745100  0.749500  1.0  -0.6163
  O  O32  1  0.111100  0.611700  0.930100  1.0  -0.4799
  O  O33  1  0.918300  0.861900  0.785900  1.0  -0.6797
  O  O34  1  0.789400  0.914300  0.963100  1.0  -0.7034
  O  O35  1  0.845700  0.042800  0.785400  1.0  -0.6804
  O  O36  1  0.890500  0.254900  0.749500  1.0  -0.6193
  O  O37  1  0.888900  0.388300  0.930100  1.0  -0.4805
  O  O38  1  0.081700  0.138100  0.785900  1.0  -0.6799
  O  O39  1  0.210600  0.085700  0.963100  1.0  -0.7024
  O  O40  1  0.154300  0.957200  0.785400  1.0  -0.679
  O  O41  1  0.754900  0.390500  0.750500  1.0  -0.6113
  O  O42  1  0.888300  0.388900  0.569900  1.0  -0.4783
  O  O43  1  0.638100  0.581700  0.714100  1.0  -0.678
  O  O44  1  0.585700  0.710600  0.536900  1.0  -0.7039
  O  O45  1  0.457200  0.654300  0.714600  1.0  -0.6791
  O  O46  1  0.245100  0.609500  0.750500  1.0  -0.6157
  O  O47  1  0.111700  0.611100  0.569900  1.0  -0.4791
  O  O48  1  0.361900  0.418300  0.714100  1.0  -0.6779
  O  O49  1  0.414300  0.289400  0.536900  1.0  -0.7044
  O  O50  1  0.542800  0.345700  0.714600  1.0  -0.6772
  O  O51  1  0.609500  0.754900  0.249500  1.0  -0.6174
  O  O52  1  0.611100  0.888300  0.430100  1.0  -0.4805
  O  O53  1  0.418300  0.638100  0.285900  1.0  -0.6791
  O  O54  1  0.289400  0.585700  0.463100  1.0  -0.7034
  O  O55  1  0.345700  0.457200  0.285400  1.0  -0.679
  O  O56  1  0.390500  0.245100  0.249500  1.0  -0.6157
  O  O57  1  0.388900  0.111700  0.430100  1.0  -0.4799
  O  O58  1  0.581700  0.361900  0.285900  1.0  -0.6797
  O  O59  1  0.710600  0.414300  0.463100  1.0  -0.7023
  O  O60  1  0.654300  0.542800  0.285400  1.0  -0.6798
  F  F61  1  0.104600  0.736300  0.280200  1.0  -0.2289
  F  F62  1  0.895400  0.263700  0.280200  1.0  -0.2281
  F  F63  1  0.736300  0.895400  0.719800  1.0  -0.227
  F  F64  1  0.263700  0.104600  0.719800  1.0  -0.2288
  F  F65  1  0.604600  0.763700  0.780200  1.0  -0.2286
  F  F66  1  0.395400  0.236300  0.780200  1.0  -0.2297
  F  F67  1  0.236300  0.604600  0.219800  1.0  -0.2267
  F  F68  1  0.763700  0.395400  0.219800  1.0  -0.2289
