# generated using pymatgen
data_Co2P2O7F
_symmetry_space_group_name_H-M   'P 1'
_cell_length_a   14.87370000
_cell_length_b   9.68150000
_cell_length_c   13.63540000
_cell_angle_alpha   90.00000000
_cell_angle_beta   90.00000000
_cell_angle_gamma   90.00000000
_symmetry_Int_Tables_number   1
_chemical_formula_structural   Co2P2O7F
_chemical_formula_sum   'Co16 P16 O56 F8'
_cell_volume   1963.49387140
_cell_formula_units_Z   8
loop_
 _symmetry_equiv_pos_site_id
 _symmetry_equiv_pos_as_xyz
  1  'x, y, z'
loop_
 _atom_site_type_symbol
 _atom_site_label
 _atom_site_symmetry_multiplicity
 _atom_site_fract_x
 _atom_site_fract_y
 _atom_site_fract_z
 _atom_site_occupancy
 _atom_site_charge
  Co  Co1  1  0.129680  0.709280  0.750000  1.0  1.0151
  Co  Co2  1  0.629680  0.209280  0.750000  1.0  1.0151
  Co  Co3  1  0.870320  0.290720  0.250000  1.0  1.016
  Co  Co4  1  0.370320  0.790720  0.250000  1.0  1.016
  Co  Co5  1  0.870320  0.709280  0.750000  1.0  1.0148
  Co  Co6  1  0.370320  0.209280  0.750000  1.0  1.0148
  Co  Co7  1  0.129680  0.290720  0.250000  1.0  1.0157
  Co  Co8  1  0.629680  0.790720  0.250000  1.0  1.0157
  Co  Co9  1  0.000000  0.448800  0.612410  1.0  1.0217
  Co  Co10  1  0.500000  0.948800  0.612410  1.0  1.0217
  Co  Co11  1  0.000000  0.551200  0.112410  1.0  1.0205
  Co  Co12  1  0.500000  0.051200  0.112410  1.0  1.0205
  Co  Co13  1  0.000000  0.448800  0.887590  1.0  1.0206
  Co  Co14  1  0.500000  0.948800  0.887590  1.0  1.0206
  Co  Co15  1  0.000000  0.551200  0.387590  1.0  1.0194
  Co  Co16  1  0.500000  0.051200  0.387590  1.0  1.0194
  P  P17  1  0.161730  0.381560  0.750000  1.0  1.7521
  P  P18  1  0.661730  0.881560  0.750000  1.0  1.7521
  P  P19  1  0.838270  0.618440  0.250000  1.0  1.7508
  P  P20  1  0.338270  0.118440  0.250000  1.0  1.7508
  P  P21  1  0.838270  0.381560  0.750000  1.0  1.7568
  P  P22  1  0.338270  0.881560  0.750000  1.0  1.7568
  P  P23  1  0.161730  0.618440  0.250000  1.0  1.7571
  P  P24  1  0.661730  0.118440  0.250000  1.0  1.7571
  P  P25  1  0.000000  0.226000  0.426740  1.0  1.7054
  P  P26  1  0.500000  0.726000  0.426740  1.0  1.7054
  P  P27  1  0.000000  0.774000  0.926740  1.0  1.7052
  P  P28  1  0.500000  0.274000  0.926740  1.0  1.7052
  P  P29  1  0.000000  0.226000  0.073260  1.0  1.7045
  P  P30  1  0.500000  0.726000  0.073260  1.0  1.7045
  P  P31  1  0.000000  0.774000  0.573260  1.0  1.7044
  P  P32  1  0.500000  0.274000  0.573260  1.0  1.7044
  O  O33  1  0.107000  0.353300  0.657000  1.0  -0.7136
  O  O34  1  0.085500  0.196000  0.368600  1.0  -0.7069
  O  O35  1  0.607000  0.853300  0.657000  1.0  -0.7121
  O  O36  1  0.585500  0.696000  0.368600  1.0  -0.7069
  O  O37  1  0.893000  0.646700  0.157000  1.0  -0.7137
  O  O38  1  0.914500  0.804000  0.868600  1.0  -0.7051
  O  O39  1  0.393000  0.146700  0.157000  1.0  -0.7137
  O  O40  1  0.414500  0.304000  0.868600  1.0  -0.7051
  O  O41  1  0.893000  0.353300  0.843000  1.0  -0.7147
  O  O42  1  0.914500  0.196000  0.131400  1.0  -0.7063
  O  O43  1  0.393000  0.853300  0.843000  1.0  -0.7138
  O  O44  1  0.414500  0.696000  0.131400  1.0  -0.7063
  O  O45  1  0.107000  0.646700  0.343000  1.0  -0.7142
  O  O46  1  0.085500  0.804000  0.631400  1.0  -0.707
  O  O47  1  0.607000  0.146700  0.343000  1.0  -0.7142
  O  O48  1  0.585500  0.304000  0.631400  1.0  -0.707
  O  O49  1  0.893000  0.646700  0.343000  1.0  -0.713
  O  O50  1  0.914500  0.804000  0.631400  1.0  -0.7053
  O  O51  1  0.393000  0.146700  0.343000  1.0  -0.7146
  O  O52  1  0.414500  0.304000  0.631400  1.0  -0.7053
  O  O53  1  0.107000  0.353300  0.843000  1.0  -0.7148
  O  O54  1  0.085500  0.196000  0.131400  1.0  -0.7067
  O  O55  1  0.607000  0.853300  0.843000  1.0  -0.7148
  O  O56  1  0.585500  0.696000  0.131400  1.0  -0.7072
  O  O57  1  0.107000  0.646700  0.157000  1.0  -0.7135
  O  O58  1  0.085500  0.804000  0.868600  1.0  -0.707
  O  O59  1  0.607000  0.146700  0.157000  1.0  -0.7135
  O  O60  1  0.585500  0.304000  0.868600  1.0  -0.707
  O  O61  1  0.893000  0.353300  0.657000  1.0  -0.7135
  O  O62  1  0.914500  0.196000  0.368600  1.0  -0.7059
  O  O63  1  0.393000  0.853300  0.657000  1.0  -0.7135
  O  O64  1  0.414500  0.696000  0.368600  1.0  -0.7059
  O  O65  1  0.194000  0.532900  0.750000  1.0  -0.7078
  O  O66  1  0.243000  0.287400  0.750000  1.0  -0.8296
  O  O67  1  0.694000  0.032900  0.750000  1.0  -0.7078
  O  O68  1  0.743000  0.787400  0.750000  1.0  -0.8296
  O  O69  1  0.806000  0.467100  0.250000  1.0  -0.7074
  O  O70  1  0.757000  0.712600  0.250000  1.0  -0.831
  O  O71  1  0.306000  0.967100  0.250000  1.0  -0.7074
  O  O72  1  0.257000  0.212600  0.250000  1.0  -0.831
  O  O73  1  0.806000  0.532900  0.750000  1.0  -0.7081
  O  O74  1  0.757000  0.287400  0.750000  1.0  -0.8302
  O  O75  1  0.306000  0.032900  0.750000  1.0  -0.7081
  O  O76  1  0.257000  0.787400  0.750000  1.0  -0.8302
  O  O77  1  0.194000  0.467100  0.250000  1.0  -0.7075
  O  O78  1  0.243000  0.712600  0.250000  1.0  -0.8299
  O  O79  1  0.694000  0.967100  0.250000  1.0  -0.7075
  O  O80  1  0.743000  0.212600  0.250000  1.0  -0.8299
  O  O81  1  0.000000  0.375700  0.464900  1.0  -0.8567
  O  O82  1  0.500000  0.875700  0.464900  1.0  -0.8567
  O  O83  1  0.000000  0.624300  0.964900  1.0  -0.8571
  O  O84  1  0.500000  0.124300  0.964900  1.0  -0.8571
  O  O85  1  0.000000  0.375700  0.035100  1.0  -0.8562
  O  O86  1  0.500000  0.875700  0.035100  1.0  -0.8562
  O  O87  1  0.000000  0.624300  0.535100  1.0  -0.8565
  O  O88  1  0.500000  0.124300  0.535100  1.0  -0.8565
  F  F89  1  0.000000  0.129600  0.517700  1.0  -0.2621
  F  F90  1  0.500000  0.629600  0.517700  1.0  -0.2621
  F  F91  1  0.000000  0.870400  0.017700  1.0  -0.2613
  F  F92  1  0.500000  0.370400  0.017700  1.0  -0.2613
  F  F93  1  0.000000  0.129600  0.982300  1.0  -0.2594
  F  F94  1  0.500000  0.629600  0.982300  1.0  -0.2594
  F  F95  1  0.000000  0.870400  0.482300  1.0  -0.2582
  F  F96  1  0.500000  0.370400  0.482300  1.0  -0.2582
