# generated using pymatgen
data_ZnH2(C3O2)2
_symmetry_space_group_name_H-M   'P 1'
_cell_length_a   10.08610000
_cell_length_b   10.25270000
_cell_length_c   16.40130000
_cell_angle_alpha   90.00000000
_cell_angle_beta   95.47800000
_cell_angle_gamma   90.00000000
_symmetry_Int_Tables_number   1
_chemical_formula_structural   ZnH2(C3O2)2
_chemical_formula_sum   'Zn6 H12 C36 O24'
_cell_volume   1688.30845088
_cell_formula_units_Z   6
loop_
 _symmetry_equiv_pos_site_id
 _symmetry_equiv_pos_as_xyz
  1  'x, y, z'
loop_
 _atom_site_type_symbol
 _atom_site_label
 _atom_site_symmetry_multiplicity
 _atom_site_fract_x
 _atom_site_fract_y
 _atom_site_fract_z
 _atom_site_occupancy
 _atom_site_charge
  Zn  Zn1  1  0.227900  0.760870  0.076450  1.0  0.957
  Zn  Zn2  1  0.772100  0.260870  0.423550  1.0  0.957
  Zn  Zn3  1  0.772100  0.239130  0.923550  1.0  0.9571
  Zn  Zn4  1  0.227900  0.739130  0.576450  1.0  0.957
  Zn  Zn5  1  0.000000  0.000000  0.000000  1.0  1.0259
  Zn  Zn6  1  0.000000  0.500000  0.500000  1.0  1.0259
  H  H7  1  0.679300  0.777100  0.077700  1.0  0.1102
  H  H8  1  0.955100  0.643800  0.250100  1.0  0.109
  H  H9  1  0.568700  0.563600  0.264300  1.0  0.1124
  H  H10  1  0.320700  0.277100  0.422300  1.0  0.1101
  H  H11  1  0.044900  0.143800  0.249900  1.0  0.1089
  H  H12  1  0.431300  0.063600  0.235700  1.0  0.1119
  H  H13  1  0.320700  0.222900  0.922300  1.0  0.1101
  H  H14  1  0.044900  0.356200  0.749900  1.0  0.1089
  H  H15  1  0.431300  0.436400  0.735700  1.0  0.1123
  H  H16  1  0.679300  0.722900  0.577700  1.0  0.11
  H  H17  1  0.955100  0.856200  0.750100  1.0  0.1089
  H  H18  1  0.568700  0.936400  0.764300  1.0  0.1121
  C  C19  1  0.457700  0.692600  0.134400  1.0  0.6498
  C  C20  1  0.941100  0.779400  0.110620  1.0  0.7066
  C  C21  1  0.802300  0.521800  0.349250  1.0  0.7166
  C  C22  1  0.601000  0.674000  0.166580  1.0  -0.1471
  C  C23  1  0.701300  0.730700  0.125820  1.0  0.0273
  C  C24  1  0.834600  0.718700  0.156590  1.0  -0.1744
  C  C25  1  0.866500  0.650900  0.228830  1.0  0.032
  C  C26  1  0.767200  0.593400  0.269880  1.0  -0.1604
  C  C27  1  0.635000  0.604000  0.237750  1.0  0.0291
  C  C28  1  0.542300  0.192600  0.365600  1.0  0.649
  C  C29  1  0.058900  0.279400  0.389380  1.0  0.7053
  C  C30  1  0.197700  0.021800  0.150750  1.0  0.7179
  C  C31  1  0.399000  0.174000  0.333420  1.0  -0.1464
  C  C32  1  0.298700  0.230700  0.374180  1.0  0.0276
  C  C33  1  0.165400  0.218700  0.343410  1.0  -0.175
  C  C34  1  0.133500  0.150900  0.271170  1.0  0.0291
  C  C35  1  0.232800  0.093400  0.230120  1.0  -0.1604
  C  C36  1  0.365000  0.104000  0.262250  1.0  0.0294
  C  C37  1  0.542300  0.307400  0.865600  1.0  0.6506
  C  C38  1  0.058900  0.220600  0.889380  1.0  0.7047
  C  C39  1  0.197700  0.478200  0.650750  1.0  0.7181
  C  C40  1  0.399000  0.326000  0.833420  1.0  -0.1465
  C  C41  1  0.298700  0.269300  0.874180  1.0  0.0282
  C  C42  1  0.165400  0.281300  0.843410  1.0  -0.175
  C  C43  1  0.133500  0.349100  0.771170  1.0  0.0292
  C  C44  1  0.232800  0.406600  0.730120  1.0  -0.1601
  C  C45  1  0.365000  0.396000  0.762250  1.0  0.0293
  C  C46  1  0.457700  0.807400  0.634400  1.0  0.6519
  C  C47  1  0.941100  0.720600  0.610620  1.0  0.7063
  C  C48  1  0.802300  0.978200  0.849250  1.0  0.7168
  C  C49  1  0.601000  0.826000  0.666580  1.0  -0.1469
  C  C50  1  0.701300  0.769300  0.625820  1.0  0.0276
  C  C51  1  0.834600  0.781300  0.656590  1.0  -0.1746
  C  C52  1  0.866500  0.849100  0.728830  1.0  0.0319
  C  C53  1  0.767200  0.906600  0.769880  1.0  -0.1607
  C  C54  1  0.635000  0.896000  0.737750  1.0  0.0288
  O  O55  1  0.367320  0.664430  0.178170  1.0  -0.5625
  O  O56  1  0.433430  0.738310  0.063060  1.0  -0.5698
  O  O57  1  0.902100  0.855290  0.053550  1.0  -0.5858
  O  O58  1  0.059720  0.747240  0.132800  1.0  -0.579
  O  O59  1  0.909700  0.553400  0.388210  1.0  -0.6051
  O  O60  1  0.720930  0.437640  0.368460  1.0  -0.5805
  O  O61  1  0.632680  0.164430  0.321830  1.0  -0.5598
  O  O62  1  0.566570  0.238310  0.436940  1.0  -0.5656
  O  O63  1  0.097900  0.355290  0.446450  1.0  -0.5855
  O  O64  1  0.940280  0.247240  0.367200  1.0  -0.5811
  O  O65  1  0.090300  0.053400  0.111790  1.0  -0.6046
  O  O66  1  0.279070  0.937640  0.131540  1.0  -0.5805
  O  O67  1  0.632680  0.335570  0.821830  1.0  -0.5597
  O  O68  1  0.566570  0.261690  0.936940  1.0  -0.565
  O  O69  1  0.097900  0.144710  0.946450  1.0  -0.5852
  O  O70  1  0.940280  0.252760  0.867200  1.0  -0.5809
  O  O71  1  0.090300  0.446600  0.611790  1.0  -0.6051
  O  O72  1  0.279070  0.562360  0.631540  1.0  -0.5819
  O  O73  1  0.367320  0.835570  0.678170  1.0  -0.5618
  O  O74  1  0.433430  0.761690  0.563060  1.0  -0.5687
  O  O75  1  0.902100  0.644710  0.553550  1.0  -0.5869
  O  O76  1  0.059720  0.752760  0.632800  1.0  -0.5792
  O  O77  1  0.909700  0.946600  0.888210  1.0  -0.6055
  O  O78  1  0.720930  0.062360  0.868460  1.0  -0.5805
