# generated using pymatgen
data_ZnH3C4O5
_symmetry_space_group_name_H-M   'P 1'
_cell_length_a   18.20400000
_cell_length_b   12.83000000
_cell_length_c   13.98700000
_cell_angle_alpha   90.00000000
_cell_angle_beta   99.26000000
_cell_angle_gamma   90.00000000
_symmetry_Int_Tables_number   1
_chemical_formula_structural   ZnH3C4O5
_chemical_formula_sum   'Zn16 H48 C64 O80'
_cell_volume   3224.19470638
_cell_formula_units_Z   16
loop_
 _symmetry_equiv_pos_site_id
 _symmetry_equiv_pos_as_xyz
  1  'x, y, z'
loop_
 _atom_site_type_symbol
 _atom_site_label
 _atom_site_symmetry_multiplicity
 _atom_site_fract_x
 _atom_site_fract_y
 _atom_site_fract_z
 _atom_site_occupancy
 _atom_site_charge
  Zn  Zn1  1  0.734150  0.009940  0.282410  1.0  1.0456
  Zn  Zn2  1  0.234150  0.509940  0.282410  1.0  1.0456
  Zn  Zn3  1  0.265850  0.009940  0.217590  1.0  1.0446
  Zn  Zn4  1  0.765850  0.509940  0.217590  1.0  1.0446
  Zn  Zn5  1  0.265850  0.990060  0.717590  1.0  1.0485
  Zn  Zn6  1  0.765850  0.490060  0.717590  1.0  1.0485
  Zn  Zn7  1  0.734150  0.990060  0.782410  1.0  1.0493
  Zn  Zn8  1  0.234150  0.490060  0.782410  1.0  1.0493
  Zn  Zn9  1  0.500000  0.000000  0.000000  1.0  0.9344
  Zn  Zn10  1  0.000000  0.500000  0.000000  1.0  0.9363
  Zn  Zn11  1  0.500000  0.000000  0.500000  1.0  0.9344
  Zn  Zn12  1  0.000000  0.500000  0.500000  1.0  0.9363
  Zn  Zn13  1  0.000000  0.863500  0.250000  1.0  1.1265
  Zn  Zn14  1  0.500000  0.363500  0.250000  1.0  1.1265
  Zn  Zn15  1  0.000000  0.136500  0.750000  1.0  1.1278
  Zn  Zn16  1  0.500000  0.636500  0.750000  1.0  1.1278
  H  H17  1  0.708200  0.216300  0.141500  1.0  0.1727
  H  H18  1  0.762400  0.126500  0.122200  1.0  0.1701
  H  H19  1  0.671700  0.236200  0.970100  1.0  0.1606
  H  H20  1  0.726300  0.849300  0.132900  1.0  0.1819
  H  H21  1  0.753700  0.916000  0.051600  1.0  0.1613
  H  H22  1  0.828600  0.767200  0.018900  1.0  0.1631
  H  H23  1  0.208200  0.716300  0.141500  1.0  0.1727
  H  H24  1  0.262400  0.626500  0.122200  1.0  0.1701
  H  H25  1  0.171700  0.736200  0.970100  1.0  0.1606
  H  H26  1  0.226300  0.349300  0.132900  1.0  0.1819
  H  H27  1  0.253700  0.416000  0.051600  1.0  0.1613
  H  H28  1  0.328600  0.267200  0.018900  1.0  0.1631
  H  H29  1  0.291800  0.216300  0.358500  1.0  0.1716
  H  H30  1  0.237600  0.126500  0.377800  1.0  0.1696
  H  H31  1  0.328300  0.236200  0.529900  1.0  0.1609
  H  H32  1  0.273700  0.849300  0.367100  1.0  0.1816
  H  H33  1  0.246300  0.916000  0.448400  1.0  0.161
  H  H34  1  0.171400  0.767200  0.481100  1.0  0.1644
  H  H35  1  0.791800  0.716300  0.358500  1.0  0.1716
  H  H36  1  0.737600  0.626500  0.377800  1.0  0.1696
  H  H37  1  0.828300  0.736200  0.529900  1.0  0.1609
  H  H38  1  0.773700  0.349300  0.367100  1.0  0.1816
  H  H39  1  0.746300  0.416000  0.448400  1.0  0.161
  H  H40  1  0.671400  0.267200  0.481100  1.0  0.1644
  H  H41  1  0.291800  0.783700  0.858500  1.0  0.1722
  H  H42  1  0.237600  0.873500  0.877800  1.0  0.1695
  H  H43  1  0.328300  0.763800  0.029900  1.0  0.1615
  H  H44  1  0.273700  0.150700  0.867100  1.0  0.1815
  H  H45  1  0.246300  0.084000  0.948400  1.0  0.1622
  H  H46  1  0.171400  0.232800  0.981100  1.0  0.1642
  H  H47  1  0.791800  0.283700  0.858500  1.0  0.1722
  H  H48  1  0.737600  0.373500  0.877800  1.0  0.1695
  H  H49  1  0.828300  0.263800  0.029900  1.0  0.1615
  H  H50  1  0.773700  0.650700  0.867100  1.0  0.1815
  H  H51  1  0.746300  0.584000  0.948400  1.0  0.1622
  H  H52  1  0.671400  0.732800  0.981100  1.0  0.1642
  H  H53  1  0.708200  0.783700  0.641500  1.0  0.1734
  H  H54  1  0.762400  0.873500  0.622200  1.0  0.1698
  H  H55  1  0.671700  0.763800  0.470100  1.0  0.1604
  H  H56  1  0.726300  0.150700  0.632900  1.0  0.182
  H  H57  1  0.753700  0.084000  0.551600  1.0  0.1617
  H  H58  1  0.828600  0.232800  0.518900  1.0  0.1631
  H  H59  1  0.208200  0.283700  0.641500  1.0  0.1734
  H  H60  1  0.262400  0.373500  0.622200  1.0  0.1698
  H  H61  1  0.171700  0.263800  0.470100  1.0  0.1604
  H  H62  1  0.226300  0.650700  0.632900  1.0  0.182
  H  H63  1  0.253700  0.584000  0.551600  1.0  0.1617
  H  H64  1  0.328600  0.732800  0.518900  1.0  0.1631
  C  C65  1  0.653250  0.082100  0.095500  1.0  0.789
  C  C66  1  0.715470  0.160200  0.097300  1.0  -0.2865
  C  C67  1  0.720250  0.206800  0.997400  1.0  -0.0656
  C  C68  1  0.740560  0.121700  0.929400  1.0  0.7431
  C  C69  1  0.835510  0.895500  0.170000  1.0  0.7755
  C  C70  1  0.767700  0.860600  0.098200  1.0  -0.3142
  C  C71  1  0.781330  0.760200  0.043400  1.0  -0.0763
  C  C72  1  0.786860  0.667300  0.111800  1.0  0.688
  C  C73  1  0.153250  0.582100  0.095500  1.0  0.789
  C  C74  1  0.215470  0.660200  0.097300  1.0  -0.2865
  C  C75  1  0.220250  0.706800  0.997400  1.0  -0.0656
  C  C76  1  0.240560  0.621700  0.929400  1.0  0.7431
  C  C77  1  0.335510  0.395500  0.170000  1.0  0.7755
  C  C78  1  0.267700  0.360600  0.098200  1.0  -0.3142
  C  C79  1  0.281330  0.260200  0.043400  1.0  -0.0763
  C  C80  1  0.286860  0.167300  0.111800  1.0  0.688
  C  C81  1  0.346750  0.082100  0.404500  1.0  0.7894
  C  C82  1  0.284530  0.160200  0.402700  1.0  -0.2848
  C  C83  1  0.279750  0.206800  0.502600  1.0  -0.0648
  C  C84  1  0.259440  0.121700  0.570600  1.0  0.7438
  C  C85  1  0.164490  0.895500  0.330000  1.0  0.7753
  C  C86  1  0.232300  0.860600  0.401800  1.0  -0.3149
  C  C87  1  0.218670  0.760200  0.456600  1.0  -0.0754
  C  C88  1  0.213140  0.667300  0.388200  1.0  0.6876
  C  C89  1  0.846750  0.582100  0.404500  1.0  0.7894
  C  C90  1  0.784530  0.660200  0.402700  1.0  -0.2848
  C  C91  1  0.779750  0.706800  0.502600  1.0  -0.0648
  C  C92  1  0.759440  0.621700  0.570600  1.0  0.7438
  C  C93  1  0.664490  0.395500  0.330000  1.0  0.7753
  C  C94  1  0.732300  0.360600  0.401800  1.0  -0.3149
  C  C95  1  0.718670  0.260200  0.456600  1.0  -0.0754
  C  C96  1  0.713140  0.167300  0.388200  1.0  0.6876
  C  C97  1  0.346750  0.917900  0.904500  1.0  0.7894
  C  C98  1  0.284530  0.839800  0.902700  1.0  -0.284
  C  C99  1  0.279750  0.793200  0.002600  1.0  -0.0643
  C  C100  1  0.259440  0.878300  0.070600  1.0  0.7431
  C  C101  1  0.164490  0.104500  0.830000  1.0  0.7745
  C  C102  1  0.232300  0.139400  0.901800  1.0  -0.3147
  C  C103  1  0.218670  0.239800  0.956600  1.0  -0.0752
  C  C104  1  0.213140  0.332700  0.888200  1.0  0.6873
  C  C105  1  0.846750  0.417900  0.904500  1.0  0.7894
  C  C106  1  0.784530  0.339800  0.902700  1.0  -0.284
  C  C107  1  0.779750  0.293200  0.002600  1.0  -0.0643
  C  C108  1  0.759440  0.378300  0.070600  1.0  0.7431
  C  C109  1  0.664490  0.604500  0.830000  1.0  0.7745
  C  C110  1  0.732300  0.639400  0.901800  1.0  -0.3147
  C  C111  1  0.718670  0.739800  0.956600  1.0  -0.0752
  C  C112  1  0.713140  0.832700  0.888200  1.0  0.6873
  C  C113  1  0.653250  0.917900  0.595500  1.0  0.7889
  C  C114  1  0.715470  0.839800  0.597300  1.0  -0.2864
  C  C115  1  0.720250  0.793200  0.497400  1.0  -0.0654
  C  C116  1  0.740560  0.878300  0.429400  1.0  0.7428
  C  C117  1  0.835510  0.104500  0.670000  1.0  0.7751
  C  C118  1  0.767700  0.139400  0.598200  1.0  -0.3146
  C  C119  1  0.781330  0.239800  0.543400  1.0  -0.0757
  C  C120  1  0.786860  0.332700  0.611800  1.0  0.6869
  C  C121  1  0.153250  0.417900  0.595500  1.0  0.7889
  C  C122  1  0.215470  0.339800  0.597300  1.0  -0.2864
  C  C123  1  0.220250  0.293200  0.497400  1.0  -0.0654
  C  C124  1  0.240560  0.378300  0.429400  1.0  0.7428
  C  C125  1  0.335510  0.604500  0.670000  1.0  0.7751
  C  C126  1  0.267700  0.639400  0.598200  1.0  -0.3146
  C  C127  1  0.281330  0.739800  0.543400  1.0  -0.0757
  C  C128  1  0.286860  0.832700  0.611800  1.0  0.6869
  O  O129  1  0.653440  0.024860  0.170900  1.0  -0.5416
  O  O130  1  0.603730  0.077590  0.022990  1.0  -0.5699
  O  O131  1  0.793580  0.061930  0.956480  1.0  -0.5637
  O  O132  1  0.702100  0.117380  0.844620  1.0  -0.5503
  O  O133  1  0.826120  0.963820  0.233420  1.0  -0.5365
  O  O134  1  0.897210  0.857830  0.161850  1.0  -0.5538
  O  O135  1  0.841510  0.607600  0.120160  1.0  -0.5467
  O  O136  1  0.732980  0.649040  0.157880  1.0  -0.5206
  O  O137  1  0.026000  0.009800  0.194500  1.0  -0.5109
  O  O138  1  0.042000  0.944000  0.139400  1.0  -0.4478
  O  O139  1  0.153440  0.524860  0.170900  1.0  -0.5416
  O  O140  1  0.103730  0.577590  0.022990  1.0  -0.5699
  O  O141  1  0.293580  0.561930  0.956480  1.0  -0.5637
  O  O142  1  0.202100  0.617380  0.844620  1.0  -0.5503
  O  O143  1  0.326120  0.463820  0.233420  1.0  -0.5365
  O  O144  1  0.397210  0.357830  0.161850  1.0  -0.5538
  O  O145  1  0.341510  0.107600  0.120160  1.0  -0.5467
  O  O146  1  0.232980  0.149040  0.157880  1.0  -0.5206
  O  O147  1  0.526000  0.509800  0.194500  1.0  -0.5109
  O  O148  1  0.542000  0.444000  0.139400  1.0  -0.4478
  O  O149  1  0.346560  0.024860  0.329100  1.0  -0.5407
  O  O150  1  0.396270  0.077590  0.477010  1.0  -0.572
  O  O151  1  0.206420  0.061930  0.543520  1.0  -0.564
  O  O152  1  0.297900  0.117380  0.655380  1.0  -0.5508
  O  O153  1  0.173880  0.963820  0.266580  1.0  -0.5366
  O  O154  1  0.102790  0.857830  0.338150  1.0  -0.5561
  O  O155  1  0.158490  0.607600  0.379840  1.0  -0.5465
  O  O156  1  0.267020  0.649040  0.342120  1.0  -0.5206
  O  O157  1  0.974000  0.009800  0.305500  1.0  -0.5088
  O  O158  1  0.958000  0.944000  0.360600  1.0  -0.4457
  O  O159  1  0.846560  0.524860  0.329100  1.0  -0.5407
  O  O160  1  0.896270  0.577590  0.477010  1.0  -0.572
  O  O161  1  0.706420  0.561930  0.543520  1.0  -0.564
  O  O162  1  0.797900  0.617380  0.655380  1.0  -0.5508
  O  O163  1  0.673880  0.463820  0.266580  1.0  -0.5366
  O  O164  1  0.602790  0.357830  0.338150  1.0  -0.5561
  O  O165  1  0.658490  0.107600  0.379840  1.0  -0.5465
  O  O166  1  0.767020  0.149040  0.342120  1.0  -0.5206
  O  O167  1  0.474000  0.509800  0.305500  1.0  -0.5088
  O  O168  1  0.458000  0.444000  0.360600  1.0  -0.4457
  O  O169  1  0.346560  0.975140  0.829100  1.0  -0.5398
  O  O170  1  0.396270  0.922410  0.977010  1.0  -0.5723
  O  O171  1  0.206420  0.938070  0.043520  1.0  -0.5638
  O  O172  1  0.297900  0.882620  0.155380  1.0  -0.5511
  O  O173  1  0.173880  0.036180  0.766580  1.0  -0.5375
  O  O174  1  0.102790  0.142170  0.838150  1.0  -0.5554
  O  O175  1  0.158490  0.392400  0.879840  1.0  -0.547
  O  O176  1  0.267020  0.350960  0.842120  1.0  -0.5206
  O  O177  1  0.974000  0.990200  0.805500  1.0  -0.5094
  O  O178  1  0.958000  0.056000  0.860600  1.0  -0.4455
  O  O179  1  0.846560  0.475140  0.829100  1.0  -0.5398
  O  O180  1  0.896270  0.422410  0.977010  1.0  -0.5723
  O  O181  1  0.706420  0.438070  0.043520  1.0  -0.5638
  O  O182  1  0.797900  0.382620  0.155380  1.0  -0.5511
  O  O183  1  0.673880  0.536180  0.766580  1.0  -0.5375
  O  O184  1  0.602790  0.642170  0.838150  1.0  -0.5554
  O  O185  1  0.658490  0.892400  0.879840  1.0  -0.547
  O  O186  1  0.767020  0.850960  0.842120  1.0  -0.5206
  O  O187  1  0.474000  0.490200  0.805500  1.0  -0.5094
  O  O188  1  0.458000  0.556000  0.860600  1.0  -0.4455
  O  O189  1  0.653440  0.975140  0.670900  1.0  -0.5438
  O  O190  1  0.603730  0.922410  0.522990  1.0  -0.57
  O  O191  1  0.793580  0.938070  0.456480  1.0  -0.5635
  O  O192  1  0.702100  0.882620  0.344620  1.0  -0.5507
  O  O193  1  0.826120  0.036180  0.733420  1.0  -0.5364
  O  O194  1  0.897210  0.142170  0.661850  1.0  -0.554
  O  O195  1  0.841510  0.392400  0.620160  1.0  -0.5468
  O  O196  1  0.732980  0.350960  0.657880  1.0  -0.5204
  O  O197  1  0.026000  0.990200  0.694500  1.0  -0.5113
  O  O198  1  0.042000  0.056000  0.639400  1.0  -0.4471
  O  O199  1  0.153440  0.475140  0.670900  1.0  -0.5438
  O  O200  1  0.103730  0.422410  0.522990  1.0  -0.57
  O  O201  1  0.293580  0.438070  0.456480  1.0  -0.5635
  O  O202  1  0.202100  0.382620  0.344620  1.0  -0.5507
  O  O203  1  0.326120  0.536180  0.733420  1.0  -0.5364
  O  O204  1  0.397210  0.642170  0.661850  1.0  -0.554
  O  O205  1  0.341510  0.892400  0.620160  1.0  -0.5468
  O  O206  1  0.232980  0.850960  0.657880  1.0  -0.5204
  O  O207  1  0.526000  0.490200  0.694500  1.0  -0.5113
  O  O208  1  0.542000  0.556000  0.639400  1.0  -0.4471
