# generated using pymatgen
data_CuH3C9O4
_symmetry_space_group_name_H-M   'P 1'
_cell_length_a   15.26140000
_cell_length_b   15.26140000
_cell_length_c   15.26140000
_cell_angle_alpha   76.21590000
_cell_angle_beta   76.21590000
_cell_angle_gamma   76.21590000
_symmetry_Int_Tables_number   1
_chemical_formula_structural   CuH3C9O4
_chemical_formula_sum   'Cu6 H18 C54 O24'
_cell_volume   3290.09519504
_cell_formula_units_Z   6
loop_
 _symmetry_equiv_pos_site_id
 _symmetry_equiv_pos_as_xyz
  1  'x, y, z'
loop_
 _atom_site_type_symbol
 _atom_site_label
 _atom_site_symmetry_multiplicity
 _atom_site_fract_x
 _atom_site_fract_y
 _atom_site_fract_z
 _atom_site_occupancy
 _atom_site_charge
  Cu  Cu1  1  0.579710  0.012240  0.012240  1.0  0.9075
  Cu  Cu2  1  0.012240  0.579710  0.012240  1.0  0.9067
  Cu  Cu3  1  0.012240  0.012240  0.579710  1.0  0.9052
  Cu  Cu4  1  0.987760  0.420290  0.987760  1.0  0.9072
  Cu  Cu5  1  0.420290  0.987760  0.987760  1.0  0.9071
  Cu  Cu6  1  0.987760  0.987760  0.420290  1.0  0.9062
  H  H7  1  0.516100  0.989000  0.300600  1.0  0.1272
  H  H8  1  0.300600  0.516100  0.989000  1.0  0.127
  H  H9  1  0.989000  0.300600  0.516100  1.0  0.1273
  H  H10  1  0.011000  0.483900  0.699400  1.0  0.1283
  H  H11  1  0.483900  0.699400  0.011000  1.0  0.1274
  H  H12  1  0.699400  0.011000  0.483900  1.0  0.1277
  H  H13  1  0.483900  0.011000  0.699400  1.0  0.127
  H  H14  1  0.699400  0.483900  0.011000  1.0  0.1277
  H  H15  1  0.011000  0.699400  0.483900  1.0  0.1272
  H  H16  1  0.989000  0.516100  0.300600  1.0  0.1277
  H  H17  1  0.516100  0.300600  0.989000  1.0  0.1267
  H  H18  1  0.300600  0.989000  0.516100  1.0  0.1278
  H  H19  1  0.266500  0.975700  0.266500  1.0  0.1175
  H  H20  1  0.266500  0.266500  0.975700  1.0  0.1173
  H  H21  1  0.975700  0.266500  0.266500  1.0  0.1173
  H  H22  1  0.024300  0.733500  0.733500  1.0  0.1179
  H  H23  1  0.733500  0.733500  0.024300  1.0  0.1178
  H  H24  1  0.733500  0.024300  0.733500  1.0  0.1176
  C  C25  1  0.396280  0.982620  0.268850  1.0  -0.1392
  C  C26  1  0.453680  0.987420  0.325000  1.0  -0.0505
  C  C27  1  0.434630  0.982970  0.169370  1.0  0.6841
  C  C28  1  0.268850  0.396280  0.982620  1.0  -0.1396
  C  C29  1  0.325000  0.453680  0.987420  1.0  -0.0524
  C  C30  1  0.169370  0.434630  0.982970  1.0  0.6817
  C  C31  1  0.982620  0.268850  0.396280  1.0  -0.1397
  C  C32  1  0.987420  0.325000  0.453680  1.0  -0.0507
  C  C33  1  0.982970  0.169370  0.434630  1.0  0.6827
  C  C34  1  0.017380  0.603720  0.731150  1.0  -0.1396
  C  C35  1  0.012580  0.546320  0.675000  1.0  -0.0519
  C  C36  1  0.017030  0.565370  0.830630  1.0  0.6832
  C  C37  1  0.603720  0.731150  0.017380  1.0  -0.1393
  C  C38  1  0.546320  0.675000  0.012580  1.0  -0.052
  C  C39  1  0.565370  0.830630  0.017030  1.0  0.6839
  C  C40  1  0.731150  0.017380  0.603720  1.0  -0.139
  C  C41  1  0.675000  0.012580  0.546320  1.0  -0.0521
  C  C42  1  0.830630  0.017030  0.565370  1.0  0.6824
  C  C43  1  0.603720  0.017380  0.731150  1.0  -0.1397
  C  C44  1  0.546320  0.012580  0.675000  1.0  -0.0497
  C  C45  1  0.565370  0.017030  0.830630  1.0  0.6843
  C  C46  1  0.731150  0.603720  0.017380  1.0  -0.1391
  C  C47  1  0.675000  0.546320  0.012580  1.0  -0.0506
  C  C48  1  0.830630  0.565370  0.017030  1.0  0.6817
  C  C49  1  0.017380  0.731150  0.603720  1.0  -0.1393
  C  C50  1  0.012580  0.675000  0.546320  1.0  -0.0508
  C  C51  1  0.017030  0.830630  0.565370  1.0  0.6827
  C  C52  1  0.982620  0.396280  0.268850  1.0  -0.1394
  C  C53  1  0.987420  0.453680  0.325000  1.0  -0.051
  C  C54  1  0.982970  0.434630  0.169370  1.0  0.6836
  C  C55  1  0.396280  0.268850  0.982620  1.0  -0.1394
  C  C56  1  0.453680  0.325000  0.987420  1.0  -0.05
  C  C57  1  0.434630  0.169370  0.982970  1.0  0.6835
  C  C58  1  0.268850  0.982620  0.396280  1.0  -0.1394
  C  C59  1  0.325000  0.987420  0.453680  1.0  -0.0504
  C  C60  1  0.169370  0.982970  0.434630  1.0  0.6823
  C  C61  1  0.476090  0.997490  0.476090  1.0  -0.0821
  C  C62  1  0.304730  0.979700  0.304730  1.0  0.0224
  C  C63  1  0.418450  0.989980  0.418450  1.0  0.0719
  C  C64  1  0.476090  0.476090  0.997490  1.0  -0.0819
  C  C65  1  0.304730  0.304730  0.979700  1.0  0.0224
  C  C66  1  0.418450  0.418450  0.989980  1.0  0.071
  C  C67  1  0.997490  0.476090  0.476090  1.0  -0.0801
  C  C68  1  0.979700  0.304730  0.304730  1.0  0.0228
  C  C69  1  0.989980  0.418450  0.418450  1.0  0.0721
  C  C70  1  0.002510  0.523910  0.523910  1.0  -0.0831
  C  C71  1  0.020300  0.695270  0.695270  1.0  0.0234
  C  C72  1  0.010020  0.581550  0.581550  1.0  0.0691
  C  C73  1  0.523910  0.523910  0.002510  1.0  -0.0859
  C  C74  1  0.695270  0.695270  0.020300  1.0  0.0235
  C  C75  1  0.581550  0.581550  0.010020  1.0  0.0677
  C  C76  1  0.523910  0.002510  0.523910  1.0  -0.0868
  C  C77  1  0.695270  0.020300  0.695270  1.0  0.023
  C  C78  1  0.581550  0.010020  0.581550  1.0  0.0682
  O  O79  1  0.516780  0.994960  0.140960  1.0  -0.5771
  O  O80  1  0.382170  0.976280  0.120520  1.0  -0.5597
  O  O81  1  0.140960  0.516780  0.994960  1.0  -0.5779
  O  O82  1  0.120520  0.382170  0.976280  1.0  -0.5597
  O  O83  1  0.994960  0.140960  0.516780  1.0  -0.5774
  O  O84  1  0.976280  0.120520  0.382170  1.0  -0.5588
  O  O85  1  0.005040  0.483220  0.859040  1.0  -0.5778
  O  O86  1  0.023720  0.617830  0.879480  1.0  -0.5605
  O  O87  1  0.483220  0.859040  0.005040  1.0  -0.577
  O  O88  1  0.617830  0.879480  0.023720  1.0  -0.5591
  O  O89  1  0.859040  0.005040  0.483220  1.0  -0.5787
  O  O90  1  0.879480  0.023720  0.617830  1.0  -0.5571
  O  O91  1  0.483220  0.005040  0.859040  1.0  -0.5772
  O  O92  1  0.617830  0.023720  0.879480  1.0  -0.5594
  O  O93  1  0.859040  0.483220  0.005040  1.0  -0.5785
  O  O94  1  0.879480  0.617830  0.023720  1.0  -0.5589
  O  O95  1  0.005040  0.859040  0.483220  1.0  -0.5783
  O  O96  1  0.023720  0.879480  0.617830  1.0  -0.558
  O  O97  1  0.994960  0.516780  0.140960  1.0  -0.5775
  O  O98  1  0.976280  0.382170  0.120520  1.0  -0.561
  O  O99  1  0.516780  0.140960  0.994960  1.0  -0.5771
  O  O100  1  0.382170  0.120520  0.976280  1.0  -0.5595
  O  O101  1  0.140960  0.994960  0.516780  1.0  -0.5784
  O  O102  1  0.120520  0.976280  0.382170  1.0  -0.5583
