# generated using pymatgen
data_YbNdH3(C5O4)3
_symmetry_space_group_name_H-M   'P 1'
_cell_length_a   9.67840000
_cell_length_b   11.05800000
_cell_length_c   11.38500000
_cell_angle_alpha   105.11000000
_cell_angle_beta   90.23000000
_cell_angle_gamma   113.98000000
_symmetry_Int_Tables_number   1
_chemical_formula_structural   YbNdH3(C5O4)3
_chemical_formula_sum   'Yb2 Nd2 H6 C30 O24'
_cell_volume   1066.42350750
_cell_formula_units_Z   2
loop_
 _symmetry_equiv_pos_site_id
 _symmetry_equiv_pos_as_xyz
  1  'x, y, z'
loop_
 _atom_site_type_symbol
 _atom_site_label
 _atom_site_symmetry_multiplicity
 _atom_site_fract_x
 _atom_site_fract_y
 _atom_site_fract_z
 _atom_site_occupancy
 _atom_site_charge
  Yb  Yb1  1  0.979060  0.574450  0.675300  1.0  1.5239
  Yb  Yb2  1  0.999890  0.994700  0.253960  1.0  1.5374
  Nd  Nd3  1  0.020940  0.425550  0.324700  1.0  2.2722
  Nd  Nd4  1  0.000110  0.005300  0.746040  1.0  2.2621
  H  H5  1  0.495400  0.318100  0.341400  1.0  0.1037
  H  H6  1  0.506700  0.215600  0.590800  1.0  0.117
  H  H7  1  0.594200  0.211100  0.151800  1.0  0.1148
  H  H8  1  0.504600  0.681900  0.658600  1.0  0.1038
  H  H9  1  0.493300  0.784400  0.409200  1.0  0.1169
  H  H10  1  0.405800  0.788900  0.848200  1.0  0.1154
  C  C11  1  0.773700  0.503000  0.395800  1.0  0.699
  C  C12  1  0.635800  0.506300  0.453800  1.0  -0.1012
  C  C13  1  0.637900  0.616800  0.549500  1.0  -0.0532
  C  C14  1  0.777400  0.748700  0.607300  1.0  0.718
  C  C15  1  0.496800  0.391000  0.405400  1.0  -0.0603
  C  C16  1  0.755200  0.251700  0.488500  1.0  0.6978
  C  C17  1  0.626200  0.118500  0.494900  1.0  -0.0856
  C  C18  1  0.621700  0.988100  0.441400  1.0  -0.0664
  C  C19  1  0.753800  0.969900  0.383700  1.0  0.647
  C  C20  1  0.503800  0.128900  0.554000  1.0  -0.0193
  C  C21  1  0.814000  0.128100  0.109100  1.0  0.7382
  C  C22  1  0.652500  0.063500  0.048900  1.0  -0.0929
  C  C23  1  0.596100  0.937200  0.957300  1.0  -0.0602
  C  C24  1  0.703300  0.875300  0.903500  1.0  0.6766
  C  C25  1  0.556400  0.126700  0.091300  1.0  -0.0279
  C  C26  1  0.226300  0.497000  0.604200  1.0  0.7005
  C  C27  1  0.364200  0.493700  0.546200  1.0  -0.0966
  C  C28  1  0.362100  0.383200  0.450500  1.0  -0.0532
  C  C29  1  0.222600  0.251300  0.392700  1.0  0.719
  C  C30  1  0.503200  0.609000  0.594600  1.0  -0.0604
  C  C31  1  0.244800  0.748300  0.511500  1.0  0.6994
  C  C32  1  0.373800  0.881500  0.505100  1.0  -0.081
  C  C33  1  0.378300  0.011900  0.558600  1.0  -0.0766
  C  C34  1  0.246200  0.030100  0.616300  1.0  0.6478
  C  C35  1  0.496200  0.871100  0.446000  1.0  -0.0198
  C  C36  1  0.186000  0.871900  0.890900  1.0  0.7386
  C  C37  1  0.347500  0.936500  0.951100  1.0  -0.0919
  C  C38  1  0.403900  0.062800  0.042700  1.0  -0.0594
  C  C39  1  0.296700  0.124700  0.096500  1.0  0.678
  C  C40  1  0.443600  0.873300  0.908700  1.0  -0.0284
  O  O41  1  0.901500  0.556000  0.465000  1.0  -0.7314
  O  O42  1  0.760900  0.445000  0.285100  1.0  -0.5872
  O  O43  1  0.888200  0.748700  0.669800  1.0  -0.7434
  O  O44  1  0.778300  0.859900  0.600200  1.0  -0.604
  O  O45  1  0.810600  0.257600  0.390900  1.0  -0.6256
  O  O46  1  0.790200  0.350400  0.586700  1.0  -0.7219
  O  O47  1  0.889900  0.053100  0.431700  1.0  -0.5917
  O  O48  1  0.731500  0.875800  0.285200  1.0  -0.6252
  O  O49  1  0.887900  0.257300  0.131800  1.0  -0.6479
  O  O50  1  0.865000  0.049600  0.133800  1.0  -0.6755
  O  O51  1  0.670600  0.753000  0.897700  1.0  -0.4467
  O  O52  1  0.818800  0.955900  0.865400  1.0  -0.7441
  O  O53  1  0.098500  0.444000  0.535000  1.0  -0.7288
  O  O54  1  0.239100  0.555000  0.714900  1.0  -0.5922
  O  O55  1  0.111800  0.251300  0.330200  1.0  -0.7421
  O  O56  1  0.221700  0.140100  0.399800  1.0  -0.603
  O  O57  1  0.189400  0.742400  0.609100  1.0  -0.6246
  O  O58  1  0.209800  0.649600  0.413300  1.0  -0.7268
  O  O59  1  0.110100  0.946900  0.568300  1.0  -0.5923
  O  O60  1  0.268500  0.124200  0.714800  1.0  -0.6241
  O  O61  1  0.112100  0.742700  0.868200  1.0  -0.6455
  O  O62  1  0.135000  0.950400  0.866200  1.0  -0.6747
  O  O63  1  0.329400  0.247000  0.102300  1.0  -0.4512
  O  O64  1  0.181200  0.044100  0.134600  1.0  -0.7427
