# generated using pymatgen
data_LaH8(C4O5)2
_symmetry_space_group_name_H-M   'P 1'
_cell_length_a   13.44180000
_cell_length_b   13.44180000
_cell_length_c   13.44180000
_cell_angle_alpha   94.77470000
_cell_angle_beta   117.28300000
_cell_angle_gamma   117.28300000
_symmetry_Int_Tables_number   1
_chemical_formula_structural   LaH8(C4O5)2
_chemical_formula_sum   'La4 H32 C32 O40'
_cell_volume   1781.17098509
_cell_formula_units_Z   4
loop_
 _symmetry_equiv_pos_site_id
 _symmetry_equiv_pos_as_xyz
  1  'x, y, z'
loop_
 _atom_site_type_symbol
 _atom_site_label
 _atom_site_symmetry_multiplicity
 _atom_site_fract_x
 _atom_site_fract_y
 _atom_site_fract_z
 _atom_site_occupancy
 _atom_site_charge
  La  La1  1  0.736000  0.875000  0.111000  1.0  2.1517
  La  La2  1  0.264000  0.375000  0.139000  1.0  2.1522
  La  La3  1  0.764000  0.889000  0.625000  1.0  2.1518
  La  La4  1  0.236000  0.861000  0.125000  1.0  2.1519
  H  H5  1  0.114900  0.932800  0.359100  1.0  0.1024
  H  H6  1  0.103900  0.002100  0.449800  1.0  0.0889
  H  H7  1  0.547700  0.969600  0.812500  1.0  0.1091
  H  H8  1  0.475900  0.831700  0.744800  1.0  0.0912
  H  H9  1  0.885100  0.244200  0.817900  1.0  0.1073
  H  H10  1  0.896100  0.345900  0.898200  1.0  0.0896
  H  H11  1  0.452300  0.264800  0.421900  1.0  0.11
  H  H12  1  0.524100  0.268900  0.355800  1.0  0.0902
  H  H13  1  0.573700  0.640900  0.755800  1.0  0.1037
  H  H14  1  0.552300  0.550200  0.654100  1.0  0.0894
  H  H15  1  0.157100  0.187500  0.735200  1.0  0.1058
  H  H16  1  0.086900  0.255200  0.731100  1.0  0.0925
  H  H17  1  0.426300  0.182100  0.067200  1.0  0.1064
  H  H18  1  0.447700  0.101800  0.997900  1.0  0.089
  H  H19  1  0.842900  0.578100  0.030400  1.0  0.107
  H  H20  1  0.913100  0.644200  0.168300  1.0  0.0918
  H  H21  1  0.073700  0.505800  0.890900  1.0  0.1064
  H  H22  1  0.052300  0.404100  0.800200  1.0  0.0891
  H  H23  1  0.657100  0.485200  0.437500  1.0  0.1046
  H  H24  1  0.586900  0.481100  0.505200  1.0  0.0912
  H  H25  1  0.926300  0.817200  0.432100  1.0  0.1043
  H  H26  1  0.947700  0.747900  0.351800  1.0  0.0897
  H  H27  1  0.342900  0.780400  0.828100  1.0  0.1083
  H  H28  1  0.413100  0.918300  0.894200  1.0  0.091
  H  H29  1  0.385100  0.567900  0.494200  1.0  0.105
  H  H30  1  0.396100  0.648200  0.595900  1.0  0.0891
  H  H31  1  0.952300  0.171900  0.514800  1.0  0.1088
  H  H32  1  0.024100  0.105800  0.518900  1.0  0.0916
  H  H33  1  0.614900  0.109100  0.182800  1.0  0.1052
  H  H34  1  0.603900  0.199800  0.252100  1.0  0.088
  H  H35  1  0.047700  0.562500  0.219600  1.0  0.11
  H  H36  1  0.975900  0.494800  0.081700  1.0  0.0918
  C  C37  1  0.083100  0.061800  0.309700  1.0  0.6701
  C  C38  1  0.066900  0.966600  0.365300  1.0  -0.0458
  C  C39  1  0.683300  0.924500  0.842600  1.0  0.7324
  C  C40  1  0.551100  0.899900  0.819800  1.0  -0.0543
  C  C41  1  0.916900  0.226600  0.978700  1.0  0.6727
  C  C42  1  0.933100  0.298400  0.899700  1.0  -0.0446
  C  C43  1  0.316700  0.159300  0.241200  1.0  0.7346
  C  C44  1  0.448900  0.268700  0.348800  1.0  -0.0549
  C  C45  1  0.752100  0.690300  0.773400  1.0  0.6647
  C  C46  1  0.601300  0.634700  0.701600  1.0  -0.0465
  C  C47  1  0.081900  0.157400  0.840700  1.0  0.737
  C  C48  1  0.080100  0.180200  0.731300  1.0  -0.0539
  C  C49  1  0.247900  0.021300  0.938200  1.0  0.6639
  C  C50  1  0.398700  0.100300  0.033400  1.0  -0.0484
  C  C51  1  0.918100  0.758800  0.075500  1.0  0.7344
  C  C52  1  0.919900  0.651200  0.100100  1.0  -0.0564
  C  C53  1  0.252100  0.523400  0.940300  1.0  0.6643
  C  C54  1  0.101300  0.451600  0.884700  1.0  -0.0481
  C  C55  1  0.581900  0.590700  0.407400  1.0  0.735
  C  C56  1  0.580100  0.481300  0.430200  1.0  -0.0546
  C  C57  1  0.747900  0.688200  0.271300  1.0  0.6705
  C  C58  1  0.898700  0.783400  0.350300  1.0  -0.0463
  C  C59  1  0.418100  0.825500  0.008800  1.0  0.7354
  C  C60  1  0.419900  0.850100  0.901200  1.0  -0.0534
  C  C61  1  0.416900  0.728700  0.476600  1.0  0.665
  C  C62  1  0.433100  0.649700  0.548400  1.0  -0.0457
  C  C63  1  0.816700  0.991200  0.409300  1.0  0.7339
  C  C64  1  0.948900  0.098800  0.518700  1.0  -0.0559
  C  C65  1  0.583100  0.059700  0.311800  1.0  0.6705
  C  C66  1  0.566900  0.115300  0.216600  1.0  -0.0457
  C  C67  1  0.183300  0.592600  0.174500  1.0  0.7326
  C  C68  1  0.051100  0.569800  0.149900  1.0  -0.0554
  O  O69  1  0.190700  0.161100  0.372000  1.0  -0.4883
  O  O70  1  0.987400  0.029900  0.202900  1.0  -0.617
  O  O71  1  0.759300  0.921300  0.940200  1.0  -0.614
  O  O72  1  0.703900  0.944600  0.764300  1.0  -0.677
  O  O73  1  0.809300  0.181300  0.970400  1.0  -0.4943
  O  O74  1  0.012600  0.215500  0.042500  1.0  -0.6204
  O  O75  1  0.240700  0.180900  0.162000  1.0  -0.6164
  O  O76  1  0.296100  0.060400  0.240700  1.0  -0.6755
  O  O77  1  0.789100  0.628000  0.818700  1.0  -0.4941
  O  O78  1  0.827000  0.797100  0.784500  1.0  -0.6162
  O  O79  1  0.981100  0.059800  0.819100  1.0  -0.6151
  O  O80  1  0.180300  0.235700  0.939600  1.0  -0.6774
  O  O81  1  0.210900  0.029600  0.838900  1.0  -0.4916
  O  O82  1  0.173000  0.957500  0.970100  1.0  -0.6194
  O  O83  1  0.018900  0.838000  0.078700  1.0  -0.6171
  O  O84  1  0.819700  0.759300  0.055400  1.0  -0.6789
  O  O85  1  0.289100  0.568700  0.878000  1.0  -0.4914
  O  O86  1  0.327000  0.534500  0.047100  1.0  -0.6208
  O  O87  1  0.481100  0.569100  0.309800  1.0  -0.6157
  O  O88  1  0.680300  0.689600  0.485700  1.0  -0.6763
  O  O89  1  0.710900  0.588900  0.279600  1.0  -0.4898
  O  O90  1  0.673000  0.720100  0.207500  1.0  -0.6171
  O  O91  1  0.518900  0.828700  0.088000  1.0  -0.6146
  O  O92  1  0.319700  0.805400  0.009300  1.0  -0.678
  O  O93  1  0.309300  0.720400  0.431300  1.0  -0.4959
  O  O94  1  0.512600  0.792500  0.465500  1.0  -0.6206
  O  O95  1  0.740700  0.912000  0.430900  1.0  -0.6136
  O  O96  1  0.796100  0.990700  0.310400  1.0  -0.6741
  O  O97  1  0.690700  0.122000  0.411100  1.0  -0.494
  O  O98  1  0.487400  0.952900  0.279900  1.0  -0.6181
  O  O99  1  0.259300  0.690200  0.171300  1.0  -0.614
  O  O100  1  0.203900  0.514300  0.194600  1.0  -0.6749
  O  O101  1  0.927900  0.875000  0.302900  1.0  -0.343
  O  O102  1  0.540200  0.875000  0.915200  1.0  -0.3917
  O  O103  1  0.072100  0.375000  0.947100  1.0  -0.3417
  O  O104  1  0.459800  0.375000  0.334800  1.0  -0.3936
  O  O105  1  0.572100  0.697100  0.625000  1.0  -0.3423
  O  O106  1  0.959800  0.084800  0.625000  1.0  -0.3925
  O  O107  1  0.427900  0.052900  0.125000  1.0  -0.3436
  O  O108  1  0.040200  0.665200  0.125000  1.0  -0.3928
