# generated using pymatgen
data_Zn3H6C12N6O7
_symmetry_space_group_name_H-M   'P 1'
_cell_length_a   20.12300000
_cell_length_b   20.12300000
_cell_length_c   20.12300000
_cell_angle_alpha   90.00000000
_cell_angle_beta   90.00000000
_cell_angle_gamma   90.00000000
_symmetry_Int_Tables_number   1
_chemical_formula_structural   Zn3H6C12N6O7
_chemical_formula_sum   'Zn24 H48 C96 N48 O56'
_cell_volume   8148.50960087
_cell_formula_units_Z   8
loop_
 _symmetry_equiv_pos_site_id
 _symmetry_equiv_pos_as_xyz
  1  'x, y, z'
loop_
 _atom_site_type_symbol
 _atom_site_label
 _atom_site_symmetry_multiplicity
 _atom_site_fract_x
 _atom_site_fract_y
 _atom_site_fract_z
 _atom_site_occupancy
 _atom_site_charge
  Zn  Zn1  1  0.355810  0.250610  0.230740  1.0  0.9698
  Zn  Zn2  1  0.144190  0.749390  0.730740  1.0  0.9715
  Zn  Zn3  1  0.644190  0.750610  0.269260  1.0  0.9713
  Zn  Zn4  1  0.855810  0.249390  0.769260  1.0  0.9704
  Zn  Zn5  1  0.230740  0.355810  0.250610  1.0  0.97
  Zn  Zn6  1  0.730740  0.144190  0.749390  1.0  0.9701
  Zn  Zn7  1  0.269260  0.644190  0.750610  1.0  0.9717
  Zn  Zn8  1  0.769260  0.855810  0.249390  1.0  0.9713
  Zn  Zn9  1  0.250610  0.230740  0.355810  1.0  0.9719
  Zn  Zn10  1  0.749390  0.730740  0.144190  1.0  0.9724
  Zn  Zn11  1  0.750610  0.269260  0.644190  1.0  0.9714
  Zn  Zn12  1  0.249390  0.769260  0.855810  1.0  0.9733
  Zn  Zn13  1  0.644190  0.749390  0.769260  1.0  0.9714
  Zn  Zn14  1  0.855810  0.250610  0.269260  1.0  0.9704
  Zn  Zn15  1  0.355810  0.249390  0.730740  1.0  0.9702
  Zn  Zn16  1  0.144190  0.750610  0.230740  1.0  0.9712
  Zn  Zn17  1  0.769260  0.644190  0.749390  1.0  0.9716
  Zn  Zn18  1  0.269260  0.855810  0.250610  1.0  0.9715
  Zn  Zn19  1  0.730740  0.355810  0.249390  1.0  0.9698
  Zn  Zn20  1  0.230740  0.144190  0.750610  1.0  0.9702
  Zn  Zn21  1  0.749390  0.769260  0.644190  1.0  0.9724
  Zn  Zn22  1  0.250610  0.269260  0.855810  1.0  0.9722
  Zn  Zn23  1  0.249390  0.730740  0.355810  1.0  0.973
  Zn  Zn24  1  0.750610  0.230740  0.144190  1.0  0.9712
  H  H25  1  0.591800  0.197300  0.128100  1.0  0.1169
  H  H26  1  0.569000  0.339100  0.262800  1.0  0.1156
  H  H27  1  0.908200  0.802700  0.628100  1.0  0.1174
  H  H28  1  0.931000  0.660900  0.762800  1.0  0.1152
  H  H29  1  0.408200  0.697300  0.371900  1.0  0.1179
  H  H30  1  0.431000  0.839100  0.237200  1.0  0.1148
  H  H31  1  0.091800  0.302700  0.871900  1.0  0.1176
  H  H32  1  0.069000  0.160900  0.737200  1.0  0.1149
  H  H33  1  0.128100  0.591800  0.197300  1.0  0.1162
  H  H34  1  0.262800  0.569000  0.339100  1.0  0.1145
  H  H35  1  0.628100  0.908200  0.802700  1.0  0.1171
  H  H36  1  0.762800  0.931000  0.660900  1.0  0.1145
  H  H37  1  0.371900  0.408200  0.697300  1.0  0.1166
  H  H38  1  0.237200  0.431000  0.839100  1.0  0.1152
  H  H39  1  0.871900  0.091800  0.302700  1.0  0.117
  H  H40  1  0.737200  0.069000  0.160900  1.0  0.1144
  H  H41  1  0.197300  0.128100  0.591800  1.0  0.1168
  H  H42  1  0.339100  0.262800  0.569000  1.0  0.1153
  H  H43  1  0.802700  0.628100  0.908200  1.0  0.1176
  H  H44  1  0.660900  0.762800  0.931000  1.0  0.1158
  H  H45  1  0.697300  0.371900  0.408200  1.0  0.1175
  H  H46  1  0.839100  0.237200  0.431000  1.0  0.1155
  H  H47  1  0.302700  0.871900  0.091800  1.0  0.1173
  H  H48  1  0.160900  0.737200  0.069000  1.0  0.1152
  H  H49  1  0.408200  0.802700  0.871900  1.0  0.1177
  H  H50  1  0.431000  0.660900  0.737200  1.0  0.1147
  H  H51  1  0.091800  0.197300  0.371900  1.0  0.1184
  H  H52  1  0.069000  0.339100  0.237200  1.0  0.115
  H  H53  1  0.591800  0.302700  0.628100  1.0  0.1171
  H  H54  1  0.569000  0.160900  0.762800  1.0  0.116
  H  H55  1  0.908200  0.697300  0.128100  1.0  0.1168
  H  H56  1  0.931000  0.839100  0.262800  1.0  0.1151
  H  H57  1  0.871900  0.408200  0.802700  1.0  0.1171
  H  H58  1  0.737200  0.431000  0.660900  1.0  0.1148
  H  H59  1  0.371900  0.091800  0.197300  1.0  0.1165
  H  H60  1  0.237200  0.069000  0.339100  1.0  0.1155
  H  H61  1  0.628100  0.591800  0.302700  1.0  0.1172
  H  H62  1  0.762800  0.569000  0.160900  1.0  0.1139
  H  H63  1  0.128100  0.908200  0.697300  1.0  0.1163
  H  H64  1  0.262800  0.931000  0.839100  1.0  0.1148
  H  H65  1  0.802700  0.871900  0.408200  1.0  0.1173
  H  H66  1  0.660900  0.737200  0.431000  1.0  0.1159
  H  H67  1  0.197300  0.371900  0.091800  1.0  0.1175
  H  H68  1  0.339100  0.237200  0.069000  1.0  0.1151
  H  H69  1  0.302700  0.628100  0.591800  1.0  0.1172
  H  H70  1  0.160900  0.762800  0.569000  1.0  0.1155
  H  H71  1  0.697300  0.128100  0.908200  1.0  0.1175
  H  H72  1  0.839100  0.262800  0.931000  1.0  0.1154
  C  C73  1  0.479600  0.250000  0.199300  1.0  0.6866
  C  C74  1  0.599900  0.231800  0.157800  1.0  0.0251
  C  C75  1  0.551300  0.263400  0.195800  1.0  -0.1108
  C  C76  1  0.587200  0.310000  0.231900  1.0  0.0167
  C  C77  1  0.020400  0.750000  0.699300  1.0  0.6875
  C  C78  1  0.900100  0.768200  0.657800  1.0  0.0253
  C  C79  1  0.948700  0.736600  0.695800  1.0  -0.1112
  C  C80  1  0.912800  0.690000  0.731900  1.0  0.0176
  C  C81  1  0.520400  0.750000  0.300700  1.0  0.6872
  C  C82  1  0.400100  0.731800  0.342200  1.0  0.0258
  C  C83  1  0.448700  0.763400  0.304200  1.0  -0.1109
  C  C84  1  0.412800  0.810000  0.268100  1.0  0.0183
  C  C85  1  0.979600  0.250000  0.800700  1.0  0.6868
  C  C86  1  0.099900  0.268200  0.842200  1.0  0.0236
  C  C87  1  0.051300  0.236600  0.804200  1.0  -0.1162
  C  C88  1  0.087200  0.190000  0.768100  1.0  0.0185
  C  C89  1  0.199300  0.479600  0.250000  1.0  0.6884
  C  C90  1  0.157800  0.599900  0.231800  1.0  0.0273
  C  C91  1  0.195800  0.551300  0.263400  1.0  -0.1111
  C  C92  1  0.231900  0.587200  0.310000  1.0  0.0201
  C  C93  1  0.699300  0.020400  0.750000  1.0  0.6879
  C  C94  1  0.657800  0.900100  0.768200  1.0  0.0275
  C  C95  1  0.695800  0.948700  0.736600  1.0  -0.1114
  C  C96  1  0.731900  0.912800  0.690000  1.0  0.019
  C  C97  1  0.300700  0.520400  0.750000  1.0  0.688
  C  C98  1  0.342200  0.400100  0.731800  1.0  0.0269
  C  C99  1  0.304200  0.448700  0.763400  1.0  -0.1109
  C  C100  1  0.268100  0.412800  0.810000  1.0  0.0196
  C  C101  1  0.800700  0.979600  0.250000  1.0  0.6882
  C  C102  1  0.842200  0.099900  0.268200  1.0  0.0261
  C  C103  1  0.804200  0.051300  0.236600  1.0  -0.1174
  C  C104  1  0.768100  0.087200  0.190000  1.0  0.0198
  C  C105  1  0.250000  0.199300  0.479600  1.0  0.6885
  C  C106  1  0.231800  0.157800  0.599900  1.0  0.0284
  C  C107  1  0.263400  0.195800  0.551300  1.0  -0.1139
  C  C108  1  0.310000  0.231900  0.587200  1.0  0.0207
  C  C109  1  0.750000  0.699300  0.020400  1.0  0.6889
  C  C110  1  0.768200  0.657800  0.900100  1.0  0.0274
  C  C111  1  0.736600  0.695800  0.948700  1.0  -0.1125
  C  C112  1  0.690000  0.731900  0.912800  1.0  0.0206
  C  C113  1  0.750000  0.300700  0.520400  1.0  0.6887
  C  C114  1  0.731800  0.342200  0.400100  1.0  0.0276
  C  C115  1  0.763400  0.304200  0.448700  1.0  -0.1131
  C  C116  1  0.810000  0.268100  0.412800  1.0  0.0196
  C  C117  1  0.250000  0.800700  0.979600  1.0  0.6883
  C  C118  1  0.268200  0.842200  0.099900  1.0  0.0263
  C  C119  1  0.236600  0.804200  0.051300  1.0  -0.1183
  C  C120  1  0.190000  0.768100  0.087200  1.0  0.0217
  C  C121  1  0.520400  0.750000  0.800700  1.0  0.6874
  C  C122  1  0.400100  0.768200  0.842200  1.0  0.0251
  C  C123  1  0.448700  0.736600  0.804200  1.0  -0.111
  C  C124  1  0.412800  0.690000  0.768100  1.0  0.0184
  C  C125  1  0.979600  0.250000  0.300700  1.0  0.6866
  C  C126  1  0.099900  0.231800  0.342200  1.0  0.0255
  C  C127  1  0.051300  0.263400  0.304200  1.0  -0.1109
  C  C128  1  0.087200  0.310000  0.268100  1.0  0.018
  C  C129  1  0.479600  0.250000  0.699300  1.0  0.6868
  C  C130  1  0.599900  0.268200  0.657800  1.0  0.0251
  C  C131  1  0.551300  0.236600  0.695800  1.0  -0.1112
  C  C132  1  0.587200  0.190000  0.731900  1.0  0.0172
  C  C133  1  0.020400  0.750000  0.199300  1.0  0.6873
  C  C134  1  0.900100  0.731800  0.157800  1.0  0.0239
  C  C135  1  0.948700  0.763400  0.195800  1.0  -0.1159
  C  C136  1  0.912800  0.810000  0.231900  1.0  0.0173
  C  C137  1  0.800700  0.520400  0.750000  1.0  0.6878
  C  C138  1  0.842200  0.400100  0.768200  1.0  0.0275
  C  C139  1  0.804200  0.448700  0.736600  1.0  -0.1113
  C  C140  1  0.768100  0.412800  0.690000  1.0  0.0195
  C  C141  1  0.300700  0.979600  0.250000  1.0  0.6883
  C  C142  1  0.342200  0.099900  0.231800  1.0  0.0265
  C  C143  1  0.304200  0.051300  0.263400  1.0  -0.1112
  C  C144  1  0.268100  0.087200  0.310000  1.0  0.0206
  C  C145  1  0.699300  0.479600  0.250000  1.0  0.6883
  C  C146  1  0.657800  0.599900  0.268200  1.0  0.0277
  C  C147  1  0.695800  0.551300  0.236600  1.0  -0.1115
  C  C148  1  0.731900  0.587200  0.190000  1.0  0.0187
  C  C149  1  0.199300  0.020400  0.750000  1.0  0.6881
  C  C150  1  0.157800  0.900100  0.731800  1.0  0.0269
  C  C151  1  0.195800  0.948700  0.763400  1.0  -0.1163
  C  C152  1  0.231900  0.912800  0.810000  1.0  0.0198
  C  C153  1  0.750000  0.800700  0.520400  1.0  0.6888
  C  C154  1  0.768200  0.842200  0.400100  1.0  0.028
  C  C155  1  0.736600  0.804200  0.448700  1.0  -0.1124
  C  C156  1  0.690000  0.768100  0.412800  1.0  0.0206
  C  C157  1  0.250000  0.300700  0.979600  1.0  0.6885
  C  C158  1  0.231800  0.342200  0.099900  1.0  0.0279
  C  C159  1  0.263400  0.304200  0.051300  1.0  -0.1138
  C  C160  1  0.310000  0.268100  0.087200  1.0  0.0207
  C  C161  1  0.250000  0.699300  0.479600  1.0  0.6884
  C  C162  1  0.268200  0.657800  0.599900  1.0  0.0274
  C  C163  1  0.236600  0.695800  0.551300  1.0  -0.1132
  C  C164  1  0.190000  0.731900  0.587200  1.0  0.0214
  C  C165  1  0.750000  0.199300  0.020400  1.0  0.6888
  C  C166  1  0.731800  0.157800  0.900100  1.0  0.0272
  C  C167  1  0.763400  0.195800  0.948700  1.0  -0.1196
  C  C168  1  0.810000  0.231900  0.912800  1.0  0.0198
  N  N169  1  0.651000  0.307000  0.216100  1.0  -0.1787
  N  N170  1  0.659000  0.257600  0.169800  1.0  -0.2442
  N  N171  1  0.849000  0.693000  0.716100  1.0  -0.1804
  N  N172  1  0.841000  0.742400  0.669800  1.0  -0.243
  N  N173  1  0.349000  0.807000  0.283900  1.0  -0.1805
  N  N174  1  0.341000  0.757600  0.330200  1.0  -0.2426
  N  N175  1  0.151000  0.193000  0.783900  1.0  -0.1784
  N  N176  1  0.159000  0.242400  0.830200  1.0  -0.2432
  N  N177  1  0.216100  0.651000  0.307000  1.0  -0.1797
  N  N178  1  0.169800  0.659000  0.257600  1.0  -0.2426
  N  N179  1  0.716100  0.849000  0.693000  1.0  -0.1792
  N  N180  1  0.669800  0.841000  0.742400  1.0  -0.2415
  N  N181  1  0.283900  0.349000  0.807000  1.0  -0.1787
  N  N182  1  0.330200  0.341000  0.757600  1.0  -0.2396
  N  N183  1  0.783900  0.151000  0.193000  1.0  -0.1796
  N  N184  1  0.830200  0.159000  0.242400  1.0  -0.2407
  N  N185  1  0.307000  0.216100  0.651000  1.0  -0.1787
  N  N186  1  0.257600  0.169800  0.659000  1.0  -0.2436
  N  N187  1  0.693000  0.716100  0.849000  1.0  -0.1802
  N  N188  1  0.742400  0.669800  0.841000  1.0  -0.2447
  N  N189  1  0.807000  0.283900  0.349000  1.0  -0.1805
  N  N190  1  0.757600  0.330200  0.341000  1.0  -0.2438
  N  N191  1  0.193000  0.783900  0.151000  1.0  -0.1801
  N  N192  1  0.242400  0.830200  0.159000  1.0  -0.2434
  N  N193  1  0.349000  0.693000  0.783900  1.0  -0.1805
  N  N194  1  0.341000  0.742400  0.830200  1.0  -0.2427
  N  N195  1  0.151000  0.307000  0.283900  1.0  -0.1788
  N  N196  1  0.159000  0.257600  0.330200  1.0  -0.2431
  N  N197  1  0.651000  0.193000  0.716100  1.0  -0.1782
  N  N198  1  0.659000  0.242400  0.669800  1.0  -0.2442
  N  N199  1  0.849000  0.807000  0.216100  1.0  -0.1805
  N  N200  1  0.841000  0.757600  0.169800  1.0  -0.2433
  N  N201  1  0.783900  0.349000  0.693000  1.0  -0.1788
  N  N202  1  0.830200  0.341000  0.742400  1.0  -0.2397
  N  N203  1  0.283900  0.151000  0.307000  1.0  -0.1794
  N  N204  1  0.330200  0.159000  0.257600  1.0  -0.2406
  N  N205  1  0.716100  0.651000  0.193000  1.0  -0.1799
  N  N206  1  0.669800  0.659000  0.242400  1.0  -0.2427
  N  N207  1  0.216100  0.849000  0.807000  1.0  -0.1789
  N  N208  1  0.169800  0.841000  0.757600  1.0  -0.2415
  N  N209  1  0.693000  0.783900  0.349000  1.0  -0.181
  N  N210  1  0.742400  0.830200  0.341000  1.0  -0.2437
  N  N211  1  0.307000  0.283900  0.151000  1.0  -0.1788
  N  N212  1  0.257600  0.330200  0.159000  1.0  -0.2434
  N  N213  1  0.193000  0.716100  0.651000  1.0  -0.1799
  N  N214  1  0.242400  0.669800  0.659000  1.0  -0.2433
  N  N215  1  0.807000  0.216100  0.849000  1.0  -0.1799
  N  N216  1  0.757600  0.169800  0.841000  1.0  -0.245
  O  O217  1  0.446700  0.282700  0.242300  1.0  -0.5829
  O  O218  1  0.453200  0.207200  0.163800  1.0  -0.5326
  O  O219  1  0.053300  0.717300  0.742300  1.0  -0.5842
  O  O220  1  0.046800  0.792800  0.663800  1.0  -0.5318
  O  O221  1  0.553300  0.782700  0.257700  1.0  -0.586
  O  O222  1  0.546800  0.707200  0.336200  1.0  -0.5309
  O  O223  1  0.946700  0.217300  0.757700  1.0  -0.5865
  O  O224  1  0.953200  0.292800  0.836200  1.0  -0.5306
  O  O225  1  0.242300  0.446700  0.282700  1.0  -0.58
  O  O226  1  0.163800  0.453200  0.207200  1.0  -0.5337
  O  O227  1  0.742300  0.053300  0.717300  1.0  -0.5811
  O  O228  1  0.663800  0.046800  0.792800  1.0  -0.532
  O  O229  1  0.257700  0.553300  0.782700  1.0  -0.5809
  O  O230  1  0.336200  0.546800  0.707200  1.0  -0.5335
  O  O231  1  0.757700  0.946700  0.217300  1.0  -0.5807
  O  O232  1  0.836200  0.953200  0.292800  1.0  -0.535
  O  O233  1  0.282700  0.242300  0.446700  1.0  -0.5829
  O  O234  1  0.207200  0.163800  0.453200  1.0  -0.5347
  O  O235  1  0.717300  0.742300  0.053300  1.0  -0.582
  O  O236  1  0.792800  0.663800  0.046800  1.0  -0.5357
  O  O237  1  0.782700  0.257700  0.553300  1.0  -0.5826
  O  O238  1  0.707200  0.336200  0.546800  1.0  -0.5339
  O  O239  1  0.217300  0.757700  0.946700  1.0  -0.5834
  O  O240  1  0.292800  0.836200  0.953200  1.0  -0.5334
  O  O241  1  0.553300  0.717300  0.757700  1.0  -0.5853
  O  O242  1  0.546800  0.792800  0.836200  1.0  -0.531
  O  O243  1  0.946700  0.282700  0.257700  1.0  -0.586
  O  O244  1  0.953200  0.207200  0.336200  1.0  -0.5311
  O  O245  1  0.446700  0.217300  0.742300  1.0  -0.5845
  O  O246  1  0.453200  0.292800  0.663800  1.0  -0.5317
  O  O247  1  0.053300  0.782700  0.242300  1.0  -0.5836
  O  O248  1  0.046800  0.707200  0.163800  1.0  -0.5321
  O  O249  1  0.757700  0.553300  0.717300  1.0  -0.5807
  O  O250  1  0.836200  0.546800  0.792800  1.0  -0.5335
  O  O251  1  0.257700  0.946700  0.282700  1.0  -0.5806
  O  O252  1  0.336200  0.953200  0.207200  1.0  -0.5336
  O  O253  1  0.742300  0.446700  0.217300  1.0  -0.5812
  O  O254  1  0.663800  0.453200  0.292800  1.0  -0.5333
  O  O255  1  0.242300  0.053300  0.782700  1.0  -0.5802
  O  O256  1  0.163800  0.046800  0.707200  1.0  -0.5335
  O  O257  1  0.717300  0.757700  0.553300  1.0  -0.5833
  O  O258  1  0.792800  0.836200  0.546800  1.0  -0.5341
  O  O259  1  0.282700  0.257700  0.946700  1.0  -0.5828
  O  O260  1  0.207200  0.336200  0.953200  1.0  -0.5335
  O  O261  1  0.217300  0.742300  0.446700  1.0  -0.583
  O  O262  1  0.292800  0.663800  0.453200  1.0  -0.5347
  O  O263  1  0.782700  0.242300  0.053300  1.0  -0.5818
  O  O264  1  0.707200  0.163800  0.046800  1.0  -0.5356
  O  O265  1  0.300030  0.300030  0.300030  1.0  -0.8584
  O  O266  1  0.199970  0.699970  0.800030  1.0  -0.8575
  O  O267  1  0.699970  0.800030  0.199970  1.0  -0.8581
  O  O268  1  0.800030  0.199970  0.699970  1.0  -0.8567
  O  O269  1  0.699970  0.699970  0.699970  1.0  -0.8576
  O  O270  1  0.800030  0.300030  0.199970  1.0  -0.8582
  O  O271  1  0.300030  0.199970  0.800030  1.0  -0.8571
  O  O272  1  0.199970  0.800030  0.300030  1.0  -0.8583
