# generated using pymatgen
data_Ni3H38C60(N3O7)2
_symmetry_space_group_name_H-M   'P 1'
_cell_length_a   11.21490000
_cell_length_b   17.00250000
_cell_length_c   20.31760000
_cell_angle_alpha   65.26520000
_cell_angle_beta   87.94890000
_cell_angle_gamma   85.09300000
_symmetry_Int_Tables_number   1
_chemical_formula_structural   Ni3H38C60(N3O7)2
_chemical_formula_sum   'Ni6 H76 C120 N12 O28'
_cell_volume   3505.85004711
_cell_formula_units_Z   2
loop_
 _symmetry_equiv_pos_site_id
 _symmetry_equiv_pos_as_xyz
  1  'x, y, z'
loop_
 _atom_site_type_symbol
 _atom_site_label
 _atom_site_symmetry_multiplicity
 _atom_site_fract_x
 _atom_site_fract_y
 _atom_site_fract_z
 _atom_site_occupancy
 _atom_site_charge
  Ni  Ni1  1  0.091490  0.221840  0.950520  1.0  0.7952
  Ni  Ni2  1  0.408510  0.827640  0.950520  1.0  0.8021
  Ni  Ni3  1  0.908510  0.778160  0.049480  1.0  0.8014
  Ni  Ni4  1  0.591490  0.172360  0.049480  1.0  0.7998
  Ni  Ni5  1  0.250000  0.760730  0.478540  1.0  0.8035
  Ni  Ni6  1  0.750000  0.239270  0.521460  1.0  0.8008
  H  H7  1  0.489900  0.355700  0.811800  1.0  0.101
  H  H8  1  0.526300  0.425300  0.689800  1.0  0.1118
  H  H9  1  0.715800  0.416700  0.645200  1.0  0.1264
  H  H10  1  0.029600  0.363000  0.602400  1.0  0.1209
  H  H11  1  0.131600  0.485500  0.534000  1.0  0.1021
  H  H12  1  0.014700  0.592100  0.668000  1.0  0.1055
  H  H13  1  0.920600  0.467700  0.738400  1.0  0.1272
  H  H14  1  0.168900  0.770200  0.334400  1.0  0.0656
  H  H15  1  0.036400  0.849900  0.243200  1.0  0.1263
  H  H16  1  0.891700  0.959700  0.370600  1.0  0.1223
  H  H17  1  0.032500  0.880400  0.456400  1.0  0.0883
  H  H18  1  0.834300  0.073100  0.064400  1.0  0.0804
  H  H19  1  0.966100  0.981600  0.150600  1.0  0.1323
  H  H20  1  0.724900  0.979000  0.301200  1.0  0.1152
  H  H21  1  0.599200  0.068900  0.210600  1.0  0.0619
  H  H22  1  0.318700  0.305300  0.943600  1.0  0.0743
  H  H23  1  0.387500  0.429800  0.937200  1.0  0.1095
  H  H24  1  0.053300  0.540400  0.896200  1.0  0.1207
  H  H25  1  0.993900  0.411800  0.904000  1.0  0.0777
  H  H26  1  0.010100  0.832500  0.811800  1.0  0.1017
  H  H27  1  0.973700  0.884900  0.689800  1.0  0.1097
  H  H28  1  0.784200  0.938100  0.645200  1.0  0.1248
  H  H29  1  0.470400  0.034600  0.602400  1.0  0.1216
  H  H30  1  0.368400  0.980500  0.534000  1.0  0.1014
  H  H31  1  0.485300  0.739900  0.668000  1.0  0.1053
  H  H32  1  0.579400  0.793900  0.738400  1.0  0.1258
  H  H33  1  0.331100  0.895400  0.334400  1.0  0.0662
  H  H34  1  0.463600  0.906900  0.243200  1.0  0.1245
  H  H35  1  0.608300  0.669700  0.370600  1.0  0.1213
  H  H36  1  0.467500  0.663200  0.456400  1.0  0.0869
  H  H37  1  0.665700  0.862500  0.064400  1.0  0.0806
  H  H38  1  0.533900  0.867800  0.150600  1.0  0.1322
  H  H39  1  0.775100  0.719800  0.301200  1.0  0.1165
  H  H40  1  0.900800  0.720500  0.210600  1.0  0.0619
  H  H41  1  0.181300  0.751100  0.943600  1.0  0.0737
  H  H42  1  0.112500  0.633000  0.937200  1.0  0.1093
  H  H43  1  0.446700  0.563400  0.896200  1.0  0.1211
  H  H44  1  0.506100  0.684200  0.904000  1.0  0.0789
  H  H45  1  0.510100  0.644300  0.188200  1.0  0.1014
  H  H46  1  0.473700  0.574700  0.310200  1.0  0.1113
  H  H47  1  0.284200  0.583300  0.354800  1.0  0.1264
  H  H48  1  0.970400  0.637000  0.397600  1.0  0.1206
  H  H49  1  0.868400  0.514500  0.466000  1.0  0.1024
  H  H50  1  0.985300  0.407900  0.332000  1.0  0.1051
  H  H51  1  0.079400  0.532300  0.261600  1.0  0.1267
  H  H52  1  0.831100  0.229800  0.665600  1.0  0.0658
  H  H53  1  0.963600  0.150100  0.756800  1.0  0.1262
  H  H54  1  0.108300  0.040300  0.629400  1.0  0.1218
  H  H55  1  0.967500  0.119600  0.543600  1.0  0.0887
  H  H56  1  0.165700  0.926900  0.935600  1.0  0.079
  H  H57  1  0.033900  0.018400  0.849400  1.0  0.1322
  H  H58  1  0.275100  0.021000  0.698800  1.0  0.1149
  H  H59  1  0.400800  0.931100  0.789400  1.0  0.0622
  H  H60  1  0.681300  0.694700  0.056400  1.0  0.0733
  H  H61  1  0.612500  0.570200  0.062800  1.0  0.1092
  H  H62  1  0.946700  0.459600  0.103800  1.0  0.1205
  H  H63  1  0.006100  0.588200  0.096000  1.0  0.078
  H  H64  1  0.989900  0.167500  0.188200  1.0  0.1023
  H  H65  1  0.026300  0.115100  0.310200  1.0  0.1118
  H  H66  1  0.215800  0.061900  0.354800  1.0  0.1255
  H  H67  1  0.529600  0.965400  0.397600  1.0  0.1214
  H  H68  1  0.631600  0.019500  0.466000  1.0  0.101
  H  H69  1  0.514700  0.260100  0.332000  1.0  0.105
  H  H70  1  0.420600  0.206100  0.261600  1.0  0.1265
  H  H71  1  0.668900  0.104600  0.665600  1.0  0.0662
  H  H72  1  0.536400  0.093100  0.756800  1.0  0.1249
  H  H73  1  0.391700  0.330300  0.629400  1.0  0.1222
  H  H74  1  0.532500  0.336800  0.543600  1.0  0.0878
  H  H75  1  0.334300  0.137500  0.935600  1.0  0.0801
  H  H76  1  0.466100  0.132200  0.849400  1.0  0.1321
  H  H77  1  0.224900  0.280200  0.698800  1.0  0.1157
  H  H78  1  0.099200  0.279500  0.789400  1.0  0.0621
  H  H79  1  0.818700  0.248900  0.056400  1.0  0.0743
  H  H80  1  0.887500  0.367000  0.062800  1.0  0.1103
  H  H81  1  0.553300  0.436600  0.103800  1.0  0.1211
  H  H82  1  0.493900  0.315800  0.096000  1.0  0.0776
  C  C83  1  0.630900  0.255060  0.921080  1.0  0.6444
  C  C84  1  0.878400  0.238510  0.861920  1.0  0.6879
  C  C85  1  0.658200  0.300890  0.841820  1.0  -0.1297
  C  C86  1  0.566500  0.350870  0.794060  1.0  -0.0479
  C  C87  1  0.588400  0.393090  0.721220  1.0  -0.0935
  C  C88  1  0.701100  0.388030  0.694540  1.0  -0.1519
  C  C89  1  0.793600  0.339770  0.741660  1.0  0.218
  C  C90  1  0.774500  0.294010  0.815440  1.0  -0.0709
  C  C91  1  0.962600  0.406400  0.674200  1.0  0.2593
  C  C92  1  0.026300  0.409490  0.615420  1.0  -0.1597
  C  C93  1  0.087300  0.483300  0.574200  1.0  -0.0316
  C  C94  1  0.081900  0.552290  0.593020  1.0  -0.1346
  C  C95  1  0.018500  0.546120  0.654360  1.0  -0.0501
  C  C96  1  0.960400  0.472240  0.696120  1.0  -0.1788
  C  C97  1  0.143600  0.632170  0.548660  1.0  0.657
  C  C98  1  0.113800  0.810310  0.340980  1.0  0.1704
  C  C99  1  0.033500  0.857280  0.286040  1.0  -0.2221
  C  C100  1  0.948700  0.915620  0.295560  1.0  0.0913
  C  C101  1  0.948800  0.922570  0.361460  1.0  -0.1949
  C  C102  1  0.033400  0.874340  0.412920  1.0  0.1661
  C  C103  1  0.812200  0.053930  0.112940  1.0  0.1728
  C  C104  1  0.892200  0.999330  0.164340  1.0  -0.1983
  C  C105  1  0.862100  0.970450  0.237500  1.0  0.0913
  C  C106  1  0.749800  0.997560  0.253280  1.0  -0.2031
  C  C107  1  0.674600  0.051880  0.198240  1.0  0.1881
  C  C108  1  0.264100  0.352770  0.935460  1.0  0.1916
  C  C109  1  0.306200  0.427680  0.931240  1.0  -0.2054
  C  C110  1  0.229000  0.500450  0.918100  1.0  0.052
  C  C111  1  0.109000  0.493010  0.906980  1.0  -0.1952
  C  C112  1  0.074000  0.415100  0.912200  1.0  0.1812
  C  C113  1  0.869100  0.823860  0.921080  1.0  0.644
  C  C114  1  0.621600  0.899570  0.861920  1.0  0.6872
  C  C115  1  0.841800  0.857290  0.841820  1.0  -0.1294
  C  C116  1  0.933500  0.855070  0.794060  1.0  -0.0493
  C  C117  1  0.911600  0.885690  0.721220  1.0  -0.0918
  C  C118  1  0.798900  0.917430  0.694540  1.0  -0.1538
  C  C119  1  0.706400  0.918570  0.741660  1.0  0.2184
  C  C120  1  0.725500  0.890550  0.815440  1.0  -0.0715
  C  C121  1  0.537400  0.919400  0.674200  1.0  0.2597
  C  C122  1  0.473700  0.975090  0.615420  1.0  -0.1604
  C  C123  1  0.412700  0.942500  0.574200  1.0  -0.0314
  C  C124  1  0.418100  0.854690  0.593020  1.0  -0.1363
  C  C125  1  0.481500  0.799520  0.654360  1.0  -0.0492
  C  C126  1  0.539600  0.831640  0.696120  1.0  -0.1823
  C  C127  1  0.356400  0.819170  0.548660  1.0  0.6568
  C  C128  1  0.386200  0.848710  0.340980  1.0  0.1718
  C  C129  1  0.466500  0.856680  0.286040  1.0  -0.2232
  C  C130  1  0.551300  0.788820  0.295560  1.0  0.092
  C  C131  1  0.551200  0.715970  0.361460  1.0  -0.1987
  C  C132  1  0.466600  0.712740  0.412920  1.0  0.1627
  C  C133  1  0.687800  0.833130  0.112940  1.0  0.1693
  C  C134  1  0.607800  0.836330  0.164340  1.0  -0.1971
  C  C135  1  0.637900  0.792050  0.237500  1.0  0.0913
  C  C136  1  0.750200  0.749160  0.253280  1.0  -0.2032
  C  C137  1  0.825400  0.749880  0.198240  1.0  0.188
  C  C138  1  0.235900  0.711770  0.935460  1.0  0.1922
  C  C139  1  0.193800  0.641080  0.931240  1.0  -0.2056
  C  C140  1  0.271000  0.581450  0.918100  1.0  0.0531
  C  C141  1  0.391000  0.600010  0.906980  1.0  -0.1945
  C  C142  1  0.426000  0.672700  0.912200  1.0  0.1824
  C  C143  1  0.369100  0.744940  0.078920  1.0  0.6435
  C  C144  1  0.121600  0.761490  0.138080  1.0  0.6869
  C  C145  1  0.341800  0.699110  0.158180  1.0  -0.1298
  C  C146  1  0.433500  0.649130  0.205940  1.0  -0.0497
  C  C147  1  0.411600  0.606910  0.278780  1.0  -0.093
  C  C148  1  0.298900  0.611970  0.305460  1.0  -0.153
  C  C149  1  0.206400  0.660230  0.258340  1.0  0.2182
  C  C150  1  0.225500  0.705990  0.184560  1.0  -0.0715
  C  C151  1  0.037400  0.593600  0.325800  1.0  0.2592
  C  C152  1  0.973700  0.590510  0.384580  1.0  -0.1583
  C  C153  1  0.912700  0.516700  0.425800  1.0  -0.0303
  C  C154  1  0.918100  0.447710  0.406980  1.0  -0.135
  C  C155  1  0.981500  0.453880  0.345640  1.0  -0.0503
  C  C156  1  0.039600  0.527760  0.303880  1.0  -0.181
  C  C157  1  0.856400  0.367830  0.451340  1.0  0.6557
  C  C158  1  0.886200  0.189690  0.659020  1.0  0.1708
  C  C159  1  0.966500  0.142720  0.713960  1.0  -0.2239
  C  C160  1  0.051300  0.084380  0.704440  1.0  0.0915
  C  C161  1  0.051200  0.077430  0.638540  1.0  -0.1953
  C  C162  1  0.966600  0.125660  0.587080  1.0  0.1651
  C  C163  1  0.187800  0.946070  0.887060  1.0  0.1723
  C  C164  1  0.107800  0.000670  0.835660  1.0  -0.1975
  C  C165  1  0.137900  0.029550  0.762500  1.0  0.0917
  C  C166  1  0.250200  0.002440  0.746720  1.0  -0.203
  C  C167  1  0.325400  0.948120  0.801760  1.0  0.1883
  C  C168  1  0.735900  0.647230  0.064540  1.0  0.1919
  C  C169  1  0.693800  0.572320  0.068760  1.0  -0.2055
  C  C170  1  0.771000  0.499550  0.081900  1.0  0.0519
  C  C171  1  0.891000  0.506990  0.093020  1.0  -0.1958
  C  C172  1  0.926000  0.584900  0.087800  1.0  0.1817
  C  C173  1  0.130900  0.176140  0.078920  1.0  0.6437
  C  C174  1  0.378400  0.100430  0.138080  1.0  0.689
  C  C175  1  0.158200  0.142710  0.158180  1.0  -0.1283
  C  C176  1  0.066500  0.144930  0.205940  1.0  -0.0477
  C  C177  1  0.088400  0.114310  0.278780  1.0  -0.0938
  C  C178  1  0.201100  0.082570  0.305460  1.0  -0.1536
  C  C179  1  0.293600  0.081430  0.258340  1.0  0.2189
  C  C180  1  0.274500  0.109450  0.184560  1.0  -0.0723
  C  C181  1  0.462600  0.080600  0.325800  1.0  0.2594
  C  C182  1  0.526300  0.024910  0.384580  1.0  -0.1607
  C  C183  1  0.587300  0.057500  0.425800  1.0  -0.0329
  C  C184  1  0.581900  0.145310  0.406980  1.0  -0.1374
  C  C185  1  0.518500  0.200480  0.345640  1.0  -0.0466
  C  C186  1  0.460400  0.168360  0.303880  1.0  -0.1804
  C  C187  1  0.643600  0.180830  0.451340  1.0  0.6572
  C  C188  1  0.613800  0.151290  0.659020  1.0  0.1712
  C  C189  1  0.533500  0.143320  0.713960  1.0  -0.2236
  C  C190  1  0.448700  0.211180  0.704440  1.0  0.0909
  C  C191  1  0.448800  0.284030  0.638540  1.0  -0.1983
  C  C192  1  0.533400  0.287260  0.587080  1.0  0.1644
  C  C193  1  0.312200  0.166870  0.887060  1.0  0.1695
  C  C194  1  0.392200  0.163670  0.835660  1.0  -0.1968
  C  C195  1  0.362100  0.207950  0.762500  1.0  0.0917
  C  C196  1  0.249800  0.250840  0.746720  1.0  -0.2035
  C  C197  1  0.174600  0.250120  0.801760  1.0  0.1885
  C  C198  1  0.764100  0.288230  0.064540  1.0  0.1916
  C  C199  1  0.806200  0.358920  0.068760  1.0  -0.2044
  C  C200  1  0.729000  0.418550  0.081900  1.0  0.0521
  C  C201  1  0.609000  0.399990  0.093020  1.0  -0.1961
  C  C202  1  0.574000  0.327300  0.087800  1.0  0.1812
  N  N203  1  0.116900  0.819110  0.403240  1.0  -0.3275
  N  N204  1  0.703400  0.081570  0.128420  1.0  -0.3355
  N  N205  1  0.148200  0.343790  0.928440  1.0  -0.3093
  N  N206  1  0.383100  0.777650  0.403240  1.0  -0.3248
  N  N207  1  0.796600  0.790010  0.128420  1.0  -0.334
  N  N208  1  0.351800  0.727770  0.928440  1.0  -0.3102
  N  N209  1  0.883100  0.180890  0.596760  1.0  -0.3266
  N  N210  1  0.296600  0.918430  0.871580  1.0  -0.3313
  N  N211  1  0.851800  0.656210  0.071560  1.0  -0.3089
  N  N212  1  0.616900  0.222350  0.596760  1.0  -0.3243
  N  N213  1  0.203400  0.209990  0.871580  1.0  -0.3331
  N  N214  1  0.648200  0.272230  0.071560  1.0  -0.3101
  O  O215  1  0.710520  0.202590  0.962660  1.0  -0.5628
  O  O216  1  0.530400  0.269380  0.945220  1.0  -0.5802
  O  O217  1  0.894800  0.161920  0.868400  1.0  -0.5685
  O  O218  1  0.944780  0.276390  0.886880  1.0  -0.5975
  O  O219  1  0.908300  0.330490  0.715380  1.0  -0.2783
  O  O220  1  0.123500  0.699720  0.560140  1.0  -0.5583
  O  O221  1  0.217100  0.632890  0.499680  1.0  -0.5473
  O  O222  1  0.789480  0.834750  0.962660  1.0  -0.5633
  O  O223  1  0.969600  0.785400  0.945220  1.0  -0.5803
  O  O224  1  0.605200  0.969680  0.868400  1.0  -0.577
  O  O225  1  0.555220  0.836730  0.886880  1.0  -0.5978
  O  O226  1  0.591700  0.954130  0.715380  1.0  -0.2782
  O  O227  1  0.376500  0.740140  0.560140  1.0  -0.5521
  O  O228  1  0.282900  0.867430  0.499680  1.0  -0.545
  O  O229  1  0.289480  0.797410  0.037340  1.0  -0.5628
  O  O230  1  0.469600  0.730620  0.054780  1.0  -0.5802
  O  O231  1  0.105200  0.838080  0.131600  1.0  -0.57
  O  O232  1  0.055220  0.723610  0.113120  1.0  -0.5978
  O  O233  1  0.091700  0.669510  0.284620  1.0  -0.2778
  O  O234  1  0.876500  0.300280  0.439860  1.0  -0.5601
  O  O235  1  0.782900  0.367110  0.500320  1.0  -0.5461
  O  O236  1  0.210520  0.165250  0.037340  1.0  -0.5629
  O  O237  1  0.030400  0.214600  0.054780  1.0  -0.5801
  O  O238  1  0.394800  0.030320  0.131600  1.0  -0.578
  O  O239  1  0.444780  0.163270  0.113120  1.0  -0.5975
  O  O240  1  0.408300  0.045870  0.284620  1.0  -0.279
  O  O241  1  0.623500  0.259860  0.439860  1.0  -0.5527
  O  O242  1  0.717100  0.132570  0.500320  1.0  -0.5458
