# generated using pymatgen
data_NiH15C25N2O7
_symmetry_space_group_name_H-M   'P 1'
_cell_length_a   11.28560000
_cell_length_b   11.28560000
_cell_length_c   27.05900000
_cell_angle_alpha   94.05400000
_cell_angle_beta   94.05400000
_cell_angle_gamma   119.70400000
_symmetry_Int_Tables_number   1
_chemical_formula_structural   NiH15C25N2O7
_chemical_formula_sum   'Ni4 H60 C100 N8 O28'
_cell_volume   2963.69478352
_cell_formula_units_Z   4
loop_
 _symmetry_equiv_pos_site_id
 _symmetry_equiv_pos_as_xyz
  1  'x, y, z'
loop_
 _atom_site_type_symbol
 _atom_site_label
 _atom_site_symmetry_multiplicity
 _atom_site_fract_x
 _atom_site_fract_y
 _atom_site_fract_z
 _atom_site_occupancy
 _atom_site_charge
  Ni  Ni1  1  0.755260  0.512540  0.575320  1.0  0.778
  Ni  Ni2  1  0.740390  0.370470  0.391960  1.0  0.8616
  Ni  Ni3  1  0.512540  0.755260  0.075320  1.0  0.7773
  Ni  Ni4  1  0.370470  0.740390  0.891960  1.0  0.861
  H  H5  1  0.778300  0.459300  0.745300  1.0  0.1117
  H  H6  1  0.789600  0.522800  0.825700  1.0  0.0868
  H  H7  1  0.774200  0.713400  0.852900  1.0  0.1321
  H  H8  1  0.980200  0.078600  0.793900  1.0  0.1488
  H  H9  1  0.129700  0.246900  0.857200  1.0  0.0789
  H  H10  1  0.076000  0.241400  0.936400  1.0  0.1049
  H  H11  1  0.868700  0.055100  0.954800  1.0  0.101
  H  H12  1  0.009500  0.093300  0.507400  1.0  0.1058
  H  H13  1  0.865500  0.940900  0.444600  1.0  0.0864
  H  H14  1  0.698500  0.966900  0.401200  1.0  0.1301
  H  H15  1  0.482200  0.963600  0.451800  1.0  0.1352
  H  H16  1  0.280500  0.770700  0.414200  1.0  0.1064
  H  H17  1  0.217200  0.750400  0.329500  1.0  0.1326
  H  H18  1  0.344000  0.924400  0.285000  1.0  0.1195
  H  H19  1  0.871200  0.821200  0.592100  1.0  0.1032
  H  H20  1  0.063700  0.023300  0.591300  1.0  0.1287
  H  H21  1  0.257300  0.823100  0.556600  1.0  0.1306
  H  H22  1  0.055500  0.617300  0.558000  1.0  0.0941
  H  H23  1  0.647200  0.212000  0.578400  1.0  0.1017
  H  H24  1  0.443400  0.002400  0.576200  1.0  0.1393
  H  H25  1  0.239200  0.210000  0.570700  1.0  0.1407
  H  H26  1  0.444000  0.401800  0.569500  1.0  0.0844
  H  H27  1  0.887900  0.257900  0.327500  1.0  0.0972
  H  H28  1  0.091000  0.262800  0.324600  1.0  0.146
  H  H29  1  0.235400  0.532400  0.448000  1.0  0.1258
  H  H30  1  0.032500  0.525300  0.445200  1.0  0.091
  H  H31  1  0.550800  0.412200  0.322000  1.0  0.101
  H  H32  1  0.361600  0.438000  0.318700  1.0  0.1413
  H  H33  1  0.328700  0.363500  0.460400  1.0  0.1236
  H  H34  1  0.523000  0.342800  0.460500  1.0  0.0765
  H  H35  1  0.459300  0.778300  0.245300  1.0  0.1134
  H  H36  1  0.522800  0.789600  0.325700  1.0  0.0867
  H  H37  1  0.713400  0.774200  0.352900  1.0  0.1319
  H  H38  1  0.078600  0.980200  0.293900  1.0  0.148
  H  H39  1  0.246900  0.129700  0.357200  1.0  0.079
  H  H40  1  0.241400  0.076000  0.436400  1.0  0.1051
  H  H41  1  0.055100  0.868700  0.454800  1.0  0.1008
  H  H42  1  0.093300  0.009500  0.007400  1.0  0.1062
  H  H43  1  0.940900  0.865500  0.944600  1.0  0.0879
  H  H44  1  0.966900  0.698500  0.901200  1.0  0.1305
  H  H45  1  0.963600  0.482200  0.951800  1.0  0.1349
  H  H46  1  0.770700  0.280500  0.914200  1.0  0.1082
  H  H47  1  0.750400  0.217200  0.829500  1.0  0.1317
  H  H48  1  0.924400  0.344000  0.785000  1.0  0.1171
  H  H49  1  0.821200  0.871200  0.092100  1.0  0.0993
  H  H50  1  0.023300  0.063700  0.091300  1.0  0.132
  H  H51  1  0.823100  0.257300  0.056600  1.0  0.1292
  H  H52  1  0.617300  0.055500  0.058000  1.0  0.0955
  H  H53  1  0.212000  0.647200  0.078400  1.0  0.0989
  H  H54  1  0.002400  0.443400  0.076200  1.0  0.1425
  H  H55  1  0.210000  0.239200  0.070700  1.0  0.1374
  H  H56  1  0.401800  0.444000  0.069500  1.0  0.0871
  H  H57  1  0.257900  0.887900  0.827500  1.0  0.0971
  H  H58  1  0.262800  0.091000  0.824600  1.0  0.1451
  H  H59  1  0.532400  0.235400  0.948000  1.0  0.1261
  H  H60  1  0.525300  0.032500  0.945200  1.0  0.0916
  H  H61  1  0.412200  0.550800  0.822000  1.0  0.1008
  H  H62  1  0.438000  0.361600  0.818700  1.0  0.1415
  H  H63  1  0.363500  0.328700  0.960400  1.0  0.1249
  H  H64  1  0.342800  0.523000  0.960500  1.0  0.0766
  C  C65  1  0.752400  0.570200  0.664300  1.0  0.6267
  C  C66  1  0.728100  0.815900  0.696900  1.0  0.6275
  C  C67  1  0.754700  0.611100  0.717800  1.0  -0.0936
  C  C68  1  0.771800  0.536400  0.754900  1.0  -0.0943
  C  C69  1  0.778600  0.574400  0.802400  1.0  -0.0507
  C  C70  1  0.769900  0.688300  0.819000  1.0  -0.2023
  C  C71  1  0.754800  0.763400  0.783500  1.0  0.2526
  C  C72  1  0.744800  0.726400  0.732800  1.0  -0.0953
  C  C73  1  0.833900  0.973500  0.837400  1.0  0.2756
  C  C74  1  0.957200  0.076200  0.826300  1.0  -0.2081
  C  C75  1  0.046400  0.175800  0.864400  1.0  -0.0476
  C  C76  1  0.015700  0.172500  0.911200  1.0  -0.1393
  C  C77  1  0.889100  0.061700  0.922100  1.0  -0.037
  C  C78  1  0.797700  0.964900  0.884500  1.0  -0.1681
  C  C79  1  0.664500  0.850300  0.898100  1.0  0.6777
  C  C80  1  0.830300  0.240100  0.482000  1.0  -0.2247
  C  C81  1  0.932600  0.223200  0.507400  1.0  -0.0039
  C  C82  1  0.942200  0.106800  0.491200  1.0  -0.1241
  C  C83  1  0.857400  0.017400  0.453800  1.0  0.0071
  C  C84  1  0.757900  0.031500  0.427600  1.0  -0.2205
  C  C85  1  0.750500  0.148500  0.442600  1.0  0.2663
  C  C86  1  0.812800  0.364400  0.498700  1.0  0.6802
  C  C87  1  0.032700  0.321900  0.551300  1.0  0.6551
  C  C88  1  0.531500  0.056100  0.389100  1.0  0.22
  C  C89  1  0.454200  0.954600  0.417900  1.0  -0.2239
  C  C90  1  0.334600  0.839800  0.395500  1.0  -0.0483
  C  C91  1  0.296100  0.828500  0.345100  1.0  -0.1314
  C  C92  1  0.373500  0.931700  0.318600  1.0  0.0123
  C  C93  1  0.494600  0.047600  0.339500  1.0  -0.2105
  C  C94  1  0.572000  0.152000  0.306400  1.0  0.6165
  C  C95  1  0.950200  0.820400  0.585000  1.0  0.1819
  C  C96  1  0.065400  0.942200  0.584300  1.0  -0.1778
  C  C97  1  0.187000  0.948600  0.573400  1.0  0.0922
  C  C98  1  0.178900  0.825100  0.564000  1.0  -0.1516
  C  C99  1  0.056500  0.699700  0.565000  1.0  0.1708
  C  C100  1  0.563800  0.210400  0.576000  1.0  0.1741
  C  C101  1  0.440100  0.082900  0.575000  1.0  -0.1693
  C  C102  1  0.316000  0.078200  0.572300  1.0  0.095
  C  C103  1  0.319200  0.205400  0.571300  1.0  -0.1742
  C  C104  1  0.443300  0.319500  0.571300  1.0  0.1837
  C  C105  1  0.959700  0.314300  0.352400  1.0  0.198
  C  C106  1  0.081900  0.316900  0.349900  1.0  -0.216
  C  C107  1  0.190200  0.401200  0.385600  1.0  0.1204
  C  C108  1  0.166000  0.476600  0.422400  1.0  -0.1931
  C  C109  1  0.043800  0.469600  0.421300  1.0  0.1713
  C  C110  1  0.504400  0.399800  0.350000  1.0  0.1803
  C  C111  1  0.390500  0.415500  0.347800  1.0  -0.1831
  C  C112  1  0.319200  0.397800  0.388500  1.0  0.1133
  C  C113  1  0.371000  0.372000  0.431500  1.0  -0.2006
  C  C114  1  0.487800  0.358600  0.431200  1.0  0.1733
  C  C115  1  0.570200  0.752400  0.164300  1.0  0.6271
  C  C116  1  0.815900  0.728100  0.196900  1.0  0.6269
  C  C117  1  0.611100  0.754700  0.217800  1.0  -0.0933
  C  C118  1  0.536400  0.771800  0.254900  1.0  -0.0957
  C  C119  1  0.574400  0.778600  0.302400  1.0  -0.056
  C  C120  1  0.688300  0.769900  0.319000  1.0  -0.2027
  C  C121  1  0.763400  0.754800  0.283500  1.0  0.2527
  C  C122  1  0.726400  0.744800  0.232800  1.0  -0.0955
  C  C123  1  0.973500  0.833900  0.337400  1.0  0.2757
  C  C124  1  0.076200  0.957200  0.326300  1.0  -0.2071
  C  C125  1  0.175800  0.046400  0.364400  1.0  -0.0485
  C  C126  1  0.172500  0.015700  0.411200  1.0  -0.1396
  C  C127  1  0.061700  0.889100  0.422100  1.0  -0.0353
  C  C128  1  0.964900  0.797700  0.384500  1.0  -0.1677
  C  C129  1  0.850300  0.664500  0.398100  1.0  0.6786
  C  C130  1  0.240100  0.830300  0.982000  1.0  -0.2109
  C  C131  1  0.223200  0.932600  0.007400  1.0  -0.0043
  C  C132  1  0.106800  0.942200  0.991200  1.0  -0.1242
  C  C133  1  0.017400  0.857400  0.953800  1.0  0.0022
  C  C134  1  0.031500  0.757900  0.927600  1.0  -0.221
  C  C135  1  0.148500  0.750500  0.942600  1.0  0.2577
  C  C136  1  0.364400  0.812800  0.998700  1.0  0.6798
  C  C137  1  0.321900  0.032700  0.051300  1.0  0.6534
  C  C138  1  0.056100  0.531500  0.889100  1.0  0.2269
  C  C139  1  0.954600  0.454200  0.917900  1.0  -0.2225
  C  C140  1  0.839800  0.334600  0.895500  1.0  -0.0428
  C  C141  1  0.828500  0.296100  0.845100  1.0  -0.1339
  C  C142  1  0.931700  0.373500  0.818600  1.0  0.01
  C  C143  1  0.047600  0.494600  0.839500  1.0  -0.2117
  C  C144  1  0.152000  0.572000  0.806400  1.0  0.6148
  C  C145  1  0.820400  0.950200  0.085000  1.0  0.1821
  C  C146  1  0.942200  0.065400  0.084300  1.0  -0.1749
  C  C147  1  0.948600  0.187000  0.073400  1.0  0.0924
  C  C148  1  0.825100  0.178900  0.064000  1.0  -0.1541
  C  C149  1  0.699700  0.056500  0.065000  1.0  0.1662
  C  C150  1  0.210400  0.563800  0.076000  1.0  0.1722
  C  C151  1  0.082900  0.440100  0.075000  1.0  -0.1693
  C  C152  1  0.078200  0.316000  0.072300  1.0  0.0942
  C  C153  1  0.205400  0.319200  0.071300  1.0  -0.1725
  C  C154  1  0.319500  0.443300  0.071300  1.0  0.184
  C  C155  1  0.314300  0.959700  0.852400  1.0  0.1968
  C  C156  1  0.316900  0.081900  0.849900  1.0  -0.2148
  C  C157  1  0.401200  0.190200  0.885600  1.0  0.1203
  C  C158  1  0.476600  0.166000  0.922400  1.0  -0.1941
  C  C159  1  0.469600  0.043800  0.921300  1.0  0.1708
  C  C160  1  0.399800  0.504400  0.850000  1.0  0.1786
  C  C161  1  0.415500  0.390500  0.847800  1.0  -0.1833
  C  C162  1  0.397800  0.319200  0.888500  1.0  0.1131
  C  C163  1  0.372000  0.371000  0.931500  1.0  -0.1966
  C  C164  1  0.358600  0.487800  0.931200  1.0  0.1748
  N  N165  1  0.942200  0.697400  0.575900  1.0  -0.3078
  N  N166  1  0.563100  0.325700  0.573600  1.0  -0.3123
  N  N167  1  0.935700  0.384300  0.386600  1.0  -0.2946
  N  N168  1  0.550600  0.367600  0.390800  1.0  -0.3127
  N  N169  1  0.697400  0.942200  0.075900  1.0  -0.3071
  N  N170  1  0.325700  0.563100  0.073600  1.0  -0.3126
  N  N171  1  0.384300  0.935700  0.886600  1.0  -0.2945
  N  N172  1  0.367600  0.550600  0.890800  1.0  -0.3141
  O  O173  1  0.806800  0.499000  0.651700  1.0  -0.4582
  O  O174  1  0.697100  0.603900  0.631200  1.0  -0.5202
  O  O175  1  0.834200  0.902600  0.680700  1.0  -0.5219
  O  O176  1  0.608300  0.797900  0.686600  1.0  -0.3975
  O  O177  1  0.742200  0.878200  0.796900  1.0  -0.2601
  O  O178  1  0.558900  0.831100  0.871500  1.0  -0.5558
  O  O179  1  0.669100  0.793500  0.933900  1.0  -0.5689
  O  O180  1  0.023600  0.278800  0.592300  1.0  -0.4993
  O  O181  1  0.119100  0.438700  0.542400  1.0  -0.5644
  O  O182  1  0.826400  0.397000  0.544500  1.0  -0.5291
  O  O183  1  0.781300  0.418100  0.466500  1.0  -0.5638
  O  O184  1  0.654300  0.170900  0.414000  1.0  -0.2813
  O  O185  1  0.678300  0.270100  0.322800  1.0  -0.5528
  O  O186  1  0.528400  0.120200  0.260000  1.0  -0.5265
  O  O187  1  0.499000  0.806800  0.151700  1.0  -0.4582
  O  O188  1  0.603900  0.697100  0.131200  1.0  -0.5289
  O  O189  1  0.902600  0.834200  0.180700  1.0  -0.525
  O  O190  1  0.797900  0.608300  0.186600  1.0  -0.395
  O  O191  1  0.878200  0.742200  0.296900  1.0  -0.261
  O  O192  1  0.831100  0.558900  0.371500  1.0  -0.5561
  O  O193  1  0.793500  0.669100  0.433900  1.0  -0.5702
  O  O194  1  0.278800  0.023600  0.092300  1.0  -0.4987
  O  O195  1  0.438700  0.119100  0.042400  1.0  -0.5589
  O  O196  1  0.397000  0.826400  0.044500  1.0  -0.5276
  O  O197  1  0.418100  0.781300  0.966500  1.0  -0.5627
  O  O198  1  0.170900  0.654300  0.914000  1.0  -0.2807
  O  O199  1  0.270100  0.678300  0.822800  1.0  -0.5531
  O  O200  1  0.120200  0.528400  0.760000  1.0  -0.5203
