# generated using pymatgen
data_Mn3Mo12(P4O25)2
_symmetry_space_group_name_H-M   'P 1'
_cell_length_a   16.28000000
_cell_length_b   11.92400000
_cell_length_c   18.04000000
_cell_angle_alpha   90.00000000
_cell_angle_beta   103.86200000
_cell_angle_gamma   90.00000000
_symmetry_Int_Tables_number   1
_chemical_formula_structural   Mn3Mo12(P4O25)2
_chemical_formula_sum   'Mn6 Mo24 P16 O100'
_cell_volume   3399.98095775
_cell_formula_units_Z   2
loop_
 _symmetry_equiv_pos_site_id
 _symmetry_equiv_pos_as_xyz
  1  'x, y, z'
loop_
 _atom_site_type_symbol
 _atom_site_label
 _atom_site_symmetry_multiplicity
 _atom_site_fract_x
 _atom_site_fract_y
 _atom_site_fract_z
 _atom_site_occupancy
 _atom_site_charge
  Mn  Mn1  1  0.624260  0.496040  0.134940  1.0  1.2292
  Mn  Mn2  1  0.875740  0.996040  0.365060  1.0  1.2301
  Mn  Mn3  1  0.375740  0.503960  0.865060  1.0  1.2294
  Mn  Mn4  1  0.124260  0.003960  0.634940  1.0  1.2286
  Mn  Mn5  1  0.000000  0.500000  0.000000  1.0  1.0038
  Mn  Mn6  1  0.500000  0.000000  0.500000  1.0  1.0038
  Mo  Mo7  1  0.216690  0.640560  0.067890  1.0  1.3255
  Mo  Mo8  1  0.215030  0.348160  0.037350  1.0  1.3149
  Mo  Mo9  1  0.117960  0.766730  0.967060  1.0  1.3025
  Mo  Mo10  1  0.980030  0.646230  0.805280  1.0  1.296
  Mo  Mo11  1  0.976620  0.429970  0.786920  1.0  1.2829
  Mo  Mo12  1  0.110600  0.256030  0.921890  1.0  1.2983
  Mo  Mo13  1  0.283310  0.140560  0.432110  1.0  1.3253
  Mo  Mo14  1  0.284970  0.848160  0.462650  1.0  1.3178
  Mo  Mo15  1  0.382040  0.266730  0.532940  1.0  1.3021
  Mo  Mo16  1  0.519970  0.146230  0.694720  1.0  1.2923
  Mo  Mo17  1  0.523380  0.929970  0.713080  1.0  1.2801
  Mo  Mo18  1  0.389400  0.756030  0.578110  1.0  1.2989
  Mo  Mo19  1  0.783310  0.359440  0.932110  1.0  1.3253
  Mo  Mo20  1  0.784970  0.651840  0.962650  1.0  1.32
  Mo  Mo21  1  0.882040  0.233270  0.032940  1.0  1.3025
  Mo  Mo22  1  0.019970  0.353770  0.194720  1.0  1.2911
  Mo  Mo23  1  0.023380  0.570030  0.213080  1.0  1.2794
  Mo  Mo24  1  0.889400  0.743970  0.078110  1.0  1.2992
  Mo  Mo25  1  0.716690  0.859440  0.567890  1.0  1.322
  Mo  Mo26  1  0.715030  0.151840  0.537350  1.0  1.3183
  Mo  Mo27  1  0.617960  0.733270  0.467060  1.0  1.3016
  Mo  Mo28  1  0.480030  0.853770  0.305280  1.0  1.2956
  Mo  Mo29  1  0.476620  0.070030  0.286920  1.0  1.2832
  Mo  Mo30  1  0.610600  0.243970  0.421890  1.0  1.2993
  P  P31  1  0.172880  0.525000  0.886440  1.0  1.8368
  P  P32  1  0.061280  0.201590  0.737830  1.0  1.7809
  P  P33  1  0.388740  0.506250  0.058750  1.0  1.7432
  P  P34  1  0.123400  0.837360  0.790220  1.0  1.7227
  P  P35  1  0.327120  0.025000  0.613560  1.0  1.8358
  P  P36  1  0.438720  0.701590  0.762170  1.0  1.7812
  P  P37  1  0.111260  0.006250  0.441250  1.0  1.7404
  P  P38  1  0.376600  0.337360  0.709780  1.0  1.7225
  P  P39  1  0.827120  0.475000  0.113560  1.0  1.836
  P  P40  1  0.938720  0.798410  0.262170  1.0  1.8219
  P  P41  1  0.611260  0.493750  0.941250  1.0  1.7406
  P  P42  1  0.876600  0.162640  0.209780  1.0  1.723
  P  P43  1  0.672880  0.975000  0.386440  1.0  1.8367
  P  P44  1  0.561280  0.298410  0.237830  1.0  1.8215
  P  P45  1  0.888740  0.993750  0.558750  1.0  1.7432
  P  P46  1  0.623400  0.662640  0.290220  1.0  1.7232
  O  O47  1  0.238800  0.744800  0.992200  1.0  -0.601
  O  O48  1  0.093500  0.634800  0.025000  1.0  -0.7316
  O  O49  1  0.091400  0.361100  0.001100  1.0  -0.7318
  O  O50  1  0.115900  0.631700  0.877700  1.0  -0.7551
  O  O51  1  0.477000  0.495800  0.117400  1.0  -0.768
  O  O52  1  0.114500  0.423000  0.858000  1.0  -0.8238
  O  O53  1  0.211200  0.509600  0.973100  1.0  -0.7826
  O  O54  1  0.964300  0.524000  0.874200  1.0  -0.7204
  O  O55  1  0.240100  0.540700  0.842000  1.0  -0.7705
  O  O56  1  0.992600  0.753500  0.901200  1.0  -0.5414
  O  O57  1  0.204500  0.479800  0.114400  1.0  -0.5996
  O  O58  1  0.341300  0.598900  0.091300  1.0  -0.665
  O  O59  1  0.232900  0.274700  0.947400  1.0  -0.6055
  O  O60  1  0.342900  0.392600  0.061900  1.0  -0.6957
  O  O61  1  0.018600  0.550400  0.733100  1.0  -0.6141
  O  O62  1  0.986300  0.292400  0.862700  1.0  -0.5915
  O  O63  1  0.122400  0.196900  0.817900  1.0  -0.6622
  O  O64  1  0.136000  0.862000  0.876500  1.0  -0.6737
  O  O65  1  0.985700  0.122900  0.734500  1.0  -0.4445
  O  O66  1  0.039200  0.775700  0.761000  1.0  -0.6735
  O  O67  1  0.403000  0.537200  0.982700  1.0  -0.7186
  O  O68  1  0.029900  0.325100  0.722300  1.0  -0.6646
  O  O69  1  0.130000  0.943600  0.747700  1.0  -0.6871
  O  O70  1  0.108500  0.169800  0.677100  1.0  -0.6556
  O  O71  1  0.197900  0.759700  0.779000  1.0  -0.4718
  O  O72  1  0.261200  0.244800  0.507800  1.0  -0.5992
  O  O73  1  0.406500  0.134800  0.475000  1.0  -0.7305
  O  O74  1  0.408600  0.861100  0.498900  1.0  -0.7308
  O  O75  1  0.384100  0.131700  0.622300  1.0  -0.7558
  O  O76  1  0.023000  0.995800  0.382600  1.0  -0.7687
  O  O77  1  0.385500  0.923000  0.642000  1.0  -0.8249
  O  O78  1  0.288800  0.009600  0.526900  1.0  -0.7815
  O  O79  1  0.535700  0.024000  0.625800  1.0  -0.7216
  O  O80  1  0.259900  0.040700  0.658000  1.0  -0.7711
  O  O81  1  0.507400  0.253500  0.598800  1.0  -0.5424
  O  O82  1  0.295500  0.979800  0.385600  1.0  -0.5984
  O  O83  1  0.158700  0.098900  0.408700  1.0  -0.6678
  O  O84  1  0.267100  0.774700  0.552600  1.0  -0.6047
  O  O85  1  0.157100  0.892600  0.438100  1.0  -0.6959
  O  O86  1  0.481400  0.050400  0.766900  1.0  -0.6062
  O  O87  1  0.513700  0.792400  0.637300  1.0  -0.5934
  O  O88  1  0.377600  0.696900  0.682100  1.0  -0.6614
  O  O89  1  0.364000  0.362000  0.623500  1.0  -0.6752
  O  O90  1  0.514300  0.622900  0.765500  1.0  -0.4444
  O  O91  1  0.460800  0.275700  0.739000  1.0  -0.6731
  O  O92  1  0.097000  0.037200  0.517300  1.0  -0.7189
  O  O93  1  0.470100  0.825100  0.777700  1.0  -0.6622
  O  O94  1  0.370000  0.443600  0.752300  1.0  -0.6879
  O  O95  1  0.391500  0.669800  0.822900  1.0  -0.6564
  O  O96  1  0.302100  0.259700  0.721000  1.0  -0.4721
  O  O97  1  0.761200  0.255200  0.007800  1.0  -0.6067
  O  O98  1  0.906500  0.365200  0.975000  1.0  -0.7309
  O  O99  1  0.908600  0.638900  0.998900  1.0  -0.732
  O  O100  1  0.884100  0.368300  0.122300  1.0  -0.7564
  O  O101  1  0.523000  0.504200  0.882600  1.0  -0.769
  O  O102  1  0.885500  0.577000  0.142000  1.0  -0.8251
  O  O103  1  0.788800  0.490400  0.026900  1.0  -0.7815
  O  O104  1  0.035700  0.476000  0.125800  1.0  -0.7217
  O  O105  1  0.759900  0.459300  0.158000  1.0  -0.771
  O  O106  1  0.007400  0.246500  0.098800  1.0  -0.5425
  O  O107  1  0.795500  0.520200  0.885600  1.0  -0.5981
  O  O108  1  0.658700  0.401100  0.908700  1.0  -0.6661
  O  O109  1  0.767100  0.725300  0.052600  1.0  -0.6025
  O  O110  1  0.657100  0.607400  0.938100  1.0  -0.6965
  O  O111  1  0.981400  0.449600  0.266900  1.0  -0.6065
  O  O112  1  0.013700  0.707600  0.137300  1.0  -0.5929
  O  O113  1  0.877600  0.803100  0.182100  1.0  -0.6628
  O  O114  1  0.864000  0.138000  0.123500  1.0  -0.6733
  O  O115  1  0.014300  0.877100  0.265500  1.0  -0.4449
  O  O116  1  0.960800  0.224300  0.239000  1.0  -0.6739
  O  O117  1  0.597000  0.462800  0.017300  1.0  -0.7187
  O  O118  1  0.970100  0.674900  0.277700  1.0  -0.6632
  O  O119  1  0.870000  0.056400  0.252300  1.0  -0.6884
  O  O120  1  0.891500  0.830200  0.322900  1.0  -0.657
  O  O121  1  0.802100  0.240300  0.221000  1.0  -0.4713
  O  O122  1  0.738800  0.755200  0.492200  1.0  -0.6078
  O  O123  1  0.593500  0.865200  0.525000  1.0  -0.7322
  O  O124  1  0.591400  0.138900  0.501100  1.0  -0.7329
  O  O125  1  0.615900  0.868300  0.377700  1.0  -0.7561
  O  O126  1  0.977000  0.004200  0.617400  1.0  -0.7684
  O  O127  1  0.614500  0.077000  0.358000  1.0  -0.8231
  O  O128  1  0.711200  0.990400  0.473100  1.0  -0.7826
  O  O129  1  0.464300  0.976000  0.374200  1.0  -0.7208
  O  O130  1  0.740100  0.959300  0.342000  1.0  -0.7706
  O  O131  1  0.492600  0.746500  0.401200  1.0  -0.5426
  O  O132  1  0.704500  0.020200  0.614400  1.0  -0.599
  O  O133  1  0.841300  0.901100  0.591300  1.0  -0.6658
  O  O134  1  0.732900  0.225300  0.447400  1.0  -0.6048
  O  O135  1  0.842900  0.107400  0.561900  1.0  -0.6953
  O  O136  1  0.518600  0.949600  0.233100  1.0  -0.6139
  O  O137  1  0.486300  0.207600  0.362700  1.0  -0.5903
  O  O138  1  0.622400  0.303100  0.317900  1.0  -0.6625
  O  O139  1  0.636000  0.638000  0.376500  1.0  -0.6747
  O  O140  1  0.485700  0.377100  0.234500  1.0  -0.4446
  O  O141  1  0.539200  0.724300  0.261000  1.0  -0.674
  O  O142  1  0.903000  0.962800  0.482700  1.0  -0.7192
  O  O143  1  0.529900  0.174900  0.222300  1.0  -0.6646
  O  O144  1  0.630000  0.556400  0.247700  1.0  -0.6873
  O  O145  1  0.608500  0.330200  0.177100  1.0  -0.6565
  O  O146  1  0.697900  0.740300  0.279000  1.0  -0.4717
