# generated using pymatgen
data_Mg2CO5
_symmetry_space_group_name_H-M   'P 1'
_cell_length_a   23.14420000
_cell_length_b   23.14420000
_cell_length_c   7.22330000
_cell_angle_alpha   90.00000000
_cell_angle_beta   90.00000000
_cell_angle_gamma   120.00000000
_symmetry_Int_Tables_number   1
_chemical_formula_structural   Mg2CO5
_chemical_formula_sum   'Mg36 C18 O90'
_cell_volume   3350.81639235
_cell_formula_units_Z   18
loop_
 _symmetry_equiv_pos_site_id
 _symmetry_equiv_pos_as_xyz
  1  'x, y, z'
loop_
 _atom_site_type_symbol
 _atom_site_label
 _atom_site_symmetry_multiplicity
 _atom_site_fract_x
 _atom_site_fract_y
 _atom_site_fract_z
 _atom_site_occupancy
 _atom_site_charge
  Mg  Mg1  1  0.284700  0.119300  0.926300  1.0  1.538
  Mg  Mg2  1  0.280000  0.314900  0.336700  1.0  1.495
  Mg  Mg3  1  0.951370  0.452630  0.259630  1.0  1.538
  Mg  Mg4  1  0.946670  0.648230  0.670030  1.0  1.495
  Mg  Mg5  1  0.618030  0.785970  0.592970  1.0  1.538
  Mg  Mg6  1  0.613330  0.981570  0.003370  1.0  1.5032
  Mg  Mg7  1  0.880700  0.165400  0.926300  1.0  1.5374
  Mg  Mg8  1  0.685100  0.965100  0.336700  1.0  1.4935
  Mg  Mg9  1  0.547370  0.498730  0.259630  1.0  1.5375
  Mg  Mg10  1  0.351770  0.298430  0.670030  1.0  1.4936
  Mg  Mg11  1  0.214030  0.832070  0.592970  1.0  1.5374
  Mg  Mg12  1  0.018430  0.631770  0.003370  1.0  1.5001
  Mg  Mg13  1  0.834600  0.715300  0.926300  1.0  1.5399
  Mg  Mg14  1  0.034900  0.720000  0.336700  1.0  1.5007
  Mg  Mg15  1  0.501270  0.048630  0.259630  1.0  1.5401
  Mg  Mg16  1  0.701570  0.053330  0.670030  1.0  1.5007
  Mg  Mg17  1  0.167930  0.381970  0.592970  1.0  1.5399
  Mg  Mg18  1  0.368230  0.386670  0.003370  1.0  1.4952
  Mg  Mg19  1  0.880700  0.715300  0.426300  1.0  1.5398
  Mg  Mg20  1  0.685100  0.720000  0.836700  1.0  1.4949
  Mg  Mg21  1  0.547370  0.048630  0.759630  1.0  1.5398
  Mg  Mg22  1  0.351770  0.053330  0.170030  1.0  1.4948
  Mg  Mg23  1  0.214030  0.381970  0.092970  1.0  1.5398
  Mg  Mg24  1  0.018430  0.386670  0.503370  1.0  1.5012
  Mg  Mg25  1  0.834600  0.119300  0.426300  1.0  1.5367
  Mg  Mg26  1  0.034900  0.314900  0.836700  1.0  1.4941
  Mg  Mg27  1  0.501270  0.452630  0.759630  1.0  1.5368
  Mg  Mg28  1  0.701570  0.648230  0.170030  1.0  1.4942
  Mg  Mg29  1  0.167930  0.785970  0.092970  1.0  1.5367
  Mg  Mg30  1  0.368230  0.981570  0.503370  1.0  1.5007
  Mg  Mg31  1  0.284700  0.165400  0.426300  1.0  1.5375
  Mg  Mg32  1  0.280000  0.965100  0.836700  1.0  1.5022
  Mg  Mg33  1  0.951370  0.498730  0.759630  1.0  1.5377
  Mg  Mg34  1  0.946670  0.298430  0.170030  1.0  1.5022
  Mg  Mg35  1  0.618030  0.832070  0.092970  1.0  1.5375
  Mg  Mg36  1  0.613330  0.631770  0.503370  1.0  1.4948
  C  C37  1  0.304600  0.230800  0.042300  1.0  0.6421
  C  C38  1  0.971270  0.564130  0.375630  1.0  0.6421
  C  C39  1  0.637930  0.897470  0.708970  1.0  0.6421
  C  C40  1  0.769200  0.073800  0.042300  1.0  0.6427
  C  C41  1  0.435870  0.407130  0.375630  1.0  0.6427
  C  C42  1  0.102530  0.740470  0.708970  1.0  0.6427
  C  C43  1  0.926200  0.695400  0.042300  1.0  0.6407
  C  C44  1  0.592870  0.028730  0.375630  1.0  0.6407
  C  C45  1  0.259530  0.362070  0.708970  1.0  0.6407
  C  C46  1  0.769200  0.695400  0.542300  1.0  0.6411
  C  C47  1  0.435870  0.028730  0.875630  1.0  0.6411
  C  C48  1  0.102530  0.362070  0.208970  1.0  0.6411
  C  C49  1  0.926200  0.230800  0.542300  1.0  0.6438
  C  C50  1  0.592870  0.564130  0.875630  1.0  0.6438
  C  C51  1  0.259530  0.897470  0.208970  1.0  0.6438
  C  C52  1  0.304600  0.073800  0.542300  1.0  0.6416
  C  C53  1  0.971270  0.407130  0.875630  1.0  0.6416
  C  C54  1  0.637930  0.740470  0.208970  1.0  0.6416
  O  O55  1  0.295900  0.184500  0.153200  1.0  -0.7286
  O  O56  1  0.320700  0.225700  0.873200  1.0  -0.6905
  O  O57  1  0.318900  0.287300  0.115100  1.0  -0.7456
  O  O58  1  0.266000  0.237400  0.503500  1.0  -0.8319
  O  O59  1  0.188500  0.276600  0.173200  1.0  -0.6827
  O  O60  1  0.962570  0.517830  0.486530  1.0  -0.7286
  O  O61  1  0.987370  0.559030  0.206530  1.0  -0.6905
  O  O62  1  0.985570  0.620630  0.448430  1.0  -0.7456
  O  O63  1  0.932670  0.570730  0.836830  1.0  -0.832
  O  O64  1  0.855170  0.609930  0.506530  1.0  -0.6827
  O  O65  1  0.629230  0.851170  0.819870  1.0  -0.7286
  O  O66  1  0.654030  0.892370  0.539870  1.0  -0.6905
  O  O67  1  0.652230  0.953970  0.781770  1.0  -0.7456
  O  O68  1  0.599330  0.904070  0.170170  1.0  -0.832
  O  O69  1  0.521830  0.943270  0.839870  1.0  -0.6827
  O  O70  1  0.815500  0.111400  0.153200  1.0  -0.7285
  O  O71  1  0.774300  0.095000  0.873200  1.0  -0.6902
  O  O72  1  0.712700  0.031600  0.115100  1.0  -0.7462
  O  O73  1  0.762600  0.028600  0.503500  1.0  -0.8304
  O  O74  1  0.723400  0.911900  0.173200  1.0  -0.6838
  O  O75  1  0.482170  0.444730  0.486530  1.0  -0.729
  O  O76  1  0.440970  0.428330  0.206530  1.0  -0.6902
  O  O77  1  0.379370  0.364930  0.448430  1.0  -0.7462
  O  O78  1  0.429270  0.361930  0.836830  1.0  -0.8304
  O  O79  1  0.390070  0.245230  0.506530  1.0  -0.6837
  O  O80  1  0.148830  0.778070  0.819870  1.0  -0.7285
  O  O81  1  0.107630  0.761670  0.539870  1.0  -0.6902
  O  O82  1  0.046030  0.698270  0.781770  1.0  -0.7462
  O  O83  1  0.095930  0.695270  0.170170  1.0  -0.8304
  O  O84  1  0.056730  0.578570  0.839870  1.0  -0.6841
  O  O85  1  0.888600  0.704100  0.153200  1.0  -0.7292
  O  O86  1  0.905000  0.679300  0.873200  1.0  -0.6913
  O  O87  1  0.968400  0.681100  0.115100  1.0  -0.7436
  O  O88  1  0.971400  0.734000  0.503500  1.0  -0.8301
  O  O89  1  0.088100  0.811500  0.173200  1.0  -0.683
  O  O90  1  0.555270  0.037430  0.486530  1.0  -0.7293
  O  O91  1  0.571670  0.012630  0.206530  1.0  -0.6913
  O  O92  1  0.635070  0.014430  0.448430  1.0  -0.7436
  O  O93  1  0.638070  0.067330  0.836830  1.0  -0.8305
  O  O94  1  0.754770  0.144830  0.506530  1.0  -0.683
  O  O95  1  0.221930  0.370770  0.819870  1.0  -0.7292
  O  O96  1  0.238330  0.345970  0.539870  1.0  -0.6913
  O  O97  1  0.301730  0.347770  0.781770  1.0  -0.7429
  O  O98  1  0.304730  0.400670  0.170170  1.0  -0.83
  O  O99  1  0.421430  0.478170  0.839870  1.0  -0.683
  O  O100  1  0.815500  0.704100  0.653200  1.0  -0.7278
  O  O101  1  0.774300  0.679300  0.373200  1.0  -0.6901
  O  O102  1  0.712700  0.681100  0.615100  1.0  -0.7446
  O  O103  1  0.762600  0.734000  0.003500  1.0  -0.8289
  O  O104  1  0.723400  0.811500  0.673200  1.0  -0.6833
  O  O105  1  0.482170  0.037430  0.986530  1.0  -0.7278
  O  O106  1  0.440970  0.012630  0.706530  1.0  -0.6901
  O  O107  1  0.379370  0.014430  0.948430  1.0  -0.7446
  O  O108  1  0.429270  0.067330  0.336830  1.0  -0.829
  O  O109  1  0.390070  0.144830  0.006530  1.0  -0.6833
  O  O110  1  0.148830  0.370770  0.319870  1.0  -0.7278
  O  O111  1  0.107630  0.345970  0.039870  1.0  -0.6901
  O  O112  1  0.046030  0.347770  0.281770  1.0  -0.7446
  O  O113  1  0.095930  0.400670  0.670170  1.0  -0.829
  O  O114  1  0.056730  0.478170  0.339870  1.0  -0.6833
  O  O115  1  0.888600  0.184500  0.653200  1.0  -0.73
  O  O116  1  0.905000  0.225700  0.373200  1.0  -0.6911
  O  O117  1  0.968400  0.287300  0.615100  1.0  -0.7452
  O  O118  1  0.971400  0.237400  0.003500  1.0  -0.8315
  O  O119  1  0.088100  0.276600  0.673200  1.0  -0.6826
  O  O120  1  0.555270  0.517830  0.986530  1.0  -0.7305
  O  O121  1  0.571670  0.559030  0.706530  1.0  -0.6912
  O  O122  1  0.635070  0.620630  0.948430  1.0  -0.7452
  O  O123  1  0.638070  0.570730  0.336830  1.0  -0.8314
  O  O124  1  0.754770  0.609930  0.006530  1.0  -0.6826
  O  O125  1  0.221930  0.851170  0.319870  1.0  -0.73
  O  O126  1  0.238330  0.892370  0.039870  1.0  -0.6911
  O  O127  1  0.301730  0.953970  0.281770  1.0  -0.7452
  O  O128  1  0.304730  0.904070  0.670170  1.0  -0.8315
  O  O129  1  0.421430  0.943270  0.339870  1.0  -0.6828
  O  O130  1  0.295900  0.111400  0.653200  1.0  -0.7298
  O  O131  1  0.320700  0.095000  0.373200  1.0  -0.6901
  O  O132  1  0.318900  0.031600  0.615100  1.0  -0.7453
  O  O133  1  0.266000  0.028600  0.003500  1.0  -0.8308
  O  O134  1  0.188500  0.911900  0.673200  1.0  -0.68
  O  O135  1  0.962570  0.444730  0.986530  1.0  -0.7298
  O  O136  1  0.987370  0.428330  0.706530  1.0  -0.6901
  O  O137  1  0.985570  0.364930  0.948430  1.0  -0.7453
  O  O138  1  0.932670  0.361930  0.336830  1.0  -0.8311
  O  O139  1  0.855170  0.245230  0.006530  1.0  -0.68
  O  O140  1  0.629230  0.778070  0.319870  1.0  -0.7298
  O  O141  1  0.654030  0.761670  0.039870  1.0  -0.6901
  O  O142  1  0.652230  0.698270  0.281770  1.0  -0.7447
  O  O143  1  0.599330  0.695270  0.670170  1.0  -0.8307
  O  O144  1  0.521830  0.578570  0.339870  1.0  -0.6801
