# generated using pymatgen
data_Cu2P2(CO2)3
_symmetry_space_group_name_H-M   'P 1'
_cell_length_a   4.32760000
_cell_length_b   17.31810000
_cell_length_c   6.76240000
_cell_angle_alpha   90.00000000
_cell_angle_beta   90.00000000
_cell_angle_gamma   90.00000000
_symmetry_Int_Tables_number   1
_chemical_formula_structural   Cu2P2(CO2)3
_chemical_formula_sum   'Cu4 P4 C6 O12'
_cell_volume   506.81354257
_cell_formula_units_Z   2
loop_
 _symmetry_equiv_pos_site_id
 _symmetry_equiv_pos_as_xyz
  1  'x, y, z'
loop_
 _atom_site_type_symbol
 _atom_site_label
 _atom_site_symmetry_multiplicity
 _atom_site_fract_x
 _atom_site_fract_y
 _atom_site_fract_z
 _atom_site_occupancy
 _atom_site_charge
  Cu  Cu1  1  0.007000  0.256700  0.225300  1.0  1.1146
  Cu  Cu2  1  0.993000  0.743300  0.225300  1.0  1.1147
  Cu  Cu3  1  0.007000  0.243300  0.725300  1.0  1.1146
  Cu  Cu4  1  0.993000  0.756700  0.725300  1.0  1.1148
  P  P5  1  0.474000  0.160300  0.991000  1.0  1.4521
  P  P6  1  0.526000  0.839700  0.991000  1.0  1.454
  P  P7  1  0.474000  0.339700  0.491000  1.0  1.4545
  P  P8  1  0.526000  0.660300  0.491000  1.0  1.452
  C  C9  1  0.636000  0.062900  0.041000  1.0  -0.1871
  C  C10  1  0.364000  0.937100  0.041000  1.0  -0.1861
  C  C11  1  0.636000  0.437100  0.541000  1.0  -0.1874
  C  C12  1  0.364000  0.562900  0.541000  1.0  -0.1865
  C  C13  1  0.500000  0.000000  0.923000  1.0  0.0706
  C  C14  1  0.500000  0.500000  0.423000  1.0  0.0706
  O  O15  1  0.327000  0.186400  0.186000  1.0  -0.779
  O  O16  1  0.774000  0.214700  0.962000  1.0  -0.8929
  O  O17  1  0.286000  0.162700  0.807000  1.0  -0.7435
  O  O18  1  0.673000  0.813600  0.186000  1.0  -0.7792
  O  O19  1  0.226000  0.785300  0.962000  1.0  -0.8932
  O  O20  1  0.714000  0.837300  0.807000  1.0  -0.7449
  O  O21  1  0.327000  0.313600  0.686000  1.0  -0.7793
  O  O22  1  0.774000  0.285300  0.462000  1.0  -0.8932
  O  O23  1  0.286000  0.337300  0.307000  1.0  -0.7448
  O  O24  1  0.673000  0.686400  0.686000  1.0  -0.779
  O  O25  1  0.226000  0.714700  0.462000  1.0  -0.893
  O  O26  1  0.714000  0.662700  0.307000  1.0  -0.7432
