# generated using pymatgen
data_Mn2Mo(CN)7
_symmetry_space_group_name_H-M   'P 1'
_cell_length_a   7.95100000
_cell_length_b   16.81900000
_cell_length_c   15.18900000
_cell_angle_alpha   90.00000000
_cell_angle_beta   104.29000000
_cell_angle_gamma   90.00000000
_symmetry_Int_Tables_number   1
_chemical_formula_structural   Mn2Mo(CN)7
_chemical_formula_sum   'Mn8 Mo4 C28 N28'
_cell_volume   1968.34511873
_cell_formula_units_Z   4
loop_
 _symmetry_equiv_pos_site_id
 _symmetry_equiv_pos_as_xyz
  1  'x, y, z'
loop_
 _atom_site_type_symbol
 _atom_site_label
 _atom_site_symmetry_multiplicity
 _atom_site_fract_x
 _atom_site_fract_y
 _atom_site_fract_z
 _atom_site_occupancy
 _atom_site_charge
  Mn  Mn1  1  0.328300  0.560500  0.692420  1.0  1.0935
  Mn  Mn2  1  0.775840  0.677350  0.016430  1.0  1.1259
  Mn  Mn3  1  0.671700  0.060500  0.807580  1.0  1.0922
  Mn  Mn4  1  0.224160  0.177350  0.483570  1.0  1.127
  Mn  Mn5  1  0.671700  0.439500  0.307580  1.0  1.0928
  Mn  Mn6  1  0.224160  0.322650  0.983570  1.0  1.1264
  Mn  Mn7  1  0.328300  0.939500  0.192420  1.0  1.094
  Mn  Mn8  1  0.775840  0.822650  0.516430  1.0  1.1256
  Mo  Mo9  1  0.186920  0.664430  0.338480  1.0  0.3799
  Mo  Mo10  1  0.813080  0.164430  0.161520  1.0  0.3817
  Mo  Mo11  1  0.813080  0.335570  0.661520  1.0  0.3819
  Mo  Mo12  1  0.186920  0.835570  0.838480  1.0  0.3798
  C  C13  1  0.248700  0.617800  0.476200  1.0  0.1403
  C  C14  1  0.375700  0.579200  0.315400  1.0  0.1287
  C  C15  1  0.006100  0.427400  0.664800  1.0  0.1623
  C  C16  1  0.194300  0.771200  0.264600  1.0  0.1141
  C  C17  1  0.064000  0.640900  0.199000  1.0  0.1255
  C  C18  1  0.414500  0.730100  0.407900  1.0  0.1175
  C  C19  1  0.020000  0.739000  0.394900  1.0  0.1267
  C  C20  1  0.751300  0.117800  0.023800  1.0  0.1416
  C  C21  1  0.624300  0.079200  0.184600  1.0  0.1286
  C  C22  1  0.993900  0.927400  0.835200  1.0  0.1621
  C  C23  1  0.805700  0.271200  0.235400  1.0  0.1134
  C  C24  1  0.936000  0.140900  0.301000  1.0  0.1245
  C  C25  1  0.585500  0.230100  0.092100  1.0  0.1179
  C  C26  1  0.980000  0.239000  0.105100  1.0  0.1278
  C  C27  1  0.751300  0.382200  0.523800  1.0  0.1413
  C  C28  1  0.624300  0.420800  0.684600  1.0  0.1287
  C  C29  1  0.993900  0.572600  0.335200  1.0  0.1631
  C  C30  1  0.805700  0.228800  0.735400  1.0  0.1134
  C  C31  1  0.936000  0.359100  0.801000  1.0  0.1244
  C  C32  1  0.585500  0.269900  0.592100  1.0  0.1172
  C  C33  1  0.980000  0.261000  0.605100  1.0  0.1285
  C  C34  1  0.248700  0.882200  0.976200  1.0  0.14
  C  C35  1  0.375700  0.920800  0.815400  1.0  0.1286
  C  C36  1  0.006100  0.072600  0.164800  1.0  0.1639
  C  C37  1  0.194300  0.728800  0.764600  1.0  0.1136
  C  C38  1  0.064000  0.859100  0.699000  1.0  0.1253
  C  C39  1  0.414500  0.769900  0.907900  1.0  0.1175
  C  C40  1  0.020000  0.761000  0.894900  1.0  0.1276
  N  N41  1  0.278500  0.593400  0.549400  1.0  -0.5123
  N  N42  1  0.480900  0.534700  0.308500  1.0  -0.491
  N  N43  1  0.108300  0.476400  0.670200  1.0  -0.4905
  N  N44  1  0.194700  0.831600  0.229100  1.0  -0.5269
  N  N45  1  0.995300  0.629000  0.124300  1.0  -0.5206
  N  N46  1  0.537400  0.764700  0.441200  1.0  -0.4731
  N  N47  1  0.938100  0.778900  0.429900  1.0  -0.4981
  N  N48  1  0.721500  0.093400  0.950600  1.0  -0.513
  N  N49  1  0.519100  0.034700  0.191500  1.0  -0.4912
  N  N50  1  0.891700  0.976400  0.829800  1.0  -0.4914
  N  N51  1  0.805300  0.331600  0.270900  1.0  -0.5274
  N  N52  1  0.004700  0.129000  0.375700  1.0  -0.5201
  N  N53  1  0.462600  0.264700  0.058800  1.0  -0.4722
  N  N54  1  0.061900  0.278900  0.070100  1.0  -0.4984
  N  N55  1  0.721500  0.406600  0.450600  1.0  -0.519
  N  N56  1  0.519100  0.465300  0.691500  1.0  -0.493
  N  N57  1  0.891700  0.523600  0.329800  1.0  -0.4961
  N  N58  1  0.805300  0.168400  0.770900  1.0  -0.5257
  N  N59  1  0.004700  0.371000  0.875700  1.0  -0.5218
  N  N60  1  0.462600  0.235300  0.558800  1.0  -0.4685
  N  N61  1  0.061900  0.221100  0.570100  1.0  -0.4972
  N  N62  1  0.278500  0.906600  0.049400  1.0  -0.5185
  N  N63  1  0.480900  0.965300  0.808500  1.0  -0.4922
  N  N64  1  0.108300  0.023600  0.170200  1.0  -0.494
  N  N65  1  0.194700  0.668400  0.729100  1.0  -0.5252
  N  N66  1  0.995300  0.871000  0.624300  1.0  -0.5211
  N  N67  1  0.537400  0.735300  0.941200  1.0  -0.4697
  N  N68  1  0.938100  0.721100  0.929900  1.0  -0.4965
