# generated using pymatgen
data_Ti3C24O13
_symmetry_space_group_name_H-M   'P 1'
_cell_length_a   11.69180000
_cell_length_b   11.69180000
_cell_length_c   13.89370000
_cell_angle_alpha   90.00000000
_cell_angle_beta   90.00000000
_cell_angle_gamma   120.00000000
_symmetry_Int_Tables_number   1
_chemical_formula_structural   Ti3C24O13
_chemical_formula_sum   'Ti6 C48 O26'
_cell_volume   1644.79320909
_cell_formula_units_Z   2
loop_
 _symmetry_equiv_pos_site_id
 _symmetry_equiv_pos_as_xyz
  1  'x, y, z'
loop_
 _atom_site_type_symbol
 _atom_site_label
 _atom_site_symmetry_multiplicity
 _atom_site_fract_x
 _atom_site_fract_y
 _atom_site_fract_z
 _atom_site_occupancy
 _atom_site_charge
  Ti  Ti1  1  0.502220  0.185410  0.339540  1.0  1.8464
  Ti  Ti2  1  0.526010  0.757480  0.839410  1.0  1.6398
  Ti  Ti3  1  0.814590  0.316810  0.339540  1.0  1.8132
  Ti  Ti4  1  0.242520  0.768530  0.839410  1.0  1.6657
  Ti  Ti5  1  0.683190  0.497780  0.339540  1.0  1.8426
  Ti  Ti6  1  0.231470  0.473990  0.839410  1.0  1.6526
  C  C7  1  0.456670  0.379450  0.454900  1.0  0.5438
  C  C8  1  0.399520  0.501790  0.728110  1.0  0.5366
  C  C9  1  0.329750  0.370920  0.483600  1.0  0.043
  C  C10  1  0.453500  0.431610  0.663320  1.0  -0.007
  C  C11  1  0.374260  0.507960  0.518910  1.0  -0.01
  C  C12  1  0.344460  0.287290  0.644960  1.0  -0.0808
  C  C13  1  0.488330  0.543350  0.586920  1.0  0.0088
  C  C14  1  0.251250  0.275530  0.563920  1.0  -0.0454
  C  C15  1  0.589040  0.447050  0.017100  1.0  -1e-04
  C  C16  1  0.393100  0.338230  0.117720  1.0  -0.0167
  C  C17  1  0.456170  0.322440  0.027340  1.0  -0.0516
  C  C18  1  0.355790  0.444610  0.115820  1.0  -0.0611
  C  C19  1  0.484510  0.572300  0.106160  1.0  -0.0076
  C  C20  1  0.563450  0.562720  0.013460  1.0  -0.0194
  C  C21  1  0.461950  0.563370  0.939530  1.0  0.5638
  C  C22  1  0.475010  0.355430  0.212120  1.0  0.6659
  C  C23  1  0.620550  0.077220  0.454900  1.0  0.5449
  C  C24  1  0.498210  0.897730  0.728110  1.0  0.5372
  C  C25  1  0.629080  0.958830  0.483600  1.0  0.0473
  C  C26  1  0.568390  0.021890  0.663320  1.0  -0.0119
  C  C27  1  0.492040  0.866300  0.518910  1.0  -0.0093
  C  C28  1  0.712710  0.057170  0.644960  1.0  -0.0825
  C  C29  1  0.456650  0.944980  0.586920  1.0  0.011
  C  C30  1  0.724470  0.975720  0.563920  1.0  -0.0446
  C  C31  1  0.552950  0.141990  0.017100  1.0  0.0011
  C  C32  1  0.661770  0.054870  0.117720  1.0  -0.0135
  C  C33  1  0.677560  0.133730  0.027340  1.0  -0.0545
  C  C34  1  0.555390  0.911180  0.115820  1.0  -0.0635
  C  C35  1  0.427700  0.912210  0.106160  1.0  -0.0089
  C  C36  1  0.437280  0.000730  0.013460  1.0  -0.0219
  C  C37  1  0.436630  0.898580  0.939530  1.0  0.5638
  C  C38  1  0.644570  0.119580  0.212120  1.0  0.6652
  C  C39  1  0.922780  0.543330  0.454900  1.0  0.5443
  C  C40  1  0.102270  0.600480  0.728110  1.0  0.5417
  C  C41  1  0.041170  0.670250  0.483600  1.0  0.0474
  C  C42  1  0.978110  0.546500  0.663320  1.0  -0.0016
  C  C43  1  0.133700  0.625740  0.518910  1.0  -0.0108
  C  C44  1  0.942830  0.655540  0.644960  1.0  -0.0807
  C  C45  1  0.055020  0.511670  0.586920  1.0  0.0139
  C  C46  1  0.024280  0.748750  0.563920  1.0  -0.0419
  C  C47  1  0.858010  0.410960  0.017100  1.0  0.001
  C  C48  1  0.945130  0.606900  0.117720  1.0  -0.0163
  C  C49  1  0.866270  0.543830  0.027340  1.0  -0.0522
  C  C50  1  0.088820  0.644210  0.115820  1.0  -0.0618
  C  C51  1  0.087790  0.515490  0.106160  1.0  -0.0073
  C  C52  1  0.999270  0.436550  0.013460  1.0  -0.0164
  C  C53  1  0.101420  0.538050  0.939530  1.0  0.5637
  C  C54  1  0.880420  0.524990  0.212120  1.0  0.6636
  O  O55  1  0.496070  0.582170  0.775940  1.0  -0.6497
  O  O56  1  0.443210  0.265300  0.442150  1.0  -0.65
  O  O57  1  0.275300  0.446750  0.708260  1.0  -0.6084
  O  O58  1  0.569120  0.469380  0.441270  1.0  -0.6009
  O  O59  1  0.472200  0.676790  0.954220  1.0  -0.6228
  O  O60  1  0.467040  0.243050  0.228400  1.0  -0.597
  O  O61  1  0.387070  0.475700  0.884950  1.0  -0.6788
  O  O62  1  0.533630  0.459610  0.261600  1.0  -0.5836
  O  O63  1  0.417830  0.913900  0.775940  1.0  -0.6517
  O  O64  1  0.734700  0.177910  0.442150  1.0  -0.6462
  O  O65  1  0.553250  0.828550  0.708260  1.0  -0.6059
  O  O66  1  0.530620  0.099740  0.441270  1.0  -0.6003
  O  O67  1  0.323210  0.795410  0.954220  1.0  -0.6219
  O  O68  1  0.756950  0.223990  0.228400  1.0  -0.5929
  O  O69  1  0.524300  0.911370  0.884950  1.0  -0.6762
  O  O70  1  0.540390  0.074020  0.261600  1.0  -0.5836
  O  O71  1  0.086100  0.503930  0.775940  1.0  -0.648
  O  O72  1  0.822090  0.556790  0.442150  1.0  -0.6483
  O  O73  1  0.171450  0.724700  0.708260  1.0  -0.6088
  O  O74  1  0.900260  0.430880  0.441270  1.0  -0.6037
  O  O75  1  0.204590  0.527800  0.954220  1.0  -0.621
  O  O76  1  0.776010  0.532960  0.228400  1.0  -0.5987
  O  O77  1  0.088630  0.612930  0.884950  1.0  -0.6788
  O  O78  1  0.925980  0.466370  0.261600  1.0  -0.5827
  O  O79  1  0.333333  0.666667  0.803820  1.0  -0.8842
  O  O80  1  0.666667  0.333333  0.335500  1.0  -0.8252
