# generated using pymatgen
data_Ti3C24O13
_symmetry_space_group_name_H-M   'P 1'
_cell_length_a   12.65390000
_cell_length_b   12.65390000
_cell_length_c   15.11510000
_cell_angle_alpha   90.00000000
_cell_angle_beta   90.00000000
_cell_angle_gamma   120.00000000
_symmetry_Int_Tables_number   1
_chemical_formula_structural   Ti3C24O13
_chemical_formula_sum   'Ti6 C48 O26'
_cell_volume   2095.99601466
_cell_formula_units_Z   2
loop_
 _symmetry_equiv_pos_site_id
 _symmetry_equiv_pos_as_xyz
  1  'x, y, z'
loop_
 _atom_site_type_symbol
 _atom_site_label
 _atom_site_symmetry_multiplicity
 _atom_site_fract_x
 _atom_site_fract_y
 _atom_site_fract_z
 _atom_site_occupancy
 _atom_site_charge
  Ti  Ti1  1  0.527500  0.212300  0.358530  1.0  1.5333
  Ti  Ti2  1  0.490260  0.756390  0.817310  1.0  1.4035
  Ti  Ti3  1  0.787700  0.315200  0.358530  1.0  1.539
  Ti  Ti4  1  0.243610  0.733870  0.817310  1.0  1.403
  Ti  Ti5  1  0.684800  0.472500  0.358530  1.0  1.5469
  Ti  Ti6  1  0.266130  0.509740  0.817310  1.0  1.4081
  C  C7  1  0.503000  0.396200  0.479150  1.0  0.518
  C  C8  1  0.437400  0.596100  0.723610  1.0  0.4978
  C  C9  1  0.402540  0.420000  0.520760  1.0  -0.0244
  C  C10  1  0.540320  0.603310  0.666220  1.0  -0.0235
  C  C11  1  0.412180  0.547520  0.522540  1.0  0.0287
  C  C12  1  0.537810  0.481420  0.655610  1.0  -0.0369
  C  C13  1  0.521830  0.646150  0.575130  1.0  -0.0404
  C  C14  1  0.420500  0.384480  0.612240  1.0  -0.0107
  C  C15  1  0.494770  0.433940  0.998830  1.0  0.004
  C  C16  1  0.470500  0.412380  0.161830  1.0  0.0553
  C  C17  1  0.537240  0.400070  0.081860  1.0  0.0324
  C  C18  1  0.498140  0.543580  0.171930  1.0  -0.0486
  C  C19  1  0.477100  0.595940  0.089160  1.0  0.0066
  C  C20  1  0.524660  0.566160  0.005620  1.0  0.0547
  C  C21  1  0.443510  0.569120  0.930020  1.0  0.6393
  C  C22  1  0.513320  0.388600  0.249510  1.0  0.4668
  C  C23  1  0.603800  0.106800  0.479150  1.0  0.5187
  C  C24  1  0.403900  0.841300  0.723610  1.0  0.4981
  C  C25  1  0.580000  0.982540  0.520760  1.0  -0.0219
  C  C26  1  0.396690  0.937010  0.666220  1.0  -0.0241
  C  C27  1  0.452480  0.864660  0.522540  1.0  0.0284
  C  C28  1  0.518580  0.056390  0.655610  1.0  -0.0396
  C  C29  1  0.353850  0.875680  0.575130  1.0  -0.0422
  C  C30  1  0.615520  0.036020  0.612240  1.0  -0.0075
  C  C31  1  0.566060  0.060830  0.998830  1.0  0.0011
  C  C32  1  0.587620  0.058120  0.161830  1.0  0.0572
  C  C33  1  0.599930  0.137170  0.081860  1.0  0.0293
  C  C34  1  0.456420  0.954560  0.171930  1.0  -0.0489
  C  C35  1  0.404060  0.881160  0.089160  1.0  0.007
  C  C36  1  0.433840  0.958500  0.005620  1.0  0.0571
  C  C37  1  0.430880  0.874390  0.930020  1.0  0.6383
  C  C38  1  0.611400  0.124720  0.249510  1.0  0.4664
  C  C39  1  0.893200  0.497000  0.479150  1.0  0.5186
  C  C40  1  0.158700  0.562600  0.723610  1.0  0.4962
  C  C41  1  0.017460  0.597460  0.520760  1.0  -0.0225
  C  C42  1  0.062990  0.459680  0.666220  1.0  -0.0244
  C  C43  1  0.135340  0.587820  0.522540  1.0  0.029
  C  C44  1  0.943610  0.462190  0.655610  1.0  -0.0429
  C  C45  1  0.124320  0.478170  0.575130  1.0  -0.0412
  C  C46  1  0.963980  0.579500  0.612240  1.0  -0.0108
  C  C47  1  0.939170  0.505230  0.998830  1.0  0.0054
  C  C48  1  0.941880  0.529500  0.161830  1.0  0.0533
  C  C49  1  0.862830  0.462760  0.081860  1.0  0.0327
  C  C50  1  0.045440  0.501860  0.171930  1.0  -0.0479
  C  C51  1  0.118840  0.522900  0.089160  1.0  0.007
  C  C52  1  0.041500  0.475340  0.005620  1.0  0.0544
  C  C53  1  0.125610  0.556490  0.930020  1.0  0.6403
  C  C54  1  0.875280  0.486680  0.249510  1.0  0.4663
  O  O55  1  0.432250  0.688700  0.708910  1.0  -0.4622
  O  O56  1  0.484790  0.316510  0.419030  1.0  -0.5986
  O  O57  1  0.613200  0.483200  0.468660  1.0  -0.5724
  O  O58  1  0.497980  0.625020  0.860570  1.0  -0.5811
  O  O59  1  0.560280  0.318100  0.254120  1.0  -0.6086
  O  O60  1  0.331900  0.494070  0.921080  1.0  -0.5662
  O  O61  1  0.527050  0.410530  0.327780  1.0  -0.538
  O  O62  1  0.394400  0.503840  0.767800  1.0  -0.6159
  O  O63  1  0.311300  0.743550  0.708910  1.0  -0.4594
  O  O64  1  0.683490  0.168280  0.419030  1.0  -0.6028
  O  O65  1  0.516800  0.130000  0.468660  1.0  -0.5761
  O  O66  1  0.374980  0.872960  0.860570  1.0  -0.5833
  O  O67  1  0.681900  0.242180  0.254120  1.0  -0.6087
  O  O68  1  0.505930  0.837830  0.921080  1.0  -0.565
  O  O69  1  0.589470  0.116520  0.327780  1.0  -0.5342
  O  O70  1  0.496160  0.890560  0.767800  1.0  -0.6089
  O  O71  1  0.256450  0.567750  0.708910  1.0  -0.4599
  O  O72  1  0.831720  0.515210  0.419030  1.0  -0.5966
  O  O73  1  0.870000  0.386800  0.468660  1.0  -0.576
  O  O74  1  0.127040  0.502020  0.860570  1.0  -0.5925
  O  O75  1  0.757820  0.439720  0.254120  1.0  -0.6067
  O  O76  1  0.162170  0.668100  0.921080  1.0  -0.5675
  O  O77  1  0.883480  0.472950  0.327780  1.0  -0.5341
  O  O78  1  0.109440  0.605600  0.767800  1.0  -0.6114
  O  O79  1  0.666667  0.333333  0.403970  1.0  -0.7878
  O  O80  1  0.333333  0.666667  0.847790  1.0  -0.7697
