# generated using pymatgen
data_CdHC2SN3
_symmetry_space_group_name_H-M   'P 1'
_cell_length_a   10.48800000
_cell_length_b   10.21200000
_cell_length_c   11.27300000
_cell_angle_alpha   90.00000000
_cell_angle_beta   92.89000000
_cell_angle_gamma   90.00000000
_symmetry_Int_Tables_number   1
_chemical_formula_structural   CdHC2SN3
_chemical_formula_sum   'Cd8 H8 C16 S8 N24'
_cell_volume   1205.84168341
_cell_formula_units_Z   8
loop_
 _symmetry_equiv_pos_site_id
 _symmetry_equiv_pos_as_xyz
  1  'x, y, z'
loop_
 _atom_site_type_symbol
 _atom_site_label
 _atom_site_symmetry_multiplicity
 _atom_site_fract_x
 _atom_site_fract_y
 _atom_site_fract_z
 _atom_site_occupancy
 _atom_site_charge
  Cd  Cd1  1  0.634100  0.136210  0.606600  1.0  0.7702
  Cd  Cd2  1  0.134100  0.636210  0.606600  1.0  0.7702
  Cd  Cd3  1  0.365900  0.136210  0.893400  1.0  0.7701
  Cd  Cd4  1  0.865900  0.636210  0.893400  1.0  0.7701
  Cd  Cd5  1  0.365900  0.863790  0.393400  1.0  0.7706
  Cd  Cd6  1  0.865900  0.363790  0.393400  1.0  0.7706
  Cd  Cd7  1  0.634100  0.863790  0.106600  1.0  0.7707
  Cd  Cd8  1  0.134100  0.363790  0.106600  1.0  0.7707
  H  H9  1  0.222600  0.848400  0.825800  1.0  0.0484
  H  H10  1  0.722600  0.348400  0.825800  1.0  0.0484
  H  H11  1  0.777400  0.848400  0.674200  1.0  0.0477
  H  H12  1  0.277400  0.348400  0.674200  1.0  0.0477
  H  H13  1  0.777400  0.151600  0.174200  1.0  0.0469
  H  H14  1  0.277400  0.651600  0.174200  1.0  0.0469
  H  H15  1  0.222600  0.151600  0.325800  1.0  0.0476
  H  H16  1  0.722600  0.651600  0.325800  1.0  0.0476
  C  C17  1  0.333800  0.011300  0.632400  1.0  0.1975
  C  C18  1  0.250900  0.883300  0.755600  1.0  0.3061
  C  C19  1  0.833800  0.511300  0.632400  1.0  0.1975
  C  C20  1  0.750900  0.383300  0.755600  1.0  0.3061
  C  C21  1  0.666200  0.011300  0.867600  1.0  0.1951
  C  C22  1  0.749100  0.883300  0.744400  1.0  0.3045
  C  C23  1  0.166200  0.511300  0.867600  1.0  0.1951
  C  C24  1  0.249100  0.383300  0.744400  1.0  0.3045
  C  C25  1  0.666200  0.988700  0.367600  1.0  0.1949
  C  C26  1  0.749100  0.116700  0.244400  1.0  0.305
  C  C27  1  0.166200  0.488700  0.367600  1.0  0.1949
  C  C28  1  0.249100  0.616700  0.244400  1.0  0.305
  C  C29  1  0.333800  0.988700  0.132400  1.0  0.1977
  C  C30  1  0.250900  0.116700  0.255600  1.0  0.3053
  C  C31  1  0.833800  0.488700  0.132400  1.0  0.1977
  C  C32  1  0.750900  0.616700  0.255600  1.0  0.3053
  S  S33  1  0.398390  0.147010  0.564160  1.0  -0.3305
  S  S34  1  0.898390  0.647010  0.564160  1.0  -0.3305
  S  S35  1  0.601610  0.147010  0.935840  1.0  -0.3319
  S  S36  1  0.101610  0.647010  0.935840  1.0  -0.3319
  S  S37  1  0.601610  0.852990  0.435840  1.0  -0.3332
  S  S38  1  0.101610  0.352990  0.435840  1.0  -0.3332
  S  S39  1  0.398390  0.852990  0.064160  1.0  -0.3319
  S  S40  1  0.898390  0.352990  0.064160  1.0  -0.3319
  N  N41  1  0.290900  0.906600  0.571200  1.0  -0.2429
  N  N42  1  0.236600  0.824100  0.651900  1.0  -0.3219
  N  N43  1  0.310700  0.999500  0.749300  1.0  -0.4221
  N  N44  1  0.790900  0.406600  0.571200  1.0  -0.2429
  N  N45  1  0.736600  0.324100  0.651900  1.0  -0.3219
  N  N46  1  0.810700  0.499500  0.749300  1.0  -0.4221
  N  N47  1  0.709100  0.906600  0.928800  1.0  -0.2431
  N  N48  1  0.763400  0.824100  0.848100  1.0  -0.322
  N  N49  1  0.689300  0.999500  0.750700  1.0  -0.4227
  N  N50  1  0.209100  0.406600  0.928800  1.0  -0.2431
  N  N51  1  0.263400  0.324100  0.848100  1.0  -0.322
  N  N52  1  0.189300  0.499500  0.750700  1.0  -0.4227
  N  N53  1  0.709100  0.093400  0.428800  1.0  -0.2433
  N  N54  1  0.763400  0.175900  0.348100  1.0  -0.3229
  N  N55  1  0.689300  0.000500  0.250700  1.0  -0.4221
  N  N56  1  0.209100  0.593400  0.428800  1.0  -0.2433
  N  N57  1  0.263400  0.675900  0.348100  1.0  -0.3229
  N  N58  1  0.189300  0.500500  0.250700  1.0  -0.4221
  N  N59  1  0.290900  0.093400  0.071200  1.0  -0.2421
  N  N60  1  0.236600  0.175900  0.151900  1.0  -0.323
  N  N61  1  0.310700  0.000500  0.249300  1.0  -0.4226
  N  N62  1  0.790900  0.593400  0.071200  1.0  -0.2421
  N  N63  1  0.736600  0.675900  0.151900  1.0  -0.323
  N  N64  1  0.810700  0.500500  0.249300  1.0  -0.4226
