# generated using pymatgen
data_CdH19C25N5O4
_symmetry_space_group_name_H-M   'P 1'
_cell_length_a   13.13900000
_cell_length_b   14.86500000
_cell_length_c   14.86500000
_cell_angle_alpha   90.00000000
_cell_angle_beta   90.00000000
_cell_angle_gamma   90.00000000
_symmetry_Int_Tables_number   1
_chemical_formula_structural   CdH19C25N5O4
_chemical_formula_sum   'Cd4 H76 C100 N20 O16'
_cell_volume   2903.30150827
_cell_formula_units_Z   4
loop_
 _symmetry_equiv_pos_site_id
 _symmetry_equiv_pos_as_xyz
  1  'x, y, z'
loop_
 _atom_site_type_symbol
 _atom_site_label
 _atom_site_symmetry_multiplicity
 _atom_site_fract_x
 _atom_site_fract_y
 _atom_site_fract_z
 _atom_site_occupancy
 _atom_site_charge
  Cd  Cd1  1  0.500000  0.730530  0.730530  1.0  0.9045
  Cd  Cd2  1  0.000000  0.269470  0.269470  1.0  0.9037
  Cd  Cd3  1  0.750000  0.769470  0.230530  1.0  0.9043
  Cd  Cd4  1  0.250000  0.230530  0.769470  1.0  0.9038
  H  H5  1  0.418700  0.953500  0.687000  1.0  0.1119
  H  H6  1  0.269900  0.994600  0.596900  1.0  0.1325
  H  H7  1  0.299400  0.728200  0.595800  1.0  0.1044
  H  H8  1  0.196200  0.950400  0.439600  1.0  0.0993
  H  H9  1  0.055600  0.931200  0.344900  1.0  0.1044
  H  H10  1  0.966300  0.720700  0.493800  1.0  0.1019
  H  H11  1  0.108900  0.737200  0.586200  1.0  0.124
  H  H12  1  0.456600  0.524500  0.701300  1.0  0.0656
  H  H13  1  0.459000  0.403200  0.592700  1.0  0.1329
  H  H14  1  0.581300  0.687000  0.953500  1.0  0.1129
  H  H15  1  0.730100  0.596900  0.994600  1.0  0.1324
  H  H16  1  0.700600  0.595800  0.728200  1.0  0.1042
  H  H17  1  0.803800  0.439600  0.950400  1.0  0.0986
  H  H18  1  0.944400  0.344900  0.931200  1.0  0.1032
  H  H19  1  0.033700  0.493800  0.720700  1.0  0.1007
  H  H20  1  0.891100  0.586200  0.737200  1.0  0.1235
  H  H21  1  0.543400  0.701300  0.524500  1.0  0.0659
  H  H22  1  0.541000  0.592700  0.403200  1.0  0.1329
  H  H23  1  0.500000  0.445900  0.445900  1.0  0.0933
  H  H24  1  0.918700  0.046500  0.313000  1.0  0.1114
  H  H25  1  0.769900  0.005400  0.403100  1.0  0.1321
  H  H26  1  0.799400  0.271800  0.404200  1.0  0.1041
  H  H27  1  0.696200  0.049600  0.560400  1.0  0.1
  H  H28  1  0.555600  0.068800  0.655100  1.0  0.1041
  H  H29  1  0.466300  0.279300  0.506200  1.0  0.1011
  H  H30  1  0.608900  0.262800  0.413800  1.0  0.1234
  H  H31  1  0.956600  0.475500  0.298700  1.0  0.066
  H  H32  1  0.959000  0.596800  0.407300  1.0  0.1342
  H  H33  1  0.081300  0.313000  0.046500  1.0  0.1123
  H  H34  1  0.230100  0.403100  0.005400  1.0  0.1326
  H  H35  1  0.200600  0.404200  0.271800  1.0  0.1036
  H  H36  1  0.303800  0.560400  0.049600  1.0  0.0984
  H  H37  1  0.444400  0.655100  0.068800  1.0  0.1028
  H  H38  1  0.533700  0.506200  0.279300  1.0  0.1013
  H  H39  1  0.391100  0.413800  0.262800  1.0  0.1236
  H  H40  1  0.043400  0.298700  0.475500  1.0  0.0658
  H  H41  1  0.041000  0.407300  0.596800  1.0  0.1338
  H  H42  1  0.000000  0.554100  0.554100  1.0  0.0928
  H  H43  1  0.668700  0.813000  0.453500  1.0  0.1122
  H  H44  1  0.519900  0.903100  0.494600  1.0  0.1324
  H  H45  1  0.549400  0.904200  0.228200  1.0  0.1047
  H  H46  1  0.446200  0.060400  0.450400  1.0  0.0988
  H  H47  1  0.305600  0.155100  0.431200  1.0  0.1028
  H  H48  1  0.216300  0.006200  0.220700  1.0  0.1011
  H  H49  1  0.358900  0.913800  0.237200  1.0  0.1234
  H  H50  1  0.706600  0.798700  0.024500  1.0  0.066
  H  H51  1  0.709000  0.907300  0.903200  1.0  0.133
  H  H52  1  0.831300  0.546500  0.187000  1.0  0.1121
  H  H53  1  0.980100  0.505400  0.096900  1.0  0.1328
  H  H54  1  0.950600  0.771800  0.095800  1.0  0.1046
  H  H55  1  0.053800  0.549600  0.939600  1.0  0.0993
  H  H56  1  0.194400  0.568800  0.844900  1.0  0.1047
  H  H57  1  0.283700  0.779300  0.993800  1.0  0.1008
  H  H58  1  0.141100  0.762800  0.086200  1.0  0.1241
  H  H59  1  0.793400  0.975500  0.201300  1.0  0.0655
  H  H60  1  0.791000  0.096800  0.092700  1.0  0.1328
  H  H61  1  0.750000  0.054100  0.945900  1.0  0.0937
  H  H62  1  0.168700  0.187000  0.546500  1.0  0.1123
  H  H63  1  0.019900  0.096900  0.505400  1.0  0.1324
  H  H64  1  0.049400  0.095800  0.771800  1.0  0.104
  H  H65  1  0.946200  0.939600  0.549600  1.0  0.0987
  H  H66  1  0.805600  0.844900  0.568800  1.0  0.1029
  H  H67  1  0.716300  0.993800  0.779300  1.0  0.1012
  H  H68  1  0.858900  0.086200  0.762800  1.0  0.1234
  H  H69  1  0.206600  0.201300  0.975500  1.0  0.0656
  H  H70  1  0.209000  0.092700  0.096800  1.0  0.1339
  H  H71  1  0.331300  0.453500  0.813000  1.0  0.1118
  H  H72  1  0.480100  0.494600  0.903100  1.0  0.1324
  H  H73  1  0.450600  0.228200  0.904200  1.0  0.1042
  H  H74  1  0.553800  0.450400  0.060400  1.0  0.0993
  H  H75  1  0.694400  0.431200  0.155100  1.0  0.1037
  H  H76  1  0.783700  0.220700  0.006200  1.0  0.1009
  H  H77  1  0.641100  0.237200  0.913800  1.0  0.1236
  H  H78  1  0.293400  0.024500  0.798700  1.0  0.066
  H  H79  1  0.291000  0.903200  0.907300  1.0  0.1345
  H  H80  1  0.250000  0.945900  0.054100  1.0  0.0935
  C  C81  1  0.376100  0.913600  0.657000  1.0  0.0429
  C  C82  1  0.293900  0.936800  0.607700  1.0  -0.1356
  C  C83  1  0.311200  0.788700  0.607300  1.0  0.1327
  C  C84  1  0.164100  0.845900  0.521300  1.0  0.1329
  C  C85  1  0.150200  0.904000  0.449900  1.0  -0.1854
  C  C86  1  0.066000  0.892300  0.393000  1.0  -0.0127
  C  C87  1  0.998400  0.822500  0.408900  1.0  -0.1345
  C  C88  1  0.013200  0.766000  0.482000  1.0  -0.0141
  C  C89  1  0.097800  0.776300  0.538400  1.0  -0.1957
  C  C90  1  0.908100  0.807400  0.348200  1.0  0.6335
  C  C91  1  0.475000  0.536400  0.642000  1.0  0.1579
  C  C92  1  0.474000  0.462300  0.577500  1.0  -0.1685
  C  C93  1  0.623900  0.657000  0.913600  1.0  0.0406
  C  C94  1  0.706100  0.607700  0.936800  1.0  -0.1363
  C  C95  1  0.688800  0.607300  0.788700  1.0  0.1349
  C  C96  1  0.835900  0.521300  0.845900  1.0  0.1322
  C  C97  1  0.849800  0.449900  0.904000  1.0  -0.1831
  C  C98  1  0.934000  0.393000  0.892300  1.0  -0.015
  C  C99  1  0.001600  0.408900  0.822500  1.0  -0.1376
  C  C100  1  0.986800  0.482000  0.766000  1.0  -0.015
  C  C101  1  0.902200  0.538400  0.776300  1.0  -0.1931
  C  C102  1  0.091900  0.348200  0.807400  1.0  0.6338
  C  C103  1  0.525000  0.642000  0.536400  1.0  0.1553
  C  C104  1  0.526000  0.577500  0.462300  1.0  -0.1748
  C  C105  1  0.500000  0.490100  0.490100  1.0  -0.0155
  C  C106  1  0.876100  0.086400  0.343000  1.0  0.044
  C  C107  1  0.793900  0.063200  0.392300  1.0  -0.1375
  C  C108  1  0.811200  0.211300  0.392700  1.0  0.132
  C  C109  1  0.664100  0.154100  0.478700  1.0  0.1332
  C  C110  1  0.650200  0.096000  0.550100  1.0  -0.1852
  C  C111  1  0.566000  0.107700  0.607000  1.0  -0.0136
  C  C112  1  0.498400  0.177500  0.591100  1.0  -0.135
  C  C113  1  0.513200  0.234000  0.518000  1.0  -0.0145
  C  C114  1  0.597800  0.223700  0.461600  1.0  -0.1961
  C  C115  1  0.408100  0.192600  0.651800  1.0  0.6327
  C  C116  1  0.975000  0.463600  0.358000  1.0  0.1579
  C  C117  1  0.974000  0.537700  0.422500  1.0  -0.1719
  C  C118  1  0.123900  0.343000  0.086400  1.0  0.041
  C  C119  1  0.206100  0.392300  0.063200  1.0  -0.1364
  C  C120  1  0.188800  0.392700  0.211300  1.0  0.1347
  C  C121  1  0.335900  0.478700  0.154100  1.0  0.1338
  C  C122  1  0.349800  0.550100  0.096000  1.0  -0.1833
  C  C123  1  0.434000  0.607000  0.107700  1.0  -0.0149
  C  C124  1  0.501600  0.591100  0.177500  1.0  -0.1375
  C  C125  1  0.486800  0.518000  0.234000  1.0  -0.0144
  C  C126  1  0.402200  0.461600  0.223700  1.0  -0.1931
  C  C127  1  0.591900  0.651800  0.192600  1.0  0.6336
  C  C128  1  0.025000  0.358000  0.463600  1.0  0.1557
  C  C129  1  0.026000  0.422500  0.537700  1.0  -0.1742
  C  C130  1  0.000000  0.509900  0.509900  1.0  -0.0145
  C  C131  1  0.626100  0.843000  0.413600  1.0  0.0412
  C  C132  1  0.543900  0.892300  0.436800  1.0  -0.1375
  C  C133  1  0.561200  0.892700  0.288700  1.0  0.135
  C  C134  1  0.414100  0.978700  0.345900  1.0  0.1318
  C  C135  1  0.400200  0.050100  0.404000  1.0  -0.1845
  C  C136  1  0.316000  0.107000  0.392300  1.0  -0.0151
  C  C137  1  0.248400  0.091100  0.322500  1.0  -0.1342
  C  C138  1  0.263200  0.018000  0.266000  1.0  -0.0134
  C  C139  1  0.347800  0.961600  0.276300  1.0  -0.1923
  C  C140  1  0.158100  0.151800  0.307400  1.0  0.6331
  C  C141  1  0.725000  0.858000  0.036400  1.0  0.155
  C  C142  1  0.724000  0.922500  0.962300  1.0  -0.1714
  C  C143  1  0.873900  0.586400  0.157000  1.0  0.043
  C  C144  1  0.956100  0.563200  0.107700  1.0  -0.1362
  C  C145  1  0.938800  0.711300  0.107300  1.0  0.1327
  C  C146  1  0.085900  0.654100  0.021300  1.0  0.1335
  C  C147  1  0.099800  0.596000  0.949900  1.0  -0.1838
  C  C148  1  0.184000  0.607700  0.893000  1.0  -0.0125
  C  C149  1  0.251600  0.677500  0.908900  1.0  -0.1358
  C  C150  1  0.236800  0.734000  0.982000  1.0  -0.0166
  C  C151  1  0.152200  0.723700  0.038400  1.0  -0.1971
  C  C152  1  0.341900  0.692600  0.848200  1.0  0.6343
  C  C153  1  0.775000  0.963600  0.142000  1.0  0.1588
  C  C154  1  0.776000  0.037700  0.077500  1.0  -0.1742
  C  C155  1  0.750000  0.009900  0.990100  1.0  -0.0146
  C  C156  1  0.126100  0.157000  0.586400  1.0  0.0414
  C  C157  1  0.043900  0.107700  0.563200  1.0  -0.1365
  C  C158  1  0.061200  0.107300  0.711300  1.0  0.1339
  C  C159  1  0.914100  0.021300  0.654100  1.0  0.1331
  C  C160  1  0.900200  0.949900  0.596000  1.0  -0.1844
  C  C161  1  0.816000  0.893000  0.607700  1.0  -0.0147
  C  C162  1  0.748400  0.908900  0.677500  1.0  -0.1357
  C  C163  1  0.763200  0.982000  0.734000  1.0  -0.0124
  C  C164  1  0.847800  0.038400  0.723700  1.0  -0.192
  C  C165  1  0.658100  0.848200  0.692600  1.0  0.6327
  C  C166  1  0.225000  0.142000  0.963600  1.0  0.1555
  C  C167  1  0.224000  0.077500  0.037700  1.0  -0.1727
  C  C168  1  0.373900  0.413600  0.843000  1.0  0.0432
  C  C169  1  0.456100  0.436800  0.892300  1.0  -0.1356
  C  C170  1  0.438800  0.288700  0.892700  1.0  0.1324
  C  C171  1  0.585900  0.345900  0.978700  1.0  0.1335
  C  C172  1  0.599800  0.404000  0.050100  1.0  -0.1844
  C  C173  1  0.684000  0.392300  0.107000  1.0  -0.0144
  C  C174  1  0.751600  0.322500  0.091100  1.0  -0.1374
  C  C175  1  0.736800  0.266000  0.018000  1.0  -0.0159
  C  C176  1  0.652200  0.276300  0.961600  1.0  -0.196
  C  C177  1  0.841900  0.307400  0.151800  1.0  0.6337
  C  C178  1  0.275000  0.036400  0.858000  1.0  0.1593
  C  C179  1  0.276000  0.962300  0.922500  1.0  -0.1724
  C  C180  1  0.250000  0.990100  0.009900  1.0  -0.0155
  N  N181  1  0.387200  0.819900  0.655800  1.0  -0.3727
  N  N182  1  0.252700  0.857200  0.576600  1.0  0.0302
  N  N183  1  0.612800  0.655800  0.819900  1.0  -0.3724
  N  N184  1  0.747300  0.576600  0.857200  1.0  0.032
  N  N185  1  0.500000  0.619800  0.619800  1.0  -0.3276
  N  N186  1  0.887200  0.180100  0.344200  1.0  -0.3734
  N  N187  1  0.752700  0.142800  0.423400  1.0  0.0305
  N  N188  1  0.112800  0.344200  0.180100  1.0  -0.3719
  N  N189  1  0.247300  0.423400  0.142800  1.0  0.0317
  N  N190  1  0.000000  0.380200  0.380200  1.0  -0.3276
  N  N191  1  0.637200  0.844200  0.319900  1.0  -0.3733
  N  N192  1  0.502700  0.923400  0.357200  1.0  0.0313
  N  N193  1  0.862800  0.680100  0.155800  1.0  -0.3729
  N  N194  1  0.997300  0.642800  0.076600  1.0  0.0306
  N  N195  1  0.750000  0.880200  0.119800  1.0  -0.3272
  N  N196  1  0.137200  0.155800  0.680100  1.0  -0.3735
  N  N197  1  0.002700  0.076600  0.642800  1.0  0.0316
  N  N198  1  0.362800  0.319900  0.844200  1.0  -0.3729
  N  N199  1  0.497300  0.357200  0.923400  1.0  0.031
  N  N200  1  0.250000  0.119800  0.880200  1.0  -0.3276
  O  O201  1  0.898700  0.859400  0.282000  1.0  -0.6197
  O  O202  1  0.847500  0.744600  0.364800  1.0  -0.5868
  O  O203  1  0.101300  0.282000  0.859400  1.0  -0.6196
  O  O204  1  0.152500  0.364800  0.744600  1.0  -0.5879
  O  O205  1  0.398700  0.140600  0.718000  1.0  -0.622
  O  O206  1  0.347500  0.255400  0.635200  1.0  -0.5861
  O  O207  1  0.601300  0.718000  0.140600  1.0  -0.6194
  O  O208  1  0.652500  0.635200  0.255400  1.0  -0.5898
  O  O209  1  0.148700  0.218000  0.359400  1.0  -0.6198
  O  O210  1  0.097500  0.135200  0.244600  1.0  -0.5872
  O  O211  1  0.351300  0.640600  0.782000  1.0  -0.6203
  O  O212  1  0.402500  0.755400  0.864800  1.0  -0.5871
  O  O213  1  0.648700  0.782000  0.640600  1.0  -0.6198
  O  O214  1  0.597500  0.864800  0.755400  1.0  -0.5891
  O  O215  1  0.851300  0.359400  0.218000  1.0  -0.6219
  O  O216  1  0.902500  0.244600  0.135200  1.0  -0.5873
