# generated using pymatgen
data_CdH14C20(NO)4
_symmetry_space_group_name_H-M   'P 1'
_cell_length_a   9.14700000
_cell_length_b   9.21900000
_cell_length_c   14.60400000
_cell_angle_alpha   97.97300000
_cell_angle_beta   104.95600000
_cell_angle_gamma   104.56500000
_symmetry_Int_Tables_number   1
_chemical_formula_structural   CdH14C20(NO)4
_chemical_formula_sum   'Cd2 H28 C40 N8 O8'
_cell_volume   1123.91545972
_cell_formula_units_Z   2
loop_
 _symmetry_equiv_pos_site_id
 _symmetry_equiv_pos_as_xyz
  1  'x, y, z'
loop_
 _atom_site_type_symbol
 _atom_site_label
 _atom_site_symmetry_multiplicity
 _atom_site_fract_x
 _atom_site_fract_y
 _atom_site_fract_z
 _atom_site_occupancy
 _atom_site_charge
  Cd  Cd1  1  0.597160  0.079040  0.188770  1.0  0.9624
  Cd  Cd2  1  0.338340  0.247580  0.596020  1.0  0.9708
  H  H3  1  0.925300  0.159600  0.506600  1.0  0.0997
  H  H4  1  0.756600  0.170300  0.606000  1.0  0.118
  H  H5  1  0.176100  0.205000  0.775000  1.0  0.0989
  H  H6  1  0.105900  0.288400  0.908900  1.0  0.1383
  H  H7  1  0.995600  0.251300  0.038500  1.0  0.0806
  H  H8  1  0.566300  0.091000  0.855700  1.0  0.1034
  H  H9  1  0.654300  0.107100  0.725800  1.0  0.1213
  H  H10  1  0.180200  0.168300  0.363200  1.0  0.1122
  H  H11  1  0.015400  0.290800  0.262000  1.0  0.1226
  H  H12  1  0.195400  0.552100  0.524400  1.0  0.1108
  H  H13  1  0.034000  0.695500  0.486000  1.0  0.1311
  H  H14  1  0.902700  0.870100  0.427700  1.0  0.0931
  H  H15  1  0.792200  0.640900  0.157800  1.0  0.0905
  H  H16  1  0.933500  0.474800  0.206700  1.0  0.1262
  H  H17  1  0.261600  0.138100  0.226500  1.0  0.0944
  H  H18  1  0.996500  0.014200  0.123900  1.0  0.1206
  H  H19  1  0.272900  0.783500  0.057000  1.0  0.0874
  H  H20  1  0.780100  0.792300  0.034200  1.0  0.1265
  H  H21  1  0.579900  0.621900  0.906300  1.0  0.0967
  H  H22  1  0.879700  0.499800  0.783900  1.0  0.1006
  H  H23  1  0.089200  0.683600  0.902700  1.0  0.1181
  H  H24  1  0.701700  0.189800  0.420300  1.0  0.0999
  H  H25  1  0.654300  0.390200  0.520800  1.0  0.1125
  H  H26  1  0.529700  0.438900  0.247300  1.0  0.1141
  H  H27  1  0.648400  0.634100  0.567500  1.0  0.124
  H  H28  1  0.549300  0.820600  0.620600  1.0  0.0961
  H  H29  1  0.357200  0.844900  0.343000  1.0  0.1233
  H  H30  1  0.432100  0.624100  0.293800  1.0  0.1001
  C  C31  1  0.955100  0.171800  0.573700  1.0  -0.017
  C  C32  1  0.863200  0.175700  0.627700  1.0  -0.0816
  C  C33  1  0.093900  0.196000  0.719500  1.0  0.1837
  C  C34  1  0.888200  0.188100  0.803300  1.0  0.1136
  C  C35  1  0.997900  0.244200  0.897700  1.0  -0.1855
  C  C36  1  0.928000  0.226900  0.975300  1.0  -0.0342
  C  C37  1  0.777800  0.180000  0.961900  1.0  -0.1238
  C  C38  1  0.674600  0.130000  0.865500  1.0  -0.0167
  C  C39  1  0.725500  0.136400  0.788200  1.0  -0.1911
  C  C40  1  0.707600  0.156900  0.044200  1.0  0.6568
  C  C41  1  0.164000  0.261800  0.383000  1.0  0.009
  C  C42  1  0.073200  0.328800  0.327300  1.0  -0.1256
  C  C43  1  0.172900  0.472400  0.471400  1.0  0.1483
  C  C44  1  0.002400  0.570500  0.353000  1.0  0.1157
  C  C45  1  0.989500  0.685500  0.419700  1.0  -0.164
  C  C46  1  0.906700  0.788200  0.384300  1.0  -0.0138
  C  C47  1  0.833900  0.767600  0.288300  1.0  -0.1277
  C  C48  1  0.843400  0.652600  0.223500  1.0  -0.0281
  C  C49  1  0.926900  0.552200  0.252200  1.0  -0.1863
  C  C50  1  0.742300  0.875300  0.254800  1.0  0.6619
  C  C51  1  0.230700  0.052100  0.176400  1.0  0.0389
  C  C52  1  0.085300  0.984200  0.121200  1.0  -0.1065
  C  C53  1  0.238200  0.860800  0.084000  1.0  0.1728
  C  C54  1  0.957300  0.755900  0.982500  1.0  0.1264
  C  C55  1  0.802700  0.738300  0.983600  1.0  -0.2157
  C  C56  1  0.684000  0.636200  0.905700  1.0  -0.0124
  C  C57  1  0.707000  0.554900  0.828200  1.0  -0.0999
  C  C58  1  0.860000  0.564100  0.831200  1.0  -0.0512
  C  C59  1  0.986000  0.670000  0.904800  1.0  -0.1615
  C  C60  1  0.577100  0.445000  0.748400  1.0  0.688
  C  C61  1  0.661100  0.266300  0.399000  1.0  0.0343
  C  C62  1  0.638800  0.377400  0.454300  1.0  -0.1211
  C  C63  1  0.568800  0.404300  0.302800  1.0  0.1614
  C  C64  1  0.536000  0.605500  0.422800  1.0  0.1727
  C  C65  1  0.582100  0.670900  0.523100  1.0  -0.1719
  C  C66  1  0.530000  0.786700  0.554300  1.0  -0.0435
  C  C67  1  0.444900  0.858200  0.488100  1.0  -0.1177
  C  C68  1  0.409800  0.799800  0.388900  1.0  -0.0564
  C  C69  1  0.457900  0.666667  0.359600  1.0  -0.1345
  C  C70  1  0.401200  0.989500  0.522600  1.0  0.6541
  N  N71  1  0.111000  0.189600  0.635900  1.0  -0.3981
  N  N72  1  0.947800  0.188800  0.720400  1.0  0.0355
  N  N73  1  0.229400  0.353700  0.474100  1.0  -0.3919
  N  N74  1  0.080500  0.462800  0.383500  1.0  0.0577
  N  N75  1  0.331700  0.978800  0.150100  1.0  -0.3932
  N  N76  1  0.087500  0.860000  0.058200  1.0  0.035
  N  N77  1  0.614800  0.280500  0.303800  1.0  -0.3649
  N  N78  1  0.586900  0.474500  0.395000  1.0  -0.0083
  O  O79  1  0.805900  0.169000  0.127100  1.0  -0.6308
  O  O80  1  0.567700  0.131100  0.032400  1.0  -0.5755
  O  O81  1  0.759900  0.997400  0.312000  1.0  -0.5889
  O  O82  1  0.652900  0.838300  0.166400  1.0  -0.6418
  O  O83  1  0.598200  0.407700  0.669600  1.0  -0.6305
  O  O84  1  0.447000  0.384800  0.763800  1.0  -0.6054
  O  O85  1  0.392600  0.015200  0.612400  1.0  -0.6552
  O  O86  1  0.358400  0.071500  0.468000  1.0  -0.588
