# generated using pymatgen
data_EuH8C10NO7
_symmetry_space_group_name_H-M   'P 1'
_cell_length_a   7.97000000
_cell_length_b   9.41900000
_cell_length_c   10.39100000
_cell_angle_alpha   95.79000000
_cell_angle_beta   112.08400000
_cell_angle_gamma   110.00200000
_symmetry_Int_Tables_number   1
_chemical_formula_structural   EuH8C10NO7
_chemical_formula_sum   'Eu2 H16 C20 N2 O14'
_cell_volume   655.20436036
_cell_formula_units_Z   2
loop_
 _symmetry_equiv_pos_site_id
 _symmetry_equiv_pos_as_xyz
  1  'x, y, z'
loop_
 _atom_site_type_symbol
 _atom_site_label
 _atom_site_symmetry_multiplicity
 _atom_site_fract_x
 _atom_site_fract_y
 _atom_site_fract_z
 _atom_site_occupancy
 _atom_site_charge
  Eu  Eu1  1  0.281650  0.050900  0.011010  1.0  2.1079
  Eu  Eu2  1  0.718350  0.949100  0.988990  1.0  2.1097
  H  H3  1  0.815800  0.774800  0.643500  1.0  0.1373
  H  H4  1  0.714300  0.791800  0.405400  1.0  0.1265
  H  H5  1  0.756200  0.227400  0.537200  1.0  0.1434
  H  H6  1  0.882900  0.211300  0.773900  1.0  0.1186
  H  H7  1  0.467300  0.605500  0.130600  1.0  0.1298
  H  H8  1  0.266500  0.537800  0.149200  1.0  0.1198
  H  H9  1  0.267100  0.536000  0.873100  1.0  0.1141
  H  H10  1  0.073100  0.487600  0.901000  1.0  0.1124
  H  H11  1  0.184200  0.225200  0.356500  1.0  0.1384
  H  H12  1  0.285700  0.208200  0.594600  1.0  0.1255
  H  H13  1  0.243800  0.772600  0.462800  1.0  0.1427
  H  H14  1  0.117100  0.788700  0.226100  1.0  0.1182
  H  H15  1  0.532700  0.394500  0.869400  1.0  0.1298
  H  H16  1  0.733500  0.462200  0.850800  1.0  0.1212
  H  H17  1  0.732900  0.464000  0.126900  1.0  0.1132
  H  H18  1  0.926900  0.512400  0.099000  1.0  0.111
  C  C19  1  0.808300  0.868200  0.620600  1.0  -0.0071
  C  C20  1  0.744600  0.877300  0.479500  1.0  -0.0783
  C  C21  1  0.724900  0.010800  0.446200  1.0  -0.0357
  C  C22  1  0.773000  0.135800  0.557900  1.0  -0.0924
  C  C23  1  0.844300  0.125100  0.697100  1.0  0.0069
  C  C24  1  0.653000  0.021700  0.292400  1.0  0.7338
  C  C25  1  0.324100  0.363500  0.060400  1.0  0.7294
  C  C26  1  0.327700  0.526700  0.083800  1.0  -0.3641
  C  C27  1  0.215900  0.558500  0.942400  1.0  -0.2937
  C  C28  1  0.239000  0.725000  0.964200  1.0  0.7817
  C  C29  1  0.191700  0.131800  0.379400  1.0  -0.0068
  C  C30  1  0.255400  0.122700  0.520500  1.0  -0.0787
  C  C31  1  0.275100  0.989200  0.553800  1.0  -0.0366
  C  C32  1  0.227000  0.864200  0.442100  1.0  -0.0923
  C  C33  1  0.155700  0.874900  0.302900  1.0  0.0065
  C  C34  1  0.347000  0.978300  0.707600  1.0  0.7339
  C  C35  1  0.675900  0.636500  0.939600  1.0  0.7289
  C  C36  1  0.672300  0.473300  0.916200  1.0  -0.3643
  C  C37  1  0.784100  0.441500  0.057600  1.0  -0.2933
  C  C38  1  0.761000  0.275000  0.035800  1.0  0.7826
  N  N39  1  0.859500  0.993000  0.725000  1.0  0.3283
  N  N40  1  0.140500  0.007000  0.275000  1.0  0.3291
  O  O41  1  0.927300  0.982800  0.862400  1.0  -0.7183
  O  O42  1  0.497200  0.043300  0.242000  1.0  -0.6828
  O  O43  1  0.756900  0.007100  0.230700  1.0  -0.6973
  O  O44  1  0.391600  0.313400  0.169000  1.0  -0.6326
  O  O45  1  0.256400  0.281100  0.934200  1.0  -0.6139
  O  O46  1  0.104600  0.762100  0.972400  1.0  -0.6619
  O  O47  1  0.398800  0.832500  0.976800  1.0  -0.8132
  O  O48  1  0.072700  0.017200  0.137600  1.0  -0.7181
  O  O49  1  0.502800  0.956700  0.758000  1.0  -0.6846
  O  O50  1  0.243100  0.992900  0.769300  1.0  -0.6949
  O  O51  1  0.608400  0.686600  0.831000  1.0  -0.6311
  O  O52  1  0.743600  0.718900  0.065800  1.0  -0.613
  O  O53  1  0.895400  0.237900  0.027600  1.0  -0.6622
  O  O54  1  0.601200  0.167500  0.023200  1.0  -0.8134
