# generated using pymatgen
data_TbCu4H12C18I4(NO2)3
_symmetry_space_group_name_H-M   'P 1'
_cell_length_a   15.00500000
_cell_length_b   8.34100000
_cell_length_c   29.27200000
_cell_angle_alpha   90.00000000
_cell_angle_beta   101.16700000
_cell_angle_gamma   90.00000000
_symmetry_Int_Tables_number   1
_chemical_formula_structural   TbCu4H12C18I4(NO2)3
_chemical_formula_sum   'Tb4 Cu16 H48 C72 I16 N12 O24'
_cell_volume   3594.22387505
_cell_formula_units_Z   4
loop_
 _symmetry_equiv_pos_site_id
 _symmetry_equiv_pos_as_xyz
  1  'x, y, z'
loop_
 _atom_site_type_symbol
 _atom_site_label
 _atom_site_symmetry_multiplicity
 _atom_site_fract_x
 _atom_site_fract_y
 _atom_site_fract_z
 _atom_site_occupancy
 _atom_site_charge
  Tb  Tb1  1  0.558690  0.774950  0.514580  1.0  2.2945
  Tb  Tb2  1  0.941310  0.274950  0.985420  1.0  2.2942
  Tb  Tb3  1  0.441310  0.225050  0.485420  1.0  2.2956
  Tb  Tb4  1  0.058690  0.725050  0.014580  1.0  2.2957
  Cu  Cu5  1  0.638800  0.179300  0.220280  1.0  0.1705
  Cu  Cu6  1  0.578500  0.888640  0.251730  1.0  0.1267
  Cu  Cu7  1  0.636760  0.893500  0.173950  1.0  0.1021
  Cu  Cu8  1  0.482040  0.050500  0.182210  1.0  0.1152
  Cu  Cu9  1  0.861200  0.679300  0.279720  1.0  0.172
  Cu  Cu10  1  0.921500  0.388640  0.248270  1.0  0.1271
  Cu  Cu11  1  0.863240  0.393500  0.326050  1.0  0.1018
  Cu  Cu12  1  0.017960  0.550500  0.317790  1.0  0.1149
  Cu  Cu13  1  0.361200  0.820700  0.779720  1.0  0.1694
  Cu  Cu14  1  0.421500  0.111360  0.748270  1.0  0.1267
  Cu  Cu15  1  0.363240  0.106500  0.826050  1.0  0.1019
  Cu  Cu16  1  0.517960  0.949500  0.817790  1.0  0.1152
  Cu  Cu17  1  0.138800  0.320700  0.720280  1.0  0.1721
  Cu  Cu18  1  0.078500  0.611360  0.751730  1.0  0.1263
  Cu  Cu19  1  0.136760  0.606500  0.673950  1.0  0.1019
  Cu  Cu20  1  0.982040  0.449500  0.682210  1.0  0.1156
  H  H21  1  0.205500  0.450400  0.373800  1.0  0.0985
  H  H22  1  0.335900  0.576900  0.414900  1.0  0.0937
  H  H23  1  0.227500  0.010100  0.373000  1.0  0.0991
  H  H24  1  0.097100  0.883600  0.332000  1.0  0.1018
  H  H25  1  0.685000  0.818300  0.347000  1.0  0.0922
  H  H26  1  0.664100  0.684000  0.414300  1.0  0.0992
  H  H27  1  0.425300  0.505000  0.344200  1.0  0.0976
  H  H28  1  0.446200  0.639400  0.276900  1.0  0.0967
  H  H29  1  0.108300  0.890900  0.605000  1.0  0.1
  H  H30  1  0.192200  0.020900  0.556400  1.0  0.1017
  H  H31  1  0.410900  0.745800  0.608700  1.0  0.0939
  H  H32  1  0.327000  0.615800  0.657200  1.0  0.0892
  H  H33  1  0.294500  0.950400  0.126200  1.0  0.0984
  H  H34  1  0.164100  0.076900  0.085100  1.0  0.0943
  H  H35  1  0.272500  0.510100  0.127000  1.0  0.0995
  H  H36  1  0.402900  0.383600  0.168000  1.0  0.1017
  H  H37  1  0.815000  0.318300  0.153000  1.0  0.0922
  H  H38  1  0.835900  0.184000  0.085700  1.0  0.0993
  H  H39  1  0.074700  0.005000  0.155800  1.0  0.0974
  H  H40  1  0.053800  0.139400  0.223100  1.0  0.0972
  H  H41  1  0.391700  0.390900  0.895000  1.0  0.1001
  H  H42  1  0.307800  0.520900  0.943600  1.0  0.1017
  H  H43  1  0.089100  0.245800  0.891300  1.0  0.0936
  H  H44  1  0.173000  0.115800  0.842800  1.0  0.0902
  H  H45  1  0.794500  0.549600  0.626200  1.0  0.0981
  H  H46  1  0.664100  0.423100  0.585100  1.0  0.0947
  H  H47  1  0.772500  0.989900  0.627000  1.0  0.0997
  H  H48  1  0.902900  0.116400  0.668000  1.0  0.1022
  H  H49  1  0.315000  0.181700  0.653000  1.0  0.0922
  H  H50  1  0.335900  0.316000  0.585700  1.0  0.1006
  H  H51  1  0.574700  0.495000  0.655800  1.0  0.0974
  H  H52  1  0.553800  0.360600  0.723100  1.0  0.0972
  H  H53  1  0.891700  0.109100  0.395000  1.0  0.1005
  H  H54  1  0.807800  0.979100  0.443600  1.0  0.1019
  H  H55  1  0.589100  0.254200  0.391300  1.0  0.0944
  H  H56  1  0.673000  0.384200  0.342800  1.0  0.0898
  H  H57  1  0.705500  0.049600  0.873800  1.0  0.098
  H  H58  1  0.835900  0.923100  0.914900  1.0  0.0934
  H  H59  1  0.727500  0.489900  0.873000  1.0  0.0992
  H  H60  1  0.597100  0.616400  0.832000  1.0  0.1017
  H  H61  1  0.185000  0.681700  0.847000  1.0  0.0922
  H  H62  1  0.164100  0.816000  0.914300  1.0  0.1003
  H  H63  1  0.925300  0.995000  0.844200  1.0  0.0972
  H  H64  1  0.946200  0.860600  0.776900  1.0  0.0966
  H  H65  1  0.608300  0.609100  0.105000  1.0  0.1002
  H  H66  1  0.692200  0.479100  0.056400  1.0  0.1015
  H  H67  1  0.910900  0.754200  0.108700  1.0  0.0945
  H  H68  1  0.827000  0.884200  0.157200  1.0  0.0886
  C  C69  1  0.209920  0.564000  0.373620  1.0  0.1152
  C  C70  1  0.287380  0.639100  0.398020  1.0  -0.0513
  C  C71  1  0.293930  0.805400  0.397810  1.0  -0.1304
  C  C72  1  0.223010  0.896500  0.373190  1.0  -0.0731
  C  C73  1  0.145550  0.821400  0.348780  1.0  0.1072
  C  C74  1  0.378200  0.884700  0.428870  1.0  0.6949
  C  C75  1  0.632300  0.754700  0.346410  1.0  0.1561
  C  C76  1  0.619880  0.674900  0.386390  1.0  -0.0703
  C  C77  1  0.542730  0.581900  0.385590  1.0  -0.0853
  C  C78  1  0.478010  0.568600  0.344790  1.0  -0.0613
  C  C79  1  0.490430  0.648400  0.304810  1.0  0.1257
  C  C80  1  0.527100  0.504100  0.431000  1.0  0.6674
  C  C81  1  0.169750  0.861500  0.605750  1.0  0.128
  C  C82  1  0.219580  0.938700  0.576890  1.0  -0.0513
  C  C83  1  0.309450  0.895600  0.577980  1.0  -0.1385
  C  C84  1  0.349500  0.775300  0.607920  1.0  -0.0617
  C  C85  1  0.299660  0.698100  0.636780  1.0  0.1363
  C  C86  1  0.365100  0.972900  0.544940  1.0  0.6961
  C  C87  1  0.290080  0.064000  0.126380  1.0  0.1158
  C  C88  1  0.212620  0.139100  0.101980  1.0  -0.0506
  C  C89  1  0.206070  0.305400  0.102190  1.0  -0.1303
  C  C90  1  0.276990  0.396500  0.126810  1.0  -0.0729
  C  C91  1  0.354450  0.321400  0.151220  1.0  0.1083
  C  C92  1  0.121800  0.384700  0.071130  1.0  0.6951
  C  C93  1  0.867700  0.254700  0.153590  1.0  0.1577
  C  C94  1  0.880120  0.174900  0.113610  1.0  -0.07
  C  C95  1  0.957270  0.081900  0.114410  1.0  -0.0841
  C  C96  1  0.021990  0.068600  0.155210  1.0  -0.0612
  C  C97  1  0.009570  0.148400  0.195190  1.0  0.1268
  C  C98  1  0.972900  0.004100  0.069000  1.0  0.6691
  C  C99  1  0.330250  0.361500  0.894250  1.0  0.1279
  C  C100  1  0.280420  0.438700  0.923110  1.0  -0.0511
  C  C101  1  0.190550  0.395600  0.922020  1.0  -0.1395
  C  C102  1  0.150500  0.275300  0.892080  1.0  -0.0599
  C  C103  1  0.200340  0.198100  0.863220  1.0  0.1365
  C  C104  1  0.134900  0.472900  0.955060  1.0  0.6963
  C  C105  1  0.790080  0.436000  0.626380  1.0  0.1168
  C  C106  1  0.712620  0.360900  0.601980  1.0  -0.051
  C  C107  1  0.706070  0.194600  0.602190  1.0  -0.1307
  C  C108  1  0.776990  0.103500  0.626810  1.0  -0.0738
  C  C109  1  0.854450  0.178600  0.651220  1.0  0.1087
  C  C110  1  0.621800  0.115300  0.571130  1.0  0.6949
  C  C111  1  0.367700  0.245300  0.653590  1.0  0.158
  C  C112  1  0.380120  0.325100  0.613610  1.0  -0.0703
  C  C113  1  0.457270  0.418100  0.614410  1.0  -0.084
  C  C114  1  0.521990  0.431400  0.655210  1.0  -0.0614
  C  C115  1  0.509570  0.351600  0.695190  1.0  0.1271
  C  C116  1  0.472900  0.495900  0.569000  1.0  0.6692
  C  C117  1  0.830250  0.138500  0.394250  1.0  0.1278
  C  C118  1  0.780420  0.061300  0.423110  1.0  -0.0513
  C  C119  1  0.690550  0.104400  0.422020  1.0  -0.1391
  C  C120  1  0.650500  0.224700  0.392080  1.0  -0.0598
  C  C121  1  0.700340  0.301900  0.363220  1.0  0.1368
  C  C122  1  0.634900  0.027100  0.455060  1.0  0.6962
  C  C123  1  0.709920  0.936000  0.873620  1.0  0.1174
  C  C124  1  0.787380  0.860900  0.898020  1.0  -0.0518
  C  C125  1  0.793930  0.694600  0.897810  1.0  -0.1299
  C  C126  1  0.723010  0.603500  0.873190  1.0  -0.0738
  C  C127  1  0.645550  0.678600  0.848780  1.0  0.1075
  C  C128  1  0.878200  0.615300  0.928870  1.0  0.6951
  C  C129  1  0.132300  0.745300  0.846410  1.0  0.1567
  C  C130  1  0.119880  0.825100  0.886390  1.0  -0.0705
  C  C131  1  0.042730  0.918100  0.885590  1.0  -0.0854
  C  C132  1  0.978010  0.931400  0.844790  1.0  -0.0622
  C  C133  1  0.990430  0.851600  0.804810  1.0  0.1259
  C  C134  1  0.027100  0.995900  0.931000  1.0  0.667
  C  C135  1  0.669750  0.638500  0.105750  1.0  0.1274
  C  C136  1  0.719580  0.561300  0.076890  1.0  -0.0507
  C  C137  1  0.809450  0.604400  0.077980  1.0  -0.1391
  C  C138  1  0.849500  0.724700  0.107920  1.0  -0.0615
  C  C139  1  0.799660  0.801900  0.136780  1.0  0.1366
  C  C140  1  0.865100  0.527100  0.044940  1.0  0.6958
  I  I141  1  0.761130  0.942980  0.255640  1.0  -0.1805
  I  I142  1  0.600340  0.173080  0.126770  1.0  -0.2862
  I  I143  1  0.477610  0.739740  0.174030  1.0  -0.2518
  I  I144  1  0.505400  0.172300  0.268700  1.0  -0.2922
  I  I145  1  0.738870  0.442980  0.244360  1.0  -0.1795
  I  I146  1  0.899660  0.673080  0.373230  1.0  -0.285
  I  I147  1  0.022390  0.239740  0.325970  1.0  -0.2525
  I  I148  1  0.994600  0.672300  0.231300  1.0  -0.2919
  I  I149  1  0.238870  0.057020  0.744360  1.0  -0.1798
  I  I150  1  0.399660  0.826920  0.873230  1.0  -0.2846
  I  I151  1  0.522390  0.260260  0.825970  1.0  -0.2525
  I  I152  1  0.494600  0.827700  0.731300  1.0  -0.2919
  I  I153  1  0.261130  0.557020  0.755640  1.0  -0.1811
  I  I154  1  0.100340  0.326920  0.626770  1.0  -0.286
  I  I155  1  0.977610  0.760260  0.674030  1.0  -0.2519
  I  I156  1  0.005400  0.327700  0.768700  1.0  -0.2921
  N  N157  1  0.139010  0.655100  0.349000  1.0  -0.2942
  N  N158  1  0.567580  0.741500  0.305620  1.0  -0.304
  N  N159  1  0.209790  0.741200  0.635700  1.0  -0.3009
  N  N160  1  0.360990  0.155100  0.151000  1.0  -0.2923
  N  N161  1  0.932420  0.241500  0.194380  1.0  -0.3047
  N  N162  1  0.290210  0.241200  0.864300  1.0  -0.304
  N  N163  1  0.860990  0.344900  0.651000  1.0  -0.2928
  N  N164  1  0.432420  0.258500  0.694380  1.0  -0.3033
  N  N165  1  0.790210  0.258800  0.364300  1.0  -0.3046
  N  N166  1  0.639010  0.844900  0.849000  1.0  -0.2935
  N  N167  1  0.067580  0.758500  0.805620  1.0  -0.3043
  N  N168  1  0.709790  0.758800  0.135700  1.0  -0.3013
  O  O169  1  0.445300  0.798400  0.447080  1.0  -0.705
  O  O170  1  0.372400  0.032900  0.433990  1.0  -0.694
  O  O171  1  0.573600  0.551300  0.469640  1.0  -0.7091
  O  O172  1  0.468100  0.394200  0.426730  1.0  -0.6131
  O  O173  1  0.337900  0.105600  0.528050  1.0  -0.6377
  O  O174  1  0.436000  0.904000  0.536620  1.0  -0.8167
  O  O175  1  0.054700  0.298400  0.052920  1.0  -0.7052
  O  O176  1  0.127600  0.532900  0.066010  1.0  -0.6934
  O  O177  1  0.926400  0.051300  0.030360  1.0  -0.7083
  O  O178  1  0.031900  0.894200  0.073270  1.0  -0.6131
  O  O179  1  0.162100  0.605600  0.971950  1.0  -0.6377
  O  O180  1  0.064000  0.404000  0.963380  1.0  -0.8165
  O  O181  1  0.554700  0.201600  0.552920  1.0  -0.7048
  O  O182  1  0.627600  0.967100  0.566010  1.0  -0.6934
  O  O183  1  0.426400  0.448700  0.530360  1.0  -0.7085
  O  O184  1  0.531900  0.605800  0.573270  1.0  -0.612
  O  O185  1  0.662100  0.894400  0.471950  1.0  -0.6378
  O  O186  1  0.564000  0.096000  0.463380  1.0  -0.8159
  O  O187  1  0.945300  0.701600  0.947080  1.0  -0.705
  O  O188  1  0.872400  0.467100  0.933990  1.0  -0.6939
  O  O189  1  0.073600  0.948700  0.969640  1.0  -0.7092
  O  O190  1  0.968100  0.105800  0.926730  1.0  -0.613
  O  O191  1  0.837900  0.394400  0.028050  1.0  -0.6376
  O  O192  1  0.936000  0.596000  0.036620  1.0  -0.8163
