# generated using pymatgen
data_TbCu4H12C18I4(NO2)3
_symmetry_space_group_name_H-M   'P 1'
_cell_length_a   15.07400000
_cell_length_b   24.98180000
_cell_length_c   29.61250000
_cell_angle_alpha   90.00000000
_cell_angle_beta   107.80100000
_cell_angle_gamma   90.00000000
_symmetry_Int_Tables_number   1
_chemical_formula_structural   TbCu4H12C18I4(NO2)3
_chemical_formula_sum   'Tb12 Cu48 H144 C216 I48 N36 O72'
_cell_volume   10617.46530184
_cell_formula_units_Z   12
loop_
 _symmetry_equiv_pos_site_id
 _symmetry_equiv_pos_as_xyz
  1  'x, y, z'
loop_
 _atom_site_type_symbol
 _atom_site_label
 _atom_site_symmetry_multiplicity
 _atom_site_fract_x
 _atom_site_fract_y
 _atom_site_fract_z
 _atom_site_occupancy
 _atom_site_charge
  Tb  Tb1  1  0.964530  0.579900  0.513850  1.0  2.3167
  Tb  Tb2  1  0.956280  0.900560  0.534560  1.0  2.3069
  Tb  Tb3  1  0.038960  0.741630  0.495430  1.0  2.3254
  Tb  Tb4  1  0.035470  0.079900  0.986150  1.0  2.3141
  Tb  Tb5  1  0.043720  0.400560  0.965440  1.0  2.3048
  Tb  Tb6  1  0.961030  0.241630  0.004570  1.0  2.3263
  Tb  Tb7  1  0.035470  0.420100  0.486150  1.0  2.3143
  Tb  Tb8  1  0.043720  0.099440  0.465440  1.0  2.3058
  Tb  Tb9  1  0.961030  0.258370  0.504570  1.0  2.3269
  Tb  Tb10  1  0.964530  0.920100  0.013850  1.0  2.3151
  Tb  Tb11  1  0.956280  0.599440  0.034560  1.0  2.3069
  Tb  Tb12  1  0.038960  0.758370  0.995430  1.0  2.3264
  Cu  Cu13  1  0.520600  0.622220  0.682140  1.0  0.1635
  Cu  Cu14  1  0.679270  0.670530  0.687680  1.0  0.1706
  Cu  Cu15  1  0.653050  0.622810  0.760050  1.0  0.163
  Cu  Cu16  1  0.564500  0.718510  0.722800  1.0  0.2144
  Cu  Cu17  1  0.326900  0.797990  0.748890  1.0  0.1376
  Cu  Cu18  1  0.463380  0.794430  0.826400  1.0  0.1417
  Cu  Cu19  1  0.317310  0.853140  0.823270  1.0  0.1327
  Cu  Cu20  1  0.433390  0.894460  0.782290  1.0  0.2838
  Cu  Cu21  1  0.539760  0.956870  0.665940  1.0  0.15
  Cu  Cu22  1  0.682640  0.960150  0.743080  1.0  0.1439
  Cu  Cu23  1  0.705130  0.014760  0.665380  1.0  0.1351
  Cu  Cu24  1  0.405530  0.554840  0.788770  1.0  0.2108
  Cu  Cu25  1  0.479400  0.122220  0.817860  1.0  0.1637
  Cu  Cu26  1  0.320730  0.170530  0.812320  1.0  0.1699
  Cu  Cu27  1  0.346950  0.122810  0.739950  1.0  0.1622
  Cu  Cu28  1  0.435500  0.218510  0.777200  1.0  0.2151
  Cu  Cu29  1  0.673100  0.297990  0.751110  1.0  0.1396
  Cu  Cu30  1  0.536620  0.294430  0.673600  1.0  0.1416
  Cu  Cu31  1  0.682690  0.353140  0.676730  1.0  0.1329
  Cu  Cu32  1  0.566610  0.394460  0.717700  1.0  0.2868
  Cu  Cu33  1  0.460240  0.456870  0.834060  1.0  0.1474
  Cu  Cu34  1  0.317360  0.460150  0.756920  1.0  0.1419
  Cu  Cu35  1  0.294870  0.514760  0.834610  1.0  0.1347
  Cu  Cu36  1  0.594470  0.054840  0.711230  1.0  0.2093
  Cu  Cu37  1  0.479400  0.377780  0.317860  1.0  0.1637
  Cu  Cu38  1  0.320730  0.329470  0.312320  1.0  0.17
  Cu  Cu39  1  0.346950  0.377190  0.239950  1.0  0.1615
  Cu  Cu40  1  0.435500  0.281490  0.277200  1.0  0.2146
  Cu  Cu41  1  0.673100  0.202010  0.251110  1.0  0.1387
  Cu  Cu42  1  0.536620  0.205570  0.173600  1.0  0.1416
  Cu  Cu43  1  0.682690  0.146860  0.176730  1.0  0.1333
  Cu  Cu44  1  0.566610  0.105540  0.217700  1.0  0.2835
  Cu  Cu45  1  0.460240  0.043130  0.334060  1.0  0.1473
  Cu  Cu46  1  0.317360  0.039850  0.256920  1.0  0.1416
  Cu  Cu47  1  0.294870  0.985240  0.334610  1.0  0.1349
  Cu  Cu48  1  0.594470  0.445160  0.211230  1.0  0.2091
  Cu  Cu49  1  0.520600  0.877780  0.182140  1.0  0.1633
  Cu  Cu50  1  0.679270  0.829470  0.187680  1.0  0.1708
  Cu  Cu51  1  0.653050  0.877190  0.260050  1.0  0.1622
  Cu  Cu52  1  0.564500  0.781490  0.222800  1.0  0.2105
  Cu  Cu53  1  0.326900  0.702010  0.248890  1.0  0.1369
  Cu  Cu54  1  0.463380  0.705570  0.326400  1.0  0.142
  Cu  Cu55  1  0.317310  0.646860  0.323270  1.0  0.133
  Cu  Cu56  1  0.433390  0.605540  0.282300  1.0  0.2838
  Cu  Cu57  1  0.539760  0.543130  0.165940  1.0  0.1498
  Cu  Cu58  1  0.682640  0.539850  0.243080  1.0  0.1435
  Cu  Cu59  1  0.705130  0.485240  0.165390  1.0  0.1352
  Cu  Cu60  1  0.405530  0.945160  0.288770  1.0  0.2107
  H  H61  1  0.324300  0.606400  0.674700  1.0  0.0785
  H  H62  1  0.191000  0.566200  0.625600  1.0  0.1319
  H  H63  1  0.350600  0.493600  0.555900  1.0  0.128
  H  H64  1  0.479300  0.537300  0.605900  1.0  0.0925
  H  H65  1  0.173300  0.822700  0.869300  1.0  0.0818
  H  H66  1  0.083800  0.861800  0.910700  1.0  0.1129
  H  H67  1  0.182000  0.005800  0.887200  1.0  0.1225
  H  H68  1  0.273700  0.962400  0.848600  1.0  0.0921
  H  H69  1  0.337700  0.753500  0.657000  1.0  0.0796
  H  H70  1  0.249900  0.701200  0.594100  1.0  0.1206
  H  H71  1  0.073400  0.670400  0.670100  1.0  0.1216
  H  H72  1  0.162400  0.725800  0.729200  1.0  0.0874
  H  H73  1  0.675900  0.931600  0.840000  1.0  0.0828
  H  H74  1  0.765300  0.887300  0.907700  1.0  0.1223
  H  H75  1  0.936200  0.837200  0.834100  1.0  0.1295
  H  H76  1  0.843700  0.883600  0.769100  1.0  0.0863
  H  H77  1  0.826800  0.635300  0.645600  1.0  0.0865
  H  H78  1  0.921000  0.671300  0.604600  1.0  0.1228
  H  H79  1  0.821800  0.817800  0.622000  1.0  0.1232
  H  H80  1  0.730400  0.778000  0.663000  1.0  0.092
  H  H81  1  0.484000  0.851500  0.610200  1.0  0.0949
  H  H82  1  0.349000  0.804100  0.572400  1.0  0.1235
  H  H83  1  0.201100  0.920000  0.612800  1.0  0.1095
  H  H84  1  0.339200  0.964600  0.648600  1.0  0.0779
  H  H85  1  0.745300  0.126200  0.642200  1.0  0.0923
  H  H86  1  0.826100  0.173000  0.599800  1.0  0.1227
  H  H87  1  0.926800  0.031900  0.568900  1.0  0.1132
  H  H88  1  0.844900  0.988900  0.612800  1.0  0.0855
  H  H89  1  0.661800  0.796800  0.843800  1.0  0.0832
  H  H90  1  0.798400  0.761500  0.892800  1.0  0.1217
  H  H91  1  0.646800  0.661600  0.947100  1.0  0.1262
  H  H92  1  0.512500  0.699500  0.896500  1.0  0.1003
  H  H93  1  0.802600  0.537600  0.789000  1.0  0.0803
  H  H94  1  0.895100  0.498300  0.858400  1.0  0.1317
  H  H95  1  0.735800  0.570500  0.928300  1.0  0.1211
  H  H96  1  0.648000  0.608700  0.857000  1.0  0.0861
  H  H97  1  0.675700  0.106400  0.825300  1.0  0.081
  H  H98  1  0.809000  0.066200  0.874400  1.0  0.1322
  H  H99  1  0.649400  0.993600  0.944100  1.0  0.1292
  H  H100  1  0.520700  0.037300  0.894100  1.0  0.0938
  H  H101  1  0.826700  0.322700  0.630700  1.0  0.0817
  H  H102  1  0.916200  0.361800  0.589300  1.0  0.113
  H  H103  1  0.818000  0.505800  0.612800  1.0  0.1225
  H  H104  1  0.726300  0.462400  0.651400  1.0  0.0925
  H  H105  1  0.662300  0.253500  0.843000  1.0  0.0797
  H  H106  1  0.750100  0.201200  0.905900  1.0  0.1192
  H  H107  1  0.926600  0.170400  0.829900  1.0  0.122
  H  H108  1  0.837600  0.225800  0.770800  1.0  0.0884
  H  H109  1  0.324100  0.431600  0.660000  1.0  0.0826
  H  H110  1  0.234700  0.387300  0.592300  1.0  0.1228
  H  H111  1  0.063800  0.337200  0.665900  1.0  0.1293
  H  H112  1  0.156300  0.383600  0.730900  1.0  0.0848
  H  H113  1  0.173200  0.135300  0.854400  1.0  0.0865
  H  H114  1  0.079000  0.171300  0.895400  1.0  0.1231
  H  H115  1  0.178200  0.317800  0.878000  1.0  0.1232
  H  H116  1  0.269600  0.278000  0.837000  1.0  0.0917
  H  H117  1  0.516000  0.351500  0.889800  1.0  0.096
  H  H118  1  0.651000  0.304100  0.927600  1.0  0.1242
  H  H119  1  0.798900  0.420000  0.887200  1.0  0.11
  H  H120  1  0.660800  0.464600  0.851400  1.0  0.0783
  H  H121  1  0.254700  0.626200  0.857800  1.0  0.0923
  H  H122  1  0.173900  0.673000  0.900200  1.0  0.1225
  H  H123  1  0.073200  0.531900  0.931100  1.0  0.1135
  H  H124  1  0.155100  0.488900  0.887200  1.0  0.0856
  H  H125  1  0.338200  0.296800  0.656200  1.0  0.0835
  H  H126  1  0.201600  0.261500  0.607200  1.0  0.1225
  H  H127  1  0.353200  0.161600  0.552900  1.0  0.1249
  H  H128  1  0.487500  0.199500  0.603500  1.0  0.0998
  H  H129  1  0.197400  0.037600  0.711000  1.0  0.0796
  H  H130  1  0.104900  0.998300  0.641600  1.0  0.1309
  H  H131  1  0.264200  0.070500  0.571700  1.0  0.1212
  H  H132  1  0.352000  0.108700  0.643000  1.0  0.0862
  H  H133  1  0.675700  0.393600  0.325300  1.0  0.0827
  H  H134  1  0.809000  0.433800  0.374400  1.0  0.132
  H  H135  1  0.649400  0.506400  0.444100  1.0  0.1285
  H  H136  1  0.520700  0.462700  0.394100  1.0  0.0947
  H  H137  1  0.826700  0.177300  0.130700  1.0  0.0805
  H  H138  1  0.916200  0.138200  0.089300  1.0  0.1132
  H  H139  1  0.818000  0.994200  0.112800  1.0  0.1227
  H  H140  1  0.726300  0.037600  0.151400  1.0  0.0939
  H  H141  1  0.662300  0.246500  0.343000  1.0  0.0798
  H  H142  1  0.750100  0.298800  0.405900  1.0  0.1187
  H  H143  1  0.926600  0.329600  0.329900  1.0  0.1221
  H  H144  1  0.837600  0.274200  0.270800  1.0  0.0885
  H  H145  1  0.324100  0.068400  0.160000  1.0  0.083
  H  H146  1  0.234700  0.112700  0.092300  1.0  0.1225
  H  H147  1  0.063800  0.162800  0.165900  1.0  0.1294
  H  H148  1  0.156300  0.116400  0.230900  1.0  0.0849
  H  H149  1  0.173200  0.364700  0.354400  1.0  0.0863
  H  H150  1  0.079000  0.328700  0.395400  1.0  0.1225
  H  H151  1  0.178200  0.182200  0.378000  1.0  0.1231
  H  H152  1  0.269600  0.222000  0.337000  1.0  0.0926
  H  H153  1  0.516000  0.148500  0.389800  1.0  0.096
  H  H154  1  0.651000  0.195900  0.427600  1.0  0.124
  H  H155  1  0.798900  0.080000  0.387200  1.0  0.1104
  H  H156  1  0.660800  0.035400  0.351400  1.0  0.0783
  H  H157  1  0.254700  0.873800  0.357800  1.0  0.0929
  H  H158  1  0.173900  0.827000  0.400200  1.0  0.122
  H  H159  1  0.073200  0.968100  0.431100  1.0  0.1135
  H  H160  1  0.155100  0.011100  0.387200  1.0  0.0851
  H  H161  1  0.338200  0.203200  0.156200  1.0  0.0842
  H  H162  1  0.201600  0.238500  0.107200  1.0  0.1225
  H  H163  1  0.353200  0.338400  0.052900  1.0  0.1251
  H  H164  1  0.487500  0.300500  0.103500  1.0  0.0998
  H  H165  1  0.197400  0.462400  0.211000  1.0  0.0794
  H  H166  1  0.104900  0.501700  0.141600  1.0  0.1311
  H  H167  1  0.264200  0.429500  0.071700  1.0  0.1214
  H  H168  1  0.352000  0.391300  0.143000  1.0  0.0863
  H  H169  1  0.324300  0.893600  0.174700  1.0  0.0812
  H  H170  1  0.191000  0.933800  0.125600  1.0  0.1319
  H  H171  1  0.350600  0.006400  0.055900  1.0  0.1281
  H  H172  1  0.479300  0.962700  0.105900  1.0  0.0941
  H  H173  1  0.173300  0.677300  0.369300  1.0  0.0803
  H  H174  1  0.083800  0.638200  0.410700  1.0  0.1131
  H  H175  1  0.182000  0.494200  0.387200  1.0  0.1226
  H  H176  1  0.273700  0.537600  0.348600  1.0  0.0921
  H  H177  1  0.337700  0.746500  0.157000  1.0  0.0799
  H  H178  1  0.249900  0.798800  0.094100  1.0  0.1202
  H  H179  1  0.073400  0.829600  0.170100  1.0  0.1212
  H  H180  1  0.162400  0.774200  0.229200  1.0  0.0889
  H  H181  1  0.675900  0.568400  0.340000  1.0  0.0831
  H  H182  1  0.765300  0.612700  0.407700  1.0  0.1221
  H  H183  1  0.936200  0.662800  0.334100  1.0  0.1297
  H  H184  1  0.843700  0.616400  0.269100  1.0  0.0863
  H  H185  1  0.826800  0.864700  0.145600  1.0  0.0865
  H  H186  1  0.921000  0.828700  0.104600  1.0  0.1227
  H  H187  1  0.821800  0.682200  0.122000  1.0  0.1231
  H  H188  1  0.730400  0.722000  0.163000  1.0  0.0927
  H  H189  1  0.484000  0.648500  0.110200  1.0  0.0953
  H  H190  1  0.349000  0.695900  0.072400  1.0  0.124
  H  H191  1  0.201100  0.580000  0.112800  1.0  0.1103
  H  H192  1  0.339200  0.535400  0.148600  1.0  0.0784
  H  H193  1  0.745300  0.373800  0.142200  1.0  0.0937
  H  H194  1  0.826100  0.327000  0.099800  1.0  0.1223
  H  H195  1  0.926800  0.468100  0.068900  1.0  0.1131
  H  H196  1  0.844900  0.511100  0.112800  1.0  0.0851
  H  H197  1  0.661800  0.703200  0.343800  1.0  0.0834
  H  H198  1  0.798400  0.738500  0.392800  1.0  0.1218
  H  H199  1  0.646800  0.838400  0.447100  1.0  0.1257
  H  H200  1  0.512500  0.800500  0.396500  1.0  0.1001
  H  H201  1  0.802600  0.962400  0.289000  1.0  0.0809
  H  H202  1  0.895100  0.001700  0.358400  1.0  0.1318
  H  H203  1  0.735800  0.929500  0.428300  1.0  0.1213
  H  H204  1  0.648000  0.891300  0.357000  1.0  0.086
  C  C205  1  0.329300  0.584260  0.649520  1.0  0.1693
  C  C206  1  0.249500  0.560200  0.620580  1.0  -0.1746
  C  C207  1  0.256200  0.527230  0.584220  1.0  -0.1167
  C  C208  1  0.343300  0.517580  0.579380  1.0  -0.1651
  C  C209  1  0.419700  0.543660  0.609520  1.0  0.1465
  C  C210  1  0.170300  0.502390  0.551110  1.0  0.7325
  C  C211  1  0.176600  0.860400  0.873760  1.0  0.1526
  C  C212  1  0.122400  0.883550  0.898130  1.0  -0.1592
  C  C213  1  0.123900  0.938350  0.904480  1.0  -0.0734
  C  C214  1  0.180400  0.967890  0.884800  1.0  -0.1457
  C  C215  1  0.234300  0.941690  0.861500  1.0  0.1287
  C  C216  1  0.068000  0.964270  0.933130  1.0  0.7141
  C  C217  1  0.282100  0.737420  0.659170  1.0  0.1796
  C  C218  1  0.230200  0.706040  0.621430  1.0  -0.1553
  C  C219  1  0.149200  0.681940  0.624410  1.0  -0.1012
  C  C220  1  0.126100  0.688310  0.666050  1.0  -0.1698
  C  C221  1  0.180200  0.720830  0.701400  1.0  0.1368
  C  C222  1  0.085900  0.650190  0.584010  1.0  0.6864
  C  C223  1  0.730300  0.913000  0.839060  1.0  0.1704
  C  C224  1  0.783500  0.886700  0.879730  1.0  -0.1551
  C  C225  1  0.863200  0.859570  0.879030  1.0  -0.0482
  C  C226  1  0.884300  0.857280  0.836500  1.0  -0.1562
  C  C227  1  0.828200  0.884810  0.797830  1.0  0.1331
  C  C228  1  0.924500  0.830790  0.922300  1.0  0.667
  C  C229  1  0.824500  0.672760  0.639990  1.0  0.1567
  C  C230  1  0.880900  0.693780  0.615430  1.0  -0.1529
  C  C231  1  0.877700  0.748220  0.606910  1.0  -0.1042
  C  C232  1  0.822400  0.780030  0.625760  1.0  -0.0999
  C  C233  1  0.768100  0.756080  0.650090  1.0  0.1446
  C  C234  1  0.929800  0.773060  0.575920  1.0  0.72
  C  C235  1  0.425700  0.865840  0.610200  1.0  0.1512
  C  C236  1  0.345300  0.837060  0.587730  1.0  -0.1302
  C  C237  1  0.259200  0.857410  0.588070  1.0  -0.0613
  C  C238  1  0.258400  0.905340  0.611410  1.0  -0.1373
  C  C239  1  0.341200  0.931830  0.632740  1.0  0.1699
  C  C240  1  0.169100  0.828380  0.563920  1.0  0.7379
  C  C241  1  0.782100  0.106850  0.626850  1.0  0.143
  C  C242  1  0.830300  0.135070  0.601690  1.0  -0.1222
  C  C243  1  0.885000  0.107520  0.579030  1.0  -0.0784
  C  C244  1  0.889700  0.052130  0.583560  1.0  -0.1355
  C  C245  1  0.840000  0.026680  0.609560  1.0  0.1387
  C  C246  1  0.937300  0.136780  0.550230  1.0  0.7003
  C  C247  1  0.658500  0.769500  0.865600  1.0  0.162
  C  C248  1  0.740300  0.748630  0.894690  1.0  -0.1624
  C  C249  1  0.737900  0.708890  0.926630  1.0  -0.118
  C  C250  1  0.651300  0.689980  0.926560  1.0  -0.1596
  C  C251  1  0.571400  0.712770  0.896250  1.0  0.1414
  C  C252  1  0.827800  0.687180  0.959860  1.0  0.7114
  C  C253  1  0.789700  0.545040  0.817830  1.0  0.143
  C  C254  1  0.845500  0.521380  0.859100  1.0  -0.1569
  C  C255  1  0.827500  0.532080  0.901330  1.0  -0.1218
  C  C256  1  0.751800  0.564000  0.900100  1.0  -0.1357
  C  C257  1  0.699300  0.586430  0.857340  1.0  0.1727
  C  C258  1  0.888000  0.508070  0.947510  1.0  0.7093
  C  C259  1  0.670700  0.084260  0.850480  1.0  0.1636
  C  C260  1  0.750500  0.060200  0.879420  1.0  -0.1681
  C  C261  1  0.743800  0.027230  0.915780  1.0  -0.1184
  C  C262  1  0.656700  0.017580  0.920620  1.0  -0.1629
  C  C263  1  0.580300  0.043660  0.890480  1.0  0.1492
  C  C264  1  0.829700  0.002390  0.948890  1.0  0.7321
  C  C265  1  0.823400  0.360400  0.626240  1.0  0.1515
  C  C266  1  0.877600  0.383550  0.601870  1.0  -0.1504
  C  C267  1  0.876100  0.438350  0.595520  1.0  -0.0761
  C  C268  1  0.819600  0.467890  0.615200  1.0  -0.144
  C  C269  1  0.765700  0.441690  0.638500  1.0  0.1356
  C  C270  1  0.932000  0.464270  0.566870  1.0  0.7347
  C  C271  1  0.717900  0.237420  0.840830  1.0  0.1794
  C  C272  1  0.769800  0.206040  0.878570  1.0  -0.1537
  C  C273  1  0.850800  0.181940  0.875590  1.0  -0.1009
  C  C274  1  0.873900  0.188310  0.833950  1.0  -0.164
  C  C275  1  0.819800  0.220830  0.798600  1.0  0.1378
  C  C276  1  0.914100  0.150190  0.915990  1.0  0.6861
  C  C277  1  0.269700  0.413000  0.660940  1.0  0.17
  C  C278  1  0.216500  0.386700  0.620270  1.0  -0.16
  C  C279  1  0.136800  0.359570  0.620970  1.0  -0.0493
  C  C280  1  0.115700  0.357280  0.663500  1.0  -0.1609
  C  C281  1  0.171800  0.384810  0.702170  1.0  0.1371
  C  C282  1  0.075500  0.330790  0.577700  1.0  0.6668
  C  C283  1  0.175500  0.172760  0.860010  1.0  0.1592
  C  C284  1  0.119100  0.193780  0.884570  1.0  -0.155
  C  C285  1  0.122300  0.248220  0.893090  1.0  -0.1042
  C  C286  1  0.177600  0.280030  0.874240  1.0  -0.1
  C  C287  1  0.231900  0.256080  0.849910  1.0  0.1423
  C  C288  1  0.070200  0.273060  0.924080  1.0  0.7079
  C  C289  1  0.574300  0.365840  0.889800  1.0  0.1519
  C  C290  1  0.654700  0.337060  0.912270  1.0  -0.1311
  C  C291  1  0.740800  0.357410  0.911930  1.0  -0.0633
  C  C292  1  0.741600  0.405340  0.888590  1.0  -0.1324
  C  C293  1  0.658800  0.431830  0.867260  1.0  0.1647
  C  C294  1  0.830900  0.328380  0.936080  1.0  0.7385
  C  C295  1  0.217900  0.606850  0.873150  1.0  0.1375
  C  C296  1  0.169700  0.635070  0.898310  1.0  -0.1233
  C  C297  1  0.115000  0.607520  0.920970  1.0  -0.0745
  C  C298  1  0.110300  0.552130  0.916440  1.0  -0.138
  C  C299  1  0.160000  0.526680  0.890440  1.0  0.142
  C  C300  1  0.062700  0.636780  0.949770  1.0  0.6982
  C  C301  1  0.341500  0.269500  0.634400  1.0  0.1649
  C  C302  1  0.259700  0.248630  0.605310  1.0  -0.1665
  C  C303  1  0.262100  0.208890  0.573370  1.0  -0.1188
  C  C304  1  0.348700  0.189980  0.573440  1.0  -0.1592
  C  C305  1  0.428600  0.212770  0.603750  1.0  0.1409
  C  C306  1  0.172200  0.187180  0.540140  1.0  0.7125
  C  C307  1  0.210300  0.045040  0.682170  1.0  0.1483
  C  C308  1  0.154500  0.021380  0.640900  1.0  -0.1619
  C  C309  1  0.172500  0.032080  0.598670  1.0  -0.1237
  C  C310  1  0.248200  0.064000  0.599900  1.0  -0.1357
  C  C311  1  0.300700  0.086430  0.642660  1.0  0.1738
  C  C312  1  0.112000  0.008070  0.552490  1.0  0.7227
  C  C313  1  0.670700  0.415740  0.350480  1.0  0.1633
  C  C314  1  0.750500  0.439800  0.379420  1.0  -0.1678
  C  C315  1  0.743800  0.472770  0.415780  1.0  -0.1186
  C  C316  1  0.656700  0.482420  0.420620  1.0  -0.1625
  C  C317  1  0.580300  0.456340  0.390480  1.0  0.1483
  C  C318  1  0.829700  0.497610  0.448890  1.0  0.732
  C  C319  1  0.823400  0.139600  0.126240  1.0  0.1496
  C  C320  1  0.877600  0.116450  0.101870  1.0  -0.1521
  C  C321  1  0.876100  0.061650  0.095520  1.0  -0.0768
  C  C322  1  0.819600  0.032110  0.115200  1.0  -0.1417
  C  C323  1  0.765700  0.058310  0.138500  1.0  0.1374
  C  C324  1  0.932000  0.035730  0.066870  1.0  0.7347
  C  C325  1  0.717900  0.262580  0.340830  1.0  0.1797
  C  C326  1  0.769800  0.293960  0.378570  1.0  -0.1539
  C  C327  1  0.850800  0.318060  0.375590  1.0  -0.1006
  C  C328  1  0.873900  0.311690  0.333950  1.0  -0.1631
  C  C329  1  0.819800  0.279170  0.298600  1.0  0.1333
  C  C330  1  0.914100  0.349810  0.415990  1.0  0.6852
  C  C331  1  0.269700  0.087000  0.160940  1.0  0.1697
  C  C332  1  0.216500  0.113300  0.120270  1.0  -0.1602
  C  C333  1  0.136800  0.140430  0.120970  1.0  -0.0491
  C  C334  1  0.115700  0.142720  0.163500  1.0  -0.1611
  C  C335  1  0.171800  0.115190  0.202170  1.0  0.1375
  C  C336  1  0.075500  0.169210  0.077700  1.0  0.6662
  C  C337  1  0.175500  0.327240  0.360010  1.0  0.1596
  C  C338  1  0.119100  0.306220  0.384570  1.0  -0.1565
  C  C339  1  0.122300  0.251780  0.393090  1.0  -0.1047
  C  C340  1  0.177600  0.219970  0.374240  1.0  -0.0992
  C  C341  1  0.231900  0.243920  0.349910  1.0  0.149
  C  C342  1  0.070200  0.226940  0.424080  1.0  0.7095
  C  C343  1  0.574300  0.134160  0.389800  1.0  0.1515
  C  C344  1  0.654700  0.162940  0.412270  1.0  -0.1309
  C  C345  1  0.740800  0.142590  0.411930  1.0  -0.0623
  C  C346  1  0.741600  0.094660  0.388590  1.0  -0.133
  C  C347  1  0.658800  0.068170  0.367260  1.0  0.165
  C  C348  1  0.830900  0.171620  0.436080  1.0  0.7388
  C  C349  1  0.217900  0.893150  0.373150  1.0  0.143
  C  C350  1  0.169700  0.864930  0.398310  1.0  -0.1235
  C  C351  1  0.115000  0.892480  0.420970  1.0  -0.0757
  C  C352  1  0.110300  0.947870  0.416440  1.0  -0.1358
  C  C353  1  0.160000  0.973320  0.390440  1.0  0.1412
  C  C354  1  0.062700  0.863220  0.449770  1.0  0.697
  C  C355  1  0.341500  0.230500  0.134400  1.0  0.167
  C  C356  1  0.259700  0.251370  0.105310  1.0  -0.1665
  C  C357  1  0.262100  0.291110  0.073370  1.0  -0.1187
  C  C358  1  0.348700  0.310020  0.073440  1.0  -0.159
  C  C359  1  0.428600  0.287230  0.103750  1.0  0.1371
  C  C360  1  0.172200  0.312820  0.040140  1.0  0.7159
  C  C361  1  0.210300  0.454960  0.182170  1.0  0.1484
  C  C362  1  0.154500  0.478620  0.140900  1.0  -0.1616
  C  C363  1  0.172500  0.467920  0.098670  1.0  -0.1236
  C  C364  1  0.248200  0.436000  0.099900  1.0  -0.1356
  C  C365  1  0.300700  0.413570  0.142660  1.0  0.1743
  C  C366  1  0.112000  0.491930  0.052490  1.0  0.7233
  C  C367  1  0.329300  0.915740  0.149520  1.0  0.1682
  C  C368  1  0.249500  0.939800  0.120580  1.0  -0.1744
  C  C369  1  0.256200  0.972770  0.084220  1.0  -0.1166
  C  C370  1  0.343300  0.982420  0.079380  1.0  -0.166
  C  C371  1  0.419700  0.956340  0.109520  1.0  0.1398
  C  C372  1  0.170300  0.997610  0.051110  1.0  0.7328
  C  C373  1  0.176600  0.639600  0.373760  1.0  0.154
  C  C374  1  0.122400  0.616450  0.398130  1.0  -0.1616
  C  C375  1  0.123900  0.561650  0.404480  1.0  -0.0753
  C  C376  1  0.180400  0.532110  0.384800  1.0  -0.1441
  C  C377  1  0.234300  0.558310  0.361500  1.0  0.134
  C  C378  1  0.068000  0.535730  0.433130  1.0  0.7141
  C  C379  1  0.282100  0.762580  0.159170  1.0  0.1796
  C  C380  1  0.230200  0.793960  0.121430  1.0  -0.1551
  C  C381  1  0.149200  0.818060  0.124410  1.0  -0.1008
  C  C382  1  0.126100  0.811690  0.166050  1.0  -0.1698
  C  C383  1  0.180200  0.779170  0.201400  1.0  0.1368
  C  C384  1  0.085900  0.849810  0.084010  1.0  0.6855
  C  C385  1  0.730300  0.587000  0.339060  1.0  0.17
  C  C386  1  0.783500  0.613300  0.379730  1.0  -0.1552
  C  C387  1  0.863200  0.640430  0.379030  1.0  -0.0483
  C  C388  1  0.884300  0.642720  0.336500  1.0  -0.1566
  C  C389  1  0.828200  0.615190  0.297830  1.0  0.133
  C  C390  1  0.924500  0.669210  0.422300  1.0  0.6659
  C  C391  1  0.824500  0.827240  0.139990  1.0  0.1548
  C  C392  1  0.880900  0.806220  0.115430  1.0  -0.1525
  C  C393  1  0.877700  0.751780  0.106910  1.0  -0.1038
  C  C394  1  0.822400  0.719970  0.125760  1.0  -0.0987
  C  C395  1  0.768100  0.743920  0.150090  1.0  0.1492
  C  C396  1  0.929800  0.726940  0.075920  1.0  0.7204
  C  C397  1  0.425700  0.634160  0.110200  1.0  0.1431
  C  C398  1  0.345300  0.662940  0.087730  1.0  -0.13
  C  C399  1  0.259200  0.642590  0.088070  1.0  -0.0602
  C  C400  1  0.258400  0.594660  0.111410  1.0  -0.1271
  C  C401  1  0.341200  0.568170  0.132740  1.0  0.1717
  C  C402  1  0.169100  0.671620  0.063920  1.0  0.7379
  C  C403  1  0.782100  0.393150  0.126850  1.0  0.1453
  C  C404  1  0.830300  0.364930  0.101690  1.0  -0.1209
  C  C405  1  0.885000  0.392480  0.079030  1.0  -0.0789
  C  C406  1  0.889700  0.447870  0.083560  1.0  -0.1355
  C  C407  1  0.840000  0.473320  0.109560  1.0  0.1351
  C  C408  1  0.937300  0.363220  0.050230  1.0  0.7006
  C  C409  1  0.658500  0.730500  0.365600  1.0  0.1618
  C  C410  1  0.740300  0.751370  0.394690  1.0  -0.1623
  C  C411  1  0.737900  0.791110  0.426630  1.0  -0.1182
  C  C412  1  0.651300  0.810020  0.426560  1.0  -0.1588
  C  C413  1  0.571400  0.787230  0.396250  1.0  0.1388
  C  C414  1  0.827800  0.812820  0.459860  1.0  0.7115
  C  C415  1  0.789700  0.954960  0.317830  1.0  0.143
  C  C416  1  0.845500  0.978620  0.359100  1.0  -0.1566
  C  C417  1  0.827500  0.967920  0.401330  1.0  -0.1219
  C  C418  1  0.751800  0.936000  0.400100  1.0  -0.1354
  C  C419  1  0.699300  0.913570  0.357340  1.0  0.1732
  C  C420  1  0.888000  0.991930  0.447510  1.0  0.7206
  I  I421  1  0.675220  0.566670  0.685170  1.0  -0.2511
  I  I422  1  0.479610  0.644330  0.763430  1.0  -0.2023
  I  I423  1  0.742290  0.719650  0.771560  1.0  -0.287
  I  I424  1  0.513200  0.711730  0.628170  1.0  -0.3013
  I  I425  1  0.499340  0.810860  0.742380  1.0  -0.1609
  I  I426  1  0.309460  0.748110  0.829720  1.0  -0.2656
  I  I427  1  0.491030  0.891770  0.874950  1.0  -0.3115
  I  I428  1  0.255140  0.897400  0.736550  1.0  -0.2857
  I  I429  1  0.512970  0.977790  0.751040  1.0  -0.2163
  I  I430  1  0.696330  0.909150  0.663840  1.0  -0.228
  I  I431  1  0.775510  0.054730  0.753110  1.0  -0.2558
  I  I432  1  0.529690  0.051800  0.618000  1.0  -0.3114
  I  I433  1  0.324780  0.066670  0.814830  1.0  -0.2511
  I  I434  1  0.520390  0.144330  0.736570  1.0  -0.2038
  I  I435  1  0.257710  0.219650  0.728440  1.0  -0.2873
  I  I436  1  0.486800  0.211730  0.871830  1.0  -0.3004
  I  I437  1  0.500660  0.310860  0.757620  1.0  -0.1603
  I  I438  1  0.690540  0.248110  0.670280  1.0  -0.268
  I  I439  1  0.508970  0.391770  0.625050  1.0  -0.3125
  I  I440  1  0.744860  0.397400  0.763450  1.0  -0.2855
  I  I441  1  0.487030  0.477790  0.748960  1.0  -0.2181
  I  I442  1  0.303670  0.409150  0.836160  1.0  -0.2282
  I  I443  1  0.224490  0.554730  0.746890  1.0  -0.2553
  I  I444  1  0.470310  0.551800  0.882000  1.0  -0.3098
  I  I445  1  0.324780  0.433330  0.314830  1.0  -0.2504
  I  I446  1  0.520390  0.355670  0.236570  1.0  -0.2042
  I  I447  1  0.257710  0.280350  0.228440  1.0  -0.2876
  I  I448  1  0.486800  0.288270  0.371830  1.0  -0.3002
  I  I449  1  0.500660  0.189140  0.257620  1.0  -0.1606
  I  I450  1  0.690540  0.251890  0.170280  1.0  -0.2675
  I  I451  1  0.508970  0.108230  0.125050  1.0  -0.3125
  I  I452  1  0.744860  0.102600  0.263450  1.0  -0.2856
  I  I453  1  0.487030  0.022210  0.248960  1.0  -0.2183
  I  I454  1  0.303670  0.090850  0.336160  1.0  -0.2286
  I  I455  1  0.224490  0.945270  0.246890  1.0  -0.2551
  I  I456  1  0.470310  0.948200  0.382000  1.0  -0.3108
  I  I457  1  0.675220  0.933330  0.185170  1.0  -0.2503
  I  I458  1  0.479610  0.855670  0.263430  1.0  -0.2024
  I  I459  1  0.742290  0.780350  0.271560  1.0  -0.2873
  I  I460  1  0.513200  0.788270  0.128170  1.0  -0.3013
  I  I461  1  0.499340  0.689140  0.242380  1.0  -0.1613
  I  I462  1  0.309460  0.751890  0.329720  1.0  -0.2656
  I  I463  1  0.491030  0.608230  0.374950  1.0  -0.3112
  I  I464  1  0.255140  0.602600  0.236550  1.0  -0.2858
  I  I465  1  0.512970  0.522210  0.251040  1.0  -0.2164
  I  I466  1  0.696330  0.590850  0.163840  1.0  -0.2281
  I  I467  1  0.775510  0.445270  0.253110  1.0  -0.2556
  I  I468  1  0.529690  0.448200  0.118000  1.0  -0.3124
  N  N469  1  0.413300  0.577690  0.643660  1.0  -0.2976
  N  N470  1  0.233500  0.888180  0.856200  1.0  -0.2745
  N  N471  1  0.257600  0.745970  0.698310  1.0  -0.3006
  N  N472  1  0.752700  0.913220  0.798590  1.0  -0.3047
  N  N473  1  0.766800  0.702270  0.656280  1.0  -0.2842
  N  N474  1  0.424800  0.913170  0.631980  1.0  -0.3168
  N  N475  1  0.785300  0.052730  0.630570  1.0  -0.31
  N  N476  1  0.574100  0.753220  0.866400  1.0  -0.3084
  N  N477  1  0.718500  0.577860  0.816510  1.0  -0.3118
  N  N478  1  0.586700  0.077690  0.856340  1.0  -0.2972
  N  N479  1  0.766500  0.388180  0.643800  1.0  -0.2754
  N  N480  1  0.742400  0.245970  0.801690  1.0  -0.2985
  N  N481  1  0.247300  0.413220  0.701410  1.0  -0.3099
  N  N482  1  0.233200  0.202270  0.843720  1.0  -0.284
  N  N483  1  0.575200  0.413170  0.868020  1.0  -0.3173
  N  N484  1  0.214700  0.552730  0.869430  1.0  -0.3123
  N  N485  1  0.425900  0.253220  0.633600  1.0  -0.3095
  N  N486  1  0.281500  0.077860  0.683490  1.0  -0.3129
  N  N487  1  0.586700  0.422310  0.356340  1.0  -0.2984
  N  N488  1  0.766500  0.111820  0.143800  1.0  -0.2742
  N  N489  1  0.742400  0.254030  0.301690  1.0  -0.2985
  N  N490  1  0.247300  0.086780  0.201410  1.0  -0.308
  N  N491  1  0.233200  0.297730  0.343720  1.0  -0.2846
  N  N492  1  0.575200  0.086830  0.368020  1.0  -0.3195
  N  N493  1  0.214700  0.947270  0.369430  1.0  -0.314
  N  N494  1  0.425900  0.246780  0.133600  1.0  -0.3076
  N  N495  1  0.281500  0.422140  0.183490  1.0  -0.3114
  N  N496  1  0.413300  0.922310  0.143660  1.0  -0.2964
  N  N497  1  0.233500  0.611820  0.356200  1.0  -0.2744
  N  N498  1  0.257600  0.754030  0.198310  1.0  -0.2974
  N  N499  1  0.752700  0.586780  0.298590  1.0  -0.3086
  N  N500  1  0.766800  0.797730  0.156280  1.0  -0.2837
  N  N501  1  0.424800  0.586830  0.131980  1.0  -0.3168
  N  N502  1  0.785300  0.447270  0.130570  1.0  -0.3099
  N  N503  1  0.574100  0.746780  0.366400  1.0  -0.3098
  N  N504  1  0.718500  0.922140  0.316510  1.0  -0.3124
  O  O505  1  0.096100  0.528910  0.541220  1.0  -0.7458
  O  O506  1  0.177350  0.456680  0.535060  1.0  -0.6835
  O  O507  1  0.018010  0.933540  0.948830  1.0  -0.6607
  O  O508  1  0.077700  0.013940  0.939920  1.0  -0.73
  O  O509  1  0.087600  0.659640  0.541860  1.0  -0.7472
  O  O510  1  0.034430  0.615460  0.592680  1.0  -0.6561
  O  O511  1  0.919310  0.842910  0.963370  1.0  -0.7617
  O  O512  1  0.976690  0.794690  0.916530  1.0  -0.647
  O  O513  1  0.981210  0.742460  0.560380  1.0  -0.6744
  O  O514  1  0.915870  0.821730  0.567150  1.0  -0.7534
  O  O515  1  0.173820  0.783520  0.546060  1.0  -0.6383
  O  O516  1  0.094130  0.851120  0.562770  1.0  -0.7617
  O  O517  1  0.926490  0.187030  0.547490  1.0  -0.7539
  O  O518  1  0.985870  0.109670  0.531180  1.0  -0.7076
  O  O519  1  0.898160  0.717390  0.967110  1.0  -0.6964
  O  O520  1  0.826710  0.642190  0.977670  1.0  -0.6203
  O  O521  1  0.936170  0.468570  0.943840  1.0  -0.6624
  O  O522  1  0.883140  0.528810  0.985340  1.0  -0.708
  O  O523  1  0.903900  0.028910  0.958780  1.0  -0.746
  O  O524  1  0.822650  0.956680  0.964940  1.0  -0.6896
  O  O525  1  0.981990  0.433540  0.551170  1.0  -0.6603
  O  O526  1  0.922300  0.513940  0.560080  1.0  -0.7302
  O  O527  1  0.912400  0.159640  0.958140  1.0  -0.7493
  O  O528  1  0.965570  0.115460  0.907320  1.0  -0.6579
  O  O529  1  0.080690  0.342910  0.536630  1.0  -0.7613
  O  O530  1  0.023310  0.294690  0.583470  1.0  -0.6472
  O  O531  1  0.018790  0.242460  0.939620  1.0  -0.6741
  O  O532  1  0.084130  0.321730  0.932850  1.0  -0.7528
  O  O533  1  0.826180  0.283520  0.953940  1.0  -0.6389
  O  O534  1  0.905870  0.351120  0.937230  1.0  -0.7605
  O  O535  1  0.073510  0.687030  0.952510  1.0  -0.7508
  O  O536  1  0.014130  0.609670  0.968820  1.0  -0.7069
  O  O537  1  0.101840  0.217390  0.532890  1.0  -0.6966
  O  O538  1  0.173290  0.142190  0.522330  1.0  -0.6196
  O  O539  1  0.063830  0.968570  0.556160  1.0  -0.664
  O  O540  1  0.116860  0.028810  0.514660  1.0  -0.7071
  O  O541  1  0.903900  0.471090  0.458780  1.0  -0.7455
  O  O542  1  0.822650  0.543320  0.464940  1.0  -0.6911
  O  O543  1  0.981990  0.066460  0.051170  1.0  -0.6595
  O  O544  1  0.922300  0.986060  0.060080  1.0  -0.7299
  O  O545  1  0.912400  0.340360  0.458140  1.0  -0.749
  O  O546  1  0.965570  0.384540  0.407320  1.0  -0.6574
  O  O547  1  0.080690  0.157090  0.036630  1.0  -0.7616
  O  O548  1  0.023310  0.205310  0.083470  1.0  -0.6477
  O  O549  1  0.018790  0.257540  0.439620  1.0  -0.6736
  O  O550  1  0.084130  0.178270  0.432850  1.0  -0.7535
  O  O551  1  0.826180  0.216480  0.453940  1.0  -0.6394
  O  O552  1  0.905870  0.148880  0.437230  1.0  -0.7623
  O  O553  1  0.073510  0.812970  0.452510  1.0  -0.7511
  O  O554  1  0.014130  0.890330  0.468820  1.0  -0.7064
  O  O555  1  0.101840  0.282610  0.032890  1.0  -0.6974
  O  O556  1  0.173290  0.357810  0.022330  1.0  -0.621
  O  O557  1  0.063830  0.531430  0.056160  1.0  -0.6646
  O  O558  1  0.116860  0.471190  0.014660  1.0  -0.707
  O  O559  1  0.096100  0.971090  0.041220  1.0  -0.7469
  O  O560  1  0.177350  0.043320  0.035060  1.0  -0.6851
  O  O561  1  0.018010  0.566460  0.448830  1.0  -0.6602
  O  O562  1  0.077700  0.486060  0.439920  1.0  -0.7307
  O  O563  1  0.087600  0.840360  0.041860  1.0  -0.7474
  O  O564  1  0.034430  0.884540  0.092680  1.0  -0.6557
  O  O565  1  0.919310  0.657090  0.463370  1.0  -0.7613
  O  O566  1  0.976690  0.705310  0.416530  1.0  -0.6471
  O  O567  1  0.981210  0.757540  0.060380  1.0  -0.6739
  O  O568  1  0.915870  0.678270  0.067150  1.0  -0.7538
  O  O569  1  0.173820  0.716480  0.046060  1.0  -0.6384
  O  O570  1  0.094130  0.648880  0.062770  1.0  -0.7627
  O  O571  1  0.926490  0.312970  0.047490  1.0  -0.7532
  O  O572  1  0.985870  0.390330  0.031180  1.0  -0.7071
  O  O573  1  0.898160  0.782610  0.467110  1.0  -0.697
  O  O574  1  0.826710  0.857810  0.477670  1.0  -0.6214
  O  O575  1  0.936170  0.031430  0.443840  1.0  -0.6632
  O  O576  1  0.883140  0.971190  0.485340  1.0  -0.7077
