# generated using pymatgen
data_TbCu4H12C18I4(NO2)3
_symmetry_space_group_name_H-M   'P 1'
_cell_length_a   15.31800000
_cell_length_b   8.05460000
_cell_length_c   29.44400000
_cell_angle_alpha   90.00000000
_cell_angle_beta   99.92000000
_cell_angle_gamma   90.00000000
_symmetry_Int_Tables_number   1
_chemical_formula_structural   TbCu4H12C18I4(NO2)3
_chemical_formula_sum   'Tb4 Cu16 H48 C72 I16 N12 O24'
_cell_volume   3578.49815289
_cell_formula_units_Z   4
loop_
 _symmetry_equiv_pos_site_id
 _symmetry_equiv_pos_as_xyz
  1  'x, y, z'
loop_
 _atom_site_type_symbol
 _atom_site_label
 _atom_site_symmetry_multiplicity
 _atom_site_fract_x
 _atom_site_fract_y
 _atom_site_fract_z
 _atom_site_occupancy
 _atom_site_charge
  Tb  Tb1  1  0.047750  0.745560  0.509600  1.0  2.2838
  Tb  Tb2  1  0.452250  0.245560  0.990400  1.0  2.2841
  Tb  Tb3  1  0.952250  0.254440  0.490400  1.0  2.2831
  Tb  Tb4  1  0.547750  0.754440  0.009600  1.0  2.2826
  Cu  Cu5  1  0.570510  0.577900  0.752010  1.0  0.1358
  Cu  Cu6  1  0.644020  0.305800  0.715450  1.0  0.171
  Cu  Cu7  1  0.493410  0.427700  0.671910  1.0  0.1201
  Cu  Cu8  1  0.649290  0.623100  0.680940  1.0  0.1355
  Cu  Cu9  1  0.929490  0.077900  0.747990  1.0  0.1349
  Cu  Cu10  1  0.855980  0.805800  0.784550  1.0  0.17
  Cu  Cu11  1  0.006590  0.927700  0.828090  1.0  0.1182
  Cu  Cu12  1  0.850710  0.123100  0.819060  1.0  0.1357
  Cu  Cu13  1  0.429490  0.422100  0.247990  1.0  0.1353
  Cu  Cu14  1  0.355980  0.694200  0.284550  1.0  0.1703
  Cu  Cu15  1  0.506590  0.572300  0.328090  1.0  0.1179
  Cu  Cu16  1  0.350710  0.376900  0.319060  1.0  0.1357
  Cu  Cu17  1  0.070510  0.922100  0.252010  1.0  0.1366
  Cu  Cu18  1  0.144020  0.194200  0.215450  1.0  0.1713
  Cu  Cu19  1  0.993410  0.072300  0.171910  1.0  0.1197
  Cu  Cu20  1  0.149290  0.876900  0.180940  1.0  0.1356
  H  H21  1  0.864500  0.381000  0.597200  1.0  0.1334
  H  H22  1  0.082600  0.257200  0.721600  1.0  0.0981
  H  H23  1  0.118200  0.422300  0.663500  1.0  0.1194
  H  H24  1  0.431300  0.096700  0.634600  1.0  0.0925
  H  H25  1  0.834300  0.227000  0.659000  1.0  0.0831
  H  H26  1  0.306900  0.970600  0.591900  1.0  0.1237
  H  H27  1  0.307600  0.523200  0.631400  1.0  0.0903
  H  H28  1  0.730100  0.034800  0.568500  1.0  0.1289
  H  H29  1  0.640300  0.899700  0.612300  1.0  0.0974
  H  H30  1  0.179900  0.410200  0.587200  1.0  0.1234
  H  H31  1  0.933600  0.745900  0.627200  1.0  0.1234
  H  H32  1  0.839200  0.625800  0.672000  1.0  0.0937
  H  H33  1  0.635500  0.881000  0.902800  1.0  0.1324
  H  H34  1  0.417400  0.757200  0.778400  1.0  0.0967
  H  H35  1  0.381800  0.922300  0.836500  1.0  0.1183
  H  H36  1  0.068700  0.596700  0.865400  1.0  0.0931
  H  H37  1  0.665700  0.727000  0.841000  1.0  0.0836
  H  H38  1  0.193100  0.470600  0.908100  1.0  0.1235
  H  H39  1  0.192400  0.023200  0.868600  1.0  0.0908
  H  H40  1  0.769900  0.534800  0.931500  1.0  0.1283
  H  H41  1  0.859700  0.399700  0.887700  1.0  0.0973
  H  H42  1  0.320100  0.910200  0.912800  1.0  0.1224
  H  H43  1  0.566400  0.245900  0.872800  1.0  0.123
  H  H44  1  0.660800  0.125800  0.828000  1.0  0.0941
  H  H45  1  0.135500  0.619000  0.402800  1.0  0.1325
  H  H46  1  0.917400  0.742800  0.278400  1.0  0.0971
  H  H47  1  0.881800  0.577700  0.336500  1.0  0.1183
  H  H48  1  0.568700  0.903300  0.365400  1.0  0.093
  H  H49  1  0.165700  0.773000  0.341000  1.0  0.0836
  H  H50  1  0.693100  0.029400  0.408100  1.0  0.1238
  H  H51  1  0.692400  0.476800  0.368600  1.0  0.0911
  H  H52  1  0.269900  0.965200  0.431500  1.0  0.1288
  H  H53  1  0.359700  0.100300  0.387700  1.0  0.0977
  H  H54  1  0.820100  0.589800  0.412800  1.0  0.1224
  H  H55  1  0.066400  0.254100  0.372800  1.0  0.1229
  H  H56  1  0.160800  0.374200  0.328000  1.0  0.094
  H  H57  1  0.364500  0.119000  0.097200  1.0  0.1332
  H  H58  1  0.582600  0.242800  0.221600  1.0  0.0984
  H  H59  1  0.618200  0.077700  0.163500  1.0  0.1193
  H  H60  1  0.931300  0.403300  0.134600  1.0  0.093
  H  H61  1  0.334300  0.273000  0.159000  1.0  0.0828
  H  H62  1  0.806900  0.529400  0.091900  1.0  0.1241
  H  H63  1  0.807600  0.976800  0.131400  1.0  0.0909
  H  H64  1  0.230100  0.465200  0.068500  1.0  0.1287
  H  H65  1  0.140300  0.600300  0.112300  1.0  0.0976
  H  H66  1  0.679900  0.089800  0.087200  1.0  0.1231
  H  H67  1  0.433600  0.754100  0.127200  1.0  0.1231
  H  H68  1  0.339200  0.874200  0.172000  1.0  0.0929
  C  C69  1  0.017600  0.517800  0.583500  1.0  0.678
  C  C70  1  0.841900  0.903500  0.592300  1.0  -0.0643
  C  C71  1  0.997100  0.416300  0.623100  1.0  0.047
  C  C72  1  0.910400  0.357300  0.622500  1.0  -0.1796
  C  C73  1  0.900000  0.979800  0.561700  1.0  0.7203
  C  C74  1  0.037500  0.283100  0.696200  1.0  0.1262
  C  C75  1  0.230500  0.177600  0.584900  1.0  -0.0975
  C  C76  1  0.059600  0.380300  0.661200  1.0  -0.1645
  C  C77  1  0.379800  0.161700  0.624600  1.0  0.1385
  C  C78  1  0.893200  0.264300  0.659400  1.0  0.1728
  C  C79  1  0.305700  0.085300  0.599200  1.0  -0.1349
  C  C80  1  0.308000  0.409800  0.622600  1.0  0.1461
  C  C81  1  0.753900  0.948600  0.588900  1.0  -0.1561
  C  C82  1  0.700700  0.867900  0.615400  1.0  0.1424
  C  C83  1  0.230800  0.343000  0.596600  1.0  -0.1406
  C  C84  1  0.145700  0.100300  0.555500  1.0  0.6821
  C  C85  1  0.873500  0.780300  0.623600  1.0  -0.131
  C  C86  1  0.816400  0.707300  0.649800  1.0  0.1696
  C  C87  1  0.482400  0.017800  0.916500  1.0  0.6776
  C  C88  1  0.658100  0.403500  0.907700  1.0  -0.0659
  C  C89  1  0.502900  0.916300  0.876900  1.0  0.0462
  C  C90  1  0.589600  0.857300  0.877500  1.0  -0.1805
  C  C91  1  0.600000  0.479800  0.938300  1.0  0.7202
  C  C92  1  0.462500  0.783100  0.803800  1.0  0.1254
  C  C93  1  0.269500  0.677600  0.915100  1.0  -0.0961
  C  C94  1  0.440400  0.880300  0.838800  1.0  -0.1634
  C  C95  1  0.120200  0.661700  0.875400  1.0  0.1384
  C  C96  1  0.606800  0.764300  0.840600  1.0  0.171
  C  C97  1  0.194300  0.585300  0.900800  1.0  -0.1353
  C  C98  1  0.192000  0.909800  0.877400  1.0  0.147
  C  C99  1  0.746100  0.448600  0.911100  1.0  -0.1561
  C  C100  1  0.799300  0.367900  0.884600  1.0  0.1406
  C  C101  1  0.269200  0.843000  0.903400  1.0  -0.1421
  C  C102  1  0.354300  0.600300  0.944500  1.0  0.6828
  C  C103  1  0.626500  0.280300  0.876400  1.0  -0.1313
  C  C104  1  0.683600  0.207300  0.850200  1.0  0.1699
  C  C105  1  0.982400  0.482200  0.416500  1.0  0.6787
  C  C106  1  0.158100  0.096500  0.407700  1.0  -0.0657
  C  C107  1  0.002900  0.583700  0.376900  1.0  0.0463
  C  C108  1  0.089600  0.642700  0.377500  1.0  -0.1802
  C  C109  1  0.100000  0.020200  0.438300  1.0  0.72
  C  C110  1  0.962500  0.716900  0.303800  1.0  0.1248
  C  C111  1  0.769500  0.822400  0.415100  1.0  -0.0961
  C  C112  1  0.940400  0.619700  0.338800  1.0  -0.1639
  C  C113  1  0.620200  0.838300  0.375400  1.0  0.1386
  C  C114  1  0.106800  0.735700  0.340600  1.0  0.1713
  C  C115  1  0.694300  0.914700  0.400800  1.0  -0.1352
  C  C116  1  0.692000  0.590200  0.377400  1.0  0.1459
  C  C117  1  0.246100  0.051400  0.411100  1.0  -0.1566
  C  C118  1  0.299300  0.132100  0.384600  1.0  0.1409
  C  C119  1  0.769200  0.657000  0.403400  1.0  -0.1423
  C  C120  1  0.854300  0.899700  0.444500  1.0  0.6828
  C  C121  1  0.126500  0.219700  0.376400  1.0  -0.1312
  C  C122  1  0.183600  0.292700  0.350200  1.0  0.1703
  C  C123  1  0.517600  0.982200  0.083500  1.0  0.6778
  C  C124  1  0.341900  0.596500  0.092300  1.0  -0.0647
  C  C125  1  0.497100  0.083700  0.123100  1.0  0.0469
  C  C126  1  0.410400  0.142700  0.122500  1.0  -0.1799
  C  C127  1  0.400000  0.520200  0.061700  1.0  0.7201
  C  C128  1  0.537500  0.216900  0.196200  1.0  0.1251
  C  C129  1  0.730500  0.322400  0.084900  1.0  -0.0969
  C  C130  1  0.559600  0.119700  0.161200  1.0  -0.1647
  C  C131  1  0.879800  0.338300  0.124600  1.0  0.1384
  C  C132  1  0.393200  0.235700  0.159400  1.0  0.1725
  C  C133  1  0.805700  0.414700  0.099200  1.0  -0.1359
  C  C134  1  0.808000  0.090200  0.122600  1.0  0.1455
  C  C135  1  0.253900  0.551400  0.088900  1.0  -0.1561
  C  C136  1  0.200700  0.632100  0.115400  1.0  0.1424
  C  C137  1  0.730800  0.157000  0.096600  1.0  -0.1409
  C  C138  1  0.645700  0.399700  0.055500  1.0  0.6819
  C  C139  1  0.373500  0.719700  0.123600  1.0  -0.1312
  C  C140  1  0.316400  0.792700  0.149800  1.0  0.1696
  I  I141  1  0.626580  0.334900  0.625100  1.0  -0.3109
  I  I142  1  0.749510  0.545610  0.761440  1.0  -0.1854
  I  I143  1  0.502630  0.271900  0.752430  1.0  -0.243
  I  I144  1  0.490670  0.753680  0.675250  1.0  -0.2515
  I  I145  1  0.873420  0.834900  0.874900  1.0  -0.3091
  I  I146  1  0.750490  0.045610  0.738560  1.0  -0.1852
  I  I147  1  0.997370  0.771900  0.747570  1.0  -0.2424
  I  I148  1  0.009330  0.253680  0.824750  1.0  -0.2501
  I  I149  1  0.373420  0.665100  0.374900  1.0  -0.3093
  I  I150  1  0.250490  0.454390  0.238560  1.0  -0.1853
  I  I151  1  0.497370  0.728100  0.247570  1.0  -0.2426
  I  I152  1  0.509330  0.246320  0.324750  1.0  -0.2502
  I  I153  1  0.126580  0.165100  0.125100  1.0  -0.3109
  I  I154  1  0.249510  0.954390  0.261440  1.0  -0.1854
  I  I155  1  0.002630  0.228100  0.252430  1.0  -0.2431
  I  I156  1  0.990670  0.746320  0.175250  1.0  -0.2519
  N  N157  1  0.730700  0.747800  0.644800  1.0  -0.2643
  N  N158  1  0.955300  0.223000  0.696200  1.0  -0.3023
  N  N159  1  0.381700  0.322500  0.635500  1.0  -0.3085
  N  N160  1  0.769300  0.247800  0.855200  1.0  -0.2618
  N  N161  1  0.544700  0.723000  0.803800  1.0  -0.3021
  N  N162  1  0.118300  0.822500  0.864500  1.0  -0.3051
  N  N163  1  0.269300  0.252200  0.355200  1.0  -0.2619
  N  N164  1  0.044700  0.777000  0.303800  1.0  -0.3009
  N  N165  1  0.618300  0.677500  0.364500  1.0  -0.3071
  N  N166  1  0.230700  0.752200  0.144800  1.0  -0.2638
  N  N167  1  0.455300  0.277000  0.196200  1.0  -0.3029
  N  N168  1  0.881700  0.177500  0.135500  1.0  -0.3083
  O  O169  1  0.973900  0.495500  0.542700  1.0  -0.8047
  O  O170  1  0.146600  0.947900  0.547700  1.0  -0.7164
  O  O171  1  0.961100  0.887600  0.551400  1.0  -0.7207
  O  O172  1  0.885000  0.122200  0.547400  1.0  -0.5868
  O  O173  1  0.077700  0.626000  0.589900  1.0  -0.6803
  O  O174  1  0.082100  0.200000  0.543500  1.0  -0.7296
  O  O175  1  0.526100  0.995500  0.957300  1.0  -0.8047
  O  O176  1  0.353400  0.447900  0.952300  1.0  -0.7177
  O  O177  1  0.538900  0.387600  0.948600  1.0  -0.7212
  O  O178  1  0.615000  0.622200  0.952600  1.0  -0.5861
  O  O179  1  0.422300  0.126000  0.910100  1.0  -0.6804
  O  O180  1  0.417900  0.700000  0.956500  1.0  -0.7304
  O  O181  1  0.026100  0.504500  0.457300  1.0  -0.8047
  O  O182  1  0.853400  0.052100  0.452300  1.0  -0.7188
  O  O183  1  0.038900  0.112400  0.448600  1.0  -0.7203
  O  O184  1  0.115000  0.877800  0.452600  1.0  -0.5851
  O  O185  1  0.922300  0.374000  0.410100  1.0  -0.6797
  O  O186  1  0.917900  0.800000  0.456500  1.0  -0.7306
  O  O187  1  0.473900  0.004500  0.042700  1.0  -0.8045
  O  O188  1  0.646600  0.552100  0.047700  1.0  -0.7167
  O  O189  1  0.461100  0.612400  0.051400  1.0  -0.7198
  O  O190  1  0.385000  0.377800  0.047400  1.0  -0.5867
  O  O191  1  0.577700  0.874000  0.089900  1.0  -0.6802
  O  O192  1  0.582100  0.300000  0.043500  1.0  -0.7303
