# generated using pymatgen
data_AgBH12C23(NF)4
_symmetry_space_group_name_H-M   'P 1'
_cell_length_a   11.71350000
_cell_length_b   11.71350000
_cell_length_c   23.54690000
_cell_angle_alpha   78.09010000
_cell_angle_beta   78.09010000
_cell_angle_gamma   79.44620000
_symmetry_Int_Tables_number   1
_chemical_formula_structural   AgBH12C23(NF)4
_chemical_formula_sum   'Ag4 B4 H48 C92 N16 F16'
_cell_volume   3059.65835495
_cell_formula_units_Z   4
loop_
 _symmetry_equiv_pos_site_id
 _symmetry_equiv_pos_as_xyz
  1  'x, y, z'
loop_
 _atom_site_type_symbol
 _atom_site_label
 _atom_site_symmetry_multiplicity
 _atom_site_fract_x
 _atom_site_fract_y
 _atom_site_fract_z
 _atom_site_occupancy
 _atom_site_charge
  Ag  Ag1  1  0.112470  0.089750  0.273920  1.0  0.4081
  Ag  Ag2  1  0.089750  0.112470  0.773920  1.0  0.4081
  Ag  Ag3  1  0.910250  0.887530  0.226080  1.0  0.4097
  Ag  Ag4  1  0.887530  0.910250  0.726080  1.0  0.4086
  B  B5  1  0.853300  0.441500  0.354700  1.0  1.0857
  B  B6  1  0.558500  0.146700  0.145300  1.0  1.0844
  B  B7  1  0.146700  0.558500  0.645300  1.0  1.0846
  B  B8  1  0.441500  0.853300  0.854700  1.0  1.0854
  H  H9  1  0.458300  0.208500  0.283700  1.0  0.1045
  H  H10  1  0.660400  0.142800  0.264900  1.0  0.1147
  H  H11  1  0.689000  0.212600  0.421600  1.0  0.1231
  H  H12  1  0.486800  0.269600  0.440900  1.0  0.1061
  H  H13  1  0.459500  0.463300  0.346200  1.0  0.1214
  H  H14  1  0.408800  0.666667  0.324500  1.0  0.1183
  H  H15  1  0.072500  0.630500  0.327900  1.0  0.1142
  H  H16  1  0.123200  0.427200  0.350000  1.0  0.0934
  H  H17  1  0.225800  0.429800  0.458600  1.0  0.0983
  H  H18  1  0.160600  0.381800  0.559700  1.0  0.1156
  H  H19  1  0.235000  0.037400  0.547400  1.0  0.1145
  H  H20  1  0.296000  0.086800  0.447100  1.0  0.1088
  H  H21  1  0.208500  0.458300  0.783700  1.0  0.105
  H  H22  1  0.142800  0.660400  0.764900  1.0  0.1149
  H  H23  1  0.212600  0.689000  0.921600  1.0  0.1229
  H  H24  1  0.269600  0.486800  0.940900  1.0  0.1059
  H  H25  1  0.463300  0.459500  0.846200  1.0  0.1198
  H  H26  1  0.666667  0.408800  0.824500  1.0  0.1181
  H  H27  1  0.630500  0.072500  0.827900  1.0  0.1158
  H  H28  1  0.427200  0.123200  0.850000  1.0  0.0932
  H  H29  1  0.429800  0.225800  0.958600  1.0  0.0989
  H  H30  1  0.381800  0.160600  0.059700  1.0  0.1161
  H  H31  1  0.037400  0.235000  0.047400  1.0  0.1166
  H  H32  1  0.086800  0.296000  0.947100  1.0  0.1116
  H  H33  1  0.791500  0.541700  0.216300  1.0  0.1054
  H  H34  1  0.857200  0.339600  0.235100  1.0  0.1158
  H  H35  1  0.787400  0.311000  0.078400  1.0  0.123
  H  H36  1  0.730400  0.513200  0.059100  1.0  0.1064
  H  H37  1  0.536700  0.540500  0.153800  1.0  0.1192
  H  H38  1  0.333400  0.591200  0.175500  1.0  0.1185
  H  H39  1  0.369500  0.927500  0.172100  1.0  0.1152
  H  H40  1  0.572800  0.876800  0.150000  1.0  0.0935
  H  H41  1  0.570200  0.774200  0.041400  1.0  0.0965
  H  H42  1  0.618200  0.839400  0.940300  1.0  0.1159
  H  H43  1  0.962600  0.765000  0.952600  1.0  0.1155
  H  H44  1  0.913200  0.704000  0.052900  1.0  0.1107
  H  H45  1  0.541700  0.791500  0.716300  1.0  0.1047
  H  H46  1  0.339600  0.857200  0.735100  1.0  0.1155
  H  H47  1  0.311000  0.787400  0.578400  1.0  0.1232
  H  H48  1  0.513200  0.730400  0.559100  1.0  0.1069
  H  H49  1  0.540500  0.536700  0.653800  1.0  0.1216
  H  H50  1  0.591200  0.333400  0.675500  1.0  0.1189
  H  H51  1  0.927500  0.369500  0.672100  1.0  0.1143
  H  H52  1  0.876800  0.572800  0.650000  1.0  0.0935
  H  H53  1  0.774200  0.570200  0.541400  1.0  0.0979
  H  H54  1  0.839400  0.618200  0.440300  1.0  0.1163
  H  H55  1  0.765000  0.962600  0.452600  1.0  0.1147
  H  H56  1  0.704000  0.913200  0.552900  1.0  0.1091
  C  C57  1  0.319600  0.292400  0.376400  1.0  -0.0792
  C  C58  1  0.452900  0.245100  0.364400  1.0  -0.0049
  C  C59  1  0.504500  0.207900  0.311500  1.0  -0.0744
  C  C60  1  0.625600  0.169800  0.299900  1.0  -0.1435
  C  C61  1  0.694200  0.172800  0.341400  1.0  -0.0349
  C  C62  1  0.642900  0.210700  0.394100  1.0  -0.1323
  C  C63  1  0.521900  0.245500  0.405300  1.0  -0.0767
  C  C64  1  0.819400  0.140000  0.327300  1.0  0.3558
  C  C65  1  0.258100  0.230500  0.345000  1.0  0.3031
  C  C66  1  0.293400  0.425400  0.352700  1.0  -0.0287
  C  C67  1  0.381900  0.496700  0.343500  1.0  -0.1198
  C  C68  1  0.351200  0.618200  0.330400  1.0  -0.0993
  C  C69  1  0.236200  0.668200  0.325900  1.0  -0.0452
  C  C70  1  0.149200  0.597200  0.332400  1.0  -0.1464
  C  C71  1  0.180100  0.475700  0.345700  1.0  -0.0692
  C  C72  1  0.206300  0.795500  0.315200  1.0  0.3477
  C  C73  1  0.269300  0.263900  0.442800  1.0  -0.0012
  C  C74  1  0.227500  0.351100  0.476500  1.0  -0.0761
  C  C75  1  0.187900  0.322900  0.537100  1.0  -0.1087
  C  C76  1  0.190100  0.204700  0.562900  1.0  -0.0149
  C  C77  1  0.232300  0.116300  0.529500  1.0  -0.1188
  C  C78  1  0.269900  0.145900  0.469800  1.0  -0.1116
  C  C79  1  0.152500  0.176500  0.625800  1.0  0.3578
  C  C80  1  0.292400  0.319600  0.876400  1.0  -0.0791
  C  C81  1  0.245100  0.452900  0.864400  1.0  -0.0057
  C  C82  1  0.207900  0.504500  0.811500  1.0  -0.072
  C  C83  1  0.169800  0.625600  0.799900  1.0  -0.1422
  C  C84  1  0.172800  0.694200  0.841400  1.0  -0.034
  C  C85  1  0.210700  0.642900  0.894100  1.0  -0.1302
  C  C86  1  0.245500  0.521900  0.905300  1.0  -0.0756
  C  C87  1  0.140000  0.819400  0.827300  1.0  0.3559
  C  C88  1  0.230500  0.258100  0.845000  1.0  0.3039
  C  C89  1  0.425400  0.293400  0.852700  1.0  -0.0284
  C  C90  1  0.496700  0.381900  0.843500  1.0  -0.1216
  C  C91  1  0.618200  0.351200  0.830400  1.0  -0.0982
  C  C92  1  0.668200  0.236200  0.825900  1.0  -0.0504
  C  C93  1  0.597200  0.149200  0.832400  1.0  -0.1483
  C  C94  1  0.475700  0.180100  0.845700  1.0  -0.0694
  C  C95  1  0.795500  0.206300  0.815200  1.0  0.3483
  C  C96  1  0.263900  0.269300  0.942800  1.0  -0.0014
  C  C97  1  0.351100  0.227500  0.976500  1.0  -0.0721
  C  C98  1  0.322900  0.187900  0.037100  1.0  -0.1099
  C  C99  1  0.204700  0.190100  0.062900  1.0  -0.0143
  C  C100  1  0.116300  0.232300  0.029500  1.0  -0.1198
  C  C101  1  0.145900  0.269900  0.969800  1.0  -0.1053
  C  C102  1  0.176500  0.152500  0.125800  1.0  0.3576
  C  C103  1  0.707600  0.680400  0.123600  1.0  -0.0787
  C  C104  1  0.754900  0.547100  0.135600  1.0  -0.0056
  C  C105  1  0.792100  0.495500  0.188500  1.0  -0.0725
  C  C106  1  0.830200  0.374400  0.200100  1.0  -0.1423
  C  C107  1  0.827200  0.305800  0.158600  1.0  -0.0341
  C  C108  1  0.789300  0.357100  0.105900  1.0  -0.1293
  C  C109  1  0.754500  0.478100  0.094700  1.0  -0.0766
  C  C110  1  0.860000  0.180600  0.172700  1.0  0.3562
  C  C111  1  0.769500  0.741900  0.155000  1.0  0.304
  C  C112  1  0.574600  0.706600  0.147300  1.0  -0.0315
  C  C113  1  0.503300  0.618100  0.156500  1.0  -0.122
  C  C114  1  0.381800  0.648800  0.169600  1.0  -0.0973
  C  C115  1  0.331800  0.763800  0.174100  1.0  -0.0501
  C  C116  1  0.402800  0.850800  0.167600  1.0  -0.1506
  C  C117  1  0.524300  0.819900  0.154300  1.0  -0.0689
  C  C118  1  0.204500  0.793700  0.184800  1.0  0.3489
  C  C119  1  0.736100  0.730700  0.057200  1.0  -0.0004
  C  C120  1  0.648900  0.772500  0.023500  1.0  -0.0733
  C  C121  1  0.677100  0.812100  0.962900  1.0  -0.1096
  C  C122  1  0.795300  0.809900  0.937100  1.0  -0.0126
  C  C123  1  0.883700  0.767700  0.970500  1.0  -0.1195
  C  C124  1  0.854100  0.730100  0.030200  1.0  -0.1061
  C  C125  1  0.823500  0.847500  0.874200  1.0  0.3596
  C  C126  1  0.680400  0.707600  0.623600  1.0  -0.0782
  C  C127  1  0.547100  0.754900  0.635600  1.0  -0.0047
  C  C128  1  0.495500  0.792100  0.688500  1.0  -0.074
  C  C129  1  0.374400  0.830200  0.700100  1.0  -0.1442
  C  C130  1  0.305800  0.827200  0.658600  1.0  -0.0346
  C  C131  1  0.357100  0.789300  0.605900  1.0  -0.1306
  C  C132  1  0.478100  0.754500  0.594700  1.0  -0.0749
  C  C133  1  0.180600  0.860000  0.672700  1.0  0.3553
  C  C134  1  0.741900  0.769500  0.655000  1.0  0.3031
  C  C135  1  0.706600  0.574600  0.647300  1.0  -0.0295
  C  C136  1  0.618100  0.503300  0.656500  1.0  -0.1206
  C  C137  1  0.648800  0.381800  0.669600  1.0  -0.0985
  C  C138  1  0.763800  0.331800  0.674100  1.0  -0.0472
  C  C139  1  0.850800  0.402800  0.667600  1.0  -0.1458
  C  C140  1  0.819900  0.524300  0.654300  1.0  -0.0683
  C  C141  1  0.793700  0.204500  0.684800  1.0  0.3474
  C  C142  1  0.730700  0.736100  0.557200  1.0  -0.0004
  C  C143  1  0.772500  0.648900  0.523500  1.0  -0.0755
  C  C144  1  0.812100  0.677100  0.462900  1.0  -0.1087
  C  C145  1  0.809900  0.795300  0.437100  1.0  -0.0124
  C  C146  1  0.767700  0.883700  0.470500  1.0  -0.1185
  C  C147  1  0.730100  0.854100  0.530200  1.0  -0.113
  C  C148  1  0.847500  0.823500  0.374200  1.0  0.3599
  N  N149  1  0.919800  0.115800  0.314400  1.0  -0.5154
  N  N150  1  0.183100  0.894900  0.306400  1.0  -0.4757
  N  N151  1  0.124100  0.153500  0.675600  1.0  -0.4906
  N  N152  1  0.212200  0.184800  0.320100  1.0  -0.4858
  N  N153  1  0.115800  0.919800  0.814400  1.0  -0.5165
  N  N154  1  0.894900  0.183100  0.806400  1.0  -0.4721
  N  N155  1  0.153500  0.124100  0.175600  1.0  -0.4892
  N  N156  1  0.184800  0.212200  0.820100  1.0  -0.4875
  N  N157  1  0.884200  0.080200  0.185600  1.0  -0.5159
  N  N158  1  0.105100  0.816900  0.193600  1.0  -0.4744
  N  N159  1  0.846500  0.875900  0.824400  1.0  -0.4912
  N  N160  1  0.815200  0.787800  0.179900  1.0  -0.4875
  N  N161  1  0.080200  0.884200  0.685600  1.0  -0.5164
  N  N162  1  0.816900  0.105100  0.693600  1.0  -0.475
  N  N163  1  0.875900  0.846500  0.324400  1.0  -0.4923
  N  N164  1  0.787800  0.815200  0.679900  1.0  -0.4864
  F  F165  1  0.757700  0.440900  0.331700  1.0  -0.1681
  F  F166  1  0.882300  0.551700  0.346300  1.0  -0.2104
  F  F167  1  0.819400  0.410000  0.415900  1.0  -0.1823
  F  F168  1  0.943800  0.364000  0.332100  1.0  -0.1857
  F  F169  1  0.559100  0.242300  0.168300  1.0  -0.1685
  F  F170  1  0.448300  0.117700  0.153700  1.0  -0.2097
  F  F171  1  0.590000  0.180600  0.084100  1.0  -0.1816
  F  F172  1  0.636000  0.056200  0.167900  1.0  -0.1865
  F  F173  1  0.242300  0.559100  0.668300  1.0  -0.1658
  F  F174  1  0.117700  0.448300  0.653700  1.0  -0.2119
  F  F175  1  0.180600  0.590000  0.584100  1.0  -0.1819
  F  F176  1  0.056200  0.636000  0.667900  1.0  -0.1871
  F  F177  1  0.440900  0.757700  0.831700  1.0  -0.1686
  F  F178  1  0.551700  0.882300  0.846300  1.0  -0.2086
  F  F179  1  0.410000  0.819400  0.915900  1.0  -0.182
  F  F180  1  0.364000  0.943800  0.832100  1.0  -0.1879
