# generated using pymatgen
data_AgH13C22N3O
_symmetry_space_group_name_H-M   'P 1'
_cell_length_a   10.23000000
_cell_length_b   11.83900000
_cell_length_c   26.07100000
_cell_angle_alpha   90.00000000
_cell_angle_beta   90.58900000
_cell_angle_gamma   90.00000000
_symmetry_Int_Tables_number   1
_chemical_formula_structural   AgH13C22N3O
_chemical_formula_sum   'Ag4 H52 C88 N12 O4'
_cell_volume   3157.36940100
_cell_formula_units_Z   4
loop_
 _symmetry_equiv_pos_site_id
 _symmetry_equiv_pos_as_xyz
  1  'x, y, z'
loop_
 _atom_site_type_symbol
 _atom_site_label
 _atom_site_symmetry_multiplicity
 _atom_site_fract_x
 _atom_site_fract_y
 _atom_site_fract_z
 _atom_site_occupancy
 _atom_site_charge
  Ag  Ag1  1  0.841410  0.969580  0.955220  1.0  0.4505
  Ag  Ag2  1  0.341410  0.530420  0.455220  1.0  0.4502
  Ag  Ag3  1  0.658590  0.469580  0.544780  1.0  0.4506
  Ag  Ag4  1  0.158590  0.030420  0.044780  1.0  0.4503
  H  H5  1  0.556400  0.222000  0.317500  1.0  0.3974
  H  H6  1  0.810300  0.954600  0.331100  1.0  0.1033
  H  H7  1  0.735200  0.793800  0.371300  1.0  0.1111
  H  H8  1  0.367800  0.894300  0.344600  1.0  0.1148
  H  H9  1  0.441100  0.053900  0.304100  1.0  0.106
  H  H10  1  0.860000  0.271400  0.251100  1.0  0.088
  H  H11  1  0.019100  0.379700  0.289500  1.0  0.1081
  H  H12  1  0.933000  0.236100  0.425400  1.0  0.1103
  H  H13  1  0.771700  0.129700  0.385200  1.0  0.108
  H  H14  1  0.536000  0.168400  0.204000  1.0  0.115
  H  H15  1  0.565500  0.113400  0.120300  1.0  0.1152
  H  H16  1  0.906300  0.967400  0.158900  1.0  0.1169
  H  H17  1  0.876700  0.025100  0.243600  1.0  0.106
  H  H18  1  0.056400  0.278000  0.817500  1.0  0.3965
  H  H19  1  0.310300  0.545400  0.831100  1.0  0.1032
  H  H20  1  0.235200  0.706200  0.871300  1.0  0.111
  H  H21  1  0.867800  0.605700  0.844600  1.0  0.1146
  H  H22  1  0.941100  0.446100  0.804100  1.0  0.1054
  H  H23  1  0.360000  0.228600  0.751100  1.0  0.0882
  H  H24  1  0.519100  0.120300  0.789500  1.0  0.1082
  H  H25  1  0.433000  0.263900  0.925400  1.0  0.1099
  H  H26  1  0.271700  0.370300  0.885200  1.0  0.1078
  H  H27  1  0.036000  0.331600  0.704000  1.0  0.1144
  H  H28  1  0.065500  0.386600  0.620300  1.0  0.1153
  H  H29  1  0.406300  0.532600  0.658900  1.0  0.1172
  H  H30  1  0.376700  0.474900  0.743600  1.0  0.1059
  H  H31  1  0.943600  0.722000  0.182500  1.0  0.397
  H  H32  1  0.689700  0.454600  0.168900  1.0  0.1029
  H  H33  1  0.764800  0.293800  0.128700  1.0  0.1142
  H  H34  1  0.132200  0.394300  0.155400  1.0  0.1104
  H  H35  1  0.058900  0.553900  0.195900  1.0  0.1056
  H  H36  1  0.640000  0.771400  0.248900  1.0  0.0873
  H  H37  1  0.480900  0.879700  0.210500  1.0  0.1075
  H  H38  1  0.567000  0.736100  0.074600  1.0  0.1106
  H  H39  1  0.728300  0.629700  0.114800  1.0  0.1082
  H  H40  1  0.964000  0.668400  0.296000  1.0  0.1148
  H  H41  1  0.934500  0.613400  0.379700  1.0  0.1173
  H  H42  1  0.593700  0.467400  0.341100  1.0  0.1161
  H  H43  1  0.623300  0.525100  0.256400  1.0  0.1058
  H  H44  1  0.443600  0.778000  0.682500  1.0  0.3971
  H  H45  1  0.189700  0.045400  0.668900  1.0  0.103
  H  H46  1  0.264800  0.206200  0.628700  1.0  0.1153
  H  H47  1  0.632200  0.105700  0.655400  1.0  0.1106
  H  H48  1  0.558900  0.946100  0.695900  1.0  0.1055
  H  H49  1  0.140000  0.728600  0.748900  1.0  0.0873
  H  H50  1  0.980900  0.620300  0.710500  1.0  0.1073
  H  H51  1  0.067000  0.763900  0.574600  1.0  0.1105
  H  H52  1  0.228300  0.870300  0.614800  1.0  0.1082
  H  H53  1  0.464000  0.831600  0.796000  1.0  0.1145
  H  H54  1  0.434500  0.886600  0.879700  1.0  0.1171
  H  H55  1  0.093700  0.032600  0.841100  1.0  0.1162
  H  H56  1  0.123300  0.974900  0.756400  1.0  0.1062
  C  C57  1  0.681400  0.133200  0.289100  1.0  0.2493
  C  C58  1  0.635600  0.026900  0.314200  1.0  -0.0322
  C  C59  1  0.720700  0.943800  0.334100  1.0  -0.1105
  C  C60  1  0.676200  0.846300  0.358100  1.0  -0.069
  C  C61  1  0.542700  0.828600  0.361900  1.0  -0.0785
  C  C62  1  0.457300  0.906600  0.341900  1.0  -0.0842
  C  C63  1  0.501400  0.003400  0.318000  1.0  -0.1359
  C  C64  1  0.489400  0.732600  0.387900  1.0  0.3569
  C  C65  1  0.801000  0.190300  0.314300  1.0  -0.0249
  C  C66  1  0.874900  0.265000  0.286200  1.0  -0.0979
  C  C67  1  0.969900  0.330000  0.309000  1.0  -0.07
  C  C68  1  0.992800  0.320800  0.362900  1.0  -0.1011
  C  C69  1  0.918300  0.244400  0.390300  1.0  -0.0753
  C  C70  1  0.821800  0.179800  0.366200  1.0  -0.1334
  C  C71  1  0.088100  0.389800  0.388700  1.0  0.352
  C  C72  1  0.705100  0.102700  0.232400  1.0  0.0048
  C  C73  1  0.610700  0.128500  0.195000  1.0  -0.1024
  C  C74  1  0.627900  0.095200  0.145200  1.0  -0.0828
  C  C75  1  0.737400  0.034800  0.131800  1.0  -0.089
  C  C76  1  0.832100  0.007800  0.168000  1.0  -0.0875
  C  C77  1  0.814000  0.042800  0.218800  1.0  -0.1163
  C  C78  1  0.756300  0.000200  0.078700  1.0  0.3358
  C  C79  1  0.181400  0.366800  0.789100  1.0  0.2491
  C  C80  1  0.135600  0.473100  0.814200  1.0  -0.0323
  C  C81  1  0.220700  0.556200  0.834100  1.0  -0.1105
  C  C82  1  0.176200  0.653700  0.858100  1.0  -0.0692
  C  C83  1  0.042700  0.671400  0.861900  1.0  -0.0781
  C  C84  1  0.957300  0.593400  0.841900  1.0  -0.0849
  C  C85  1  0.001400  0.496600  0.818000  1.0  -0.1358
  C  C86  1  0.989400  0.767400  0.887900  1.0  0.3566
  C  C87  1  0.301000  0.309700  0.814300  1.0  -0.025
  C  C88  1  0.374900  0.235000  0.786200  1.0  -0.0981
  C  C89  1  0.469900  0.170000  0.809000  1.0  -0.0709
  C  C90  1  0.492800  0.179200  0.862900  1.0  -0.1004
  C  C91  1  0.418300  0.255600  0.890300  1.0  -0.0743
  C  C92  1  0.321800  0.320200  0.866200  1.0  -0.1344
  C  C93  1  0.588100  0.110200  0.888700  1.0  0.3523
  C  C94  1  0.205100  0.397300  0.732400  1.0  0.0046
  C  C95  1  0.110700  0.371500  0.695000  1.0  -0.1027
  C  C96  1  0.127900  0.404800  0.645200  1.0  -0.083
  C  C97  1  0.237400  0.465200  0.631800  1.0  -0.0878
  C  C98  1  0.332100  0.492200  0.668000  1.0  -0.0865
  C  C99  1  0.314000  0.457200  0.718800  1.0  -0.1163
  C  C100  1  0.256300  0.499800  0.578700  1.0  0.3362
  C  C101  1  0.818600  0.633200  0.210900  1.0  0.2488
  C  C102  1  0.864400  0.526900  0.185800  1.0  -0.0333
  C  C103  1  0.779300  0.443800  0.165900  1.0  -0.1106
  C  C104  1  0.823800  0.346300  0.141900  1.0  -0.0669
  C  C105  1  0.957300  0.328600  0.138100  1.0  -0.0826
  C  C106  1  0.042700  0.406600  0.158100  1.0  -0.0918
  C  C107  1  0.998600  0.503400  0.182000  1.0  -0.1369
  C  C108  1  0.010600  0.232600  0.112100  1.0  0.3567
  C  C109  1  0.699000  0.690300  0.185700  1.0  -0.0245
  C  C110  1  0.625100  0.765000  0.213800  1.0  -0.0972
  C  C111  1  0.530100  0.830000  0.191000  1.0  -0.0704
  C  C112  1  0.507200  0.820800  0.137100  1.0  -0.1009
  C  C113  1  0.581700  0.744400  0.109700  1.0  -0.0762
  C  C114  1  0.678200  0.679800  0.133800  1.0  -0.1327
  C  C115  1  0.411900  0.889800  0.111300  1.0  0.35
  C  C116  1  0.794900  0.602700  0.267600  1.0  0.0047
  C  C117  1  0.889300  0.628500  0.305000  1.0  -0.1033
  C  C118  1  0.872100  0.595200  0.354800  1.0  -0.0835
  C  C119  1  0.762600  0.534800  0.368200  1.0  -0.0884
  C  C120  1  0.667900  0.507800  0.332000  1.0  -0.087
  C  C121  1  0.686000  0.542800  0.281200  1.0  -0.118
  C  C122  1  0.743700  0.500200  0.421300  1.0  0.3345
  C  C123  1  0.318600  0.866800  0.710900  1.0  0.2487
  C  C124  1  0.364400  0.973100  0.685800  1.0  -0.033
  C  C125  1  0.279300  0.056200  0.665900  1.0  -0.1106
  C  C126  1  0.323800  0.153700  0.641900  1.0  -0.0668
  C  C127  1  0.457300  0.171400  0.638100  1.0  -0.082
  C  C128  1  0.542700  0.093400  0.658100  1.0  -0.0922
  C  C129  1  0.498600  0.996600  0.682000  1.0  -0.1363
  C  C130  1  0.510600  0.267400  0.612100  1.0  0.3572
  C  C131  1  0.199000  0.809700  0.685700  1.0  -0.0243
  C  C132  1  0.125100  0.735000  0.713800  1.0  -0.0974
  C  C133  1  0.030100  0.670000  0.691000  1.0  -0.0704
  C  C134  1  0.007200  0.679200  0.637100  1.0  -0.1008
  C  C135  1  0.081700  0.755600  0.609700  1.0  -0.0756
  C  C136  1  0.178200  0.820200  0.633800  1.0  -0.1327
  C  C137  1  0.911900  0.610200  0.611300  1.0  0.3501
  C  C138  1  0.294900  0.897300  0.767600  1.0  0.0045
  C  C139  1  0.389300  0.871500  0.805000  1.0  -0.1031
  C  C140  1  0.372100  0.904800  0.854800  1.0  -0.0833
  C  C141  1  0.262600  0.965200  0.868200  1.0  -0.0893
  C  C142  1  0.167900  0.992200  0.832000  1.0  -0.0875
  C  C143  1  0.186000  0.957200  0.781200  1.0  -0.1186
  C  C144  1  0.243700  0.999800  0.921300  1.0  0.335
  N  N145  1  0.772300  0.974800  0.036790  1.0  -0.4715
  N  N146  1  0.156100  0.454200  0.407700  1.0  -0.4497
  N  N147  1  0.446100  0.656800  0.409000  1.0  -0.4581
  N  N148  1  0.272300  0.525200  0.536790  1.0  -0.4708
  N  N149  1  0.656100  0.045800  0.907700  1.0  -0.4488
  N  N150  1  0.946100  0.843200  0.909000  1.0  -0.4597
  N  N151  1  0.727700  0.474800  0.463210  1.0  -0.4719
  N  N152  1  0.343900  0.954200  0.092300  1.0  -0.4503
  N  N153  1  0.053900  0.156800  0.091000  1.0  -0.457
  N  N154  1  0.227700  0.025200  0.963210  1.0  -0.4727
  N  N155  1  0.843900  0.545800  0.592300  1.0  -0.4495
  N  N156  1  0.553900  0.343200  0.591000  1.0  -0.4591
  O  O157  1  0.578700  0.215200  0.287800  1.0  -0.5691
  O  O158  1  0.078700  0.284800  0.787800  1.0  -0.5698
  O  O159  1  0.921300  0.715200  0.212200  1.0  -0.5684
  O  O160  1  0.421300  0.784800  0.712200  1.0  -0.5683
