# generated using pymatgen
data_GdH4(C3O2)3
_symmetry_space_group_name_H-M   'P 1'
_cell_length_a   7.07600000
_cell_length_b   12.81400000
_cell_length_c   13.48300000
_cell_angle_alpha   90.00000000
_cell_angle_beta   104.18800000
_cell_angle_gamma   90.00000000
_symmetry_Int_Tables_number   1
_chemical_formula_structural   GdH4(C3O2)3
_chemical_formula_sum   'Gd4 H16 C36 O24'
_cell_volume   1185.23758828
_cell_formula_units_Z   4
loop_
 _symmetry_equiv_pos_site_id
 _symmetry_equiv_pos_as_xyz
  1  'x, y, z'
loop_
 _atom_site_type_symbol
 _atom_site_label
 _atom_site_symmetry_multiplicity
 _atom_site_fract_x
 _atom_site_fract_y
 _atom_site_fract_z
 _atom_site_occupancy
 _atom_site_charge
  Gd  Gd1  1  0.383960  0.570400  0.701220  1.0  2.1532
  Gd  Gd2  1  0.116040  0.070400  0.298780  1.0  2.1534
  Gd  Gd3  1  0.616040  0.429600  0.298780  1.0  2.1541
  Gd  Gd4  1  0.883960  0.929600  0.701220  1.0  2.1535
  H  H5  1  0.296100  0.934900  0.947700  1.0  0.0974
  H  H6  1  0.434700  0.961900  0.119600  1.0  0.1104
  H  H7  1  0.532300  0.821200  0.227300  1.0  0.107
  H  H8  1  0.373600  0.625900  0.988000  1.0  0.1049
  H  H9  1  0.203900  0.434900  0.052300  1.0  0.097
  H  H10  1  0.065300  0.461900  0.880400  1.0  0.1101
  H  H11  1  0.967700  0.321200  0.772700  1.0  0.1078
  H  H12  1  0.126400  0.125900  0.012000  1.0  0.1048
  H  H13  1  0.703900  0.065100  0.052300  1.0  0.0973
  H  H14  1  0.565300  0.038100  0.880400  1.0  0.1105
  H  H15  1  0.467700  0.178800  0.772700  1.0  0.108
  H  H16  1  0.626400  0.374100  0.012000  1.0  0.1049
  H  H17  1  0.796100  0.565100  0.947700  1.0  0.0971
  H  H18  1  0.934700  0.538100  0.119600  1.0  0.1112
  H  H19  1  0.032300  0.678800  0.227300  1.0  0.1071
  H  H20  1  0.873600  0.874100  0.988000  1.0  0.105
  C  C21  1  0.230500  0.759200  0.839500  1.0  0.8089
  C  C22  1  0.320500  0.776500  0.949700  1.0  -0.2164
  C  C23  1  0.338800  0.878200  0.990400  1.0  -0.0109
  C  C24  1  0.419800  0.894400  0.093500  1.0  -0.1181
  C  C25  1  0.478600  0.810200  0.157900  1.0  -0.0215
  C  C26  1  0.457500  0.708400  0.118700  1.0  -0.1581
  C  C27  1  0.382400  0.693200  0.014500  1.0  0.0289
  C  C28  1  0.515400  0.616000  0.185700  1.0  0.6576
  C  C29  1  0.393200  0.485300  0.476000  1.0  0.5825
  C  C30  1  0.269500  0.259200  0.160500  1.0  0.8069
  C  C31  1  0.179500  0.276500  0.050300  1.0  -0.2187
  C  C32  1  0.161200  0.378200  0.009600  1.0  -0.0105
  C  C33  1  0.080200  0.394400  0.906500  1.0  -0.1194
  C  C34  1  0.021400  0.310200  0.842100  1.0  -0.0018
  C  C35  1  0.042500  0.208400  0.881300  1.0  -0.1584
  C  C36  1  0.117600  0.193200  0.985500  1.0  0.0284
  C  C37  1  0.984600  0.116000  0.814300  1.0  0.6582
  C  C38  1  0.106800  0.985300  0.524000  1.0  0.5815
  C  C39  1  0.769500  0.240800  0.160500  1.0  0.8074
  C  C40  1  0.679500  0.223500  0.050300  1.0  -0.2186
  C  C41  1  0.661200  0.121800  0.009600  1.0  -0.0104
  C  C42  1  0.580200  0.105600  0.906500  1.0  -0.1192
  C  C43  1  0.521400  0.189800  0.842100  1.0  -0.0005
  C  C44  1  0.542500  0.291600  0.881300  1.0  -0.157
  C  C45  1  0.617600  0.306800  0.985500  1.0  0.0274
  C  C46  1  0.484600  0.384000  0.814300  1.0  0.6581
  C  C47  1  0.606800  0.514700  0.524000  1.0  0.5819
  C  C48  1  0.730500  0.740800  0.839500  1.0  0.8086
  C  C49  1  0.820500  0.723500  0.949700  1.0  -0.2164
  C  C50  1  0.838800  0.621800  0.990400  1.0  -0.0088
  C  C51  1  0.919800  0.605600  0.093500  1.0  -0.1184
  C  C52  1  0.978600  0.689800  0.157900  1.0  -0.0213
  C  C53  1  0.957500  0.791600  0.118700  1.0  -0.1597
  C  C54  1  0.882400  0.806800  0.014500  1.0  0.0279
  C  C55  1  0.015400  0.884000  0.185700  1.0  0.6582
  C  C56  1  0.893200  0.014700  0.476000  1.0  0.5831
  O  O57  1  0.235400  0.669100  0.803400  1.0  -0.7626
  O  O58  1  0.652800  0.665500  0.784500  1.0  -0.7442
  O  O59  1  0.562600  0.623900  0.283700  1.0  -0.6678
  O  O60  1  0.516100  0.527100  0.146100  1.0  -0.6476
  O  O61  1  0.271100  0.503700  0.525900  1.0  -0.6572
  O  O62  1  0.640300  0.554600  0.612100  1.0  -0.6604
  O  O63  1  0.264600  0.169100  0.196600  1.0  -0.7557
  O  O64  1  0.847200  0.165500  0.215500  1.0  -0.7428
  O  O65  1  0.937400  0.123900  0.716300  1.0  -0.669
  O  O66  1  0.983900  0.027100  0.853900  1.0  -0.6494
  O  O67  1  0.228900  0.003700  0.474100  1.0  -0.6566
  O  O68  1  0.859700  0.054600  0.387900  1.0  -0.6607
  O  O69  1  0.764600  0.330900  0.196600  1.0  -0.7513
  O  O70  1  0.347200  0.334500  0.215500  1.0  -0.7423
  O  O71  1  0.437400  0.376100  0.716300  1.0  -0.6695
  O  O72  1  0.483900  0.472900  0.853900  1.0  -0.6494
  O  O73  1  0.728900  0.496300  0.474100  1.0  -0.6567
  O  O74  1  0.359700  0.445400  0.387900  1.0  -0.6581
  O  O75  1  0.735400  0.830900  0.803400  1.0  -0.7613
  O  O76  1  0.152800  0.834500  0.784500  1.0  -0.7439
  O  O77  1  0.062600  0.876100  0.283700  1.0  -0.668
  O  O78  1  0.016100  0.972900  0.146100  1.0  -0.6467
  O  O79  1  0.771100  0.996300  0.525900  1.0  -0.6567
  O  O80  1  0.140300  0.945400  0.612100  1.0  -0.6583
