# generated using pymatgen
data_TmH3C9NO8
_symmetry_space_group_name_H-M   'P 1'
_cell_length_a   9.68900000
_cell_length_b   11.21100000
_cell_length_c   12.85100000
_cell_angle_alpha   90.00000000
_cell_angle_beta   90.00000000
_cell_angle_gamma   111.72600000
_symmetry_Int_Tables_number   1
_chemical_formula_structural   TmH3C9NO8
_chemical_formula_sum   'Tm4 H12 C36 N4 O32'
_cell_volume   1296.75950170
_cell_formula_units_Z   4
loop_
 _symmetry_equiv_pos_site_id
 _symmetry_equiv_pos_as_xyz
  1  'x, y, z'
loop_
 _atom_site_type_symbol
 _atom_site_label
 _atom_site_symmetry_multiplicity
 _atom_site_fract_x
 _atom_site_fract_y
 _atom_site_fract_z
 _atom_site_occupancy
 _atom_site_charge
  Tm  Tm1  1  0.144700  0.357700  0.347580  1.0  2.131
  Tm  Tm2  1  0.355300  0.642300  0.847580  1.0  2.13
  Tm  Tm3  1  0.855300  0.642300  0.652420  1.0  2.1292
  Tm  Tm4  1  0.644700  0.357700  0.152420  1.0  2.1301
  H  H5  1  0.847600  0.999000  0.423600  1.0  0.1164
  H  H6  1  0.515800  0.950700  0.686200  1.0  0.1228
  H  H7  1  0.560600  0.262100  0.513500  1.0  0.1253
  H  H8  1  0.652400  0.001000  0.923600  1.0  0.1145
  H  H9  1  0.984200  0.049300  0.186200  1.0  0.1231
  H  H10  1  0.939400  0.737900  0.013500  1.0  0.1252
  H  H11  1  0.152400  0.001000  0.576400  1.0  0.1149
  H  H12  1  0.484200  0.049300  0.313800  1.0  0.1231
  H  H13  1  0.439400  0.737900  0.486500  1.0  0.1253
  H  H14  1  0.347600  0.999000  0.076400  1.0  0.1166
  H  H15  1  0.015800  0.950700  0.813800  1.0  0.1229
  H  H16  1  0.060600  0.262100  0.986500  1.0  0.1252
  C  C17  1  0.344800  0.144000  0.535600  1.0  -0.1254
  C  C18  1  0.255200  0.028800  0.582400  1.0  0.029
  C  C19  1  0.318400  0.955500  0.637800  1.0  -0.1642
  C  C20  1  0.472000  0.997900  0.648200  1.0  -0.0035
  C  C21  1  0.557100  0.110600  0.601400  1.0  -0.0559
  C  C22  1  0.499000  0.186100  0.544600  1.0  -0.0246
  C  C23  1  0.275900  0.222100  0.475700  1.0  0.68
  C  C24  1  0.222800  0.831200  0.687900  1.0  0.8178
  C  C25  1  0.949800  0.505600  0.454600  1.0  0.6014
  C  C26  1  0.155200  0.856000  0.035600  1.0  -0.125
  C  C27  1  0.244800  0.971200  0.082400  1.0  0.0272
  C  C28  1  0.181600  0.044500  0.137800  1.0  -0.1644
  C  C29  1  0.028000  0.002100  0.148200  1.0  -0.0028
  C  C30  1  0.942900  0.889400  0.101400  1.0  -0.0566
  C  C31  1  0.001000  0.813900  0.044600  1.0  -0.0301
  C  C32  1  0.224100  0.777900  0.975700  1.0  0.6811
  C  C33  1  0.277200  0.168800  0.187900  1.0  0.8111
  C  C34  1  0.550200  0.494400  0.954600  1.0  0.6016
  C  C35  1  0.655200  0.856000  0.464400  1.0  -0.125
  C  C36  1  0.744800  0.971200  0.417600  1.0  0.0268
  C  C37  1  0.681600  0.044500  0.362200  1.0  -0.1649
  C  C38  1  0.528000  0.002100  0.351800  1.0  1e-04
  C  C39  1  0.442900  0.889400  0.398600  1.0  -0.057
  C  C40  1  0.501000  0.813900  0.455400  1.0  -0.0295
  C  C41  1  0.724100  0.777900  0.524300  1.0  0.6817
  C  C42  1  0.777200  0.168800  0.312100  1.0  0.8124
  C  C43  1  0.050200  0.494400  0.545400  1.0  0.6023
  C  C44  1  0.844800  0.144000  0.964400  1.0  -0.1254
  C  C45  1  0.755200  0.028800  0.917600  1.0  0.0289
  C  C46  1  0.818400  0.955500  0.862200  1.0  -0.1669
  C  C47  1  0.972000  0.997900  0.851800  1.0  -0.0
  C  C48  1  0.057100  0.110600  0.898600  1.0  -0.0562
  C  C49  1  0.999000  0.186100  0.955400  1.0  -0.0255
  C  C50  1  0.775900  0.222100  0.024300  1.0  0.6804
  C  C51  1  0.722800  0.831200  0.812100  1.0  0.8172
  C  C52  1  0.449800  0.505600  0.045400  1.0  0.6013
  N  N53  1  0.721100  0.155800  0.611100  1.0  0.6129
  N  N54  1  0.778900  0.844200  0.111100  1.0  0.6105
  N  N55  1  0.278900  0.844200  0.388900  1.0  0.6109
  N  N56  1  0.221100  0.155800  0.888900  1.0  0.6124
  O  O57  1  0.360200  0.328200  0.435300  1.0  -0.6735
  O  O58  1  0.138100  0.185200  0.467700  1.0  -0.6058
  O  O59  1  0.914100  0.199500  0.315900  1.0  -0.7207
  O  O60  1  0.287400  0.766700  0.731400  1.0  -0.7598
  O  O61  1  0.772400  0.090200  0.662000  1.0  -0.3849
  O  O62  1  0.795400  0.253000  0.566900  1.0  -0.3928
  O  O63  1  0.854000  0.551700  0.476200  1.0  -0.6285
  O  O64  1  0.974300  0.468300  0.368100  1.0  -0.6909
  O  O65  1  0.139800  0.671800  0.935300  1.0  -0.6748
  O  O66  1  0.361900  0.814800  0.967700  1.0  -0.6057
  O  O67  1  0.585900  0.800500  0.815900  1.0  -0.7225
  O  O68  1  0.212600  0.233300  0.231400  1.0  -0.7583
  O  O69  1  0.727600  0.909800  0.162000  1.0  -0.379
  O  O70  1  0.704600  0.747000  0.066900  1.0  -0.3899
  O  O71  1  0.646000  0.448300  0.976200  1.0  -0.6298
  O  O72  1  0.525700  0.531700  0.868100  1.0  -0.6904
  O  O73  1  0.639800  0.671800  0.564700  1.0  -0.6743
  O  O74  1  0.861900  0.814800  0.532300  1.0  -0.6063
  O  O75  1  0.085900  0.800500  0.684100  1.0  -0.7223
  O  O76  1  0.712600  0.233300  0.268600  1.0  -0.7575
  O  O77  1  0.227600  0.909800  0.338000  1.0  -0.3783
  O  O78  1  0.204600  0.747000  0.433100  1.0  -0.3926
  O  O79  1  0.146000  0.448300  0.523800  1.0  -0.6299
  O  O80  1  0.025700  0.531700  0.631900  1.0  -0.6895
  O  O81  1  0.860200  0.328200  0.064700  1.0  -0.6755
  O  O82  1  0.638100  0.185200  0.032300  1.0  -0.6061
  O  O83  1  0.414100  0.199500  0.184100  1.0  -0.7207
  O  O84  1  0.787400  0.766700  0.768600  1.0  -0.76
  O  O85  1  0.272400  0.090200  0.838000  1.0  -0.3843
  O  O86  1  0.295400  0.253000  0.933100  1.0  -0.3966
  O  O87  1  0.354000  0.551700  0.023800  1.0  -0.6289
  O  O88  1  0.474300  0.468300  0.131900  1.0  -0.6899
