# generated using pymatgen
data_Mg2H30C35O11
_symmetry_space_group_name_H-M   'P 1'
_cell_length_a   16.74600000
_cell_length_b   34.09400000
_cell_length_c   19.11400000
_cell_angle_alpha   90.00000000
_cell_angle_beta   104.32100000
_cell_angle_gamma   90.00000000
_symmetry_Int_Tables_number   1
_chemical_formula_structural   Mg2H30C35O11
_chemical_formula_sum   'Mg16 H240 C280 O88'
_cell_volume   10573.79407255
_cell_formula_units_Z   8
loop_
 _symmetry_equiv_pos_site_id
 _symmetry_equiv_pos_as_xyz
  1  'x, y, z'
loop_
 _atom_site_type_symbol
 _atom_site_label
 _atom_site_symmetry_multiplicity
 _atom_site_fract_x
 _atom_site_fract_y
 _atom_site_fract_z
 _atom_site_occupancy
 _atom_site_charge
  Mg  Mg1  1  0.510700  0.832320  0.531720  1.0  1.6016
  Mg  Mg2  1  0.294030  0.822380  0.482280  1.0  1.5681
  Mg  Mg3  1  0.004490  0.875040  0.493470  1.0  1.624
  Mg  Mg4  1  0.204760  0.346180  0.038630  1.0  1.5555
  Mg  Mg5  1  0.489300  0.332320  0.968280  1.0  1.6003
  Mg  Mg6  1  0.705970  0.322380  0.017720  1.0  1.5688
  Mg  Mg7  1  0.995510  0.375040  0.006530  1.0  1.6307
  Mg  Mg8  1  0.795240  0.846180  0.461370  1.0  1.5561
  Mg  Mg9  1  0.489300  0.167680  0.468280  1.0  1.6004
  Mg  Mg10  1  0.705970  0.177620  0.517720  1.0  1.5691
  Mg  Mg11  1  0.995510  0.124960  0.506530  1.0  1.6259
  Mg  Mg12  1  0.795240  0.653820  0.961370  1.0  1.5558
  Mg  Mg13  1  0.510700  0.667680  0.031720  1.0  1.6006
  Mg  Mg14  1  0.294030  0.677620  0.982280  1.0  1.5682
  Mg  Mg15  1  0.004490  0.624960  0.993470  1.0  1.6322
  Mg  Mg16  1  0.204760  0.153820  0.538630  1.0  1.5553
  H  H17  1  0.356900  0.931400  0.048200  1.0  0.1005
  H  H18  1  0.337900  0.930400  0.961900  1.0  0.0953
  H  H19  1  0.431200  0.931000  0.009200  1.0  0.0977
  H  H20  1  0.410100  0.095000  0.886300  1.0  0.0896
  H  H21  1  0.470200  0.060100  0.875900  1.0  0.0979
  H  H22  1  0.374300  0.058500  0.835500  1.0  0.103
  H  H23  1  0.321900  0.052500  0.154200  1.0  0.116
  H  H24  1  0.383600  0.086300  0.142300  1.0  0.1042
  H  H25  1  0.288400  0.088100  0.100200  1.0  0.1001
  H  H26  1  0.287400  0.001600  0.138500  1.0  0.0628
  H  H27  1  0.294600  0.960600  0.099000  1.0  0.0834
  H  H28  1  0.513400  0.949900  0.268000  1.0  0.0889
  H  H29  1  0.513700  0.906900  0.361700  1.0  0.1021
  H  H30  1  0.265300  0.903200  0.301100  1.0  0.0887
  H  H31  1  0.264900  0.945700  0.206700  1.0  0.1075
  H  H32  1  0.461800  0.998000  0.869500  1.0  0.0776
  H  H33  1  0.463900  0.959100  0.917600  1.0  0.0566
  H  H34  1  0.494300  0.946500  0.804300  1.0  0.1047
  H  H35  1  0.503400  0.905100  0.709200  1.0  0.0923
  H  H36  1  0.257600  0.893600  0.653700  1.0  0.094
  H  H37  1  0.246600  0.932400  0.750100  1.0  0.1088
  H  H38  1  0.378300  0.120600  0.951700  1.0  0.0981
  H  H39  1  0.337500  0.122500  0.019500  1.0  0.0655
  H  H40  1  0.406900  0.180400  0.960100  1.0  0.1113
  H  H41  1  0.474500  0.239500  0.957000  1.0  0.0965
  H  H42  1  0.657600  0.204900  0.125500  1.0  0.1007
  H  H43  1  0.591900  0.145000  0.127000  1.0  0.1043
  H  H44  1  0.853400  0.948900  0.048300  1.0  0.0966
  H  H45  1  0.834700  0.943300  0.962600  1.0  0.1035
  H  H46  1  0.927900  0.944900  0.010000  1.0  0.1016
  H  H47  1  0.827600  0.074300  0.139000  1.0  0.1027
  H  H48  1  0.892500  0.105300  0.122800  1.0  0.1176
  H  H49  1  0.796800  0.109400  0.083200  1.0  0.0999
  H  H50  1  0.929200  0.054400  0.831900  1.0  0.1029
  H  H51  1  0.867800  0.090000  0.835000  1.0  0.1059
  H  H52  1  0.962900  0.093000  0.877300  1.0  0.1022
  H  H53  1  0.963100  0.005200  0.862200  1.0  0.0596
  H  H54  1  0.957100  0.968000  0.912400  1.0  0.0584
  H  H55  1  0.743000  0.948100  0.734800  1.0  0.115
  H  H56  1  0.754400  0.910300  0.638000  1.0  0.0918
  H  H57  1  0.001600  0.918300  0.701200  1.0  0.089
  H  H58  1  0.992000  0.954800  0.800800  1.0  0.1116
  H  H59  1  0.780400  0.025100  0.121700  1.0  0.0591
  H  H60  1  0.782000  0.982800  0.085100  1.0  0.0578
  H  H61  1  0.744000  0.979400  0.194200  1.0  0.1019
  H  H62  1  0.724200  0.939200  0.285500  1.0  0.0952
  H  H63  1  0.969000  0.918500  0.347200  1.0  0.0965
  H  H64  1  0.988000  0.957900  0.254800  1.0  0.0989
  H  H65  1  0.860000  0.133500  0.923000  1.0  0.0652
  H  H66  1  0.843800  0.137700  0.002300  1.0  0.0567
  H  H67  1  0.104200  0.161200  0.055500  1.0  0.1084
  H  H68  1  0.152600  0.224800  0.054600  1.0  0.0931
  H  H69  1  0.920900  0.263500  0.973400  1.0  0.1014
  H  H70  1  0.871000  0.198500  0.969100  1.0  0.12
  H  H71  1  0.710400  0.771000  0.400200  1.0  0.1268
  H  H72  1  0.657500  0.742600  0.438000  1.0  0.1326
  H  H73  1  0.614800  0.763800  0.363400  1.0  0.1238
  H  H74  1  0.075700  0.845400  0.289600  1.0  0.1379
  H  H75  1  0.171800  0.855400  0.316200  1.0  0.1304
  H  H76  1  0.140400  0.811400  0.321000  1.0  0.1381
  H  H77  1  0.643100  0.431400  0.451800  1.0  0.0999
  H  H78  1  0.662100  0.430400  0.538100  1.0  0.0958
  H  H79  1  0.568800  0.431000  0.490800  1.0  0.0968
  H  H80  1  0.589900  0.595000  0.613700  1.0  0.0892
  H  H81  1  0.529800  0.560100  0.624100  1.0  0.0957
  H  H82  1  0.625700  0.558500  0.664500  1.0  0.1019
  H  H83  1  0.678100  0.552500  0.345800  1.0  0.1145
  H  H84  1  0.616400  0.586300  0.357700  1.0  0.1049
  H  H85  1  0.711600  0.588100  0.399800  1.0  0.1029
  H  H86  1  0.712600  0.501600  0.361500  1.0  0.0619
  H  H87  1  0.705400  0.460600  0.401000  1.0  0.0823
  H  H88  1  0.486600  0.449900  0.232000  1.0  0.0891
  H  H89  1  0.486300  0.406900  0.138300  1.0  0.1021
  H  H90  1  0.734700  0.403200  0.198900  1.0  0.0888
  H  H91  1  0.735100  0.445700  0.293300  1.0  0.1081
  H  H92  1  0.538200  0.498000  0.630500  1.0  0.0785
  H  H93  1  0.536100  0.459100  0.582400  1.0  0.0587
  H  H94  1  0.505700  0.446500  0.695700  1.0  0.1035
  H  H95  1  0.496600  0.405100  0.790800  1.0  0.0935
  H  H96  1  0.742400  0.393600  0.846300  1.0  0.0939
  H  H97  1  0.753400  0.432400  0.749900  1.0  0.1105
  H  H98  1  0.621700  0.620600  0.548300  1.0  0.0982
  H  H99  1  0.662500  0.622500  0.480500  1.0  0.0659
  H  H100  1  0.593100  0.680400  0.539900  1.0  0.1121
  H  H101  1  0.525500  0.739500  0.543000  1.0  0.0965
  H  H102  1  0.342400  0.704900  0.374500  1.0  0.1011
  H  H103  1  0.408100  0.645000  0.373000  1.0  0.1038
  H  H104  1  0.146600  0.448900  0.451700  1.0  0.0961
  H  H105  1  0.165300  0.443300  0.537400  1.0  0.1021
  H  H106  1  0.072100  0.444900  0.490000  1.0  0.0997
  H  H107  1  0.172400  0.574300  0.361000  1.0  0.1011
  H  H108  1  0.107500  0.605300  0.377200  1.0  0.1157
  H  H109  1  0.203200  0.609400  0.416800  1.0  0.1013
  H  H110  1  0.070800  0.554400  0.668100  1.0  0.103
  H  H111  1  0.132200  0.590000  0.665000  1.0  0.1048
  H  H112  1  0.037100  0.593000  0.622700  1.0  0.0997
  H  H113  1  0.036900  0.505200  0.637800  1.0  0.0591
  H  H114  1  0.042900  0.468000  0.587600  1.0  0.0599
  H  H115  1  0.257000  0.448100  0.765200  1.0  0.1149
  H  H116  1  0.245600  0.410300  0.862000  1.0  0.092
  H  H117  1  0.998400  0.418300  0.798800  1.0  0.0903
  H  H118  1  0.008000  0.454800  0.699200  1.0  0.1112
  H  H119  1  0.219600  0.525100  0.378300  1.0  0.0585
  H  H120  1  0.218000  0.482800  0.414900  1.0  0.0558
  H  H121  1  0.256000  0.479400  0.305800  1.0  0.1032
  H  H122  1  0.275800  0.439200  0.214500  1.0  0.095
  H  H123  1  0.031000  0.418500  0.152800  1.0  0.0959
  H  H124  1  0.012000  0.457900  0.245200  1.0  0.0984
  H  H125  1  0.140000  0.633500  0.577000  1.0  0.0647
  H  H126  1  0.156200  0.637700  0.497700  1.0  0.0572
  H  H127  1  0.895800  0.661200  0.444500  1.0  0.1081
  H  H128  1  0.847400  0.724800  0.445400  1.0  0.0936
  H  H129  1  0.079100  0.763500  0.526600  1.0  0.1015
  H  H130  1  0.129000  0.698500  0.530900  1.0  0.1201
  H  H131  1  0.289600  0.271000  0.099800  1.0  0.1287
  H  H132  1  0.342500  0.242600  0.062000  1.0  0.1322
  H  H133  1  0.385200  0.263800  0.136600  1.0  0.128
  H  H134  1  0.924300  0.345400  0.210400  1.0  0.1411
  H  H135  1  0.828200  0.355400  0.183800  1.0  0.1306
  H  H136  1  0.859600  0.311400  0.179000  1.0  0.1384
  H  H137  1  0.643100  0.068600  0.951800  1.0  0.1006
  H  H138  1  0.662100  0.069600  0.038100  1.0  0.0946
  H  H139  1  0.568800  0.069000  0.990800  1.0  0.0963
  H  H140  1  0.589900  0.905000  0.113700  1.0  0.0921
  H  H141  1  0.529800  0.939900  0.124100  1.0  0.0955
  H  H142  1  0.625700  0.941500  0.164500  1.0  0.1025
  H  H143  1  0.678100  0.947500  0.845800  1.0  0.1142
  H  H144  1  0.616400  0.913700  0.857700  1.0  0.1036
  H  H145  1  0.711600  0.911900  0.899800  1.0  0.1016
  H  H146  1  0.712600  0.998400  0.861500  1.0  0.0615
  H  H147  1  0.705400  0.039400  0.901000  1.0  0.0808
  H  H148  1  0.486600  0.050100  0.732000  1.0  0.0893
  H  H149  1  0.486300  0.093100  0.638300  1.0  0.1021
  H  H150  1  0.734700  0.096800  0.698900  1.0  0.0891
  H  H151  1  0.735100  0.054300  0.793300  1.0  0.1079
  H  H152  1  0.538200  0.002000  0.130500  1.0  0.0788
  H  H153  1  0.536100  0.040900  0.082400  1.0  0.0588
  H  H154  1  0.505700  0.053500  0.195700  1.0  0.104
  H  H155  1  0.496600  0.094900  0.290800  1.0  0.0931
  H  H156  1  0.742400  0.106400  0.346300  1.0  0.0938
  H  H157  1  0.753400  0.067600  0.249900  1.0  0.11
  H  H158  1  0.621700  0.879400  0.048300  1.0  0.0996
  H  H159  1  0.662500  0.877500  0.980500  1.0  0.0651
  H  H160  1  0.593100  0.819600  0.039900  1.0  0.1126
  H  H161  1  0.525500  0.760500  0.043000  1.0  0.097
  H  H162  1  0.342400  0.795100  0.874500  1.0  0.101
  H  H163  1  0.408100  0.855000  0.873000  1.0  0.1046
  H  H164  1  0.146600  0.051100  0.951700  1.0  0.0952
  H  H165  1  0.165300  0.056700  0.037400  1.0  0.1015
  H  H166  1  0.072100  0.055100  0.990000  1.0  0.0985
  H  H167  1  0.172400  0.925700  0.861000  1.0  0.0991
  H  H168  1  0.107500  0.894700  0.877200  1.0  0.1159
  H  H169  1  0.203200  0.890600  0.916800  1.0  0.1009
  H  H170  1  0.070800  0.945600  0.168100  1.0  0.1038
  H  H171  1  0.132200  0.910000  0.165000  1.0  0.1058
  H  H172  1  0.037100  0.907000  0.122700  1.0  0.1011
  H  H173  1  0.036900  0.994800  0.137800  1.0  0.0596
  H  H174  1  0.042900  0.032000  0.087600  1.0  0.0591
  H  H175  1  0.257000  0.051900  0.265200  1.0  0.1149
  H  H176  1  0.245600  0.089700  0.362000  1.0  0.092
  H  H177  1  0.998400  0.081700  0.298800  1.0  0.09
  H  H178  1  0.008000  0.045200  0.199200  1.0  0.111
  H  H179  1  0.219600  0.974900  0.878300  1.0  0.0585
  H  H180  1  0.218000  0.017200  0.914900  1.0  0.0546
  H  H181  1  0.256000  0.020600  0.805800  1.0  0.103
  H  H182  1  0.275800  0.060800  0.714500  1.0  0.0949
  H  H183  1  0.031000  0.081500  0.652800  1.0  0.0957
  H  H184  1  0.012000  0.042100  0.745200  1.0  0.0985
  H  H185  1  0.140000  0.866500  0.077000  1.0  0.0648
  H  H186  1  0.156200  0.862300  0.997700  1.0  0.0569
  H  H187  1  0.895800  0.838800  0.944500  1.0  0.1082
  H  H188  1  0.847400  0.775200  0.945400  1.0  0.0936
  H  H189  1  0.079100  0.736500  0.026600  1.0  0.1018
  H  H190  1  0.129000  0.801500  0.030900  1.0  0.1197
  H  H191  1  0.289600  0.229000  0.599800  1.0  0.1287
  H  H192  1  0.342500  0.257400  0.562000  1.0  0.1325
  H  H193  1  0.385200  0.236200  0.636600  1.0  0.1277
  H  H194  1  0.924300  0.154600  0.710400  1.0  0.1417
  H  H195  1  0.828200  0.144600  0.683800  1.0  0.1306
  H  H196  1  0.859600  0.188600  0.679000  1.0  0.1373
  H  H197  1  0.356900  0.568600  0.548200  1.0  0.1003
  H  H198  1  0.337900  0.569600  0.461900  1.0  0.0964
  H  H199  1  0.431200  0.569000  0.509200  1.0  0.0963
  H  H200  1  0.410100  0.405000  0.386300  1.0  0.0906
  H  H201  1  0.470200  0.439900  0.375900  1.0  0.0985
  H  H202  1  0.374300  0.441500  0.335500  1.0  0.1016
  H  H203  1  0.321900  0.447500  0.654200  1.0  0.1168
  H  H204  1  0.383600  0.413700  0.642300  1.0  0.1047
  H  H205  1  0.288400  0.411900  0.600200  1.0  0.0999
  H  H206  1  0.287400  0.498400  0.638500  1.0  0.0631
  H  H207  1  0.294600  0.539400  0.599000  1.0  0.0818
  H  H208  1  0.513400  0.550100  0.768000  1.0  0.0892
  H  H209  1  0.513700  0.593100  0.861700  1.0  0.102
  H  H210  1  0.265300  0.596800  0.801100  1.0  0.0887
  H  H211  1  0.264900  0.554300  0.706700  1.0  0.1067
  H  H212  1  0.461800  0.502000  0.369500  1.0  0.0777
  H  H213  1  0.463900  0.540900  0.417600  1.0  0.0564
  H  H214  1  0.494300  0.553500  0.304300  1.0  0.1055
  H  H215  1  0.503400  0.594900  0.209200  1.0  0.0927
  H  H216  1  0.257600  0.606400  0.153700  1.0  0.094
  H  H217  1  0.246600  0.567600  0.250100  1.0  0.1084
  H  H218  1  0.378300  0.379400  0.451700  1.0  0.0981
  H  H219  1  0.337500  0.377500  0.519500  1.0  0.0662
  H  H220  1  0.406900  0.319600  0.460100  1.0  0.1121
  H  H221  1  0.474500  0.260500  0.457000  1.0  0.0964
  H  H222  1  0.657600  0.295100  0.625500  1.0  0.1007
  H  H223  1  0.591900  0.355000  0.627000  1.0  0.1045
  H  H224  1  0.853400  0.551100  0.548300  1.0  0.0958
  H  H225  1  0.834700  0.556700  0.462600  1.0  0.1037
  H  H226  1  0.927900  0.555100  0.510000  1.0  0.1001
  H  H227  1  0.827600  0.425700  0.639000  1.0  0.1015
  H  H228  1  0.892500  0.394700  0.622800  1.0  0.1173
  H  H229  1  0.796800  0.390600  0.583200  1.0  0.1
  H  H230  1  0.929200  0.445600  0.331900  1.0  0.1035
  H  H231  1  0.867800  0.410000  0.335000  1.0  0.1055
  H  H232  1  0.962900  0.407000  0.377300  1.0  0.1021
  H  H233  1  0.963100  0.494800  0.362200  1.0  0.0593
  H  H234  1  0.957100  0.532000  0.412400  1.0  0.0576
  H  H235  1  0.743000  0.551900  0.234800  1.0  0.115
  H  H236  1  0.754400  0.589700  0.138000  1.0  0.0921
  H  H237  1  0.001600  0.581700  0.201200  1.0  0.0892
  H  H238  1  0.992000  0.545200  0.300800  1.0  0.112
  H  H239  1  0.780400  0.474900  0.621700  1.0  0.0599
  H  H240  1  0.782000  0.517200  0.585100  1.0  0.0566
  H  H241  1  0.744000  0.520600  0.694200  1.0  0.1026
  H  H242  1  0.724200  0.560800  0.785500  1.0  0.095
  H  H243  1  0.969000  0.581500  0.847200  1.0  0.0963
  H  H244  1  0.988000  0.542100  0.754800  1.0  0.099
  H  H245  1  0.860000  0.366500  0.423000  1.0  0.0658
  H  H246  1  0.843800  0.362300  0.502300  1.0  0.0577
  H  H247  1  0.104200  0.338800  0.555500  1.0  0.1083
  H  H248  1  0.152600  0.275200  0.554600  1.0  0.0931
  H  H249  1  0.920900  0.236500  0.473400  1.0  0.1011
  H  H250  1  0.871000  0.301500  0.469100  1.0  0.1198
  H  H251  1  0.710400  0.729000  0.900200  1.0  0.1267
  H  H252  1  0.657500  0.757400  0.938000  1.0  0.1323
  H  H253  1  0.614800  0.736200  0.863400  1.0  0.124
  H  H254  1  0.075700  0.654600  0.789600  1.0  0.1387
  H  H255  1  0.171800  0.644600  0.816200  1.0  0.1309
  H  H256  1  0.140400  0.688600  0.821000  1.0  0.1376
  C  C257  1  0.350500  0.006650  0.058200  1.0  -0.0809
  C  C258  1  0.374700  0.984630  0.004300  1.0  0.0911
  C  C259  1  0.398600  0.004400  0.948780  1.0  -0.136
  C  C260  1  0.396400  0.044970  0.944900  1.0  0.0316
  C  C261  1  0.375000  0.066780  0.000300  1.0  -0.1316
  C  C262  1  0.354100  0.047570  0.057400  1.0  0.0731
  C  C263  1  0.375200  0.940520  0.006100  1.0  -0.3644
  C  C264  1  0.414400  0.066600  0.879700  1.0  -0.3416
  C  C265  1  0.335300  0.070640  0.118900  1.0  -0.3586
  C  C266  1  0.324400  0.984990  0.118000  1.0  0.036
  C  C267  1  0.390500  0.951370  0.226900  1.0  0.3029
  C  C268  1  0.462500  0.940020  0.274200  1.0  -0.2143
  C  C269  1  0.462900  0.914730  0.330400  1.0  -0.0652
  C  C270  1  0.389100  0.900610  0.341400  1.0  -0.1385
  C  C271  1  0.316200  0.912590  0.294300  1.0  -0.0273
  C  C272  1  0.315600  0.937700  0.237900  1.0  -0.2319
  C  C273  1  0.389000  0.872890  0.402100  1.0  0.7276
  C  C274  1  0.428800  0.981110  0.893900  1.0  0.0604
  C  C275  1  0.369200  0.943230  0.787500  1.0  0.2952
  C  C276  1  0.445800  0.935360  0.774400  1.0  -0.2515
  C  C277  1  0.450800  0.910950  0.717000  1.0  -0.0399
  C  C278  1  0.382100  0.895170  0.671800  1.0  -0.1329
  C  C279  1  0.306200  0.903970  0.684900  1.0  -0.0378
  C  C280  1  0.299300  0.927260  0.741900  1.0  -0.258
  C  C281  1  0.388400  0.870170  0.609000  1.0  0.7414
  C  C282  1  0.382100  0.110560  0.001000  1.0  -0.0044
  C  C283  1  0.493900  0.156550  0.042600  1.0  0.2762
  C  C284  1  0.458600  0.185100  0.993100  1.0  -0.2041
  C  C285  1  0.498500  0.220280  0.991900  1.0  -0.0403
  C  C286  1  0.572900  0.228240  0.040300  1.0  -0.1393
  C  C287  1  0.607000  0.199830  0.091200  1.0  -0.0543
  C  C288  1  0.567900  0.164260  0.092200  1.0  -0.2202
  C  C289  1  0.618900  0.265520  0.036500  1.0  0.6672
  C  C290  1  0.897200  0.016690  0.937400  1.0  -0.1702
  C  C291  1  0.872900  0.999180  0.995400  1.0  0.0875
  C  C292  1  0.848200  0.024430  0.045100  1.0  -0.1194
  C  C293  1  0.854500  0.065090  0.040200  1.0  0.0604
  C  C294  1  0.875100  0.080520  0.979900  1.0  -0.1361
  C  C295  1  0.896200  0.057520  0.927700  1.0  0.0857
  C  C296  1  0.872200  0.955190  0.004900  1.0  -0.3729
  C  C297  1  0.841700  0.090840  0.101800  1.0  -0.362
  C  C298  1  0.915700  0.075300  0.862300  1.0  -0.3784
  C  C299  1  0.926300  0.990600  0.886300  1.0  0.0462
  C  C300  1  0.866900  0.954520  0.778000  1.0  0.2686
  C  C301  1  0.795900  0.941670  0.728300  1.0  -0.2578
  C  C302  1  0.802900  0.919950  0.670400  1.0  -0.0383
  C  C303  1  0.879200  0.911570  0.657600  1.0  -0.1652
  C  C304  1  0.948700  0.924530  0.708100  1.0  -0.0628
  C  C305  1  0.943500  0.945970  0.767400  1.0  -0.2796
  C  C306  1  0.886700  0.889570  0.592800  1.0  0.7153
  C  C307  1  0.815600  0.006110  0.103900  1.0  0.0485
  C  C308  1  0.868300  0.971520  0.215100  1.0  0.327
  C  C309  1  0.789600  0.966350  0.224800  1.0  -0.2521
  C  C310  1  0.778100  0.942410  0.278700  1.0  -0.0306
  C  C311  1  0.843800  0.922660  0.323800  1.0  -0.1278
  C  C312  1  0.922500  0.930100  0.314900  1.0  -0.0997
  C  C313  1  0.934000  0.953730  0.260800  1.0  -0.221
  C  C314  1  0.829200  0.896260  0.379600  1.0  0.653
  C  C315  1  0.878800  0.125020  0.974000  1.0  0.0538
  C  C316  1  0.984400  0.173600  0.005600  1.0  0.2855
  C  C317  1  0.067300  0.181800  0.035900  1.0  -0.2176
  C  C318  1  0.095400  0.219500  0.037300  1.0  -0.0507
  C  C319  1  0.040900  0.250240  0.013600  1.0  -0.1371
  C  C320  1  0.958400  0.242450  0.988600  1.0  -0.0368
  C  C321  1  0.928400  0.203730  0.985100  1.0  -0.2605
  C  C322  1  0.071200  0.291380  0.015400  1.0  0.7324
  C  C323  1  0.633900  0.801020  0.450600  1.0  0.6953
  C  C324  1  0.656100  0.766600  0.409500  1.0  -0.4856
  C  C325  1  0.117200  0.847070  0.399200  1.0  0.7221
  C  C326  1  0.127100  0.839200  0.325200  1.0  -0.4957
  C  C327  1  0.649500  0.506650  0.441800  1.0  -0.0821
  C  C328  1  0.625300  0.484630  0.495700  1.0  0.0923
  C  C329  1  0.601400  0.504400  0.551220  1.0  -0.1345
  C  C330  1  0.603600  0.544970  0.555100  1.0  0.0326
  C  C331  1  0.625000  0.566780  0.499700  1.0  -0.1318
  C  C332  1  0.645900  0.547570  0.442600  1.0  0.0725
  C  C333  1  0.624800  0.440520  0.493900  1.0  -0.364
  C  C334  1  0.585600  0.566600  0.620300  1.0  -0.3426
  C  C335  1  0.664700  0.570640  0.381100  1.0  -0.358
  C  C336  1  0.675600  0.484990  0.382000  1.0  0.0394
  C  C337  1  0.609500  0.451370  0.273100  1.0  0.3002
  C  C338  1  0.537500  0.440020  0.225800  1.0  -0.2144
  C  C339  1  0.537100  0.414730  0.169600  1.0  -0.0648
  C  C340  1  0.610900  0.400610  0.158600  1.0  -0.1395
  C  C341  1  0.683800  0.412590  0.205700  1.0  -0.0247
  C  C342  1  0.684400  0.437700  0.262100  1.0  -0.2339
  C  C343  1  0.611000  0.372890  0.097900  1.0  0.7279
  C  C344  1  0.571200  0.481110  0.606100  1.0  0.0608
  C  C345  1  0.630800  0.443230  0.712500  1.0  0.2967
  C  C346  1  0.554200  0.435360  0.725600  1.0  -0.2503
  C  C347  1  0.549200  0.410950  0.783000  1.0  -0.0411
  C  C348  1  0.617900  0.395170  0.828200  1.0  -0.1315
  C  C349  1  0.693800  0.403970  0.815100  1.0  -0.0416
  C  C350  1  0.700700  0.427260  0.758100  1.0  -0.2555
  C  C351  1  0.611600  0.370170  0.891000  1.0  0.741
  C  C352  1  0.617900  0.610560  0.499000  1.0  -0.0049
  C  C353  1  0.506100  0.656550  0.457400  1.0  0.2762
  C  C354  1  0.541400  0.685100  0.506900  1.0  -0.2044
  C  C355  1  0.501500  0.720280  0.508100  1.0  -0.0388
  C  C356  1  0.427100  0.728240  0.459700  1.0  -0.1387
  C  C357  1  0.393000  0.699830  0.408800  1.0  -0.0544
  C  C358  1  0.432100  0.664260  0.407800  1.0  -0.2207
  C  C359  1  0.381100  0.765520  0.463500  1.0  0.6675
  C  C360  1  0.102800  0.516690  0.562600  1.0  -0.1692
  C  C361  1  0.127100  0.499180  0.504600  1.0  0.0876
  C  C362  1  0.151800  0.524430  0.454900  1.0  -0.1205
  C  C363  1  0.145500  0.565090  0.459800  1.0  0.0596
  C  C364  1  0.124900  0.580520  0.520100  1.0  -0.136
  C  C365  1  0.103800  0.557520  0.572300  1.0  0.0874
  C  C366  1  0.127800  0.455190  0.495100  1.0  -0.3722
  C  C367  1  0.158300  0.590840  0.398200  1.0  -0.3611
  C  C368  1  0.084300  0.575300  0.637700  1.0  -0.3798
  C  C369  1  0.073700  0.490600  0.613700  1.0  0.045
  C  C370  1  0.133100  0.454520  0.722000  1.0  0.2698
  C  C371  1  0.204100  0.441670  0.771700  1.0  -0.2571
  C  C372  1  0.197100  0.419950  0.829600  1.0  -0.0419
  C  C373  1  0.120800  0.411570  0.842400  1.0  -0.1647
  C  C374  1  0.051300  0.424530  0.791900  1.0  -0.0616
  C  C375  1  0.056500  0.445970  0.732600  1.0  -0.2804
  C  C376  1  0.113300  0.389570  0.907200  1.0  0.7147
  C  C377  1  0.184400  0.506110  0.396100  1.0  0.0506
  C  C378  1  0.131700  0.471520  0.284900  1.0  0.3251
  C  C379  1  0.210400  0.466350  0.275200  1.0  -0.2547
  C  C380  1  0.221900  0.442410  0.221300  1.0  -0.0319
  C  C381  1  0.156200  0.422660  0.176200  1.0  -0.1291
  C  C382  1  0.077500  0.430100  0.185100  1.0  -0.0985
  C  C383  1  0.066000  0.453730  0.239200  1.0  -0.2218
  C  C384  1  0.170800  0.396260  0.120400  1.0  0.652
  C  C385  1  0.121200  0.625020  0.526000  1.0  0.0537
  C  C386  1  0.015600  0.673600  0.494400  1.0  0.2861
  C  C387  1  0.932700  0.681800  0.464100  1.0  -0.2178
  C  C388  1  0.904600  0.719500  0.462700  1.0  -0.0516
  C  C389  1  0.959100  0.750240  0.486400  1.0  -0.1374
  C  C390  1  0.041600  0.742450  0.511400  1.0  -0.0361
  C  C391  1  0.071600  0.703730  0.514900  1.0  -0.2584
  C  C392  1  0.928800  0.791380  0.484600  1.0  0.7331
  C  C393  1  0.366100  0.301020  0.049400  1.0  0.6959
  C  C394  1  0.343900  0.266600  0.090500  1.0  -0.4888
  C  C395  1  0.882800  0.347070  0.100800  1.0  0.722
  C  C396  1  0.872900  0.339200  0.174800  1.0  -0.4941
  C  C397  1  0.649500  0.993350  0.941800  1.0  -0.0824
  C  C398  1  0.625300  0.015370  0.995700  1.0  0.0921
  C  C399  1  0.601400  0.995600  0.051220  1.0  -0.1344
  C  C400  1  0.603600  0.955030  0.055100  1.0  0.0317
  C  C401  1  0.625000  0.933220  0.999700  1.0  -0.1312
  C  C402  1  0.645900  0.952430  0.942600  1.0  0.0719
  C  C403  1  0.624800  0.059480  0.993900  1.0  -0.3638
  C  C404  1  0.585600  0.933400  0.120300  1.0  -0.3431
  C  C405  1  0.664700  0.929360  0.881100  1.0  -0.3577
  C  C406  1  0.675600  0.015010  0.882000  1.0  0.0391
  C  C407  1  0.609500  0.048630  0.773100  1.0  0.2999
  C  C408  1  0.537500  0.059980  0.725800  1.0  -0.2149
  C  C409  1  0.537100  0.085270  0.669600  1.0  -0.0649
  C  C410  1  0.610900  0.099390  0.658600  1.0  -0.1385
  C  C411  1  0.683800  0.087410  0.705700  1.0  -0.0248
  C  C412  1  0.684400  0.062300  0.762100  1.0  -0.2327
  C  C413  1  0.611000  0.127110  0.597900  1.0  0.729
  C  C414  1  0.571200  0.018890  0.106100  1.0  0.0602
  C  C415  1  0.630800  0.056770  0.212500  1.0  0.2963
  C  C416  1  0.554200  0.064640  0.225600  1.0  -0.2512
  C  C417  1  0.549200  0.089050  0.283000  1.0  -0.0417
  C  C418  1  0.617900  0.104830  0.328200  1.0  -0.1316
  C  C419  1  0.693800  0.096030  0.315100  1.0  -0.0424
  C  C420  1  0.700700  0.072740  0.258100  1.0  -0.2559
  C  C421  1  0.611600  0.129830  0.391000  1.0  0.7413
  C  C422  1  0.617900  0.889440  0.999000  1.0  -0.0025
  C  C423  1  0.506100  0.843450  0.957400  1.0  0.2764
  C  C424  1  0.541400  0.814900  0.006900  1.0  -0.205
  C  C425  1  0.501500  0.779720  0.008100  1.0  -0.0404
  C  C426  1  0.427100  0.771760  0.959700  1.0  -0.1384
  C  C427  1  0.393000  0.800170  0.908800  1.0  -0.0538
  C  C428  1  0.432100  0.835740  0.907800  1.0  -0.2196
  C  C429  1  0.381100  0.734480  0.963500  1.0  0.6672
  C  C430  1  0.102800  0.983310  0.062600  1.0  -0.1696
  C  C431  1  0.127100  0.000820  0.004600  1.0  0.0872
  C  C432  1  0.151800  0.975570  0.954900  1.0  -0.1204
  C  C433  1  0.145500  0.934910  0.959800  1.0  0.06
  C  C434  1  0.124900  0.919480  0.020100  1.0  -0.136
  C  C435  1  0.103800  0.942480  0.072300  1.0  0.0871
  C  C436  1  0.127800  0.044810  0.995100  1.0  -0.3725
  C  C437  1  0.158300  0.909160  0.898200  1.0  -0.3615
  C  C438  1  0.084300  0.924700  0.137700  1.0  -0.3796
  C  C439  1  0.073700  0.009400  0.113700  1.0  0.045
  C  C440  1  0.133100  0.045480  0.222000  1.0  0.2692
  C  C441  1  0.204100  0.058330  0.271700  1.0  -0.2577
  C  C442  1  0.197100  0.080050  0.329600  1.0  -0.0424
  C  C443  1  0.120800  0.088430  0.342400  1.0  -0.1647
  C  C444  1  0.051300  0.075470  0.291900  1.0  -0.0623
  C  C445  1  0.056500  0.054030  0.232600  1.0  -0.2813
  C  C446  1  0.113300  0.110430  0.407200  1.0  0.7146
  C  C447  1  0.184400  0.993890  0.896100  1.0  0.0504
  C  C448  1  0.131700  0.028480  0.784900  1.0  0.325
  C  C449  1  0.210400  0.033650  0.775200  1.0  -0.2549
  C  C450  1  0.221900  0.057590  0.721300  1.0  -0.0315
  C  C451  1  0.156200  0.077340  0.676200  1.0  -0.128
  C  C452  1  0.077500  0.069900  0.685100  1.0  -0.0993
  C  C453  1  0.066000  0.046270  0.739200  1.0  -0.2226
  C  C454  1  0.170800  0.103740  0.620400  1.0  0.6518
  C  C455  1  0.121200  0.874980  0.026000  1.0  0.055
  C  C456  1  0.015600  0.826400  0.994400  1.0  0.2858
  C  C457  1  0.932700  0.818200  0.964100  1.0  -0.2186
  C  C458  1  0.904600  0.780500  0.962700  1.0  -0.0518
  C  C459  1  0.959100  0.749760  0.986400  1.0  -0.1378
  C  C460  1  0.041600  0.757550  0.011400  1.0  -0.036
  C  C461  1  0.071600  0.796270  0.014900  1.0  -0.2589
  C  C462  1  0.928800  0.708620  0.984600  1.0  0.7328
  C  C463  1  0.366100  0.198980  0.549400  1.0  0.6942
  C  C464  1  0.343900  0.233400  0.590500  1.0  -0.4874
  C  C465  1  0.882800  0.152930  0.600800  1.0  0.7219
  C  C466  1  0.872900  0.160800  0.674800  1.0  -0.4947
  C  C467  1  0.350500  0.493350  0.558200  1.0  -0.0813
  C  C468  1  0.374700  0.515370  0.504300  1.0  0.0909
  C  C469  1  0.398600  0.495600  0.448780  1.0  -0.1358
  C  C470  1  0.396400  0.455030  0.444900  1.0  0.0309
  C  C471  1  0.375000  0.433220  0.500300  1.0  -0.1308
  C  C472  1  0.354100  0.452430  0.557400  1.0  0.0731
  C  C473  1  0.375200  0.559480  0.506100  1.0  -0.3643
  C  C474  1  0.414400  0.433400  0.379700  1.0  -0.3418
  C  C475  1  0.335300  0.429360  0.618900  1.0  -0.359
  C  C476  1  0.324400  0.515010  0.618000  1.0  0.0354
  C  C477  1  0.390500  0.548630  0.726900  1.0  0.3025
  C  C478  1  0.462500  0.559980  0.774200  1.0  -0.2147
  C  C479  1  0.462900  0.585270  0.830400  1.0  -0.0651
  C  C480  1  0.389100  0.599390  0.841400  1.0  -0.139
  C  C481  1  0.316200  0.587410  0.794300  1.0  -0.0273
  C  C482  1  0.315600  0.562300  0.737900  1.0  -0.232
  C  C483  1  0.389000  0.627110  0.902100  1.0  0.7283
  C  C484  1  0.428800  0.518890  0.393900  1.0  0.0604
  C  C485  1  0.369200  0.556770  0.287500  1.0  0.2957
  C  C486  1  0.445800  0.564640  0.274400  1.0  -0.2517
  C  C487  1  0.450800  0.589050  0.217000  1.0  -0.0405
  C  C488  1  0.382100  0.604830  0.171800  1.0  -0.1323
  C  C489  1  0.306200  0.596030  0.184900  1.0  -0.0386
  C  C490  1  0.299300  0.572740  0.241900  1.0  -0.2583
  C  C491  1  0.388400  0.629830  0.109000  1.0  0.7419
  C  C492  1  0.382100  0.389440  0.501000  1.0  -0.0036
  C  C493  1  0.493900  0.343450  0.542600  1.0  0.2767
  C  C494  1  0.458600  0.314900  0.493100  1.0  -0.2039
  C  C495  1  0.498500  0.279720  0.491900  1.0  -0.0413
  C  C496  1  0.572900  0.271760  0.540300  1.0  -0.1384
  C  C497  1  0.607000  0.300170  0.591200  1.0  -0.054
  C  C498  1  0.567900  0.335740  0.592200  1.0  -0.2183
  C  C499  1  0.618900  0.234480  0.536500  1.0  0.6669
  C  C500  1  0.897200  0.483310  0.437400  1.0  -0.1705
  C  C501  1  0.872900  0.500820  0.495400  1.0  0.087
  C  C502  1  0.848200  0.475570  0.545100  1.0  -0.1192
  C  C503  1  0.854500  0.434910  0.540200  1.0  0.0612
  C  C504  1  0.875100  0.419480  0.479900  1.0  -0.1359
  C  C505  1  0.896200  0.442480  0.427700  1.0  0.0846
  C  C506  1  0.872200  0.544810  0.504900  1.0  -0.3727
  C  C507  1  0.841700  0.409160  0.601800  1.0  -0.363
  C  C508  1  0.915700  0.424700  0.362300  1.0  -0.3784
  C  C509  1  0.926300  0.509400  0.386300  1.0  0.0467
  C  C510  1  0.866900  0.545480  0.278000  1.0  0.2693
  C  C511  1  0.795900  0.558330  0.228300  1.0  -0.2585
  C  C512  1  0.802900  0.580050  0.170400  1.0  -0.0393
  C  C513  1  0.879200  0.588430  0.157600  1.0  -0.1646
  C  C514  1  0.948700  0.575470  0.208100  1.0  -0.0628
  C  C515  1  0.943500  0.554030  0.267400  1.0  -0.2805
  C  C516  1  0.886700  0.610430  0.092800  1.0  0.7155
  C  C517  1  0.815600  0.493890  0.603900  1.0  0.048
  C  C518  1  0.868300  0.528480  0.715100  1.0  0.3268
  C  C519  1  0.789600  0.533650  0.724800  1.0  -0.2527
  C  C520  1  0.778100  0.557590  0.778700  1.0  -0.0311
  C  C521  1  0.843800  0.577340  0.823800  1.0  -0.1283
  C  C522  1  0.922500  0.569900  0.814900  1.0  -0.1001
  C  C523  1  0.934000  0.546270  0.760800  1.0  -0.2217
  C  C524  1  0.829200  0.603740  0.879600  1.0  0.6528
  C  C525  1  0.878800  0.374980  0.474000  1.0  0.0545
  C  C526  1  0.984400  0.326400  0.505600  1.0  0.2856
  C  C527  1  0.067300  0.318200  0.535900  1.0  -0.2181
  C  C528  1  0.095400  0.280500  0.537300  1.0  -0.0511
  C  C529  1  0.040900  0.249760  0.513600  1.0  -0.1374
  C  C530  1  0.958400  0.257550  0.488600  1.0  -0.037
  C  C531  1  0.928400  0.296270  0.485100  1.0  -0.2613
  C  C532  1  0.071200  0.208620  0.515400  1.0  0.7324
  C  C533  1  0.633900  0.698980  0.950600  1.0  0.6948
  C  C534  1  0.656100  0.733400  0.909500  1.0  -0.4866
  C  C535  1  0.117200  0.652930  0.899200  1.0  0.722
  C  C536  1  0.127100  0.660800  0.825200  1.0  -0.496
  O  O537  1  0.397490  0.975870  0.172120  1.0  -0.2707
  O  O538  1  0.457170  0.866220  0.445830  1.0  -0.6641
  O  O539  1  0.321710  0.858380  0.406360  1.0  -0.6201
  O  O540  1  0.356880  0.966170  0.841830  1.0  -0.2822
  O  O541  1  0.321770  0.859580  0.565480  1.0  -0.645
  O  O542  1  0.458960  0.861500  0.603290  1.0  -0.6707
  O  O543  1  0.461540  0.119850  0.047910  1.0  -0.2857
  O  O544  1  0.586870  0.291970  0.991590  1.0  -0.7454
  O  O545  1  0.690400  0.269940  0.076170  1.0  -0.5683
  O  O546  1  0.853850  0.977200  0.833680  1.0  -0.2922
  O  O547  1  0.956340  0.889500  0.577930  1.0  -0.6702
  O  O548  1  0.822750  0.872510  0.556720  1.0  -0.6458
  O  O549  1  0.963600  0.134670  0.002800  1.0  -0.315
  O  O550  1  0.147000  0.297030  0.036800  1.0  -0.6043
  O  O551  1  0.018900  0.317180  0.995640  1.0  -0.6529
  O  O552  1  0.885270  0.994850  0.162160  1.0  -0.2804
  O  O553  1  0.757770  0.885710  0.380770  1.0  -0.589
  O  O554  1  0.888450  0.881530  0.424890  1.0  -0.6817
  O  O555  1  0.687400  0.827770  0.469550  1.0  -0.6857
  O  O556  1  0.567090  0.800050  0.466490  1.0  -0.5954
  O  O557  1  0.050110  0.861400  0.404760  1.0  -0.6138
  O  O558  1  0.176360  0.840880  0.452460  1.0  -0.6773
  O  O559  1  0.602510  0.475870  0.327880  1.0  -0.271
  O  O560  1  0.542830  0.366220  0.054170  1.0  -0.6645
  O  O561  1  0.678290  0.358380  0.093640  1.0  -0.621
  O  O562  1  0.643120  0.466170  0.658170  1.0  -0.2803
  O  O563  1  0.678230  0.359580  0.934520  1.0  -0.6426
  O  O564  1  0.541040  0.361500  0.896710  1.0  -0.6704
  O  O565  1  0.538460  0.619850  0.452090  1.0  -0.2866
  O  O566  1  0.413130  0.791970  0.508410  1.0  -0.7451
  O  O567  1  0.309600  0.769940  0.423830  1.0  -0.5682
  O  O568  1  0.146150  0.477200  0.666320  1.0  -0.2905
  O  O569  1  0.043660  0.389500  0.922070  1.0  -0.6687
  O  O570  1  0.177250  0.372510  0.943280  1.0  -0.646
  O  O571  1  0.036400  0.634670  0.497200  1.0  -0.3164
  O  O572  1  0.853000  0.797030  0.463200  1.0  -0.6041
  O  O573  1  0.981100  0.817180  0.504360  1.0  -0.6534
  O  O574  1  0.114730  0.494850  0.337840  1.0  -0.282
  O  O575  1  0.242230  0.385710  0.119230  1.0  -0.5876
  O  O576  1  0.111550  0.381530  0.075110  1.0  -0.6816
  O  O577  1  0.312600  0.327770  0.030450  1.0  -0.6835
  O  O578  1  0.432910  0.300050  0.033510  1.0  -0.597
  O  O579  1  0.949890  0.361400  0.095240  1.0  -0.6138
  O  O580  1  0.823640  0.340880  0.047540  1.0  -0.674
  O  O581  1  0.602510  0.024130  0.827880  1.0  -0.2713
  O  O582  1  0.542830  0.133780  0.554170  1.0  -0.6642
  O  O583  1  0.678290  0.141620  0.593640  1.0  -0.6208
  O  O584  1  0.643120  0.033830  0.158170  1.0  -0.2809
  O  O585  1  0.678230  0.140420  0.434520  1.0  -0.6427
  O  O586  1  0.541040  0.138500  0.396710  1.0  -0.67
  O  O587  1  0.538460  0.880150  0.952090  1.0  -0.2876
  O  O588  1  0.413130  0.708030  0.008410  1.0  -0.7452
  O  O589  1  0.309600  0.730060  0.923830  1.0  -0.5684
  O  O590  1  0.146150  0.022800  0.166320  1.0  -0.2902
  O  O591  1  0.043660  0.110500  0.422070  1.0  -0.6686
  O  O592  1  0.177250  0.127490  0.443280  1.0  -0.6464
  O  O593  1  0.036400  0.865330  0.997200  1.0  -0.3155
  O  O594  1  0.853000  0.702970  0.963200  1.0  -0.6045
  O  O595  1  0.981100  0.682820  0.004360  1.0  -0.653
  O  O596  1  0.114730  0.005150  0.837840  1.0  -0.2828
  O  O597  1  0.242230  0.114290  0.619230  1.0  -0.5878
  O  O598  1  0.111550  0.118470  0.575110  1.0  -0.6813
  O  O599  1  0.312600  0.172230  0.530450  1.0  -0.684
  O  O600  1  0.432910  0.199950  0.533510  1.0  -0.5964
  O  O601  1  0.949890  0.138600  0.595240  1.0  -0.6136
  O  O602  1  0.823640  0.159120  0.547540  1.0  -0.6738
  O  O603  1  0.397490  0.524130  0.672120  1.0  -0.2707
  O  O604  1  0.457170  0.633780  0.945830  1.0  -0.6636
  O  O605  1  0.321710  0.641620  0.906360  1.0  -0.6199
  O  O606  1  0.356880  0.533830  0.341830  1.0  -0.2824
  O  O607  1  0.321770  0.640420  0.065480  1.0  -0.6449
  O  O608  1  0.458960  0.638500  0.103290  1.0  -0.6706
  O  O609  1  0.461540  0.380150  0.547910  1.0  -0.2864
  O  O610  1  0.586870  0.208030  0.491590  1.0  -0.7454
  O  O611  1  0.690400  0.230060  0.576170  1.0  -0.5682
  O  O612  1  0.853850  0.522800  0.333680  1.0  -0.2924
  O  O613  1  0.956340  0.610500  0.077930  1.0  -0.6705
  O  O614  1  0.822750  0.627490  0.056720  1.0  -0.6455
  O  O615  1  0.963600  0.365330  0.502800  1.0  -0.3142
  O  O616  1  0.147000  0.202970  0.536800  1.0  -0.6047
  O  O617  1  0.018900  0.182820  0.495640  1.0  -0.6527
  O  O618  1  0.885270  0.505150  0.662160  1.0  -0.2805
  O  O619  1  0.757770  0.614290  0.880770  1.0  -0.5891
  O  O620  1  0.888450  0.618470  0.924890  1.0  -0.6811
  O  O621  1  0.687400  0.672230  0.969550  1.0  -0.6855
  O  O622  1  0.567090  0.699950  0.966490  1.0  -0.5948
  O  O623  1  0.050110  0.638600  0.904760  1.0  -0.6137
  O  O624  1  0.176360  0.659120  0.952460  1.0  -0.6774
