# generated using pymatgen
data_Ba3H36C44(NO9)2
_symmetry_space_group_name_H-M   'P 1'
_cell_length_a   19.51900000
_cell_length_b   19.94300000
_cell_length_c   32.10600000
_cell_angle_alpha   76.68700000
_cell_angle_beta   83.42500000
_cell_angle_gamma   61.03400000
_symmetry_Int_Tables_number   1
_chemical_formula_structural   Ba3H36C44(NO9)2
_chemical_formula_sum   'Ba18 H216 C264 N12 O108'
_cell_volume   10640.52272476
_cell_formula_units_Z   6
loop_
 _symmetry_equiv_pos_site_id
 _symmetry_equiv_pos_as_xyz
  1  'x, y, z'
loop_
 _atom_site_type_symbol
 _atom_site_label
 _atom_site_symmetry_multiplicity
 _atom_site_fract_x
 _atom_site_fract_y
 _atom_site_fract_z
 _atom_site_occupancy
 _atom_site_charge
  Ba  Ba1  1  0.557910  0.740260  0.069660  1.0  1.6023
  Ba  Ba2  1  0.708290  0.686520  0.169300  1.0  1.6512
  Ba  Ba3  1  0.610140  0.665070  0.296290  1.0  1.6445
  Ba  Ba4  1  0.689780  0.717110  0.396340  1.0  1.6514
  Ba  Ba5  1  0.664090  0.620860  0.522960  1.0  1.6152
  Ba  Ba6  1  0.776940  0.615000  0.630390  1.0  1.6763
  Ba  Ba7  1  0.655230  0.601950  0.752310  1.0  1.6416
  Ba  Ba8  1  0.638780  0.725760  0.843050  1.0  1.647
  Ba  Ba9  1  0.700430  0.614700  0.976450  1.0  1.6401
  Ba  Ba10  1  0.442090  0.259740  0.930340  1.0  1.6028
  Ba  Ba11  1  0.291710  0.313480  0.830700  1.0  1.6515
  Ba  Ba12  1  0.389860  0.334930  0.703710  1.0  1.6449
  Ba  Ba13  1  0.310220  0.282890  0.603660  1.0  1.6521
  Ba  Ba14  1  0.335910  0.379140  0.477040  1.0  1.6153
  Ba  Ba15  1  0.223060  0.385000  0.369610  1.0  1.676
  Ba  Ba16  1  0.344770  0.398050  0.247690  1.0  1.6459
  Ba  Ba17  1  0.361220  0.274240  0.156950  1.0  1.6489
  Ba  Ba18  1  0.299570  0.385300  0.023550  1.0  1.6413
  H  H19  1  0.107000  0.091400  0.131100  1.0  0.1079
  H  H20  1  0.027900  0.146100  0.104200  1.0  0.1047
  H  H21  1  0.038200  0.165500  0.148000  1.0  0.1181
  H  H22  1  0.788100  0.153800  0.182100  1.0  0.1202
  H  H23  1  0.792300  0.069500  0.191700  1.0  0.1145
  H  H24  1  0.803100  0.103000  0.229800  1.0  0.0877
  H  H25  1  0.050100  0.845800  0.243000  1.0  0.1132
  H  H26  1  0.108800  0.836700  0.203000  1.0  0.1134
  H  H27  1  0.120300  0.865600  0.243000  1.0  0.1206
  H  H28  1  0.161400  0.903700  0.159100  1.0  0.066
  H  H29  1  0.155600  0.987500  0.138500  1.0  0.1094
  H  H30  1  0.292000  0.885100  0.256500  1.0  0.1222
  H  H31  1  0.426300  0.808500  0.252700  1.0  0.1003
  H  H32  1  0.413800  0.859500  0.124700  1.0  0.0816
  H  H33  1  0.279200  0.920800  0.128300  1.0  0.1291
  H  H34  1  0.948600  0.913000  0.268700  1.0  0.0876
  H  H35  1  0.861800  0.978400  0.252600  1.0  0.0682
  H  H36  1  0.817500  0.901900  0.289000  1.0  0.1285
  H  H37  1  0.737600  0.841500  0.306600  1.0  0.1102
  H  H38  1  0.842100  0.716500  0.214300  1.0  0.1094
  H  H39  1  0.917600  0.779800  0.193700  1.0  0.1231
  H  H40  1  0.907500  0.192800  0.109100  1.0  0.0755
  H  H41  1  0.831800  0.192200  0.134500  1.0  0.0979
  H  H42  1  0.798100  0.308400  0.087400  1.0  0.1222
  H  H43  1  0.721300  0.443000  0.061400  1.0  0.1141
  H  H44  1  0.778500  0.487200  0.166100  1.0  0.1223
  H  H45  1  0.857900  0.355600  0.188700  1.0  0.0882
  H  H46  1  0.802000  0.128400  0.425000  1.0  0.1062
  H  H47  1  0.818200  0.040400  0.429500  1.0  0.1063
  H  H48  1  0.816100  0.072400  0.471200  1.0  0.1082
  H  H49  1  0.164400  0.858300  0.463000  1.0  0.1112
  H  H50  1  0.106200  0.859200  0.502500  1.0  0.1057
  H  H51  1  0.104100  0.825700  0.462200  1.0  0.1101
  H  H52  1  0.109800  0.104300  0.384700  1.0  0.1197
  H  H53  1  0.032600  0.152200  0.355800  1.0  0.1144
  H  H54  1  0.033400  0.174000  0.400600  1.0  0.1185
  H  H55  1  0.907000  0.206000  0.370000  1.0  0.0717
  H  H56  1  0.838300  0.182700  0.384600  1.0  0.0825
  H  H57  1  0.799300  0.326800  0.358600  1.0  0.1221
  H  H58  1  0.729100  0.460700  0.353300  1.0  0.1018
  H  H59  1  0.761600  0.434400  0.479300  1.0  0.1266
  H  H60  1  0.827200  0.300000  0.484100  1.0  0.0952
  H  H61  1  0.984200  0.880800  0.506700  1.0  0.0802
  H  H62  1  0.894600  0.944800  0.496000  1.0  0.0799
  H  H63  1  0.880400  0.842300  0.531400  1.0  0.1285
  H  H64  1  0.824000  0.757200  0.550700  1.0  0.1103
  H  H65  1  0.861700  0.716200  0.431000  1.0  0.1132
  H  H66  1  0.920900  0.793400  0.413300  1.0  0.1004
  H  H67  1  0.194700  0.908100  0.409500  1.0  0.0995
  H  H68  1  0.176500  0.994600  0.383700  1.0  0.1287
  H  H69  1  0.282900  0.966300  0.504200  1.0  0.098
  H  H70  1  0.419000  0.887800  0.520900  1.0  0.1282
  H  H71  1  0.443200  0.811000  0.408800  1.0  0.1095
  H  H72  1  0.304200  0.884700  0.396700  1.0  0.1273
  H  H73  1  0.190800  0.992700  0.648300  1.0  0.1054
  H  H74  1  0.116700  0.040600  0.617100  1.0  0.1013
  H  H75  1  0.117200  0.070200  0.659300  1.0  0.1121
  H  H76  1  0.871200  0.049600  0.691700  1.0  0.1076
  H  H77  1  0.876500  0.965300  0.697800  1.0  0.1134
  H  H78  1  0.883900  0.995200  0.738400  1.0  0.1114
  H  H79  1  0.132900  0.740500  0.747200  1.0  0.1072
  H  H80  1  0.194000  0.738500  0.709100  1.0  0.1265
  H  H81  1  0.202500  0.758100  0.753200  1.0  0.1034
  H  H82  1  0.245400  0.906700  0.693300  1.0  0.0847
  H  H83  1  0.255700  0.822900  0.718300  1.0  0.0841
  H  H84  1  0.372300  0.813000  0.706500  1.0  0.1322
  H  H85  1  0.507000  0.744800  0.696900  1.0  0.0938
  H  H86  1  0.476500  0.711600  0.583900  1.0  0.1022
  H  H87  1  0.343200  0.771400  0.593800  1.0  0.1182
  H  H88  1  0.032500  0.797900  0.772200  1.0  0.119
  H  H89  1  0.945400  0.863900  0.757500  1.0  0.084
  H  H90  1  0.978100  0.708900  0.676300  1.0  0.1232
  H  H91  1  0.888500  0.661100  0.683500  1.0  0.1106
  H  H92  1  0.804600  0.745000  0.790900  1.0  0.0994
  H  H93  1  0.895700  0.791700  0.785500  1.0  0.1237
  H  H94  1  0.995100  0.086100  0.620400  1.0  0.0817
  H  H95  1  0.917300  0.085300  0.642200  1.0  0.0906
  H  H96  1  0.932500  0.266400  0.688200  1.0  0.1213
  H  H97  1  0.862400  0.396100  0.651300  1.0  0.1068
  H  H98  1  0.788000  0.326000  0.566000  1.0  0.1148
  H  H99  1  0.864600  0.191900  0.601500  1.0  0.1196
  H  H100  1  0.102800  0.084700  0.875100  1.0  0.1036
  H  H101  1  0.019800  0.135200  0.851600  1.0  0.111
  H  H102  1  0.033200  0.154800  0.894600  1.0  0.1161
  H  H103  1  0.160300  0.836200  0.961100  1.0  0.1099
  H  H104  1  0.107900  0.842300  0.003600  1.0  0.1115
  H  H105  1  0.094000  0.809600  0.966000  1.0  0.1177
  H  H106  1  0.795400  0.115100  0.939300  1.0  0.1159
  H  H107  1  0.810800  0.026800  0.946500  1.0  0.1255
  H  H108  1  0.818200  0.059800  0.985800  1.0  0.1107
  H  H109  1  0.895300  0.180400  0.865800  1.0  0.0711
  H  H110  1  0.828700  0.171500  0.897500  1.0  0.0908
  H  H111  1  0.786000  0.299100  0.858000  1.0  0.1277
  H  H112  1  0.723300  0.433800  0.838700  1.0  0.1012
  H  H113  1  0.822800  0.450900  0.934500  1.0  0.1079
  H  H114  1  0.895100  0.314700  0.953400  1.0  0.1283
  H  H115  1  0.175300  0.891500  0.904900  1.0  0.1133
  H  H116  1  0.155500  0.976100  0.876400  1.0  0.0887
  H  H117  1  0.297000  0.946600  0.982800  1.0  0.1131
  H  H118  1  0.425800  0.861400  0.992900  1.0  0.0926
  H  H119  1  0.426000  0.771400  0.891800  1.0  0.1085
  H  H120  1  0.291400  0.854200  0.884800  1.0  0.1177
  H  H121  1  0.987400  0.873200  0.016800  1.0  0.0667
  H  H122  1  0.898700  0.943000  0.012900  1.0  0.0899
  H  H123  1  0.865900  0.863000  0.054000  1.0  0.1199
  H  H124  1  0.782000  0.808100  0.081800  1.0  0.1015
  H  H125  1  0.786500  0.750400  0.970000  1.0  0.0942
  H  H126  1  0.867800  0.803700  0.940900  1.0  0.1268
  H  H127  1  0.893000  0.908600  0.868900  1.0  0.1082
  H  H128  1  0.972100  0.853900  0.895800  1.0  0.1038
  H  H129  1  0.961800  0.834500  0.852000  1.0  0.1192
  H  H130  1  0.211900  0.846200  0.817900  1.0  0.1189
  H  H131  1  0.207700  0.930500  0.808300  1.0  0.1167
  H  H132  1  0.196900  0.897000  0.770200  1.0  0.0878
  H  H133  1  0.949900  0.154200  0.757000  1.0  0.1133
  H  H134  1  0.891200  0.163300  0.797000  1.0  0.1133
  H  H135  1  0.879700  0.134400  0.757000  1.0  0.1202
  H  H136  1  0.838600  0.096300  0.840900  1.0  0.0654
  H  H137  1  0.844400  0.012500  0.861500  1.0  0.1094
  H  H138  1  0.708000  0.114900  0.743500  1.0  0.1228
  H  H139  1  0.573700  0.191500  0.747300  1.0  0.1008
  H  H140  1  0.586200  0.140500  0.875300  1.0  0.0831
  H  H141  1  0.720800  0.079200  0.871700  1.0  0.1282
  H  H142  1  0.051400  0.087000  0.731300  1.0  0.0872
  H  H143  1  0.138200  0.021600  0.747400  1.0  0.0681
  H  H144  1  0.182500  0.098100  0.711000  1.0  0.1279
  H  H145  1  0.262400  0.158500  0.693400  1.0  0.1106
  H  H146  1  0.157900  0.283500  0.785700  1.0  0.11
  H  H147  1  0.082400  0.220200  0.806300  1.0  0.1237
  H  H148  1  0.092500  0.807200  0.890900  1.0  0.0768
  H  H149  1  0.168200  0.807800  0.865500  1.0  0.1007
  H  H150  1  0.201900  0.691600  0.912600  1.0  0.1226
  H  H151  1  0.278700  0.557000  0.938600  1.0  0.1138
  H  H152  1  0.221500  0.512800  0.833900  1.0  0.1227
  H  H153  1  0.142100  0.644400  0.811300  1.0  0.0888
  H  H154  1  0.198000  0.871600  0.575000  1.0  0.1079
  H  H155  1  0.181800  0.959600  0.570500  1.0  0.1057
  H  H156  1  0.183900  0.927600  0.528800  1.0  0.1085
  H  H157  1  0.835600  0.141700  0.537000  1.0  0.1103
  H  H158  1  0.893800  0.140800  0.497500  1.0  0.1065
  H  H159  1  0.895900  0.174300  0.537800  1.0  0.1103
  H  H160  1  0.890200  0.895700  0.615300  1.0  0.1176
  H  H161  1  0.967400  0.847800  0.644200  1.0  0.1144
  H  H162  1  0.966600  0.826000  0.599400  1.0  0.1177
  H  H163  1  0.093000  0.794000  0.630000  1.0  0.0723
  H  H164  1  0.161700  0.817300  0.615400  1.0  0.0821
  H  H165  1  0.200700  0.673200  0.641400  1.0  0.1207
  H  H166  1  0.270900  0.539300  0.646700  1.0  0.1025
  H  H167  1  0.238400  0.565600  0.520700  1.0  0.1261
  H  H168  1  0.172800  0.700000  0.515900  1.0  0.095
  H  H169  1  0.015800  0.119200  0.493300  1.0  0.0801
  H  H170  1  0.105400  0.055200  0.504000  1.0  0.0806
  H  H171  1  0.119600  0.157700  0.468600  1.0  0.1283
  H  H172  1  0.176000  0.242800  0.449300  1.0  0.111
  H  H173  1  0.138300  0.283800  0.569000  1.0  0.1132
  H  H174  1  0.079100  0.206600  0.586700  1.0  0.1004
  H  H175  1  0.805300  0.091900  0.590500  1.0  0.1023
  H  H176  1  0.823500  0.005400  0.616300  1.0  0.1254
  H  H177  1  0.717100  0.033700  0.495800  1.0  0.0979
  H  H178  1  0.581000  0.112200  0.479100  1.0  0.1285
  H  H179  1  0.556800  0.189000  0.591200  1.0  0.1103
  H  H180  1  0.695800  0.115300  0.603300  1.0  0.1268
  H  H181  1  0.809200  0.007300  0.351700  1.0  0.107
  H  H182  1  0.883300  0.959400  0.382900  1.0  0.1035
  H  H183  1  0.882800  0.929800  0.340700  1.0  0.1133
  H  H184  1  0.128800  0.950400  0.308300  1.0  0.1089
  H  H185  1  0.123500  0.034700  0.302200  1.0  0.1132
  H  H186  1  0.116100  0.004800  0.261600  1.0  0.1113
  H  H187  1  0.867100  0.259500  0.252800  1.0  0.107
  H  H188  1  0.806000  0.261500  0.290900  1.0  0.1259
  H  H189  1  0.797500  0.241900  0.246800  1.0  0.1054
  H  H190  1  0.754600  0.093300  0.306700  1.0  0.0829
  H  H191  1  0.744300  0.177100  0.281700  1.0  0.0849
  H  H192  1  0.627700  0.187000  0.293500  1.0  0.1319
  H  H193  1  0.493000  0.255200  0.303100  1.0  0.0931
  H  H194  1  0.523500  0.288400  0.416100  1.0  0.1017
  H  H195  1  0.656800  0.228600  0.406200  1.0  0.1192
  H  H196  1  0.967500  0.202100  0.227800  1.0  0.1197
  H  H197  1  0.054600  0.136100  0.242500  1.0  0.0867
  H  H198  1  0.021900  0.291100  0.323700  1.0  0.1238
  H  H199  1  0.111500  0.338900  0.316500  1.0  0.1105
  H  H200  1  0.195400  0.255000  0.209100  1.0  0.0989
  H  H201  1  0.104300  0.208300  0.214500  1.0  0.1243
  H  H202  1  0.004900  0.913900  0.379600  1.0  0.0821
  H  H203  1  0.082700  0.914700  0.357800  1.0  0.0929
  H  H204  1  0.067500  0.733600  0.311800  1.0  0.1227
  H  H205  1  0.137600  0.603900  0.348700  1.0  0.1063
  H  H206  1  0.212000  0.674000  0.434000  1.0  0.1152
  H  H207  1  0.135400  0.808100  0.398500  1.0  0.1198
  H  H208  1  0.897200  0.915300  0.124900  1.0  0.1044
  H  H209  1  0.980200  0.864800  0.148400  1.0  0.1111
  H  H210  1  0.966800  0.845200  0.105400  1.0  0.1146
  H  H211  1  0.839700  0.163800  0.038900  1.0  0.1103
  H  H212  1  0.892100  0.157700  0.996400  1.0  0.1105
  H  H213  1  0.906000  0.190400  0.034000  1.0  0.1173
  H  H214  1  0.204600  0.884900  0.060700  1.0  0.1176
  H  H215  1  0.189200  0.973200  0.053500  1.0  0.1241
  H  H216  1  0.181800  0.940200  0.014200  1.0  0.1119
  H  H217  1  0.104700  0.819600  0.134200  1.0  0.0714
  H  H218  1  0.171300  0.828500  0.102500  1.0  0.0917
  H  H219  1  0.214000  0.700900  0.142000  1.0  0.1269
  H  H220  1  0.276700  0.566200  0.161300  1.0  0.1011
  H  H221  1  0.177200  0.549100  0.065500  1.0  0.1083
  H  H222  1  0.104900  0.685300  0.046600  1.0  0.1281
  H  H223  1  0.824700  0.108500  0.095100  1.0  0.1129
  H  H224  1  0.844500  0.023900  0.123600  1.0  0.0912
  H  H225  1  0.703000  0.053400  0.017200  1.0  0.1142
  H  H226  1  0.574200  0.138600  0.007100  1.0  0.0924
  H  H227  1  0.574000  0.228600  0.108200  1.0  0.1094
  H  H228  1  0.708600  0.145800  0.115200  1.0  0.1182
  H  H229  1  0.012600  0.126800  0.983200  1.0  0.067
  H  H230  1  0.101300  0.057000  0.987100  1.0  0.0892
  H  H231  1  0.134100  0.137000  0.946000  1.0  0.1182
  H  H232  1  0.218000  0.191900  0.918200  1.0  0.1019
  H  H233  1  0.213500  0.249600  0.030000  1.0  0.0948
  H  H234  1  0.132200  0.196300  0.059100  1.0  0.1261
  C  C235  1  0.061800  0.994600  0.176930  1.0  -0.0756
  C  C236  1  0.014000  0.071400  0.158190  1.0  0.0829
  C  C237  1  0.936700  0.104800  0.164130  1.0  -0.0184
  C  C238  1  0.901900  0.062900  0.191180  1.0  0.0682
  C  C239  1  0.948200  0.988000  0.212510  1.0  -0.0253
  C  C240  1  0.029100  0.951400  0.204130  1.0  0.0832
  C  C241  1  0.050100  0.123400  0.133070  1.0  -0.3645
  C  C242  1  0.813400  0.100700  0.199430  1.0  -0.3309
  C  C243  1  0.081700  0.867500  0.225130  1.0  -0.3788
  C  C244  1  0.146400  0.955700  0.164950  1.0  0.0277
  C  C245  1  0.271300  0.907400  0.193560  1.0  0.3295
  C  C246  1  0.316300  0.876600  0.229490  1.0  -0.2436
  C  C247  1  0.396800  0.833300  0.226950  1.0  -0.0839
  C  C248  1  0.436500  0.824600  0.187610  1.0  -0.0835
  C  C249  1  0.389400  0.861000  0.152090  1.0  -0.0639
  C  C250  1  0.309000  0.899600  0.153840  1.0  -0.3292
  C  C251  1  0.521000  0.777700  0.183490  1.0  0.6827
  C  C252  1  0.914700  0.942700  0.243210  1.0  0.0832
  C  C253  1  0.871600  0.849000  0.237300  1.0  0.2659
  C  C254  1  0.820600  0.865700  0.273190  1.0  -0.2412
  C  C255  1  0.775600  0.827600  0.284470  1.0  -0.0026
  C  C256  1  0.785100  0.770200  0.264030  1.0  -0.132
  C  C257  1  0.837100  0.754400  0.229350  1.0  -0.0339
  C  C258  1  0.881100  0.792600  0.216620  1.0  -0.2125
  C  C259  1  0.734900  0.729500  0.275980  1.0  0.6984
  C  C260  1  0.884500  0.186000  0.137870  1.0  0.0337
  C  C261  1  0.835300  0.319500  0.141480  1.0  0.3153
  C  C262  1  0.794400  0.345100  0.102990  1.0  -0.1905
  C  C263  1  0.748200  0.425100  0.087820  1.0  -0.0248
  C  C264  1  0.741500  0.478100  0.110880  1.0  -0.1335
  C  C265  1  0.782800  0.451300  0.149680  1.0  -0.0937
  C  C266  1  0.828900  0.373400  0.163080  1.0  -0.1791
  C  C267  1  0.686800  0.564500  0.096530  1.0  0.74
  C  C268  1  0.946100  0.097900  0.411950  1.0  0.0047
  C  C269  1  0.920000  0.046800  0.436300  1.0  0.0375
  C  C270  1  0.973100  0.971400  0.456410  1.0  0.0188
  C  C271  1  0.050100  0.947700  0.449870  1.0  0.0342
  C  C272  1  0.079000  0.997000  0.425640  1.0  -0.065
  C  C273  1  0.024200  0.074700  0.407160  1.0  0.062
  C  C274  1  0.830900  0.074500  0.440930  1.0  -0.3609
  C  C275  1  0.111800  0.865200  0.471370  1.0  -0.3509
  C  C276  1  0.052400  0.131100  0.385210  1.0  -0.3535
  C  C277  1  0.885300  0.181400  0.394340  1.0  0.0453
  C  C278  1  0.818700  0.301400  0.421900  1.0  0.3055
  C  C279  1  0.790900  0.348600  0.383240  1.0  -0.2513
  C  C280  1  0.750300  0.428300  0.380230  1.0  -0.0537
  C  C281  1  0.739200  0.463500  0.414700  1.0  -0.1139
  C  C282  1  0.768600  0.413400  0.454520  1.0  -0.1025
  C  C283  1  0.807600  0.333500  0.457170  1.0  -0.1793
  C  C284  1  0.702300  0.548700  0.410690  1.0  0.6919
  C  C285  1  0.946600  0.915500  0.483240  1.0  0.0399
  C  C286  1  0.907900  0.824200  0.470460  1.0  0.3329
  C  C287  1  0.877700  0.815600  0.511150  1.0  -0.1929
  C  C288  1  0.842400  0.765800  0.522310  1.0  -0.06
  C  C289  1  0.834500  0.729900  0.492690  1.0  -0.1197
  C  C290  1  0.865500  0.741200  0.451870  1.0  -0.0883
  C  C291  1  0.900600  0.786900  0.441390  1.0  -0.1877
  C  C292  1  0.786000  0.688200  0.503810  1.0  0.7461
  C  C293  1  0.170500  0.963800  0.411470  1.0  -0.0411
  C  C294  1  0.285900  0.928100  0.450460  1.0  0.249
  C  C295  1  0.316800  0.931900  0.486120  1.0  -0.1626
  C  C296  1  0.397800  0.885800  0.496340  1.0  -0.0942
  C  C297  1  0.444100  0.837500  0.467960  1.0  -0.159
  C  C298  1  0.409800  0.840100  0.429220  1.0  -0.0404
  C  C299  1  0.327500  0.885100  0.420920  1.0  -0.1912
  C  C300  1  0.531900  0.785600  0.480440  1.0  0.647
  C  C301  1  0.145300  0.896900  0.693810  1.0  -0.1178
  C  C302  1  0.096000  0.974100  0.672710  1.0  0.0489
  C  C303  1  0.017300  0.003200  0.676170  1.0  -0.0727
  C  C304  1  0.983900  0.959600  0.701390  1.0  0.0828
  C  C305  1  0.031200  0.884100  0.720970  1.0  -0.0459
  C  C306  1  0.114000  0.849300  0.715730  1.0  0.0825
  C  C307  1  0.133700  0.024000  0.646990  1.0  -0.3517
  C  C308  1  0.896200  0.995600  0.707860  1.0  -0.3543
  C  C309  1  0.165200  0.764300  0.732760  1.0  -0.379
  C  C310  1  0.232200  0.864800  0.692780  1.0  -0.003
  C  C311  1  0.343900  0.794700  0.652050  1.0  0.2912
  C  C312  1  0.393300  0.789700  0.682170  1.0  -0.2863
  C  C313  1  0.473200  0.750100  0.675930  1.0  -0.0311
  C  C314  1  0.505600  0.718100  0.640440  1.0  -0.1165
  C  C315  1  0.455400  0.729500  0.609720  1.0  -0.046
  C  C316  1  0.376300  0.765800  0.615270  1.0  -0.1443
  C  C317  1  0.591500  0.674800  0.636900  1.0  0.7268
  C  C318  1  0.998700  0.831600  0.747080  1.0  0.0189
  C  C319  1  0.944000  0.755500  0.729440  1.0  0.3103
  C  C320  1  0.942400  0.716600  0.699700  1.0  -0.2697
  C  C321  1  0.888900  0.688700  0.703830  1.0  -0.032
  C  C322  1  0.835800  0.701000  0.737700  1.0  -0.1387
  C  C323  1  0.839800  0.738100  0.767300  1.0  -0.0421
  C  C324  1  0.893600  0.766200  0.764370  1.0  -0.2859
  C  C325  1  0.776400  0.672600  0.741400  1.0  0.7327
  C  C326  1  0.968000  0.081400  0.648050  1.0  0.0157
  C  C327  1  0.911400  0.218400  0.646070  1.0  0.3124
  C  C328  1  0.907000  0.277500  0.662140  1.0  -0.2439
  C  C329  1  0.864900  0.354600  0.640300  1.0  -0.0429
  C  C330  1  0.826500  0.371100  0.602370  1.0  -0.0796
  C  C331  1  0.821100  0.313300  0.589220  1.0  -0.0288
  C  C332  1  0.865800  0.233200  0.610740  1.0  -0.2244
  C  C333  1  0.781600  0.453300  0.578860  1.0  0.7024
  C  C334  1  0.941400  0.082700  0.915720  1.0  0.03
  C  C335  1  0.018100  0.055400  0.906210  1.0  0.0789
  C  C336  1  0.072000  0.979300  0.922140  1.0  -0.0509
  C  C337  1  0.047800  0.931000  0.951780  1.0  0.0516
  C  C338  1  0.969100  0.960000  0.963020  1.0  -0.109
  C  C339  1  0.914200  0.034100  0.944430  1.0  0.0594
  C  C340  1  0.046000  0.112800  0.879460  1.0  -0.3368
  C  C341  1  0.108000  0.847100  0.972520  1.0  -0.3456
  C  C342  1  0.826700  0.061400  0.954970  1.0  -0.3466
  C  C343  1  0.882100  0.165900  0.896090  1.0  0.0345
  C  C344  1  0.846900  0.294200  0.907300  1.0  0.2697
  C  C345  1  0.795300  0.329400  0.873240  1.0  -0.2991
  C  C346  1  0.758400  0.409100  0.862270  1.0  -0.0279
  C  C347  1  0.769300  0.454600  0.883230  1.0  -0.1358
  C  C348  1  0.817700  0.419300  0.918200  1.0  -0.0621
  C  C349  1  0.859300  0.338900  0.930270  1.0  -0.2407
  C  C350  1  0.723800  0.543100  0.871870  1.0  0.7346
  C  C351  1  0.154200  0.947300  0.905790  1.0  0.0492
  C  C352  1  0.280400  0.906100  0.934350  1.0  0.2742
  C  C353  1  0.322900  0.908900  0.965180  1.0  -0.2289
  C  C354  1  0.399000  0.859900  0.970470  1.0  -0.0689
  C  C355  1  0.441400  0.805300  0.943330  1.0  -0.1173
  C  C356  1  0.399500  0.805700  0.911230  1.0  -0.068
  C  C357  1  0.319300  0.855300  0.906800  1.0  -0.1995
  C  C358  1  0.524400  0.749100  0.950200  1.0  0.7286
  C  C359  1  0.944000  0.909900  0.996570  1.0  0.0527
  C  C360  1  0.876300  0.835700  0.994400  1.0  0.288
  C  C361  1  0.850300  0.839700  0.036960  1.0  -0.2636
  C  C362  1  0.799800  0.807200  0.053060  1.0  -0.0433
  C  C363  1  0.775800  0.775000  0.028960  1.0  -0.1278
  C  C364  1  0.802400  0.773400  0.987140  1.0  -0.0325
  C  C365  1  0.851400  0.804300  0.969850  1.0  -0.221
  C  C366  1  0.719700  0.744500  0.046620  1.0  0.7019
  C  C367  1  0.938200  0.005400  0.823070  1.0  -0.0749
  C  C368  1  0.986000  0.928600  0.841810  1.0  0.0818
  C  C369  1  0.063300  0.895200  0.835870  1.0  -0.0178
  C  C370  1  0.098100  0.937100  0.808820  1.0  0.0687
  C  C371  1  0.051800  0.012000  0.787490  1.0  -0.0256
  C  C372  1  0.970900  0.048600  0.795870  1.0  0.0825
  C  C373  1  0.949900  0.876600  0.866930  1.0  -0.3656
  C  C374  1  0.186600  0.899300  0.800570  1.0  -0.3316
  C  C375  1  0.918300  0.132500  0.774870  1.0  -0.3785
  C  C376  1  0.853600  0.044300  0.835050  1.0  0.0301
  C  C377  1  0.728700  0.092600  0.806440  1.0  0.3298
  C  C378  1  0.683700  0.123400  0.770510  1.0  -0.2428
  C  C379  1  0.603200  0.166700  0.773050  1.0  -0.0848
  C  C380  1  0.563500  0.175400  0.812390  1.0  -0.0827
  C  C381  1  0.610600  0.139000  0.847910  1.0  -0.064
  C  C382  1  0.691000  0.100400  0.846160  1.0  -0.33
  C  C383  1  0.479000  0.222300  0.816510  1.0  0.6842
  C  C384  1  0.085300  0.057300  0.756790  1.0  0.0825
  C  C385  1  0.128400  0.151000  0.762700  1.0  0.2662
  C  C386  1  0.179400  0.134300  0.726810  1.0  -0.241
  C  C387  1  0.224400  0.172400  0.715530  1.0  -0.0006
  C  C388  1  0.214900  0.229800  0.735970  1.0  -0.1316
  C  C389  1  0.162900  0.245600  0.770650  1.0  -0.0323
  C  C390  1  0.118900  0.207400  0.783380  1.0  -0.2099
  C  C391  1  0.265100  0.270500  0.724020  1.0  0.6981
  C  C392  1  0.115500  0.814000  0.862130  1.0  0.0327
  C  C393  1  0.164700  0.680500  0.858520  1.0  0.3149
  C  C394  1  0.205600  0.654900  0.897010  1.0  -0.1899
  C  C395  1  0.251800  0.574900  0.912180  1.0  -0.0232
  C  C396  1  0.258500  0.521900  0.889120  1.0  -0.1332
  C  C397  1  0.217200  0.548700  0.850320  1.0  -0.0929
  C  C398  1  0.171100  0.626600  0.836920  1.0  -0.1812
  C  C399  1  0.313200  0.435500  0.903470  1.0  0.7402
  C  C400  1  0.053900  0.902100  0.588050  1.0  0.0047
  C  C401  1  0.080000  0.953200  0.563700  1.0  0.0386
  C  C402  1  0.026900  0.028600  0.543590  1.0  0.0184
  C  C403  1  0.949900  0.052300  0.550130  1.0  0.0337
  C  C404  1  0.921000  0.003000  0.574360  1.0  -0.0655
  C  C405  1  0.975800  0.925300  0.592840  1.0  0.0602
  C  C406  1  0.169100  0.925500  0.559070  1.0  -0.3623
  C  C407  1  0.888200  0.134800  0.528630  1.0  -0.351
  C  C408  1  0.947600  0.868900  0.614790  1.0  -0.3533
  C  C409  1  0.114700  0.818600  0.605660  1.0  0.0471
  C  C410  1  0.181300  0.698600  0.578100  1.0  0.3037
  C  C411  1  0.209100  0.651400  0.616760  1.0  -0.2531
  C  C412  1  0.249700  0.571700  0.619770  1.0  -0.0564
  C  C413  1  0.260800  0.536500  0.585300  1.0  -0.1134
  C  C414  1  0.231400  0.586600  0.545480  1.0  -0.1025
  C  C415  1  0.192400  0.666500  0.542830  1.0  -0.1796
  C  C416  1  0.297700  0.451300  0.589310  1.0  0.692
  C  C417  1  0.053400  0.084500  0.516760  1.0  0.0368
  C  C418  1  0.092100  0.175800  0.529540  1.0  0.3322
  C  C419  1  0.122300  0.184400  0.488850  1.0  -0.1936
  C  C420  1  0.157600  0.234200  0.477690  1.0  -0.0605
  C  C421  1  0.165500  0.270100  0.507310  1.0  -0.1214
  C  C422  1  0.134500  0.258800  0.548130  1.0  -0.0868
  C  C423  1  0.099400  0.213100  0.558610  1.0  -0.1875
  C  C424  1  0.214000  0.311800  0.496190  1.0  0.7471
  C  C425  1  0.829500  0.036200  0.588530  1.0  -0.0391
  C  C426  1  0.714100  0.071900  0.549540  1.0  0.2499
  C  C427  1  0.683200  0.068100  0.513880  1.0  -0.1607
  C  C428  1  0.602200  0.114200  0.503660  1.0  -0.0956
  C  C429  1  0.555900  0.162500  0.532040  1.0  -0.1595
  C  C430  1  0.590200  0.159900  0.570780  1.0  -0.0414
  C  C431  1  0.672500  0.114900  0.579080  1.0  -0.1894
  C  C432  1  0.468100  0.214400  0.519560  1.0  0.6469
  C  C433  1  0.854700  0.103100  0.306190  1.0  -0.1168
  C  C434  1  0.904000  0.025900  0.327290  1.0  0.049
  C  C435  1  0.982700  0.996800  0.323830  1.0  -0.0723
  C  C436  1  0.016100  0.040400  0.298610  1.0  0.0842
  C  C437  1  0.968800  0.115900  0.279030  1.0  -0.0458
  C  C438  1  0.886000  0.150700  0.284270  1.0  0.0816
  C  C439  1  0.866300  0.976000  0.353010  1.0  -0.3533
  C  C440  1  0.103800  0.004400  0.292140  1.0  -0.3555
  C  C441  1  0.834800  0.235700  0.267240  1.0  -0.3778
  C  C442  1  0.767800  0.135200  0.307220  1.0  -0.005
  C  C443  1  0.656100  0.205300  0.347950  1.0  0.2906
  C  C444  1  0.606700  0.210300  0.317830  1.0  -0.2853
  C  C445  1  0.526800  0.249900  0.324070  1.0  -0.0327
  C  C446  1  0.494400  0.281900  0.359560  1.0  -0.1161
  C  C447  1  0.544600  0.270500  0.390280  1.0  -0.0464
  C  C448  1  0.623700  0.234200  0.384730  1.0  -0.1452
  C  C449  1  0.408500  0.325200  0.363100  1.0  0.7275
  C  C450  1  0.001300  0.168400  0.252920  1.0  0.0186
  C  C451  1  0.056000  0.244500  0.270560  1.0  0.3116
  C  C452  1  0.057600  0.283400  0.300300  1.0  -0.2697
  C  C453  1  0.111100  0.311300  0.296170  1.0  -0.0298
  C  C454  1  0.164200  0.299000  0.262300  1.0  -0.1389
  C  C455  1  0.160200  0.261900  0.232700  1.0  -0.0443
  C  C456  1  0.106400  0.233800  0.235630  1.0  -0.2866
  C  C457  1  0.223600  0.327400  0.258600  1.0  0.7324
  C  C458  1  0.032000  0.918600  0.351950  1.0  0.0113
  C  C459  1  0.088600  0.781600  0.353930  1.0  0.314
  C  C460  1  0.093000  0.722500  0.337860  1.0  -0.2447
  C  C461  1  0.135100  0.645400  0.359700  1.0  -0.0426
  C  C462  1  0.173500  0.628900  0.397630  1.0  -0.0797
  C  C463  1  0.178900  0.686700  0.410780  1.0  -0.0284
  C  C464  1  0.134200  0.766800  0.389260  1.0  -0.2248
  C  C465  1  0.218400  0.546700  0.421140  1.0  0.7041
  C  C466  1  0.058600  0.917300  0.084280  1.0  0.0305
  C  C467  1  0.981900  0.944600  0.093790  1.0  0.0786
  C  C468  1  0.928000  0.020700  0.077860  1.0  -0.0504
  C  C469  1  0.952200  0.069000  0.048220  1.0  0.0513
  C  C470  1  0.030900  0.040000  0.036980  1.0  -0.1101
  C  C471  1  0.085800  0.965900  0.055570  1.0  0.0612
  C  C472  1  0.954000  0.887200  0.120540  1.0  -0.3375
  C  C473  1  0.892000  0.152900  0.027480  1.0  -0.3443
  C  C474  1  0.173300  0.938600  0.045030  1.0  -0.3482
  C  C475  1  0.117900  0.834100  0.103910  1.0  0.0358
  C  C476  1  0.153100  0.705800  0.092700  1.0  0.2693
  C  C477  1  0.204700  0.670600  0.126760  1.0  -0.2979
  C  C478  1  0.241600  0.590900  0.137730  1.0  -0.0251
  C  C479  1  0.230700  0.545400  0.116770  1.0  -0.1351
  C  C480  1  0.182300  0.580700  0.081800  1.0  -0.0628
  C  C481  1  0.140700  0.661100  0.069730  1.0  -0.2379
  C  C482  1  0.276200  0.456900  0.128130  1.0  0.7344
  C  C483  1  0.845800  0.052700  0.094210  1.0  0.0495
  C  C484  1  0.719600  0.093900  0.065650  1.0  0.2738
  C  C485  1  0.677100  0.091100  0.034820  1.0  -0.2307
  C  C486  1  0.601000  0.140100  0.029530  1.0  -0.0703
  C  C487  1  0.558600  0.194700  0.056670  1.0  -0.116
  C  C488  1  0.600500  0.194300  0.088770  1.0  -0.0672
  C  C489  1  0.680700  0.144700  0.093200  1.0  -0.2015
  C  C490  1  0.475600  0.250900  0.049800  1.0  0.73
  C  C491  1  0.056000  0.090100  0.003430  1.0  0.049
  C  C492  1  0.123700  0.164300  0.005600  1.0  0.2872
  C  C493  1  0.149700  0.160300  0.963040  1.0  -0.263
  C  C494  1  0.200200  0.192800  0.946940  1.0  -0.044
  C  C495  1  0.224200  0.225000  0.971040  1.0  -0.1264
  C  C496  1  0.197600  0.226600  0.012860  1.0  -0.0336
  C  C497  1  0.148600  0.195700  0.030150  1.0  -0.2232
  C  C498  1  0.280300  0.255500  0.953380  1.0  0.6991
  N  N499  1  0.391000  0.739200  0.100620  1.0  0.8118
  N  N500  1  0.718100  0.505800  0.257400  1.0  0.6838
  N  N501  1  0.510200  0.835300  0.333870  1.0  0.6596
  N  N502  1  0.824000  0.458600  0.727800  1.0  0.4756
  N  N503  1  0.490000  0.797300  0.781450  1.0  0.7715
  N  N504  1  0.786600  0.690000  0.903620  1.0  0.8167
  N  N505  1  0.609000  0.260800  0.899380  1.0  0.8128
  N  N506  1  0.281900  0.494200  0.742600  1.0  0.6821
  N  N507  1  0.489800  0.164700  0.666130  1.0  0.6608
  N  N508  1  0.176000  0.541400  0.272200  1.0  0.4752
  N  N509  1  0.510000  0.202700  0.218550  1.0  0.7726
  N  N510  1  0.213400  0.310000  0.096380  1.0  0.8174
  O  O511  1  0.193510  0.946900  0.198680  1.0  -0.3028
  O  O512  1  0.878980  0.243150  0.160290  1.0  -0.2665
  O  O513  1  0.910840  0.889620  0.220390  1.0  -0.2967
  O  O514  1  0.562470  0.741770  0.216720  1.0  -0.7599
  O  O515  1  0.551670  0.774450  0.146820  1.0  -0.6959
  O  O516  1  0.732710  0.690640  0.250950  1.0  -0.6862
  O  O517  1  0.695270  0.739700  0.310530  1.0  -0.6811
  O  O518  1  0.653330  0.585680  0.060870  1.0  -0.6987
  O  O519  1  0.673940  0.607990  0.121820  1.0  -0.6231
  O  O520  1  0.866320  0.220870  0.429230  1.0  -0.2736
  O  O521  1  0.942170  0.869570  0.455620  1.0  -0.2666
  O  O522  1  0.204000  0.973820  0.446360  1.0  -0.298
  O  O523  1  0.676600  0.591810  0.374240  1.0  -0.7234
  O  O524  1  0.698860  0.575690  0.442880  1.0  -0.6786
  O  O525  1  0.764350  0.673650  0.473450  1.0  -0.6864
  O  O526  1  0.770880  0.669660  0.542450  1.0  -0.6966
  O  O527  1  0.573800  0.742670  0.453890  1.0  -0.7608
  O  O528  1  0.551800  0.783170  0.514480  1.0  -0.5585
  O  O529  1  0.263450  0.833880  0.654670  1.0  -0.2643
  O  O530  1  0.996180  0.784500  0.720640  1.0  -0.2608
  O  O531  1  0.953910  0.144380  0.668570  1.0  -0.2717
  O  O532  1  0.633530  0.659230  0.668710  1.0  -0.6922
  O  O533  1  0.621990  0.656610  0.601030  1.0  -0.7258
  O  O534  1  0.730080  0.683740  0.773300  1.0  -0.7082
  O  O535  1  0.773740  0.640690  0.712680  1.0  -0.702
  O  O536  1  0.732200  0.466020  0.550000  1.0  -0.6511
  O  O537  1  0.782580  0.508740  0.590080  1.0  -0.6908
  O  O538  1  0.887340  0.214460  0.921910  1.0  -0.2748
  O  O539  1  0.200940  0.955580  0.933620  1.0  -0.2677
  O  O540  1  0.922950  0.867350  0.974400  1.0  -0.2678
  O  O541  1  0.682970  0.572430  0.838240  1.0  -0.7253
  O  O542  1  0.728280  0.581720  0.895210  1.0  -0.64
  O  O543  1  0.566000  0.717770  0.920660  1.0  -0.6918
  O  O544  1  0.551510  0.733640  0.987320  1.0  -0.6939
  O  O545  1  0.693530  0.751620  0.083790  1.0  -0.7037
  O  O546  1  0.697500  0.717190  0.022240  1.0  -0.7079
  O  O547  1  0.455300  0.686010  0.117950  1.0  -0.5898
  O  O548  1  0.326400  0.743000  0.117940  1.0  -0.5585
  O  O549  1  0.390100  0.791880  0.070570  1.0  -0.6475
  O  O550  1  0.716500  0.562400  0.230480  1.0  -0.5677
  O  O551  1  0.668100  0.513830  0.286070  1.0  -0.6023
  O  O552  1  0.777200  0.436000  0.255580  1.0  -0.5001
  O  O553  1  0.497200  0.839200  0.294170  1.0  -0.7264
  O  O554  1  0.522400  0.885700  0.344710  1.0  -0.5161
  O  O555  1  0.540300  0.766400  0.353140  1.0  -0.6152
  O  O556  1  0.777800  0.496800  0.700460  1.0  -0.5816
  O  O557  1  0.800000  0.462300  0.766800  1.0  -0.7287
  O  O558  1  0.891900  0.399200  0.729740  1.0  -0.5276
  O  O559  1  0.482000  0.795410  0.820830  1.0  -0.7161
  O  O560  1  0.558900  0.759490  0.765680  1.0  -0.6865
  O  O561  1  0.429600  0.838300  0.757920  1.0  -0.5215
  O  O562  1  0.829400  0.637600  0.930980  1.0  -0.5632
  O  O563  1  0.715400  0.731760  0.909250  1.0  -0.626
  O  O564  1  0.810200  0.702400  0.866570  1.0  -0.6124
  O  O565  1  0.806490  0.053100  0.801320  1.0  -0.3056
  O  O566  1  0.121020  0.756850  0.839710  1.0  -0.2689
  O  O567  1  0.089160  0.110380  0.779610  1.0  -0.2968
  O  O568  1  0.437530  0.258230  0.783280  1.0  -0.76
  O  O569  1  0.448330  0.225550  0.853180  1.0  -0.6976
  O  O570  1  0.267290  0.309360  0.749050  1.0  -0.6848
  O  O571  1  0.304730  0.260300  0.689470  1.0  -0.6807
  O  O572  1  0.346670  0.414320  0.939130  1.0  -0.697
  O  O573  1  0.326060  0.392010  0.878180  1.0  -0.6211
  O  O574  1  0.133680  0.779130  0.570770  1.0  -0.2727
  O  O575  1  0.057830  0.130430  0.544380  1.0  -0.2639
  O  O576  1  0.796000  0.026180  0.553640  1.0  -0.2987
  O  O577  1  0.323400  0.408190  0.625760  1.0  -0.7205
  O  O578  1  0.301140  0.424310  0.557120  1.0  -0.6807
  O  O579  1  0.235650  0.326350  0.526550  1.0  -0.6845
  O  O580  1  0.229120  0.330340  0.457550  1.0  -0.6975
  O  O581  1  0.426200  0.257330  0.546110  1.0  -0.7587
  O  O582  1  0.448200  0.216830  0.485520  1.0  -0.5558
  O  O583  1  0.736550  0.166120  0.345330  1.0  -0.265
  O  O584  1  0.003820  0.215500  0.279360  1.0  -0.258
  O  O585  1  0.046090  0.855620  0.331430  1.0  -0.272
  O  O586  1  0.366470  0.340770  0.331290  1.0  -0.6937
  O  O587  1  0.378010  0.343390  0.398970  1.0  -0.7235
  O  O588  1  0.269920  0.316260  0.226700  1.0  -0.7045
  O  O589  1  0.226260  0.359310  0.287320  1.0  -0.6998
  O  O590  1  0.267800  0.533980  0.450000  1.0  -0.6478
  O  O591  1  0.217420  0.491260  0.409920  1.0  -0.692
  O  O592  1  0.112660  0.785540  0.078090  1.0  -0.2762
  O  O593  1  0.799060  0.044420  0.066380  1.0  -0.2684
  O  O594  1  0.077050  0.132650  0.025600  1.0  -0.2676
  O  O595  1  0.317030  0.427570  0.161760  1.0  -0.7269
  O  O596  1  0.271720  0.418280  0.104790  1.0  -0.639
  O  O597  1  0.434000  0.282230  0.079340  1.0  -0.6916
  O  O598  1  0.448490  0.266360  0.012680  1.0  -0.6945
  O  O599  1  0.306470  0.248380  0.916210  1.0  -0.7034
  O  O600  1  0.302500  0.282810  0.977760  1.0  -0.7083
  O  O601  1  0.544700  0.313990  0.882050  1.0  -0.5883
  O  O602  1  0.673600  0.257000  0.882060  1.0  -0.5622
  O  O603  1  0.609900  0.208120  0.929430  1.0  -0.6477
  O  O604  1  0.283500  0.437600  0.769520  1.0  -0.5705
  O  O605  1  0.331900  0.486170  0.713930  1.0  -0.5995
  O  O606  1  0.222800  0.564000  0.744420  1.0  -0.5013
  O  O607  1  0.502800  0.160800  0.705830  1.0  -0.7238
  O  O608  1  0.477600  0.114300  0.655290  1.0  -0.5157
  O  O609  1  0.459700  0.233600  0.646860  1.0  -0.6137
  O  O610  1  0.222200  0.503200  0.299540  1.0  -0.5795
  O  O611  1  0.200000  0.537700  0.233200  1.0  -0.7307
  O  O612  1  0.108100  0.600800  0.270260  1.0  -0.526
  O  O613  1  0.518000  0.204590  0.179170  1.0  -0.7165
  O  O614  1  0.441100  0.240510  0.234320  1.0  -0.687
  O  O615  1  0.570400  0.161700  0.242080  1.0  -0.523
  O  O616  1  0.170600  0.362400  0.069020  1.0  -0.5649
  O  O617  1  0.284600  0.268240  0.090750  1.0  -0.6274
  O  O618  1  0.189800  0.297600  0.133430  1.0  -0.6119
