# generated using pymatgen
data_Ca4H57(C33O10)2
_symmetry_space_group_name_H-M   'P 1'
_cell_length_a   15.54700000
_cell_length_b   20.20300000
_cell_length_c   20.45100000
_cell_angle_alpha   118.19000000
_cell_angle_beta   95.92000000
_cell_angle_gamma   103.52000000
_symmetry_Int_Tables_number   1
_chemical_formula_structural   Ca4H57(C33O10)2
_chemical_formula_sum   'Ca8 H114 C132 O40'
_cell_volume   5331.05384648
_cell_formula_units_Z   2
loop_
 _symmetry_equiv_pos_site_id
 _symmetry_equiv_pos_as_xyz
  1  'x, y, z'
loop_
 _atom_site_type_symbol
 _atom_site_label
 _atom_site_symmetry_multiplicity
 _atom_site_fract_x
 _atom_site_fract_y
 _atom_site_fract_z
 _atom_site_occupancy
 _atom_site_charge
  Ca  Ca1  1  0.143480  0.122900  0.755510  1.0  1.5852
  Ca  Ca2  1  0.909880  0.182490  0.800930  1.0  1.5666
  Ca  Ca3  1  0.328980  0.174630  0.910400  1.0  1.5792
  Ca  Ca4  1  0.528440  0.143500  0.848860  1.0  1.6001
  Ca  Ca5  1  0.856520  0.877100  0.244490  1.0  1.5858
  Ca  Ca6  1  0.090120  0.817510  0.199070  1.0  1.5678
  Ca  Ca7  1  0.671020  0.825370  0.089600  1.0  1.5782
  Ca  Ca8  1  0.471560  0.856500  0.151140  1.0  1.5999
  H  H9  1  0.704600  0.620500  0.720600  1.0  0.0928
  H  H10  1  0.704100  0.543700  0.725600  1.0  0.0959
  H  H11  1  0.613100  0.567700  0.724400  1.0  0.0969
  H  H12  1  0.622000  0.508500  0.391400  1.0  0.1043
  H  H13  1  0.719200  0.561400  0.451800  1.0  0.0986
  H  H14  1  0.633500  0.593000  0.463900  1.0  0.115
  H  H15  1  0.486900  0.287500  0.500500  1.0  0.0935
  H  H16  1  0.527000  0.270000  0.427100  1.0  0.1098
  H  H17  1  0.434400  0.291700  0.431800  1.0  0.0959
  H  H18  1  0.783600  0.635200  0.652400  1.0  0.0853
  H  H19  1  0.776500  0.628700  0.570700  1.0  0.0849
  H  H20  1  0.673800  0.822900  0.694900  1.0  0.0974
  H  H21  1  0.761300  0.948900  0.721700  1.0  0.1033
  H  H22  1  0.967500  0.860300  0.654200  1.0  0.0765
  H  H23  1  0.876600  0.734700  0.623200  1.0  0.0976
  H  H24  1  0.464600  0.344400  0.359700  1.0  0.0603
  H  H25  1  0.522400  0.417600  0.353800  1.0  0.0891
  H  H26  1  0.672700  0.255900  0.249700  1.0  0.0871
  H  H27  1  0.664800  0.205100  0.121800  1.0  0.0993
  H  H28  1  0.441800  0.273000  0.101800  1.0  0.0968
  H  H29  1  0.454000  0.325700  0.233400  1.0  0.105
  H  H30  1  0.585200  0.344400  0.604400  1.0  0.0869
  H  H31  1  0.619700  0.430400  0.680800  1.0  0.0771
  H  H32  1  0.578200  0.324600  0.700600  1.0  0.1125
  H  H33  1  0.530700  0.271800  0.778400  1.0  0.0923
  H  H34  1  0.280000  0.290200  0.735900  1.0  0.1082
  H  H35  1  0.328200  0.343700  0.660600  1.0  0.088
  H  H36  1  0.971100  0.307800  0.274700  1.0  0.0864
  H  H37  1  0.923800  0.320800  0.343800  1.0  0.0899
  H  H38  1  0.008500  0.287700  0.336800  1.0  0.1052
  H  H39  1  0.219800  0.627100  0.379700  1.0  0.1023
  H  H40  1  0.122400  0.579800  0.319000  1.0  0.0997
  H  H41  1  0.204700  0.544000  0.303800  1.0  0.1005
  H  H42  1  0.221800  0.613800  0.608600  1.0  0.1051
  H  H43  1  0.204000  0.528400  0.599800  1.0  0.1049
  H  H44  1  0.124800  0.568100  0.611900  1.0  0.0982
  H  H45  1  0.028300  0.445600  0.549200  1.0  0.0548
  H  H46  1  0.972700  0.367000  0.468400  1.0  0.0613
  H  H47  1  0.966000  0.364300  0.585900  1.0  0.1079
  H  H48  1  0.946700  0.308100  0.663200  1.0  0.0881
  H  H49  1  0.156900  0.224100  0.610000  1.0  0.0974
  H  H50  1  0.181100  0.283500  0.535400  1.0  0.1211
  H  H51  1  0.985500  0.381600  0.236100  1.0  0.1021
  H  H52  1  0.065500  0.450000  0.238000  1.0  0.0599
  H  H53  1  0.187700  0.262600  0.159900  1.0  0.0934
  H  H54  1  0.196000  0.198300  0.034000  1.0  0.1017
  H  H55  1  0.021600  0.299900  0.981000  1.0  0.0924
  H  H56  1  0.010500  0.362600  0.110700  1.0  0.1116
  H  H57  1  0.281500  0.655800  0.557400  1.0  0.0595
  H  H58  1  0.283700  0.657800  0.479800  1.0  0.0629
  H  H59  1  0.102400  0.797300  0.566900  1.0  0.0793
  H  H60  1  0.140000  0.926200  0.670700  1.0  0.1104
  H  H61  1  0.395600  0.919300  0.732200  1.0  0.0989
  H  H62  1  0.351800  0.784700  0.630600  1.0  0.1156
  H  H63  1  0.804000  0.137300  0.907300  1.0  0.4944
  H  H64  1  0.851900  0.184700  0.883500  1.0  0.392
  H  H65  1  0.684800  0.304500  0.899900  1.0  0.3452
  H  H66  1  0.295400  0.379500  0.279400  1.0  0.094
  H  H67  1  0.295900  0.456300  0.274400  1.0  0.0958
  H  H68  1  0.386900  0.432300  0.275600  1.0  0.0979
  H  H69  1  0.378000  0.491500  0.608600  1.0  0.1039
  H  H70  1  0.280800  0.438600  0.548200  1.0  0.096
  H  H71  1  0.366500  0.407000  0.536100  1.0  0.1146
  H  H72  1  0.513100  0.712500  0.499500  1.0  0.0941
  H  H73  1  0.473000  0.730000  0.572900  1.0  0.1093
  H  H74  1  0.565600  0.708300  0.568200  1.0  0.0968
  H  H75  1  0.216400  0.364800  0.347600  1.0  0.0873
  H  H76  1  0.223500  0.371300  0.429300  1.0  0.0835
  H  H77  1  0.326200  0.177100  0.305100  1.0  0.0958
  H  H78  1  0.238700  0.051100  0.278300  1.0  0.1033
  H  H79  1  0.032500  0.139700  0.345800  1.0  0.077
  H  H80  1  0.123400  0.265300  0.376800  1.0  0.0963
  H  H81  1  0.535400  0.655600  0.640300  1.0  0.0607
  H  H82  1  0.477600  0.582400  0.646200  1.0  0.0919
  H  H83  1  0.327300  0.744100  0.750300  1.0  0.0873
  H  H84  1  0.335200  0.794900  0.878200  1.0  0.0992
  H  H85  1  0.558200  0.727000  0.898200  1.0  0.0973
  H  H86  1  0.546000  0.674300  0.766600  1.0  0.1053
  H  H87  1  0.414800  0.655600  0.395600  1.0  0.0859
  H  H88  1  0.380300  0.569600  0.319200  1.0  0.0783
  H  H89  1  0.421800  0.675400  0.299400  1.0  0.113
  H  H90  1  0.469300  0.728200  0.221600  1.0  0.0926
  H  H91  1  0.720000  0.709800  0.264100  1.0  0.1083
  H  H92  1  0.671800  0.656300  0.339400  1.0  0.0875
  H  H93  1  0.028900  0.692200  0.725300  1.0  0.0876
  H  H94  1  0.076200  0.679200  0.656200  1.0  0.0911
  H  H95  1  0.991500  0.712300  0.663200  1.0  0.1071
  H  H96  1  0.780200  0.372900  0.620300  1.0  0.1029
  H  H97  1  0.877600  0.420200  0.681000  1.0  0.1004
  H  H98  1  0.795300  0.456000  0.696200  1.0  0.1009
  H  H99  1  0.778200  0.386200  0.391400  1.0  0.1039
  H  H100  1  0.796000  0.471600  0.400200  1.0  0.1076
  H  H101  1  0.875200  0.431900  0.388100  1.0  0.0971
  H  H102  1  0.971700  0.554400  0.450800  1.0  0.0549
  H  H103  1  0.027300  0.633000  0.531600  1.0  0.0604
  H  H104  1  0.034000  0.635700  0.414100  1.0  0.1106
  H  H105  1  0.053300  0.691900  0.336800  1.0  0.0881
  H  H106  1  0.843100  0.775900  0.390000  1.0  0.0978
  H  H107  1  0.818900  0.716500  0.464600  1.0  0.1197
  H  H108  1  0.014500  0.618400  0.763900  1.0  0.1008
  H  H109  1  0.934500  0.550000  0.762000  1.0  0.0614
  H  H110  1  0.812300  0.737400  0.840100  1.0  0.0931
  H  H111  1  0.804000  0.801700  0.966000  1.0  0.1015
  H  H112  1  0.978400  0.700100  0.019000  1.0  0.0926
  H  H113  1  0.989500  0.637400  0.889300  1.0  0.1118
  H  H114  1  0.718500  0.344200  0.442600  1.0  0.0619
  H  H115  1  0.716300  0.342200  0.520200  1.0  0.064
  H  H116  1  0.897600  0.202700  0.433100  1.0  0.0817
  H  H117  1  0.860000  0.073800  0.329300  1.0  0.1102
  H  H118  1  0.604400  0.080700  0.267800  1.0  0.0993
  H  H119  1  0.648200  0.215300  0.369400  1.0  0.115
  H  H120  1  0.196000  0.862700  0.092700  1.0  0.4898
  H  H121  1  0.148100  0.815300  0.116500  1.0  0.3953
  H  H122  1  0.315200  0.695500  0.100100  1.0  0.3507
  C  C123  1  0.665400  0.549400  0.571500  1.0  -0.146
  C  C124  1  0.627900  0.506300  0.492200  1.0  0.0318
  C  C125  1  0.568700  0.426900  0.458000  1.0  -0.1373
  C  C126  1  0.550200  0.390900  0.500700  1.0  -0.0257
  C  C127  1  0.588300  0.435300  0.581700  1.0  -0.0678
  C  C128  1  0.639900  0.515000  0.616500  1.0  -0.0003
  C  C129  1  0.668000  0.566400  0.704800  1.0  -0.3582
  C  C130  1  0.652900  0.545900  0.445600  1.0  -0.3728
  C  C131  1  0.494500  0.301900  0.461400  1.0  -0.3537
  C  C132  1  0.741300  0.628300  0.608300  1.0  -0.0114
  C  C133  1  0.763100  0.766000  0.651200  1.0  0.2132
  C  C134  1  0.732300  0.830100  0.684300  1.0  -0.2602
  C  C135  1  0.785800  0.906300  0.702900  1.0  -0.0571
  C  C136  1  0.877800  0.919500  0.693400  1.0  -0.072
  C  C137  1  0.907800  0.853500  0.662300  1.0  -0.0394
  C  C138  1  0.853100  0.777800  0.642400  1.0  -0.2591
  C  C139  1  0.935000  0.001200  0.716000  1.0  0.6819
  C  C140  1  0.526900  0.380500  0.371700  1.0  0.028
  C  C141  1  0.566500  0.300000  0.254900  1.0  0.2969
  C  C142  1  0.626800  0.260900  0.219500  1.0  -0.1687
  C  C143  1  0.621600  0.229800  0.143200  1.0  -0.0774
  C  C144  1  0.554400  0.233700  0.096000  1.0  -0.1083
  C  C145  1  0.490100  0.270400  0.131900  1.0  -0.0716
  C  C146  1  0.497600  0.302400  0.210900  1.0  -0.208
  C  C147  1  0.542000  0.198300  0.011900  1.0  0.668
  C  C148  1  0.575000  0.396400  0.630300  1.0  -0.0137
  C  C149  1  0.459700  0.347500  0.680800  1.0  0.3045
  C  C150  1  0.519100  0.320500  0.710000  1.0  -0.2202
  C  C151  1  0.489600  0.286600  0.754500  1.0  -0.0526
  C  C152  1  0.400900  0.275400  0.762600  1.0  -0.082
  C  C153  1  0.340600  0.297600  0.729700  1.0  -0.0784
  C  C154  1  0.370600  0.331500  0.686500  1.0  -0.2415
  C  C155  1  0.371300  0.235400  0.809800  1.0  0.6812
  C  C156  1  0.076000  0.445500  0.457400  1.0  -0.0343
  C  C157  1  0.048800  0.409800  0.378600  1.0  -0.0383
  C  C158  1  0.081100  0.452000  0.341000  1.0  -0.0769
  C  C159  1  0.146200  0.530500  0.385900  1.0  0.023
  C  C160  1  0.176600  0.564500  0.464800  1.0  -0.0445
  C  C161  1  0.142200  0.522300  0.501600  1.0  0.0265
  C  C162  1  0.981900  0.323600  0.328900  1.0  -0.3551
  C  C163  1  0.176000  0.574300  0.343200  1.0  -0.3739
  C  C164  1  0.176200  0.561700  0.588200  1.0  -0.3714
  C  C165  1  0.034100  0.405600  0.499200  1.0  0.0433
  C  C166  1  0.076200  0.331900  0.556500  1.0  0.2206
  C  C167  1  0.006000  0.337300  0.591700  1.0  -0.2264
  C  C168  1  0.993800  0.302100  0.636900  1.0  -0.0277
  C  C169  1  0.047000  0.259900  0.644500  1.0  -0.1547
  C  C170  1  0.118800  0.253100  0.605600  1.0  -0.0469
  C  C171  1  0.133700  0.288500  0.561400  1.0  -0.1812
  C  C172  1  0.033500  0.221000  0.693500  1.0  0.6755
  C  C173  1  0.051900  0.410900  0.254900  1.0  0.016
  C  C174  1  0.100000  0.320300  0.148100  1.0  0.196
  C  C175  1  0.154100  0.269900  0.123800  1.0  -0.2418
  C  C176  1  0.158700  0.231400  0.049100  1.0  -0.07
  C  C177  1  0.105800  0.241100  0.991300  1.0  -0.1126
  C  C178  1  0.054300  0.291000  0.016400  1.0  -0.0531
  C  C179  1  0.048700  0.330300  0.095100  1.0  -0.1746
  C  C180  1  0.111900  0.201200  0.910100  1.0  0.6987
  C  C181  1  0.243300  0.647500  0.510600  1.0  0.0311
  C  C182  1  0.219900  0.776800  0.591700  1.0  0.233
  C  C183  1  0.160400  0.821000  0.602300  1.0  -0.2154
  C  C184  1  0.182800  0.898200  0.662500  1.0  -0.0872
  C  C185  1  0.272200  0.934000  0.711600  1.0  -0.1272
  C  C186  1  0.335400  0.893500  0.699800  1.0  -0.0512
  C  C187  1  0.309500  0.813200  0.639100  1.0  -0.1235
  C  C188  1  0.299200  0.019900  0.776600  1.0  0.6926
  C  C189  1  0.334600  0.450600  0.428500  1.0  -0.1457
  C  C190  1  0.372100  0.493700  0.507800  1.0  0.0331
  C  C191  1  0.431300  0.573100  0.542000  1.0  -0.1371
  C  C192  1  0.449800  0.609100  0.499300  1.0  -0.0214
  C  C193  1  0.411700  0.564700  0.418300  1.0  -0.0705
  C  C194  1  0.360100  0.485000  0.383500  1.0  0.001
  C  C195  1  0.332000  0.433600  0.295200  1.0  -0.357
  C  C196  1  0.347100  0.454100  0.554400  1.0  -0.3714
  C  C197  1  0.505500  0.698100  0.538600  1.0  -0.3526
  C  C198  1  0.258700  0.371700  0.391700  1.0  -0.0121
  C  C199  1  0.236900  0.234000  0.348800  1.0  0.2122
  C  C200  1  0.267700  0.169900  0.315700  1.0  -0.2604
  C  C201  1  0.214200  0.093700  0.297100  1.0  -0.0557
  C  C202  1  0.122200  0.080500  0.306600  1.0  -0.0727
  C  C203  1  0.092200  0.146500  0.337700  1.0  -0.0388
  C  C204  1  0.146900  0.222200  0.357600  1.0  -0.2603
  C  C205  1  0.065000  0.998800  0.284000  1.0  0.682
  C  C206  1  0.473100  0.619500  0.628300  1.0  0.0264
  C  C207  1  0.433500  0.700000  0.745100  1.0  0.2973
  C  C208  1  0.373200  0.739100  0.780500  1.0  -0.1698
  C  C209  1  0.378400  0.770200  0.856800  1.0  -0.0786
  C  C210  1  0.445600  0.766300  0.904000  1.0  -0.1096
  C  C211  1  0.509900  0.729600  0.868100  1.0  -0.0706
  C  C212  1  0.502400  0.697600  0.789100  1.0  -0.2088
  C  C213  1  0.458000  0.801700  0.988100  1.0  0.6684
  C  C214  1  0.425000  0.603600  0.369700  1.0  -0.0115
  C  C215  1  0.540300  0.652500  0.319200  1.0  0.3049
  C  C216  1  0.480900  0.679500  0.290000  1.0  -0.222
  C  C217  1  0.510400  0.713400  0.245500  1.0  -0.0528
  C  C218  1  0.599100  0.724600  0.237400  1.0  -0.0823
  C  C219  1  0.659400  0.702400  0.270300  1.0  -0.0793
  C  C220  1  0.629400  0.668500  0.313500  1.0  -0.242
  C  C221  1  0.628700  0.764600  0.190200  1.0  0.6824
  C  C222  1  0.924000  0.554500  0.542600  1.0  -0.0346
  C  C223  1  0.951200  0.590200  0.621400  1.0  -0.0384
  C  C224  1  0.918900  0.548000  0.659000  1.0  -0.0776
  C  C225  1  0.853800  0.469500  0.614100  1.0  0.022
  C  C226  1  0.823400  0.435500  0.535200  1.0  -0.0439
  C  C227  1  0.857800  0.477700  0.498400  1.0  0.0251
  C  C228  1  0.018100  0.676400  0.671100  1.0  -0.3576
  C  C229  1  0.824000  0.425700  0.656800  1.0  -0.3746
  C  C230  1  0.823800  0.438300  0.411800  1.0  -0.3715
  C  C231  1  0.965900  0.594400  0.500800  1.0  0.0431
  C  C232  1  0.923800  0.668100  0.443500  1.0  0.2205
  C  C233  1  0.994000  0.662700  0.408300  1.0  -0.2269
  C  C234  1  0.006200  0.697900  0.363100  1.0  -0.0291
  C  C235  1  0.953000  0.740100  0.355500  1.0  -0.1557
  C  C236  1  0.881200  0.746900  0.394400  1.0  -0.0487
  C  C237  1  0.866300  0.711500  0.438600  1.0  -0.1805
  C  C238  1  0.966500  0.779000  0.306500  1.0  0.6771
  C  C239  1  0.948100  0.589100  0.745100  1.0  0.0151
  C  C240  1  0.900000  0.679700  0.851900  1.0  0.1962
  C  C241  1  0.845900  0.730100  0.876200  1.0  -0.2433
  C  C242  1  0.841300  0.768600  0.950900  1.0  -0.0701
  C  C243  1  0.894200  0.758900  0.008700  1.0  -0.1119
  C  C244  1  0.945700  0.709000  0.983600  1.0  -0.0526
  C  C245  1  0.951300  0.669700  0.904900  1.0  -0.1738
  C  C246  1  0.888100  0.798800  0.089900  1.0  0.7002
  C  C247  1  0.756700  0.352500  0.489400  1.0  0.0317
  C  C248  1  0.780100  0.223200  0.408300  1.0  0.2329
  C  C249  1  0.839600  0.179000  0.397700  1.0  -0.2106
  C  C250  1  0.817200  0.101800  0.337500  1.0  -0.0874
  C  C251  1  0.727800  0.066000  0.288400  1.0  -0.1259
  C  C252  1  0.664600  0.106500  0.300200  1.0  -0.052
  C  C253  1  0.690500  0.186800  0.360900  1.0  -0.1244
  C  C254  1  0.700800  0.980100  0.223400  1.0  0.6942
  O  O255  1  0.703300  0.694700  0.634600  1.0  -0.3048
  O  O256  1  0.898500  0.053400  0.727200  1.0  -0.6957
  O  O257  1  0.019100  0.010400  0.714600  1.0  -0.6928
  O  O258  1  0.584300  0.335200  0.333700  1.0  -0.2608
  O  O259  1  0.604900  0.170400  0.983600  1.0  -0.7161
  O  O260  1  0.479600  0.203000  0.972300  1.0  -0.6946
  O  O261  1  0.481500  0.385600  0.640600  1.0  -0.3074
  O  O262  1  0.288700  0.224400  0.815400  1.0  -0.7526
  O  O263  1  0.429700  0.217700  0.842700  1.0  -0.6898
  O  O264  1  0.096300  0.364800  0.510400  1.0  -0.3327
  O  O265  1  0.967700  0.226900  0.724000  1.0  -0.6925
  O  O266  1  0.089600  0.187500  0.701700  1.0  -0.7581
  O  O267  1  0.103500  0.356700  0.226100  1.0  -0.2853
  O  O268  1  0.060100  0.201900  0.861100  1.0  -0.6758
  O  O269  1  0.172000  0.164200  0.894200  1.0  -0.7342
  O  O270  1  0.186300  0.699600  0.530600  1.0  -0.3004
  O  O271  1  0.243000  0.057200  0.784400  1.0  -0.7336
  O  O272  1  0.378200  0.051100  0.822800  1.0  -0.7219
  O  O273  1  0.847700  0.141100  0.885800  1.0  -0.7531
  O  O274  1  0.652700  0.252600  0.874900  1.0  -0.6133
  O  O275  1  0.296700  0.305300  0.365400  1.0  -0.3011
  O  O276  1  0.101500  0.946600  0.272800  1.0  -0.6964
  O  O277  1  0.980900  0.989600  0.285400  1.0  -0.6923
  O  O278  1  0.415700  0.664800  0.666300  1.0  -0.2643
  O  O279  1  0.395100  0.829600  0.016400  1.0  -0.7153
  O  O280  1  0.520400  0.797000  0.027700  1.0  -0.694
  O  O281  1  0.518500  0.614400  0.359400  1.0  -0.3096
  O  O282  1  0.711300  0.775600  0.184600  1.0  -0.7516
  O  O283  1  0.570300  0.782300  0.157300  1.0  -0.6907
  O  O284  1  0.903700  0.635200  0.489600  1.0  -0.3338
  O  O285  1  0.032300  0.773100  0.276000  1.0  -0.6951
  O  O286  1  0.910400  0.812500  0.298300  1.0  -0.7584
  O  O287  1  0.896500  0.643300  0.773900  1.0  -0.2861
  O  O288  1  0.939900  0.798100  0.138900  1.0  -0.6761
  O  O289  1  0.828000  0.835800  0.105800  1.0  -0.7363
  O  O290  1  0.813700  0.300400  0.469400  1.0  -0.3013
  O  O291  1  0.757000  0.942800  0.215600  1.0  -0.7332
  O  O292  1  0.621800  0.948900  0.177200  1.0  -0.7238
  O  O293  1  0.152300  0.858900  0.114200  1.0  -0.7565
  O  O294  1  0.347300  0.747400  0.125100  1.0  -0.6178
