# generated using pymatgen
data_NdH3(C3O2)3
_symmetry_space_group_name_H-M   'P 1'
_cell_length_a   10.38000000
_cell_length_b   10.75200000
_cell_length_c   16.02500000
_cell_angle_alpha   90.00000000
_cell_angle_beta   106.41900000
_cell_angle_gamma   90.00000000
_symmetry_Int_Tables_number   1
_chemical_formula_structural   NdH3(C3O2)3
_chemical_formula_sum   'Nd4 H12 C36 O24'
_cell_volume   1715.54852114
_cell_formula_units_Z   4
loop_
 _symmetry_equiv_pos_site_id
 _symmetry_equiv_pos_as_xyz
  1  'x, y, z'
loop_
 _atom_site_type_symbol
 _atom_site_label
 _atom_site_symmetry_multiplicity
 _atom_site_fract_x
 _atom_site_fract_y
 _atom_site_fract_z
 _atom_site_occupancy
 _atom_site_charge
  Nd  Nd1  1  0.634460  0.870690  0.972270  1.0  2.2647
  Nd  Nd2  1  0.865540  0.370690  0.527730  1.0  2.264
  Nd  Nd3  1  0.365540  0.129310  0.027730  1.0  2.2639
  Nd  Nd4  1  0.134460  0.629310  0.472270  1.0  2.2651
  H  H5  1  0.091600  0.901300  0.928100  1.0  0.107
  H  H6  1  0.222800  0.726500  0.746000  1.0  0.1049
  H  H7  1  0.842100  0.687700  0.750600  1.0  0.1136
  H  H8  1  0.408400  0.401300  0.571900  1.0  0.1066
  H  H9  1  0.277200  0.226500  0.754000  1.0  0.1053
  H  H10  1  0.657900  0.187700  0.749400  1.0  0.1123
  H  H11  1  0.908400  0.098700  0.071900  1.0  0.107
  H  H12  1  0.777200  0.273500  0.254000  1.0  0.1052
  H  H13  1  0.157900  0.312300  0.249400  1.0  0.1122
  H  H14  1  0.591600  0.598700  0.428100  1.0  0.1074
  H  H15  1  0.722800  0.773500  0.246000  1.0  0.105
  H  H16  1  0.342100  0.812300  0.250600  1.0  0.1133
  C  C17  1  0.833800  0.836100  0.880900  1.0  0.6701
  C  C18  1  0.948600  0.801700  0.843800  1.0  -0.1544
  C  C19  1  0.076000  0.848300  0.880500  1.0  0.022
  C  C20  1  0.182100  0.816300  0.846500  1.0  -0.1842
  C  C21  1  0.154500  0.744000  0.771400  1.0  0.0022
  C  C22  1  0.026200  0.697600  0.733900  1.0  -0.1622
  C  C23  1  0.926300  0.723600  0.772800  1.0  0.0194
  C  C24  1  0.323600  0.856400  0.891000  1.0  0.7857
  C  C25  1  0.995700  0.627800  0.648300  1.0  0.7955
  C  C26  1  0.666200  0.336100  0.619100  1.0  0.6683
  C  C27  1  0.551400  0.301700  0.656200  1.0  -0.1552
  C  C28  1  0.424000  0.348300  0.619500  1.0  0.0207
  C  C29  1  0.317900  0.316300  0.653500  1.0  -0.1829
  C  C30  1  0.345500  0.244000  0.728600  1.0  0.0006
  C  C31  1  0.473800  0.197600  0.766100  1.0  -0.1617
  C  C32  1  0.573700  0.223600  0.727200  1.0  0.0203
  C  C33  1  0.176400  0.356400  0.609000  1.0  0.7859
  C  C34  1  0.504300  0.127800  0.851700  1.0  0.7959
  C  C35  1  0.166200  0.163900  0.119100  1.0  0.6683
  C  C36  1  0.051400  0.198300  0.156200  1.0  -0.1556
  C  C37  1  0.924000  0.151700  0.119500  1.0  0.0206
  C  C38  1  0.817900  0.183700  0.153500  1.0  -0.1832
  C  C39  1  0.845500  0.256000  0.228600  1.0  0.0002
  C  C40  1  0.973800  0.302400  0.266100  1.0  -0.1619
  C  C41  1  0.073700  0.276400  0.227200  1.0  0.02
  C  C42  1  0.676400  0.143600  0.109000  1.0  0.7867
  C  C43  1  0.004300  0.372200  0.351700  1.0  0.7969
  C  C44  1  0.333800  0.663900  0.380900  1.0  0.6699
  C  C45  1  0.448600  0.698300  0.343800  1.0  -0.1546
  C  C46  1  0.576000  0.651700  0.380500  1.0  0.0224
  C  C47  1  0.682100  0.683700  0.346500  1.0  -0.1845
  C  C48  1  0.654500  0.756000  0.271400  1.0  0.0017
  C  C49  1  0.526200  0.802400  0.233900  1.0  -0.1618
  C  C50  1  0.426300  0.776400  0.272800  1.0  0.019
  C  C51  1  0.823600  0.643600  0.391000  1.0  0.7865
  C  C52  1  0.495700  0.872200  0.148300  1.0  0.7961
  O  O53  1  0.855400  0.912400  0.942900  1.0  -0.6953
  O  O54  1  0.721600  0.786100  0.849200  1.0  -0.6838
  O  O55  1  0.343000  0.941400  0.946800  1.0  -0.8278
  O  O56  1  0.417800  0.801900  0.872100  1.0  -0.6865
  O  O57  1  0.919900  0.535000  0.638100  1.0  -0.6831
  O  O58  1  0.047200  0.672900  0.593000  1.0  -0.8002
  O  O59  1  0.644600  0.412400  0.557100  1.0  -0.6955
  O  O60  1  0.778400  0.286100  0.650800  1.0  -0.6857
  O  O61  1  0.157000  0.441400  0.553200  1.0  -0.8298
  O  O62  1  0.082200  0.301900  0.627900  1.0  -0.6876
  O  O63  1  0.580100  0.035000  0.861900  1.0  -0.6842
  O  O64  1  0.452800  0.172900  0.907000  1.0  -0.8043
  O  O65  1  0.144600  0.087600  0.057100  1.0  -0.6946
  O  O66  1  0.278400  0.213900  0.150800  1.0  -0.6852
  O  O67  1  0.657000  0.058600  0.053200  1.0  -0.8299
  O  O68  1  0.582200  0.198100  0.127900  1.0  -0.6892
  O  O69  1  0.080100  0.465000  0.361900  1.0  -0.6847
  O  O70  1  0.952800  0.327100  0.407000  1.0  -0.8026
  O  O71  1  0.355400  0.587600  0.442900  1.0  -0.6965
  O  O72  1  0.221600  0.713900  0.349200  1.0  -0.6862
  O  O73  1  0.843000  0.558600  0.446800  1.0  -0.8271
  O  O74  1  0.917800  0.698100  0.372100  1.0  -0.6882
  O  O75  1  0.419900  0.965000  0.138100  1.0  -0.6839
  O  O76  1  0.547200  0.827100  0.093000  1.0  -0.7983
