# generated using pymatgen
data_Zn3H10C23O13
_symmetry_space_group_name_H-M   'P 1'
_cell_length_a   16.40710000
_cell_length_b   11.80750000
_cell_length_c   15.28320000
_cell_angle_alpha   90.00000000
_cell_angle_beta   90.00000000
_cell_angle_gamma   90.00000000
_symmetry_Int_Tables_number   1
_chemical_formula_structural   Zn3H10C23O13
_chemical_formula_sum   'Zn6 H20 C46 O26'
_cell_volume   2960.76593793
_cell_formula_units_Z   2
loop_
 _symmetry_equiv_pos_site_id
 _symmetry_equiv_pos_as_xyz
  1  'x, y, z'
loop_
 _atom_site_type_symbol
 _atom_site_label
 _atom_site_symmetry_multiplicity
 _atom_site_fract_x
 _atom_site_fract_y
 _atom_site_fract_z
 _atom_site_occupancy
 _atom_site_charge
  Zn  Zn1  1  0.099640  0.597550  0.170980  1.0  1.0133
  Zn  Zn2  1  0.400360  0.402450  0.670980  1.0  1.0134
  Zn  Zn3  1  0.599640  0.402450  0.670980  1.0  1.0131
  Zn  Zn4  1  0.900360  0.597550  0.170980  1.0  1.0137
  Zn  Zn5  1  0.000000  0.350770  0.118280  1.0  0.9552
  Zn  Zn6  1  0.500000  0.649230  0.618280  1.0  0.9498
  H  H7  1  0.227700  0.456700  0.394000  1.0  0.0952
  H  H8  1  0.234200  0.167800  0.529800  1.0  0.104
  H  H9  1  0.106600  0.180200  0.308300  1.0  0.087
  H  H10  1  0.122500  0.881300  0.337400  1.0  0.1189
  H  H11  1  0.272300  0.543300  0.894000  1.0  0.0954
  H  H12  1  0.265800  0.832200  0.029800  1.0  0.1047
  H  H13  1  0.393400  0.819800  0.808300  1.0  0.0871
  H  H14  1  0.377500  0.118700  0.837400  1.0  0.1192
  H  H15  1  0.727700  0.543300  0.894000  1.0  0.0957
  H  H16  1  0.734200  0.832200  0.029800  1.0  0.1044
  H  H17  1  0.606600  0.819800  0.808300  1.0  0.0869
  H  H18  1  0.622500  0.118700  0.837400  1.0  0.1191
  H  H19  1  0.772300  0.456700  0.394000  1.0  0.0952
  H  H20  1  0.765800  0.167800  0.529800  1.0  0.1045
  H  H21  1  0.893400  0.180200  0.308300  1.0  0.0874
  H  H22  1  0.877500  0.881300  0.337400  1.0  0.1193
  H  H23  1  0.000000  0.560200  0.052500  1.0  0.4077
  H  H24  1  0.000000  0.116300  0.472500  1.0  0.0678
  H  H25  1  0.500000  0.439800  0.552500  1.0  0.4046
  H  H26  1  0.500000  0.883700  0.972500  1.0  0.0675
  C  C27  1  0.160300  0.330700  0.336800  1.0  -0.1336
  C  C28  1  0.213100  0.381100  0.400300  1.0  -0.029
  C  C29  1  0.242600  0.321200  0.470000  1.0  -0.1463
  C  C30  1  0.216300  0.208500  0.481400  1.0  -0.0916
  C  C31  1  0.165700  0.158700  0.423400  1.0  0.2667
  C  C32  1  0.138900  0.217000  0.349500  1.0  -0.0983
  C  C33  1  0.129400  0.396300  0.263700  1.0  0.7392
  C  C34  1  0.298100  0.377000  0.533300  1.0  0.7034
  C  C35  1  0.071000  0.006900  0.410600  1.0  0.233
  C  C36  1  0.073100  0.911700  0.355900  1.0  -0.1263
  C  C37  1  0.339700  0.669300  0.836800  1.0  -0.134
  C  C38  1  0.286900  0.618900  0.900300  1.0  -0.0295
  C  C39  1  0.257400  0.678800  0.970000  1.0  -0.1468
  C  C40  1  0.283700  0.791500  0.981400  1.0  -0.0945
  C  C41  1  0.334300  0.841300  0.923400  1.0  0.2668
  C  C42  1  0.361100  0.783000  0.849500  1.0  -0.0985
  C  C43  1  0.370600  0.603700  0.763700  1.0  0.7371
  C  C44  1  0.201900  0.623000  0.033300  1.0  0.7032
  C  C45  1  0.429000  0.993100  0.910600  1.0  0.2326
  C  C46  1  0.426900  0.088300  0.855900  1.0  -0.1251
  C  C47  1  0.660300  0.669300  0.836800  1.0  -0.1345
  C  C48  1  0.713100  0.618900  0.900300  1.0  -0.0289
  C  C49  1  0.742600  0.678800  0.970000  1.0  -0.1461
  C  C50  1  0.716300  0.791500  0.981400  1.0  -0.0935
  C  C51  1  0.665700  0.841300  0.923400  1.0  0.2673
  C  C52  1  0.638900  0.783000  0.849500  1.0  -0.0988
  C  C53  1  0.629400  0.603700  0.763700  1.0  0.7383
  C  C54  1  0.798100  0.623000  0.033300  1.0  0.7033
  C  C55  1  0.571000  0.993100  0.910600  1.0  0.2329
  C  C56  1  0.573100  0.088300  0.855900  1.0  -0.1259
  C  C57  1  0.839700  0.330700  0.336800  1.0  -0.1329
  C  C58  1  0.786900  0.381100  0.400300  1.0  -0.0297
  C  C59  1  0.757400  0.321200  0.470000  1.0  -0.1469
  C  C60  1  0.783700  0.208500  0.481400  1.0  -0.0931
  C  C61  1  0.834300  0.158700  0.423400  1.0  0.2657
  C  C62  1  0.861100  0.217000  0.349500  1.0  -0.0982
  C  C63  1  0.870600  0.396300  0.263700  1.0  0.7384
  C  C64  1  0.701900  0.377000  0.533300  1.0  0.7032
  C  C65  1  0.929000  0.006900  0.410600  1.0  0.2319
  C  C66  1  0.926900  0.911700  0.355900  1.0  -0.1249
  C  C67  1  0.000000  0.052700  0.436500  1.0  -0.1663
  C  C68  1  0.000000  0.864300  0.330300  1.0  -0.1442
  C  C69  1  0.000000  0.758400  0.272300  1.0  0.735
  C  C70  1  0.500000  0.947300  0.936500  1.0  -0.1539
  C  C71  1  0.500000  0.135700  0.830300  1.0  -0.1444
  C  C72  1  0.500000  0.241600  0.772300  1.0  0.7355
  O  O73  1  0.085800  0.343500  0.208000  1.0  -0.7193
  O  O74  1  0.148400  0.496400  0.256500  1.0  -0.5936
  O  O75  1  0.309600  0.480200  0.526700  1.0  -0.4139
  O  O76  1  0.325100  0.321500  0.593700  1.0  -0.5741
  O  O77  1  0.145400  0.047400  0.438700  1.0  -0.2878
  O  O78  1  0.065900  0.722500  0.250300  1.0  -0.6101
  O  O79  1  0.414200  0.656500  0.708000  1.0  -0.721
  O  O80  1  0.351600  0.503600  0.756500  1.0  -0.5939
  O  O81  1  0.190400  0.519800  0.026700  1.0  -0.4148
  O  O82  1  0.174900  0.678500  0.093700  1.0  -0.5746
  O  O83  1  0.354600  0.952600  0.938700  1.0  -0.2852
  O  O84  1  0.434100  0.277500  0.750300  1.0  -0.6102
  O  O85  1  0.585800  0.656500  0.708000  1.0  -0.7213
  O  O86  1  0.648400  0.503600  0.756500  1.0  -0.594
  O  O87  1  0.809600  0.519800  0.026700  1.0  -0.4146
  O  O88  1  0.825100  0.678500  0.093700  1.0  -0.5745
  O  O89  1  0.645400  0.952600  0.938700  1.0  -0.2871
  O  O90  1  0.565900  0.277500  0.750300  1.0  -0.6098
  O  O91  1  0.914200  0.343500  0.208000  1.0  -0.7186
  O  O92  1  0.851600  0.496400  0.256500  1.0  -0.5946
  O  O93  1  0.690400  0.480200  0.526700  1.0  -0.4139
  O  O94  1  0.674900  0.321500  0.593700  1.0  -0.5744
  O  O95  1  0.854600  0.047400  0.438700  1.0  -0.287
  O  O96  1  0.934100  0.722500  0.250300  1.0  -0.6105
  O  O97  1  0.000000  0.536300  0.114000  1.0  -0.9246
  O  O98  1  0.500000  0.463700  0.614000  1.0  -0.9244
