# generated using pymatgen
data_Cu2B3H40C44N8ClF12
_symmetry_space_group_name_H-M   'P 1'
_cell_length_a   21.10310000
_cell_length_b   21.10310000
_cell_length_c   21.10310000
_cell_angle_alpha   92.05990000
_cell_angle_beta   118.81800000
_cell_angle_gamma   118.81800000
_symmetry_Int_Tables_number   1
_chemical_formula_structural   Cu2B3H40C44N8ClF12
_chemical_formula_sum   'Cu8 B12 H160 C176 N32 Cl4 F48'
_cell_volume   6759.43382425
_cell_formula_units_Z   4
loop_
 _symmetry_equiv_pos_site_id
 _symmetry_equiv_pos_as_xyz
  1  'x, y, z'
loop_
 _atom_site_type_symbol
 _atom_site_label
 _atom_site_symmetry_multiplicity
 _atom_site_fract_x
 _atom_site_fract_y
 _atom_site_fract_z
 _atom_site_occupancy
 _atom_site_charge
  Cu  Cu1  1  0.605060  0.639370  0.541150  1.0  0.7079
  Cu  Cu2  1  0.394940  0.936090  0.034310  1.0  0.7076
  Cu  Cu3  1  0.098220  0.458850  0.063910  1.0  0.7065
  Cu  Cu4  1  0.901780  0.965690  0.360630  1.0  0.7073
  Cu  Cu5  1  0.598220  0.813910  0.708850  1.0  0.7071
  Cu  Cu6  1  0.401780  0.110630  0.215690  1.0  0.7072
  Cu  Cu7  1  0.894940  0.784310  0.186090  1.0  0.7077
  Cu  Cu8  1  0.105060  0.291150  0.889370  1.0  0.7078
  B  B9  1  0.585900  0.556200  0.358500  1.0  0.9733
  B  B10  1  0.414100  0.772600  0.970300  1.0  0.9733
  B  B11  1  0.197700  0.641500  0.227400  1.0  0.9722
  B  B12  1  0.802300  0.029700  0.443800  1.0  0.9735
  B  B13  1  0.697700  0.977400  0.891500  1.0  0.9715
  B  B14  1  0.302300  0.193800  0.279700  1.0  0.974
  B  B15  1  0.914100  0.720300  0.022600  1.0  0.9748
  B  B16  1  0.085900  0.108500  0.806200  1.0  0.9735
  B  B17  1  0.500000  0.567300  0.067300  1.0  0.9617
  B  B18  1  0.500000  0.932700  0.432700  1.0  0.9615
  B  B19  1  0.000000  0.182700  0.182700  1.0  0.9615
  B  B20  1  0.000000  0.817300  0.817300  1.0  0.9617
  H  H21  1  0.808900  0.755600  0.651500  1.0  0.0959
  H  H22  1  0.912300  0.876600  0.657500  1.0  0.0887
  H  H23  1  0.868300  0.936000  0.583700  1.0  0.0847
  H  H24  1  0.714100  0.873100  0.484600  1.0  0.0875
  H  H25  1  0.569900  0.807800  0.401300  1.0  0.0996
  H  H26  1  0.417500  0.740900  0.335400  1.0  0.1049
  H  H27  1  0.696700  0.671900  0.709000  1.0  0.0612
  H  H28  1  0.791700  0.653700  0.805600  1.0  0.0866
  H  H29  1  0.783700  0.533900  0.648600  1.0  0.1106
  H  H30  1  0.696800  0.566100  0.556100  1.0  0.0814
  H  H31  1  0.902300  0.573900  0.790400  1.0  0.0814
  H  H32  1  0.923400  0.640500  0.850100  1.0  0.0864
  H  H33  1  0.045100  0.564800  0.069500  1.0  0.0623
  H  H34  1  0.953000  0.596200  0.990600  1.0  0.1203
  H  H35  1  0.884800  0.448000  0.813000  1.0  0.1068
  H  H36  1  0.983700  0.423400  0.899500  1.0  0.0622
  H  H37  1  0.778600  0.484500  0.796100  1.0  0.0758
  H  H38  1  0.816000  0.552200  0.866200  1.0  0.0723
  H  H39  1  0.341600  0.612100  0.321300  1.0  0.0972
  H  H40  1  0.417900  0.575900  0.408400  1.0  0.0362
  H  H41  1  0.191100  0.842600  0.946700  1.0  0.095
  H  H42  1  0.087700  0.745200  0.964300  1.0  0.0882
  H  H43  1  0.131700  0.715400  0.067700  1.0  0.0846
  H  H44  1  0.285900  0.770500  0.159000  1.0  0.0874
  H  H45  1  0.430100  0.831400  0.237900  1.0  0.0992
  H  H46  1  0.582500  0.917900  0.323400  1.0  0.1049
  H  H47  1  0.303300  0.012300  0.975200  1.0  0.0637
  H  H48  1  0.208300  0.013900  0.862000  1.0  0.0855
  H  H49  1  0.216300  0.864900  0.750200  1.0  0.1105
  H  H50  1  0.303200  0.859300  0.869300  1.0  0.0822
  H  H51  1  0.097700  0.888100  0.671600  1.0  0.0793
  H  H52  1  0.076600  0.926700  0.717100  1.0  0.0861
  H  H53  1  0.954900  0.024400  0.519700  1.0  0.0605
  H  H54  1  0.047000  0.037600  0.643200  1.0  0.1207
  H  H55  1  0.115200  0.928200  0.563200  1.0  0.1084
  H  H56  1  0.016300  0.915800  0.439700  1.0  0.0626
  H  H57  1  0.221400  0.017500  0.705900  1.0  0.0727
  H  H58  1  0.184000  0.050200  0.736200  1.0  0.0691
  H  H59  1  0.658400  0.979700  0.270500  1.0  0.0982
  H  H60  1  0.582100  0.990500  0.158000  1.0  0.0356
  H  H61  1  0.104100  0.348500  0.157400  1.0  0.0963
  H  H62  1  0.219100  0.342500  0.254800  1.0  0.0878
  H  H63  1  0.352300  0.416300  0.284600  1.0  0.0856
  H  H64  1  0.388500  0.515400  0.229500  1.0  0.0881
  H  H65  1  0.406500  0.598700  0.168600  1.0  0.1001
  H  H66  1  0.405500  0.664600  0.082100  1.0  0.1042
  H  H67  1  0.962900  0.291000  0.987700  1.0  0.0635
  H  H68  1  0.848100  0.194400  0.986100  1.0  0.0872
  H  H69  1  0.885300  0.351400  0.135100  1.0  0.1097
  H  H70  1  0.010000  0.443900  0.140700  1.0  0.0843
  H  H71  1  0.783500  0.209600  0.111900  1.0  0.0825
  H  H72  1  0.790400  0.149900  0.073300  1.0  0.0861
  H  H73  1  0.495300  0.930500  0.975600  1.0  0.061
  H  H74  1  0.605600  0.009400  0.962400  1.0  0.1197
  H  H75  1  0.635000  0.187000  0.071800  1.0  0.1049
  H  H76  1  0.523900  0.100500  0.084200  1.0  0.0633
  H  H77  1  0.688400  0.203900  0.982500  1.0  0.077
  H  H78  1  0.686000  0.133800  0.949800  1.0  0.0711
  H  H79  1  0.290800  0.678700  0.020300  1.0  0.0978
  H  H80  1  0.167500  0.591600  0.009500  1.0  0.0384
  H  H81  1  0.895900  0.053300  0.244400  1.0  0.0956
  H  H82  1  0.780900  0.035700  0.123400  1.0  0.0883
  H  H83  1  0.647700  0.932300  0.064000  1.0  0.0839
  H  H84  1  0.611500  0.841000  0.126900  1.0  0.0874
  H  H85  1  0.593500  0.762100  0.192200  1.0  0.0993
  H  H86  1  0.594500  0.676600  0.259100  1.0  0.1048
  H  H87  1  0.037100  0.024800  0.328100  1.0  0.0622
  H  H88  1  0.151900  0.138000  0.346300  1.0  0.0862
  H  H89  1  0.114700  0.249800  0.466100  1.0  0.1103
  H  H90  1  0.990000  0.130700  0.433900  1.0  0.0838
  H  H91  1  0.216500  0.328400  0.426100  1.0  0.0792
  H  H92  1  0.209600  0.282900  0.359500  1.0  0.0865
  H  H93  1  0.504700  0.480300  0.435200  1.0  0.0618
  H  H94  1  0.394400  0.356800  0.403800  1.0  0.1195
  H  H95  1  0.365000  0.436800  0.552000  1.0  0.1073
  H  H96  1  0.476100  0.560300  0.576600  1.0  0.0633
  H  H97  1  0.311600  0.294100  0.515500  1.0  0.0773
  H  H98  1  0.314000  0.263800  0.447800  1.0  0.0712
  H  H99  1  0.709200  0.729500  0.387900  1.0  0.0987
  H  H100  1  0.832500  0.842000  0.424100  1.0  0.0349
  H  H101  1  0.604100  0.907400  0.598500  1.0  0.096
  H  H102  1  0.719100  0.004800  0.592500  1.0  0.0886
  H  H103  1  0.852300  0.034600  0.666300  1.0  0.0842
  H  H104  1  0.888500  0.979500  0.765400  1.0  0.0877
  H  H105  1  0.906500  0.918600  0.848700  1.0  0.0989
  H  H106  1  0.905500  0.832100  0.914600  1.0  0.1096
  H  H107  1  0.462900  0.737700  0.541000  1.0  0.0613
  H  H108  1  0.348100  0.736100  0.444400  1.0  0.0869
  H  H109  1  0.385300  0.885100  0.601400  1.0  0.1104
  H  H110  1  0.510000  0.890700  0.693900  1.0  0.0818
  H  H111  1  0.283500  0.861900  0.459600  1.0  0.0794
  H  H112  1  0.290400  0.823300  0.399900  1.0  0.0841
  H  H113  1  0.995300  0.725600  0.180500  1.0  0.0617
  H  H114  1  0.105600  0.712400  0.259400  1.0  0.1202
  H  H115  1  0.135000  0.821800  0.437000  1.0  0.1069
  H  H116  1  0.023900  0.834200  0.350500  1.0  0.0628
  H  H117  1  0.188400  0.732500  0.453900  1.0  0.0765
  H  H118  1  0.186000  0.699800  0.383800  1.0  0.0728
  H  H119  1  0.790800  0.770300  0.928700  1.0  0.0986
  H  H120  1  0.667500  0.759500  0.841600  1.0  0.035
  H  H121  1  0.395900  0.994400  0.303300  1.0  0.0968
  H  H122  1  0.280900  0.873400  0.285700  1.0  0.0877
  H  H123  1  0.147700  0.814000  0.182300  1.0  0.0849
  H  H124  1  0.111500  0.876900  0.091000  1.0  0.0879
  H  H125  1  0.093500  0.942200  0.012100  1.0  0.0998
  H  H126  1  0.094500  0.009100  0.926600  1.0  0.1044
  H  H127  1  0.537100  0.078100  0.274800  1.0  0.0633
  H  H128  1  0.651900  0.096300  0.388000  1.0  0.0865
  H  H129  1  0.614700  0.216100  0.499800  1.0  0.1097
  H  H130  1  0.490000  0.183900  0.380700  1.0  0.0832
  H  H131  1  0.716500  0.176100  0.578400  1.0  0.0837
  H  H132  1  0.709600  0.109500  0.532900  1.0  0.0877
  H  H133  1  0.004700  0.185200  0.730300  1.0  0.0605
  H  H134  1  0.894400  0.153800  0.606800  1.0  0.1194
  H  H135  1  0.865000  0.302000  0.686800  1.0  0.1069
  H  H136  1  0.976100  0.326600  0.810300  1.0  0.0635
  H  H137  1  0.811600  0.265500  0.544100  1.0  0.0763
  H  H138  1  0.814000  0.197800  0.513800  1.0  0.0731
  H  H139  1  0.209200  0.137900  0.979500  1.0  0.0975
  H  H140  1  0.332500  0.174100  0.092000  1.0  0.0353
  H  H141  1  0.691100  0.696700  0.092600  1.0  0.0953
  H  H142  1  0.587700  0.714300  0.995200  1.0  0.0878
  H  H143  1  0.631700  0.817700  0.965400  1.0  0.0849
  H  H144  1  0.785900  0.909000  0.020500  1.0  0.0878
  H  H145  1  0.930100  0.987900  0.081400  1.0  0.0991
  H  H146  1  0.082500  0.073400  0.167900  1.0  0.105
  H  H147  1  0.803300  0.725200  0.262300  1.0  0.0611
  H  H148  1  0.708300  0.612000  0.263900  1.0  0.0865
  H  H149  1  0.716300  0.500200  0.114900  1.0  0.1109
  H  H150  1  0.803200  0.619300  0.109300  1.0  0.0844
  H  H151  1  0.597700  0.421600  0.138100  1.0  0.0824
  H  H152  1  0.576600  0.467100  0.176700  1.0  0.0805
  H  H153  1  0.454900  0.269700  0.274400  1.0  0.0624
  H  H154  1  0.547000  0.393200  0.287600  1.0  0.1205
  H  H155  1  0.615200  0.313200  0.178200  1.0  0.1079
  H  H156  1  0.516300  0.189700  0.165800  1.0  0.0615
  H  H157  1  0.721400  0.455900  0.267500  1.0  0.0739
  H  H158  1  0.684000  0.486200  0.300200  1.0  0.0707
  H  H159  1  0.158400  0.020500  0.229700  1.0  0.099
  H  H160  1  0.082100  0.908000  0.240500  1.0  0.0359
  H  H161  1  0.308900  0.401500  0.005600  1.0  0.0961
  H  H162  1  0.412300  0.407500  0.126600  1.0  0.0885
  H  H163  1  0.368300  0.333700  0.186000  1.0  0.0838
  H  H164  1  0.214100  0.234600  0.123100  1.0  0.0879
  H  H165  1  0.069900  0.151300  0.057800  1.0  0.0993
  H  H166  1  0.917500  0.085400  0.990900  1.0  0.1049
  H  H167  1  0.196700  0.459000  0.921900  1.0  0.0621
  H  H168  1  0.291700  0.555600  0.903700  1.0  0.0862
  H  H169  1  0.283700  0.398600  0.783900  1.0  0.1106
  H  H170  1  0.196800  0.306100  0.816100  1.0  0.0824
  H  H171  1  0.402300  0.540400  0.823900  1.0  0.0787
  H  H172  1  0.423400  0.600100  0.890500  1.0  0.0839
  H  H173  1  0.545100  0.819500  0.814800  1.0  0.0614
  H  H174  1  0.453000  0.740600  0.846200  1.0  0.1203
  H  H175  1  0.384800  0.563000  0.698000  1.0  0.1055
  H  H176  1  0.483700  0.649500  0.673400  1.0  0.063
  H  H177  1  0.278600  0.546100  0.734500  1.0  0.0768
  H  H178  1  0.316000  0.616200  0.802200  1.0  0.0699
  H  H179  1  0.841600  0.071300  0.862100  1.0  0.0977
  H  H180  1  0.917900  0.158400  0.825900  1.0  0.0358
  C  C181  1  0.790300  0.777600  0.615300  1.0  0.1306
  C  C182  1  0.852400  0.852700  0.620900  1.0  -0.1239
  C  C183  1  0.827200  0.886600  0.577400  1.0  -0.1101
  C  C184  1  0.734700  0.849600  0.517700  1.0  -0.1633
  C  C185  1  0.681300  0.778800  0.513700  1.0  0.1964
  C  C186  1  0.581300  0.734900  0.457000  1.0  0.112
  C  C187  1  0.537800  0.761200  0.406000  1.0  -0.1371
  C  C188  1  0.446800  0.718900  0.361500  1.0  -0.146
  C  C189  1  0.715400  0.644700  0.696300  1.0  0.1726
  C  C190  1  0.773700  0.633800  0.755500  1.0  -0.2056
  C  C191  1  0.805400  0.595300  0.743300  1.0  0.0512
  C  C192  1  0.770000  0.564800  0.663400  1.0  -0.1031
  C  C193  1  0.714200  0.581600  0.606800  1.0  0.1401
  C  C194  1  0.877000  0.590500  0.809100  1.0  -0.2676
  C  C195  1  0.010600  0.539500  0.016300  1.0  0.1457
  C  C196  1  0.954400  0.557600  0.970000  1.0  -0.2393
  C  C197  1  0.899600  0.517300  0.891900  1.0  0.1011
  C  C198  1  0.914500  0.471000  0.865900  1.0  -0.2082
  C  C199  1  0.975500  0.457100  0.918600  1.0  0.105
  C  C200  1  0.831500  0.531700  0.838400  1.0  -0.2328
  C  C201  1  0.402200  0.646000  0.357000  1.0  -0.1002
  C  C202  1  0.449800  0.624600  0.407000  1.0  0.1522
  C  C203  1  0.209700  0.825000  0.987300  1.0  0.1305
  C  C204  1  0.147600  0.768500  0.000300  1.0  -0.1215
  C  C205  1  0.172800  0.750200  0.059400  1.0  -0.11
  C  C206  1  0.265300  0.783000  0.114900  1.0  -0.1626
  C  C207  1  0.318700  0.832400  0.097500  1.0  0.1973
  C  C208  1  0.418700  0.875700  0.153600  1.0  0.1107
  C  C209  1  0.462200  0.868200  0.223400  1.0  -0.1374
  C  C210  1  0.553200  0.914700  0.272100  1.0  -0.1438
  C  C211  1  0.284600  0.980900  0.929300  1.0  0.1732
  C  C212  1  0.226300  0.981800  0.860100  1.0  -0.2051
  C  C213  1  0.194600  0.937900  0.789900  1.0  0.0522
  C  C214  1  0.230000  0.893400  0.794800  1.0  -0.0994
  C  C215  1  0.285800  0.892600  0.867400  1.0  0.1379
  C  C216  1  0.123000  0.932100  0.713500  1.0  -0.2715
  C  C217  1  0.989400  0.005700  0.528900  1.0  0.1435
  C  C218  1  0.045600  0.015600  0.603200  1.0  -0.2431
  C  C219  1  0.100400  0.992300  0.617700  1.0  0.1037
  C  C220  1  0.085500  0.951400  0.556500  1.0  -0.204
  C  C221  1  0.024500  0.943100  0.481600  1.0  0.1108
  C  C222  1  0.168500  0.006900  0.700200  1.0  -0.2366
  C  C223  1  0.597800  0.954800  0.243800  1.0  -0.1001
  C  C224  1  0.550200  0.957200  0.174800  1.0  0.1538
  C  C225  1  0.162300  0.384700  0.175000  1.0  0.1278
  C  C226  1  0.231800  0.379100  0.231500  1.0  -0.123
  C  C227  1  0.309200  0.422600  0.249800  1.0  -0.1112
  C  C228  1  0.331900  0.482300  0.217000  1.0  -0.1623
  C  C229  1  0.265100  0.486300  0.167600  1.0  0.1956
  C  C230  1  0.277900  0.543000  0.124300  1.0  0.1119
  C  C231  1  0.355200  0.594000  0.131800  1.0  -0.1387
  C  C232  1  0.357400  0.638500  0.085300  1.0  -0.1449
  C  C233  1  0.948400  0.303700  0.019100  1.0  0.175
  C  C234  1  0.878300  0.244500  0.018200  1.0  -0.205
  C  C235  1  0.852000  0.256700  0.062100  1.0  0.0523
  C  C236  1  0.901400  0.336600  0.106600  1.0  -0.1037
  C  C237  1  0.974800  0.393200  0.107400  1.0  0.1382
  C  C238  1  0.781400  0.190900  0.067900  1.0  -0.2694
  C  C239  1  0.523200  0.983700  0.994300  1.0  0.1452
  C  C240  1  0.587600  0.030000  0.984400  1.0  -0.2409
  C  C241  1  0.625400  0.108100  0.007700  1.0  0.0997
  C  C242  1  0.605100  0.134100  0.048600  1.0  -0.2105
  C  C243  1  0.538500  0.081400  0.056900  1.0  0.109
  C  C244  1  0.693300  0.161600  0.993100  1.0  -0.2372
  C  C245  1  0.289000  0.643000  0.045200  1.0  -0.1021
  C  C246  1  0.217600  0.593000  0.042800  1.0  0.1505
  C  C247  1  0.837700  0.012700  0.222400  1.0  0.1272
  C  C248  1  0.768200  0.999700  0.147300  1.0  -0.1189
  C  C249  1  0.690800  0.940600  0.113400  1.0  -0.1115
  C  C250  1  0.668100  0.885100  0.150400  1.0  -0.1632
  C  C251  1  0.734900  0.902500  0.221200  1.0  0.1976
  C  C252  1  0.722100  0.846400  0.265100  1.0  0.1119
  C  C253  1  0.644800  0.776600  0.238800  1.0  -0.1377
  C  C254  1  0.642600  0.727900  0.281100  1.0  -0.1476
  C  C255  1  0.051600  0.070700  0.355300  1.0  0.174
  C  C256  1  0.121700  0.139900  0.366200  1.0  -0.2028
  C  C257  1  0.148000  0.210100  0.404700  1.0  0.0504
  C  C258  1  0.098600  0.205200  0.435200  1.0  -0.1041
  C  C259  1  0.025200  0.132600  0.418400  1.0  0.1414
  C  C260  1  0.218600  0.286500  0.409500  1.0  -0.2671
  C  C261  1  0.476800  0.471100  0.460500  1.0  0.1453
  C  C262  1  0.412400  0.396800  0.442400  1.0  -0.2415
  C  C263  1  0.374600  0.382300  0.482700  1.0  0.1024
  C  C264  1  0.394900  0.443500  0.529000  1.0  -0.2045
  C  C265  1  0.461500  0.518400  0.542900  1.0  0.1072
  C  C266  1  0.306700  0.299800  0.468300  1.0  -0.238
  C  C267  1  0.711000  0.756200  0.354000  1.0  -0.101
  C  C268  1  0.782400  0.825200  0.375400  1.0  0.1501
  C  C269  1  0.662300  0.925000  0.634700  1.0  0.128
  C  C270  1  0.731800  0.981500  0.629100  1.0  -0.1225
  C  C271  1  0.809200  0.999800  0.672600  1.0  -0.113
  C  C272  1  0.831900  0.967000  0.732300  1.0  -0.1646
  C  C273  1  0.765100  0.917600  0.736300  1.0  0.1988
  C  C274  1  0.777900  0.874300  0.793000  1.0  0.1105
  C  C275  1  0.855200  0.881800  0.844000  1.0  -0.1371
  C  C276  1  0.857400  0.835300  0.888500  1.0  -0.1465
  C  C277  1  0.448400  0.769100  0.553700  1.0  0.1707
  C  C278  1  0.378300  0.768200  0.494500  1.0  -0.2072
  C  C279  1  0.352000  0.812100  0.506700  1.0  0.0514
  C  C280  1  0.401400  0.856600  0.586600  1.0  -0.103
  C  C281  1  0.474800  0.857400  0.643200  1.0  0.1413
  C  C282  1  0.281400  0.817900  0.440900  1.0  -0.2705
  C  C283  1  0.023200  0.744300  0.233700  1.0  0.1441
  C  C284  1  0.087600  0.734400  0.280000  1.0  -0.2414
  C  C285  1  0.125400  0.757700  0.358100  1.0  0.101
  C  C286  1  0.105100  0.798600  0.384100  1.0  -0.204
  C  C287  1  0.038500  0.806900  0.331400  1.0  0.1076
  C  C288  1  0.193300  0.743100  0.411600  1.0  -0.24
  C  C289  1  0.789000  0.795200  0.893000  1.0  -0.0984
  C  C290  1  0.717600  0.792800  0.843000  1.0  0.1532
  C  C291  1  0.337700  0.972400  0.262700  1.0  0.1291
  C  C292  1  0.268200  0.897300  0.249700  1.0  -0.1217
  C  C293  1  0.190800  0.863400  0.190600  1.0  -0.1095
  C  C294  1  0.168100  0.900400  0.135100  1.0  -0.163
  C  C295  1  0.234900  0.971200  0.152500  1.0  0.197
  C  C296  1  0.222100  0.015100  0.096400  1.0  0.1118
  C  C297  1  0.144800  0.988800  0.026600  1.0  -0.1389
  C  C298  1  0.142600  0.031100  0.977900  1.0  -0.1478
  C  C299  1  0.551600  0.105300  0.320700  1.0  0.1747
  C  C300  1  0.621700  0.116200  0.389900  1.0  -0.2044
  C  C301  1  0.648000  0.154700  0.460100  1.0  0.0517
  C  C302  1  0.598600  0.185200  0.455200  1.0  -0.102
  C  C303  1  0.525200  0.168400  0.382600  1.0  0.1386
  C  C304  1  0.718600  0.159500  0.536500  1.0  -0.2679
  C  C305  1  0.976800  0.210500  0.721100  1.0  0.1464
  C  C306  1  0.912400  0.192400  0.646800  1.0  -0.2419
  C  C307  1  0.874600  0.232700  0.632300  1.0  0.1029
  C  C308  1  0.894900  0.279000  0.693500  1.0  -0.2091
  C  C309  1  0.961500  0.292900  0.768400  1.0  0.1084
  C  C310  1  0.806700  0.218300  0.549800  1.0  -0.2384
  C  C311  1  0.211000  0.104000  0.006200  1.0  -0.0997
  C  C312  1  0.282400  0.125400  0.075200  1.0  0.1523
  C  C313  1  0.709700  0.737300  0.075000  1.0  0.1274
  C  C314  1  0.647600  0.750300  0.018500  1.0  -0.1195
  C  C315  1  0.672800  0.809400  0.000200  1.0  -0.1114
  C  C316  1  0.765300  0.864900  0.033000  1.0  -0.1602
  C  C317  1  0.818700  0.847500  0.082400  1.0  0.1971
  C  C318  1  0.918700  0.903600  0.125700  1.0  0.1078
  C  C319  1  0.962200  0.973400  0.118200  1.0  -0.1387
  C  C320  1  0.053200  0.022100  0.164700  1.0  -0.1444
  C  C321  1  0.784600  0.679300  0.230900  1.0  0.1718
  C  C322  1  0.726300  0.610100  0.231800  1.0  -0.204
  C  C323  1  0.694600  0.539900  0.187900  1.0  0.0521
  C  C324  1  0.730000  0.544800  0.143400  1.0  -0.1019
  C  C325  1  0.785800  0.617400  0.142600  1.0  0.1414
  C  C326  1  0.623000  0.463500  0.182100  1.0  -0.2684
  C  C327  1  0.489400  0.278900  0.255700  1.0  0.1473
  C  C328  1  0.545600  0.353200  0.265600  1.0  -0.2374
  C  C329  1  0.600400  0.367700  0.242300  1.0  0.1026
  C  C330  1  0.585500  0.306500  0.201400  1.0  -0.2066
  C  C331  1  0.524500  0.231600  0.193100  1.0  0.1079
  C  C332  1  0.668500  0.450200  0.256900  1.0  -0.2341
  C  C333  1  0.097800  0.993800  0.204800  1.0  -0.1011
  C  C334  1  0.050200  0.924800  0.207200  1.0  0.1504
  C  C335  1  0.290300  0.365300  0.027600  1.0  0.1293
  C  C336  1  0.352400  0.370900  0.102700  1.0  -0.1225
  C  C337  1  0.327200  0.327400  0.136600  1.0  -0.1129
  C  C338  1  0.234700  0.267700  0.099600  1.0  -0.1612
  C  C339  1  0.181300  0.263700  0.028800  1.0  0.1974
  C  C340  1  0.081300  0.207000  0.984900  1.0  0.1116
  C  C341  1  0.037800  0.156000  0.011200  1.0  -0.1361
  C  C342  1  0.946800  0.111500  0.968900  1.0  -0.1439
  C  C343  1  0.215400  0.446300  0.894700  1.0  0.1738
  C  C344  1  0.273700  0.505500  0.883800  1.0  -0.2065
  C  C345  1  0.305400  0.493300  0.845300  1.0  0.0522
  C  C346  1  0.270000  0.413400  0.814800  1.0  -0.1019
  C  C347  1  0.214200  0.356800  0.831600  1.0  0.1351
  C  C348  1  0.377000  0.559100  0.840500  1.0  -0.2663
  C  C349  1  0.510600  0.766300  0.789500  1.0  0.1435
  C  C350  1  0.454400  0.720000  0.807600  1.0  -0.2416
  C  C351  1  0.399600  0.641900  0.767300  1.0  0.1028
  C  C352  1  0.414500  0.615900  0.721000  1.0  -0.2077
  C  C353  1  0.475500  0.668600  0.707100  1.0  0.1087
  C  C354  1  0.331500  0.588400  0.781700  1.0  -0.2319
  C  C355  1  0.902200  0.107000  0.896000  1.0  -0.1012
  C  C356  1  0.949800  0.157000  0.874600  1.0  0.1544
  N  N357  1  0.686300  0.619400  0.625500  1.0  -0.32
  N  N358  1  0.018900  0.488300  0.990000  1.0  -0.2873
  N  N359  1  0.705300  0.740200  0.557100  1.0  -0.3579
  N  N360  1  0.534400  0.662700  0.453700  1.0  -0.3399
  N  N361  1  0.313700  0.939200  0.933100  1.0  -0.3199
  N  N362  1  0.981100  0.971100  0.469400  1.0  -0.2858
  N  N363  1  0.294700  0.851800  0.034900  1.0  -0.3582
  N  N364  1  0.465600  0.919300  0.128300  1.0  -0.3406
  N  N365  1  0.993900  0.374500  0.060800  1.0  -0.321
  N  N366  1  0.498300  0.010000  0.028900  1.0  -0.2826
  N  N367  1  0.183100  0.442900  0.148200  1.0  -0.3611
  N  N368  1  0.209000  0.546300  0.080700  1.0  -0.3389
  N  N369  1  0.006100  0.066900  0.380600  1.0  -0.3222
  N  N370  1  0.501700  0.530600  0.511700  1.0  -0.2818
  N  N371  1  0.816900  0.965100  0.259800  1.0  -0.3601
  N  N372  1  0.791000  0.871700  0.337300  1.0  -0.3388
  N  N373  1  0.493900  0.810800  0.624500  1.0  -0.3187
  N  N374  1  0.998300  0.778900  0.260000  1.0  -0.2828
  N  N375  1  0.683100  0.898200  0.692900  1.0  -0.3581
  N  N376  1  0.709000  0.830700  0.796300  1.0  -0.3384
  N  N377  1  0.506100  0.130600  0.316900  1.0  -0.321
  N  N378  1  0.001700  0.261700  0.780600  1.0  -0.2869
  N  N379  1  0.316900  0.009800  0.215100  1.0  -0.3593
  N  N380  1  0.291000  0.087300  0.121700  1.0  -0.3397
  N  N381  1  0.813700  0.683100  0.189200  1.0  -0.3196
  N  N382  1  0.481100  0.219400  0.221100  1.0  -0.2834
  N  N383  1  0.794700  0.784900  0.101800  1.0  -0.3606
  N  N384  1  0.965600  0.878300  0.169300  1.0  -0.3384
  N  N385  1  0.186300  0.375500  0.869400  1.0  -0.3215
  N  N386  1  0.518900  0.740000  0.738300  1.0  -0.286
  N  N387  1  0.205300  0.307100  0.990200  1.0  -0.359
  N  N388  1  0.034400  0.203700  0.912700  1.0  -0.3414
  Cl  Cl389  1  0.585250  0.710250  0.625000  1.0  -0.5478
  Cl  Cl390  1  0.414750  0.039750  0.125000  1.0  -0.5484
  Cl  Cl391  1  0.085250  0.375000  0.960250  1.0  -0.5456
  Cl  Cl392  1  0.914750  0.875000  0.289750  1.0  -0.5466
  F  F393  1  0.628800  0.588200  0.435600  1.0  -0.2753
  F  F394  1  0.543700  0.590400  0.324500  1.0  -0.2711
  F  F395  1  0.524400  0.479900  0.332900  1.0  -0.2765
  F  F396  1  0.643500  0.568100  0.341400  1.0  -0.2236
  F  F397  1  0.371200  0.806800  0.959400  1.0  -0.2729
  F  F398  1  0.456300  0.780800  0.046700  1.0  -0.2725
  F  F399  1  0.475600  0.808500  0.955500  1.0  -0.2745
  F  F400  1  0.356500  0.697900  0.924600  1.0  -0.2209
  F  F401  1  0.152600  0.564400  0.193200  1.0  -0.2746
  F  F402  1  0.265900  0.675500  0.219200  1.0  -0.2727
  F  F403  1  0.147000  0.667100  0.191500  1.0  -0.2714
  F  F404  1  0.226700  0.658600  0.302100  1.0  -0.2252
  F  F405  1  0.847400  0.040600  0.411800  1.0  -0.2777
  F  F406  1  0.734100  0.953300  0.409600  1.0  -0.2696
  F  F407  1  0.853000  0.044500  0.520100  1.0  -0.2774
  F  F408  1  0.773300  0.075400  0.431900  1.0  -0.2212
  F  F409  1  0.652600  0.943200  0.814400  1.0  -0.2757
  F  F410  1  0.765900  0.969200  0.925500  1.0  -0.2714
  F  F411  1  0.647000  0.941500  0.917100  1.0  -0.2754
  F  F412  1  0.726700  0.052100  0.908600  1.0  -0.2219
  F  F413  1  0.347400  0.161800  0.290600  1.0  -0.2736
  F  F414  1  0.234100  0.159600  0.203300  1.0  -0.2724
  F  F415  1  0.353000  0.270100  0.294500  1.0  -0.2751
  F  F416  1  0.273300  0.181900  0.325400  1.0  -0.2265
  F  F417  1  0.871200  0.709400  0.056800  1.0  -0.2748
  F  F418  1  0.956300  0.796700  0.030800  1.0  -0.2701
  F  F419  1  0.975600  0.705500  0.058500  1.0  -0.2749
  F  F420  1  0.856500  0.674600  0.947900  1.0  -0.2229
  F  F421  1  0.128800  0.185600  0.838200  1.0  -0.2746
  F  F422  1  0.043700  0.074500  0.840400  1.0  -0.2736
  F  F423  1  0.024400  0.082900  0.729900  1.0  -0.276
  F  F424  1  0.143500  0.091400  0.818100  1.0  -0.2213
  F  F425  1  0.489900  0.625000  0.053100  1.0  -0.2565
  F  F426  1  0.571600  0.581700  0.071500  1.0  -0.2526
  F  F427  1  0.510100  0.563200  0.135100  1.0  -0.2588
  F  F428  1  0.428400  0.499900  0.010100  1.0  -0.2506
  F  F429  1  0.571900  0.946900  0.436800  1.0  -0.259
  F  F430  1  0.510200  0.928500  0.500100  1.0  -0.2538
  F  F431  1  0.428100  0.864900  0.375000  1.0  -0.2578
  F  F432  1  0.489800  0.989900  0.418300  1.0  -0.2505
  F  F433  1  0.071900  0.186800  0.196900  1.0  -0.2595
  F  F434  1  0.010200  0.250100  0.178500  1.0  -0.2512
  F  F435  1  0.928100  0.125000  0.114900  1.0  -0.2572
  F  F436  1  0.989800  0.168300  0.239900  1.0  -0.2526
  F  F437  1  0.010100  0.885100  0.813200  1.0  -0.2565
  F  F438  1  0.928400  0.760100  0.749900  1.0  -0.2538
  F  F439  1  0.989900  0.803100  0.875000  1.0  -0.2596
  F  F440  1  0.071600  0.821500  0.831700  1.0  -0.2497
