# generated using pymatgen
data_Ce2Cu3H24(C4O5)6
_symmetry_space_group_name_H-M   'P 1'
_cell_length_a   13.81100000
_cell_length_b   15.49800000
_cell_length_c   15.49800000
_cell_angle_alpha   120.00000000
_cell_angle_beta   90.00000000
_cell_angle_gamma   90.00000000
_symmetry_Int_Tables_number   1
_chemical_formula_structural   Ce2Cu3H24(C4O5)6
_chemical_formula_sum   'Ce4 Cu6 H48 C48 O60'
_cell_volume   2872.81109949
_cell_formula_units_Z   2
loop_
 _symmetry_equiv_pos_site_id
 _symmetry_equiv_pos_as_xyz
  1  'x, y, z'
loop_
 _atom_site_type_symbol
 _atom_site_label
 _atom_site_symmetry_multiplicity
 _atom_site_fract_x
 _atom_site_fract_y
 _atom_site_fract_z
 _atom_site_occupancy
 _atom_site_charge
  Ce  Ce1  1  0.465490  0.666667  0.333333  1.0  2.1905
  Ce  Ce2  1  0.034510  0.666667  0.333333  1.0  2.191
  Ce  Ce3  1  0.534510  0.333333  0.666667  1.0  2.191
  Ce  Ce4  1  0.965490  0.333333  0.666667  1.0  2.1905
  Cu  Cu5  1  0.250000  0.473960  0.498800  1.0  1.042
  Cu  Cu6  1  0.250000  0.024840  0.526040  1.0  1.0415
  Cu  Cu7  1  0.250000  0.501200  0.975160  1.0  1.0416
  Cu  Cu8  1  0.750000  0.975160  0.501200  1.0  1.0418
  Cu  Cu9  1  0.750000  0.498800  0.473960  1.0  1.0418
  Cu  Cu10  1  0.750000  0.526040  0.024840  1.0  1.0414
  H  H11  1  0.504400  0.384900  0.286100  1.0  0.0876
  H  H12  1  0.412000  0.356500  0.218000  1.0  0.0883
  H  H13  1  0.490300  0.391400  0.089200  1.0  0.0897
  H  H14  1  0.573300  0.372600  0.147200  1.0  0.0944
  H  H15  1  0.504400  0.901200  0.615100  1.0  0.0872
  H  H16  1  0.412000  0.861500  0.643500  1.0  0.0893
  H  H17  1  0.490300  0.697800  0.608600  1.0  0.0889
  H  H18  1  0.573300  0.774600  0.627400  1.0  0.0941
  H  H19  1  0.504400  0.713900  0.098800  1.0  0.0867
  H  H20  1  0.412000  0.782000  0.138500  1.0  0.0893
  H  H21  1  0.490300  0.910800  0.302200  1.0  0.09
  H  H22  1  0.573300  0.852800  0.225400  1.0  0.0944
  H  H23  1  0.995600  0.384900  0.286100  1.0  0.0873
  H  H24  1  0.088000  0.356500  0.218000  1.0  0.0882
  H  H25  1  0.009700  0.391400  0.089200  1.0  0.0897
  H  H26  1  0.926700  0.372600  0.147200  1.0  0.0948
  H  H27  1  0.995600  0.901200  0.615100  1.0  0.0876
  H  H28  1  0.088000  0.861500  0.643500  1.0  0.0883
  H  H29  1  0.009700  0.697800  0.608600  1.0  0.0888
  H  H30  1  0.926700  0.774600  0.627400  1.0  0.0953
  H  H31  1  0.995600  0.713900  0.098800  1.0  0.087
  H  H32  1  0.088000  0.782000  0.138500  1.0  0.0886
  H  H33  1  0.009700  0.910800  0.302200  1.0  0.0897
  H  H34  1  0.926700  0.852800  0.225400  1.0  0.0945
  H  H35  1  0.495600  0.098800  0.713900  1.0  0.0875
  H  H36  1  0.588000  0.138500  0.782000  1.0  0.0885
  H  H37  1  0.509700  0.302200  0.910800  1.0  0.0897
  H  H38  1  0.426700  0.225400  0.852800  1.0  0.0949
  H  H39  1  0.495600  0.286100  0.384900  1.0  0.0866
  H  H40  1  0.588000  0.218000  0.356500  1.0  0.0886
  H  H41  1  0.509700  0.089200  0.391400  1.0  0.0901
  H  H42  1  0.426700  0.147200  0.372600  1.0  0.0946
  H  H43  1  0.495600  0.615100  0.901200  1.0  0.0873
  H  H44  1  0.588000  0.643500  0.861500  1.0  0.0881
  H  H45  1  0.509700  0.608600  0.697800  1.0  0.0893
  H  H46  1  0.426700  0.627400  0.774600  1.0  0.0948
  H  H47  1  0.004400  0.098800  0.713900  1.0  0.0872
  H  H48  1  0.912000  0.138500  0.782000  1.0  0.0896
  H  H49  1  0.990300  0.302200  0.910800  1.0  0.0894
  H  H50  1  0.073300  0.225400  0.852800  1.0  0.0943
  H  H51  1  0.004400  0.286100  0.384900  1.0  0.0865
  H  H52  1  0.912000  0.218000  0.356500  1.0  0.0888
  H  H53  1  0.990300  0.089200  0.391400  1.0  0.0903
  H  H54  1  0.073300  0.147200  0.372600  1.0  0.0946
  H  H55  1  0.004400  0.615100  0.901200  1.0  0.0874
  H  H56  1  0.912000  0.643500  0.861500  1.0  0.0888
  H  H57  1  0.990300  0.608600  0.697800  1.0  0.0896
  H  H58  1  0.073300  0.627400  0.774600  1.0  0.0941
  C  C59  1  0.448800  0.411700  0.269100  1.0  -0.0559
  C  C60  1  0.385500  0.472000  0.361500  1.0  0.7187
  C  C61  1  0.533600  0.423600  0.145900  1.0  -0.05
  C  C62  1  0.597900  0.497200  0.135200  1.0  0.7029
  C  C63  1  0.448800  0.857400  0.588300  1.0  -0.0584
  C  C64  1  0.385500  0.889500  0.528000  1.0  0.7196
  C  C65  1  0.533600  0.722300  0.576400  1.0  -0.0502
  C  C66  1  0.597900  0.638000  0.502800  1.0  0.7023
  C  C67  1  0.448800  0.730900  0.142600  1.0  -0.057
  C  C68  1  0.385500  0.638500  0.110500  1.0  0.7165
  C  C69  1  0.533600  0.854100  0.277700  1.0  -0.05
  C  C70  1  0.597900  0.864800  0.362000  1.0  0.7049
  C  C71  1  0.051200  0.411700  0.269100  1.0  -0.0562
  C  C72  1  0.114500  0.472000  0.361500  1.0  0.7183
  C  C73  1  0.966400  0.423600  0.145900  1.0  -0.0504
  C  C74  1  0.902100  0.497200  0.135200  1.0  0.7035
  C  C75  1  0.051200  0.857400  0.588300  1.0  -0.059
  C  C76  1  0.114500  0.889500  0.528000  1.0  0.7186
  C  C77  1  0.966400  0.722300  0.576400  1.0  -0.0505
  C  C78  1  0.902100  0.638000  0.502800  1.0  0.7028
  C  C79  1  0.051200  0.730900  0.142600  1.0  -0.0572
  C  C80  1  0.114500  0.638500  0.110500  1.0  0.7159
  C  C81  1  0.966400  0.854100  0.277700  1.0  -0.0503
  C  C82  1  0.902100  0.864800  0.362000  1.0  0.7051
  C  C83  1  0.551200  0.142600  0.730900  1.0  -0.059
  C  C84  1  0.614500  0.110500  0.638500  1.0  0.7183
  C  C85  1  0.466400  0.277700  0.854100  1.0  -0.0505
  C  C86  1  0.402100  0.362000  0.864800  1.0  0.7034
  C  C87  1  0.551200  0.269100  0.411700  1.0  -0.0568
  C  C88  1  0.614500  0.361500  0.472000  1.0  0.716
  C  C89  1  0.466400  0.145900  0.423600  1.0  -0.0499
  C  C90  1  0.402100  0.135200  0.497200  1.0  0.705
  C  C91  1  0.551200  0.588300  0.857400  1.0  -0.0564
  C  C92  1  0.614500  0.528000  0.889500  1.0  0.7181
  C  C93  1  0.466400  0.576400  0.722300  1.0  -0.0507
  C  C94  1  0.402100  0.502800  0.638000  1.0  0.7028
  C  C95  1  0.948800  0.142600  0.730900  1.0  -0.0586
  C  C96  1  0.885500  0.110500  0.638500  1.0  0.7193
  C  C97  1  0.033600  0.277700  0.854100  1.0  -0.05
  C  C98  1  0.097900  0.362000  0.864800  1.0  0.7028
  C  C99  1  0.948800  0.269100  0.411700  1.0  -0.0565
  C  C100  1  0.885500  0.361500  0.472000  1.0  0.7165
  C  C101  1  0.033600  0.145900  0.423600  1.0  -0.0493
  C  C102  1  0.097900  0.135200  0.497200  1.0  0.7049
  C  C103  1  0.948800  0.588300  0.857400  1.0  -0.0556
  C  C104  1  0.885500  0.528000  0.889500  1.0  0.7186
  C  C105  1  0.033600  0.576400  0.722300  1.0  -0.0507
  C  C106  1  0.097900  0.502800  0.638000  1.0  0.7021
  O  O107  1  0.479200  0.473100  0.234300  1.0  -0.3381
  O  O108  1  0.378200  0.564100  0.395400  1.0  -0.7166
  O  O109  1  0.348000  0.422700  0.395300  1.0  -0.6011
  O  O110  1  0.595100  0.586100  0.201900  1.0  -0.667
  O  O111  1  0.651700  0.459200  0.060400  1.0  -0.6039
  O  O112  1  0.479200  0.761200  0.526900  1.0  -0.3357
  O  O113  1  0.378200  0.831300  0.435900  1.0  -0.7178
  O  O114  1  0.348000  0.972600  0.577300  1.0  -0.6011
  O  O115  1  0.595100  0.615800  0.413900  1.0  -0.668
  O  O116  1  0.651700  0.601200  0.540800  1.0  -0.6026
  O  O117  1  0.479200  0.765700  0.238800  1.0  -0.3357
  O  O118  1  0.378200  0.604600  0.168700  1.0  -0.7184
  O  O119  1  0.348000  0.604700  0.027400  1.0  -0.6006
  O  O120  1  0.595100  0.798100  0.384200  1.0  -0.6677
  O  O121  1  0.651700  0.939600  0.398800  1.0  -0.6024
  O  O122  1  0.020800  0.473100  0.234300  1.0  -0.3373
  O  O123  1  0.121800  0.564100  0.395400  1.0  -0.7154
  O  O124  1  0.152000  0.422700  0.395300  1.0  -0.6009
  O  O125  1  0.904900  0.586100  0.201900  1.0  -0.6675
  O  O126  1  0.848300  0.459200  0.060400  1.0  -0.604
  O  O127  1  0.020800  0.761200  0.526900  1.0  -0.3352
  O  O128  1  0.121800  0.831300  0.435900  1.0  -0.7179
  O  O129  1  0.152000  0.972600  0.577300  1.0  -0.6008
  O  O130  1  0.904900  0.615800  0.413900  1.0  -0.668
  O  O131  1  0.848300  0.601200  0.540800  1.0  -0.6029
  O  O132  1  0.020800  0.765700  0.238800  1.0  -0.3348
  O  O133  1  0.121800  0.604600  0.168700  1.0  -0.7184
  O  O134  1  0.152000  0.604700  0.027400  1.0  -0.6007
  O  O135  1  0.904900  0.798100  0.384200  1.0  -0.6674
  O  O136  1  0.848300  0.939600  0.398800  1.0  -0.6026
  O  O137  1  0.520800  0.238800  0.765700  1.0  -0.3353
  O  O138  1  0.621800  0.168700  0.604600  1.0  -0.7174
  O  O139  1  0.652000  0.027400  0.604700  1.0  -0.5989
  O  O140  1  0.404900  0.384200  0.798100  1.0  -0.6678
  O  O141  1  0.348300  0.398800  0.939600  1.0  -0.6018
  O  O142  1  0.520800  0.234300  0.473100  1.0  -0.3348
  O  O143  1  0.621800  0.395400  0.564100  1.0  -0.7186
  O  O144  1  0.652000  0.395300  0.422700  1.0  -0.6005
  O  O145  1  0.404900  0.201900  0.586100  1.0  -0.6683
  O  O146  1  0.348300  0.060400  0.459200  1.0  -0.6017
  O  O147  1  0.520800  0.526900  0.761200  1.0  -0.3383
  O  O148  1  0.621800  0.435900  0.831300  1.0  -0.7169
  O  O149  1  0.652000  0.577300  0.972600  1.0  -0.6009
  O  O150  1  0.404900  0.413900  0.615800  1.0  -0.6664
  O  O151  1  0.348300  0.540800  0.601200  1.0  -0.6031
  O  O152  1  0.979200  0.238800  0.765700  1.0  -0.3357
  O  O153  1  0.878200  0.168700  0.604600  1.0  -0.7176
  O  O154  1  0.848000  0.027400  0.604700  1.0  -0.5998
  O  O155  1  0.095100  0.384200  0.798100  1.0  -0.6676
  O  O156  1  0.151700  0.398800  0.939600  1.0  -0.6036
  O  O157  1  0.979200  0.234300  0.473100  1.0  -0.3361
  O  O158  1  0.878200  0.395400  0.564100  1.0  -0.7187
  O  O159  1  0.848000  0.395300  0.422700  1.0  -0.601
  O  O160  1  0.095100  0.201900  0.586100  1.0  -0.6686
  O  O161  1  0.151700  0.060400  0.459200  1.0  -0.6028
  O  O162  1  0.979200  0.526900  0.761200  1.0  -0.3389
  O  O163  1  0.878200  0.435900  0.831300  1.0  -0.7165
  O  O164  1  0.848000  0.577300  0.972600  1.0  -0.6013
  O  O165  1  0.095100  0.413900  0.615800  1.0  -0.6673
  O  O166  1  0.151700  0.540800  0.601200  1.0  -0.6047
