# generated using pymatgen
data_ZnH11C16(NO3)2
_symmetry_space_group_name_H-M   'P 1'
_cell_length_a   11.44200000
_cell_length_b   13.37300000
_cell_length_c   15.80700000
_cell_angle_alpha   90.00000000
_cell_angle_beta   90.00000000
_cell_angle_gamma   101.36000000
_symmetry_Int_Tables_number   1
_chemical_formula_structural   ZnH11C16(NO3)2
_chemical_formula_sum   'Zn4 H44 C64 N8 O24'
_cell_volume   2371.30544297
_cell_formula_units_Z   4
loop_
 _symmetry_equiv_pos_site_id
 _symmetry_equiv_pos_as_xyz
  1  'x, y, z'
loop_
 _atom_site_type_symbol
 _atom_site_label
 _atom_site_symmetry_multiplicity
 _atom_site_fract_x
 _atom_site_fract_y
 _atom_site_fract_z
 _atom_site_occupancy
 _atom_site_charge
  Zn  Zn1  1  0.428890  0.891630  0.578840  1.0  0.8921
  Zn  Zn2  1  0.571110  0.608370  0.078840  1.0  0.8929
  Zn  Zn3  1  0.571110  0.108370  0.421160  1.0  0.8938
  Zn  Zn4  1  0.428890  0.391630  0.921160  1.0  0.8924
  H  H5  1  0.609800  0.826500  0.884500  1.0  0.1462
  H  H6  1  0.600400  0.841200  0.786400  1.0  0.1365
  H  H7  1  0.384100  0.617900  0.766000  1.0  0.1268
  H  H8  1  0.039000  0.963600  0.688800  1.0  0.1362
  H  H9  1  0.237800  0.960500  0.684400  1.0  0.0885
  H  H10  1  0.199800  0.806000  0.478000  1.0  0.0785
  H  H11  1  0.001200  0.808400  0.472300  1.0  0.1299
  H  H12  1  0.866400  0.002200  0.663300  1.0  0.1273
  H  H13  1  0.666800  0.002300  0.660200  1.0  0.0884
  H  H14  1  0.614000  0.776300  0.501400  1.0  0.0842
  H  H15  1  0.811400  0.772300  0.499700  1.0  0.1312
  H  H16  1  0.390200  0.673500  0.384500  1.0  0.1483
  H  H17  1  0.399600  0.658800  0.286400  1.0  0.1372
  H  H18  1  0.615900  0.882100  0.266000  1.0  0.126
  H  H19  1  0.961000  0.536400  0.188800  1.0  0.1365
  H  H20  1  0.762200  0.539500  0.184400  1.0  0.0885
  H  H21  1  0.800200  0.694000  0.978000  1.0  0.0782
  H  H22  1  0.998800  0.691600  0.972300  1.0  0.1302
  H  H23  1  0.133600  0.497800  0.163300  1.0  0.1275
  H  H24  1  0.333200  0.497700  0.160200  1.0  0.0887
  H  H25  1  0.386000  0.723700  0.001400  1.0  0.0845
  H  H26  1  0.188600  0.727700  0.999700  1.0  0.1321
  H  H27  1  0.390200  0.173500  0.115500  1.0  0.1455
  H  H28  1  0.399600  0.158800  0.213600  1.0  0.1366
  H  H29  1  0.615900  0.382100  0.234000  1.0  0.1261
  H  H30  1  0.961000  0.036400  0.311200  1.0  0.1369
  H  H31  1  0.762200  0.039500  0.315600  1.0  0.0892
  H  H32  1  0.800200  0.194000  0.522000  1.0  0.0776
  H  H33  1  0.998800  0.191600  0.527700  1.0  0.1303
  H  H34  1  0.133600  0.997800  0.336700  1.0  0.1267
  H  H35  1  0.333200  0.997700  0.339800  1.0  0.0884
  H  H36  1  0.386000  0.223700  0.498600  1.0  0.0839
  H  H37  1  0.188600  0.227700  0.500300  1.0  0.1315
  H  H38  1  0.609800  0.326500  0.615500  1.0  0.1433
  H  H39  1  0.600400  0.341200  0.713600  1.0  0.1358
  H  H40  1  0.384100  0.117900  0.734000  1.0  0.1267
  H  H41  1  0.039000  0.463600  0.811200  1.0  0.1372
  H  H42  1  0.237800  0.460500  0.815600  1.0  0.0889
  H  H43  1  0.199800  0.306000  0.022000  1.0  0.0781
  H  H44  1  0.001200  0.308400  0.027700  1.0  0.1307
  H  H45  1  0.866400  0.502200  0.836700  1.0  0.1276
  H  H46  1  0.666800  0.502300  0.839800  1.0  0.0885
  H  H47  1  0.614000  0.276300  0.998600  1.0  0.0835
  H  H48  1  0.811400  0.272300  0.000300  1.0  0.1324
  C  C49  1  0.424800  0.746200  0.690220  1.0  0.6596
  C  C50  1  0.737400  0.768400  0.818690  1.0  0.6726
  C  C51  1  0.613700  0.793770  0.830100  1.0  -0.3574
  C  C52  1  0.437600  0.679890  0.763060  1.0  -0.1811
  C  C53  1  0.518650  0.699890  0.825470  1.0  0.0229
  C  C54  1  0.517460  0.622790  0.894410  1.0  0.6357
  C  C55  1  0.069400  0.932200  0.643650  1.0  -0.2077
  C  C56  1  0.189600  0.930000  0.640360  1.0  0.1841
  C  C57  1  0.167240  0.840800  0.519990  1.0  0.1838
  C  C58  1  0.047050  0.840400  0.516850  1.0  -0.1964
  C  C59  1  0.994710  0.887770  0.580000  1.0  0.0989
  C  C60  1  0.865030  0.888940  0.580660  1.0  0.1005
  C  C61  1  0.816870  0.955780  0.628870  1.0  -0.1764
  C  C62  1  0.696380  0.955360  0.627170  1.0  0.1786
  C  C63  1  0.665410  0.823370  0.534110  1.0  0.1807
  C  C64  1  0.784380  0.820520  0.532860  1.0  -0.1937
  C  C65  1  0.575200  0.753800  0.190220  1.0  0.6607
  C  C66  1  0.262600  0.731600  0.318690  1.0  0.6742
  C  C67  1  0.386300  0.706230  0.330100  1.0  -0.3551
  C  C68  1  0.562400  0.820110  0.263060  1.0  -0.1797
  C  C69  1  0.481350  0.800110  0.325470  1.0  0.0229
  C  C70  1  0.482540  0.877210  0.394410  1.0  0.6354
  C  C71  1  0.930600  0.567800  0.143650  1.0  -0.2074
  C  C72  1  0.810400  0.570000  0.140360  1.0  0.1836
  C  C73  1  0.832760  0.659200  0.019990  1.0  0.1826
  C  C74  1  0.952950  0.659600  0.016850  1.0  -0.1974
  C  C75  1  0.005290  0.612230  0.080000  1.0  0.0984
  C  C76  1  0.134970  0.611060  0.080660  1.0  0.1005
  C  C77  1  0.183130  0.544220  0.128870  1.0  -0.1771
  C  C78  1  0.303620  0.544640  0.127170  1.0  0.1782
  C  C79  1  0.334590  0.676630  0.034110  1.0  0.181
  C  C80  1  0.215620  0.679480  0.032860  1.0  -0.1935
  C  C81  1  0.575200  0.253800  0.309780  1.0  0.6619
  C  C82  1  0.262600  0.231600  0.181310  1.0  0.6741
  C  C83  1  0.386300  0.206230  0.169900  1.0  -0.3553
  C  C84  1  0.562400  0.320110  0.236940  1.0  -0.1793
  C  C85  1  0.481350  0.300110  0.174530  1.0  0.0221
  C  C86  1  0.482540  0.377210  0.105590  1.0  0.6338
  C  C87  1  0.930600  0.067800  0.356350  1.0  -0.2049
  C  C88  1  0.810400  0.070000  0.359640  1.0  0.1846
  C  C89  1  0.832760  0.159200  0.480010  1.0  0.1826
  C  C90  1  0.952950  0.159600  0.483150  1.0  -0.1972
  C  C91  1  0.005290  0.112230  0.420000  1.0  0.0981
  C  C92  1  0.134970  0.111060  0.419340  1.0  0.1003
  C  C93  1  0.183130  0.044220  0.371130  1.0  -0.1768
  C  C94  1  0.303620  0.044640  0.372830  1.0  0.1789
  C  C95  1  0.334590  0.176630  0.465890  1.0  0.1808
  C  C96  1  0.215620  0.179480  0.467140  1.0  -0.1944
  C  C97  1  0.424800  0.246200  0.809780  1.0  0.6608
  C  C98  1  0.737400  0.268400  0.681310  1.0  0.6725
  C  C99  1  0.613700  0.293770  0.669900  1.0  -0.3574
  C  C100  1  0.437600  0.179890  0.736940  1.0  -0.1808
  C  C101  1  0.518650  0.199890  0.674530  1.0  0.0224
  C  C102  1  0.517460  0.122790  0.605590  1.0  0.6342
  C  C103  1  0.069400  0.432200  0.856350  1.0  -0.204
  C  C104  1  0.189600  0.430000  0.859640  1.0  0.1847
  C  C105  1  0.167240  0.340800  0.980010  1.0  0.1837
  C  C106  1  0.047050  0.340400  0.983150  1.0  -0.1968
  C  C107  1  0.994710  0.387770  0.920000  1.0  0.0985
  C  C108  1  0.865030  0.388940  0.919340  1.0  0.1
  C  C109  1  0.816870  0.455780  0.871130  1.0  -0.1776
  C  C110  1  0.696380  0.455360  0.872830  1.0  0.1791
  C  C111  1  0.665410  0.323370  0.965890  1.0  0.1809
  C  C112  1  0.784380  0.320520  0.967140  1.0  -0.1939
  N  N113  1  0.619900  0.889360  0.579280  1.0  -0.3191
  N  N114  1  0.239480  0.888070  0.579740  1.0  -0.3079
  N  N115  1  0.380100  0.610640  0.079280  1.0  -0.3189
  N  N116  1  0.760520  0.611930  0.079740  1.0  -0.3071
  N  N117  1  0.380100  0.110640  0.420720  1.0  -0.319
  N  N118  1  0.760520  0.111930  0.420260  1.0  -0.3067
  N  N119  1  0.619900  0.389360  0.920720  1.0  -0.3193
  N  N120  1  0.239480  0.388070  0.920260  1.0  -0.3081
  O  O121  1  0.824740  0.838760  0.843730  1.0  -0.4281
  O  O122  1  0.751630  0.690850  0.789260  1.0  -0.4863
  O  O123  1  0.416520  0.711690  0.618100  1.0  -0.5336
  O  O124  1  0.422550  0.838700  0.705210  1.0  -0.5533
  O  O125  1  0.582830  0.651730  0.957340  1.0  -0.566
  O  O126  1  0.450770  0.537310  0.885450  1.0  -0.5807
  O  O127  1  0.175260  0.661240  0.343730  1.0  -0.4234
  O  O128  1  0.248370  0.809150  0.289260  1.0  -0.4878
  O  O129  1  0.583480  0.788310  0.118100  1.0  -0.5307
  O  O130  1  0.577450  0.661300  0.205210  1.0  -0.554
  O  O131  1  0.417170  0.848270  0.457340  1.0  -0.5668
  O  O132  1  0.549230  0.962690  0.385450  1.0  -0.5813
  O  O133  1  0.175260  0.161240  0.156270  1.0  -0.4252
  O  O134  1  0.248370  0.309150  0.210740  1.0  -0.4865
  O  O135  1  0.583480  0.288310  0.381900  1.0  -0.5309
  O  O136  1  0.577450  0.161300  0.294790  1.0  -0.5531
  O  O137  1  0.417170  0.348270  0.042660  1.0  -0.5681
  O  O138  1  0.549230  0.462690  0.114550  1.0  -0.5825
  O  O139  1  0.824740  0.338760  0.656270  1.0  -0.4271
  O  O140  1  0.751630  0.190850  0.710740  1.0  -0.4866
  O  O141  1  0.416520  0.211690  0.881900  1.0  -0.5358
  O  O142  1  0.422550  0.338700  0.794790  1.0  -0.5527
  O  O143  1  0.582830  0.151730  0.542660  1.0  -0.5668
  O  O144  1  0.450770  0.037310  0.614550  1.0  -0.5817
