# generated using pymatgen
data_Zn2H12C16N2O7
_symmetry_space_group_name_H-M   'P 1'
_cell_length_a   13.66880000
_cell_length_b   13.66880000
_cell_length_c   19.36570000
_cell_angle_alpha   96.28090000
_cell_angle_beta   96.28090000
_cell_angle_gamma   143.58630000
_symmetry_Int_Tables_number   1
_chemical_formula_structural   Zn2H12C16N2O7
_chemical_formula_sum   'Zn8 H48 C64 N8 O28'
_cell_volume   2011.84360638
_cell_formula_units_Z   4
loop_
 _symmetry_equiv_pos_site_id
 _symmetry_equiv_pos_as_xyz
  1  'x, y, z'
loop_
 _atom_site_type_symbol
 _atom_site_label
 _atom_site_symmetry_multiplicity
 _atom_site_fract_x
 _atom_site_fract_y
 _atom_site_fract_z
 _atom_site_occupancy
 _atom_site_charge
  Zn  Zn1  1  0.705160  0.651800  0.028870  1.0  0.9829
  Zn  Zn2  1  0.626130  0.801730  0.991640  1.0  0.9103
  Zn  Zn3  1  0.348200  0.294840  0.471130  1.0  0.9833
  Zn  Zn4  1  0.198270  0.373870  0.508360  1.0  0.9111
  Zn  Zn5  1  0.294840  0.348200  0.971130  1.0  0.9834
  Zn  Zn6  1  0.373870  0.198270  0.008360  1.0  0.9101
  Zn  Zn7  1  0.651800  0.705160  0.528870  1.0  0.9834
  Zn  Zn8  1  0.801730  0.626130  0.491640  1.0  0.91
  H  H9  1  0.708100  0.591900  0.259300  1.0  0.1157
  H  H10  1  0.707200  0.857600  0.336600  1.0  0.1381
  H  H11  1  0.824600  0.937800  0.286300  1.0  0.1361
  H  H12  1  0.132600  0.620400  0.893200  1.0  0.1294
  H  H13  1  0.327700  0.662100  0.887300  1.0  0.0871
  H  H14  1  0.581200  0.924400  0.095100  1.0  0.0882
  H  H15  1  0.394600  0.894000  0.105800  1.0  0.1255
  H  H16  1  0.930700  0.547700  0.908100  1.0  0.1151
  H  H17  1  0.736400  0.504200  0.923500  1.0  0.0747
  H  H18  1  0.057700  0.866500  0.112700  1.0  0.0765
  H  H19  1  0.255000  0.909000  0.105100  1.0  0.1221
  H  H20  1  0.385390  0.478730  0.422710  1.0  0.4353
  H  H21  1  0.408100  0.291900  0.240700  1.0  0.1154
  H  H22  1  0.142400  0.292800  0.163400  1.0  0.1387
  H  H23  1  0.062200  0.175400  0.213700  1.0  0.1357
  H  H24  1  0.379600  0.867400  0.606800  1.0  0.1287
  H  H25  1  0.337900  0.672300  0.612700  1.0  0.0858
  H  H26  1  0.075600  0.418800  0.404900  1.0  0.0873
  H  H27  1  0.106000  0.605400  0.394200  1.0  0.1261
  H  H28  1  0.452300  0.069300  0.591900  1.0  0.1139
  H  H29  1  0.495800  0.263600  0.576500  1.0  0.0764
  H  H30  1  0.133500  0.942300  0.387300  1.0  0.0757
  H  H31  1  0.091000  0.745000  0.394900  1.0  0.1219
  H  H32  1  0.521270  0.614610  0.077290  1.0  0.4362
  H  H33  1  0.291900  0.408100  0.740700  1.0  0.1155
  H  H34  1  0.292800  0.142400  0.663400  1.0  0.1371
  H  H35  1  0.175400  0.062200  0.713700  1.0  0.1359
  H  H36  1  0.867400  0.379600  0.106800  1.0  0.1295
  H  H37  1  0.672300  0.337900  0.112700  1.0  0.0861
  H  H38  1  0.418800  0.075600  0.904900  1.0  0.0873
  H  H39  1  0.605400  0.106000  0.894200  1.0  0.1263
  H  H40  1  0.069300  0.452300  0.091900  1.0  0.114
  H  H41  1  0.263600  0.495800  0.076500  1.0  0.075
  H  H42  1  0.942300  0.133500  0.887300  1.0  0.0762
  H  H43  1  0.745000  0.091000  0.894900  1.0  0.1218
  H  H44  1  0.614610  0.521270  0.577290  1.0  0.4353
  H  H45  1  0.591900  0.708100  0.759300  1.0  0.1177
  H  H46  1  0.857600  0.707200  0.836600  1.0  0.1385
  H  H47  1  0.937800  0.824600  0.786300  1.0  0.1357
  H  H48  1  0.620400  0.132600  0.393200  1.0  0.1286
  H  H49  1  0.662100  0.327700  0.387300  1.0  0.0867
  H  H50  1  0.924400  0.581200  0.595100  1.0  0.0871
  H  H51  1  0.894000  0.394600  0.605800  1.0  0.1262
  H  H52  1  0.547700  0.930700  0.408100  1.0  0.1147
  H  H53  1  0.504200  0.736400  0.423500  1.0  0.0749
  H  H54  1  0.866500  0.057700  0.612700  1.0  0.0755
  H  H55  1  0.909000  0.255000  0.605100  1.0  0.1221
  H  H56  1  0.478730  0.385390  0.922710  1.0  0.4352
  C  C57  1  0.692970  0.679330  0.181150  1.0  0.5385
  C  C58  1  0.723160  0.671100  0.257630  1.0  -0.2154
  C  C59  1  0.765730  0.759050  0.318090  1.0  0.0653
  C  C60  1  0.751100  0.705660  0.386180  1.0  0.6555
  C  C61  1  0.805910  0.902330  0.329620  1.0  -0.378
  C  C62  1  0.969690  0.060250  0.397370  1.0  0.7278
  C  C63  1  0.225110  0.685510  0.935510  1.0  -0.2087
  C  C64  1  0.341180  0.709280  0.932430  1.0  0.1754
  C  C65  1  0.489490  0.862690  0.053290  1.0  0.1832
  C  C66  1  0.377840  0.844980  0.060010  1.0  -0.2104
  C  C67  1  0.242230  0.756450  0.000340  1.0  0.0971
  C  C68  1  0.116500  0.730220  0.006060  1.0  0.0767
  C  C69  1  0.959510  0.612830  0.951870  1.0  -0.1805
  C  C70  1  0.843890  0.589090  0.960690  1.0  0.1659
  C  C71  1  0.029510  0.797930  0.070920  1.0  0.1896
  C  C72  1  0.149980  0.825100  0.066440  1.0  -0.2059
  C  C73  1  0.320670  0.307030  0.318850  1.0  0.5403
  C  C74  1  0.328900  0.276840  0.242370  1.0  -0.214
  C  C75  1  0.240950  0.234270  0.181910  1.0  0.065
  C  C76  1  0.294340  0.248900  0.113820  1.0  0.6559
  C  C77  1  0.097670  0.194090  0.170380  1.0  -0.3762
  C  C78  1  0.939750  0.030310  0.102630  1.0  0.7264
  C  C79  1  0.314490  0.774890  0.564490  1.0  -0.2101
  C  C80  1  0.290720  0.658820  0.567570  1.0  0.1733
  C  C81  1  0.137310  0.510510  0.446710  1.0  0.1791
  C  C82  1  0.155020  0.622160  0.439990  1.0  -0.2093
  C  C83  1  0.243550  0.757770  0.499660  1.0  0.0968
  C  C84  1  0.269780  0.883500  0.493940  1.0  0.0778
  C  C85  1  0.387170  0.040490  0.548130  1.0  -0.1799
  C  C86  1  0.410910  0.156110  0.539310  1.0  0.1667
  C  C87  1  0.202070  0.970490  0.429080  1.0  0.191
  C  C88  1  0.174900  0.850020  0.433560  1.0  -0.2035
  C  C89  1  0.307030  0.320670  0.818850  1.0  0.5379
  C  C90  1  0.276840  0.328900  0.742370  1.0  -0.2146
  C  C91  1  0.234270  0.240950  0.681910  1.0  0.0651
  C  C92  1  0.248900  0.294340  0.613820  1.0  0.6564
  C  C93  1  0.194090  0.097670  0.670380  1.0  -0.3766
  C  C94  1  0.030310  0.939750  0.602630  1.0  0.7269
  C  C95  1  0.774890  0.314490  0.064490  1.0  -0.2094
  C  C96  1  0.658820  0.290720  0.067570  1.0  0.1714
  C  C97  1  0.510510  0.137310  0.946710  1.0  0.183
  C  C98  1  0.622160  0.155020  0.939990  1.0  -0.2094
  C  C99  1  0.757770  0.243550  0.999660  1.0  0.0975
  C  C100  1  0.883500  0.269780  0.993940  1.0  0.0773
  C  C101  1  0.040490  0.387170  0.048130  1.0  -0.1794
  C  C102  1  0.156110  0.410910  0.039310  1.0  0.1648
  C  C103  1  0.970490  0.202070  0.929080  1.0  0.1903
  C  C104  1  0.850020  0.174900  0.933560  1.0  -0.2053
  C  C105  1  0.679330  0.692970  0.681150  1.0  0.5401
  C  C106  1  0.671100  0.723160  0.757630  1.0  -0.2161
  C  C107  1  0.759050  0.765730  0.818090  1.0  0.0648
  C  C108  1  0.705660  0.751100  0.886180  1.0  0.6556
  C  C109  1  0.902330  0.805910  0.829620  1.0  -0.3761
  C  C110  1  0.060250  0.969690  0.897370  1.0  0.7258
  C  C111  1  0.685510  0.225110  0.435510  1.0  -0.2101
  C  C112  1  0.709280  0.341180  0.432430  1.0  0.1752
  C  C113  1  0.862690  0.489490  0.553290  1.0  0.1798
  C  C114  1  0.844980  0.377840  0.560010  1.0  -0.2093
  C  C115  1  0.756450  0.242230  0.500340  1.0  0.0967
  C  C116  1  0.730220  0.116500  0.506060  1.0  0.0775
  C  C117  1  0.612830  0.959510  0.451870  1.0  -0.1788
  C  C118  1  0.589090  0.843890  0.460690  1.0  0.1663
  C  C119  1  0.797930  0.029510  0.570920  1.0  0.1898
  C  C120  1  0.825100  0.149980  0.566440  1.0  -0.2031
  N  N121  1  0.473530  0.796810  0.990900  1.0  -0.332
  N  N122  1  0.879900  0.682380  0.020050  1.0  -0.2938
  N  N123  1  0.203190  0.526470  0.509100  1.0  -0.3318
  N  N124  1  0.317620  0.120100  0.479950  1.0  -0.2945
  N  N125  1  0.526470  0.203190  0.009100  1.0  -0.3327
  N  N126  1  0.120100  0.317620  0.979950  1.0  -0.294
  N  N127  1  0.796810  0.473530  0.490900  1.0  -0.3344
  N  N128  1  0.682380  0.879900  0.520050  1.0  -0.294
  O  O129  1  0.631540  0.720220  0.171780  1.0  -0.5934
  O  O130  1  0.721200  0.632380  0.134110  1.0  -0.5694
  O  O131  1  0.788770  0.646810  0.394630  1.0  -0.6091
  O  O132  1  0.701020  0.722040  0.426840  1.0  -0.5829
  O  O133  1  0.074990  0.082790  0.419290  1.0  -0.5846
  O  O134  1  0.984640  0.161080  0.426700  1.0  -0.6182
  O  O135  1  0.521270  0.614610  0.025650  1.0  -0.8285
  O  O136  1  0.279780  0.368460  0.328220  1.0  -0.5929
  O  O137  1  0.367620  0.278800  0.365890  1.0  -0.5683
  O  O138  1  0.353190  0.211230  0.105370  1.0  -0.6088
  O  O139  1  0.277960  0.298980  0.073160  1.0  -0.5825
  O  O140  1  0.917210  0.925010  0.080710  1.0  -0.5853
  O  O141  1  0.838920  0.015360  0.073300  1.0  -0.6185
  O  O142  1  0.385390  0.478730  0.474350  1.0  -0.8262
  O  O143  1  0.368460  0.279780  0.828220  1.0  -0.5933
  O  O144  1  0.278800  0.367620  0.865890  1.0  -0.5695
  O  O145  1  0.211230  0.353190  0.605370  1.0  -0.61
  O  O146  1  0.298980  0.277960  0.573160  1.0  -0.583
  O  O147  1  0.925010  0.917210  0.580710  1.0  -0.5844
  O  O148  1  0.015360  0.838920  0.573300  1.0  -0.6209
  O  O149  1  0.478730  0.385390  0.974350  1.0  -0.8252
  O  O150  1  0.720220  0.631540  0.671780  1.0  -0.5944
  O  O151  1  0.632380  0.721200  0.634110  1.0  -0.5703
  O  O152  1  0.646810  0.788770  0.894630  1.0  -0.6103
  O  O153  1  0.722040  0.701020  0.926840  1.0  -0.5825
  O  O154  1  0.082790  0.074990  0.919290  1.0  -0.5851
  O  O155  1  0.161080  0.984640  0.926700  1.0  -0.619
  O  O156  1  0.614610  0.521270  0.525650  1.0  -0.8286
