# generated using pymatgen
data_CuH11C16NO6
_symmetry_space_group_name_H-M   'P 1'
_cell_length_a   21.18700000
_cell_length_b   21.18700000
_cell_length_c   21.90000000
_cell_angle_alpha   90.00000000
_cell_angle_beta   90.00000000
_cell_angle_gamma   120.00000000
_symmetry_Int_Tables_number   1
_chemical_formula_structural   CuH11C16NO6
_chemical_formula_sum   'Cu18 H198 C288 N18 O108'
_cell_volume   8513.60858885
_cell_formula_units_Z   18
loop_
 _symmetry_equiv_pos_site_id
 _symmetry_equiv_pos_as_xyz
  1  'x, y, z'
loop_
 _atom_site_type_symbol
 _atom_site_label
 _atom_site_symmetry_multiplicity
 _atom_site_fract_x
 _atom_site_fract_y
 _atom_site_fract_z
 _atom_site_occupancy
 _atom_site_charge
  Cu  Cu1  1  0.469540  0.539560  0.009380  1.0  0.9397
  Cu  Cu2  1  0.136210  0.872890  0.342710  1.0  0.9399
  Cu  Cu3  1  0.802870  0.206230  0.676050  1.0  0.9477
  Cu  Cu4  1  0.460440  0.929980  0.009380  1.0  0.9483
  Cu  Cu5  1  0.127110  0.263310  0.342710  1.0  0.9481
  Cu  Cu6  1  0.793770  0.596650  0.676050  1.0  0.9351
  Cu  Cu7  1  0.070020  0.530460  0.009380  1.0  0.9464
  Cu  Cu8  1  0.736690  0.863790  0.342710  1.0  0.9464
  Cu  Cu9  1  0.403350  0.197130  0.676050  1.0  0.94
  Cu  Cu10  1  0.530460  0.460440  0.990620  1.0  0.9399
  Cu  Cu11  1  0.197130  0.793770  0.323950  1.0  0.947
  Cu  Cu12  1  0.863790  0.127110  0.657290  1.0  0.9401
  Cu  Cu13  1  0.539560  0.070020  0.990620  1.0  0.9459
  Cu  Cu14  1  0.206230  0.403350  0.323950  1.0  0.9351
  Cu  Cu15  1  0.872890  0.736690  0.657290  1.0  0.9458
  Cu  Cu16  1  0.929980  0.469540  0.990620  1.0  0.945
  Cu  Cu17  1  0.596650  0.802870  0.323950  1.0  0.9379
  Cu  Cu18  1  0.263310  0.136210  0.657290  1.0  0.945
  H  H19  1  0.323400  0.405500  0.159700  1.0  0.1686
  H  H20  1  0.209400  0.193400  0.199600  1.0  0.1749
  H  H21  1  0.358100  0.262200  0.066900  1.0  0.1692
  H  H22  1  0.305900  0.006500  0.023700  1.0  0.1572
  H  H23  1  0.231100  0.883700  0.043900  1.0  0.1525
  H  H24  1  0.141500  0.845400  0.115000  1.0  0.1352
  H  H25  1  0.120100  0.928400  0.166900  1.0  0.173
  H  H26  1  0.156100  0.078800  0.145700  1.0  0.0968
  H  H27  1  0.212100  0.083600  0.195500  1.0  0.0925
  H  H28  1  0.347000  0.138700  0.091000  1.0  0.065
  H  H29  1  0.294900  0.135300  0.038000  1.0  0.0623
  H  H30  1  0.990070  0.738830  0.493030  1.0  0.168
  H  H31  1  0.876070  0.526730  0.532930  1.0  0.1749
  H  H32  1  0.024770  0.595530  0.400230  1.0  0.1692
  H  H33  1  0.972570  0.339830  0.357030  1.0  0.1574
  H  H34  1  0.897770  0.217030  0.377230  1.0  0.1524
  H  H35  1  0.808170  0.178730  0.448330  1.0  0.1352
  H  H36  1  0.786770  0.261730  0.500230  1.0  0.173
  H  H37  1  0.822770  0.412130  0.479030  1.0  0.0968
  H  H38  1  0.878770  0.416930  0.528830  1.0  0.0925
  H  H39  1  0.013670  0.472030  0.424330  1.0  0.065
  H  H40  1  0.961570  0.468630  0.371330  1.0  0.0623
  H  H41  1  0.656730  0.072170  0.826370  1.0  0.1686
  H  H42  1  0.542730  0.860070  0.866270  1.0  0.1749
  H  H43  1  0.691430  0.928870  0.733570  1.0  0.1692
  H  H44  1  0.639230  0.673170  0.690370  1.0  0.1572
  H  H45  1  0.564430  0.550370  0.710570  1.0  0.1524
  H  H46  1  0.474830  0.512070  0.781670  1.0  0.1352
  H  H47  1  0.453430  0.595070  0.833570  1.0  0.173
  H  H48  1  0.489430  0.745470  0.812370  1.0  0.0968
  H  H49  1  0.545430  0.750270  0.862170  1.0  0.0925
  H  H50  1  0.680330  0.805370  0.757670  1.0  0.065
  H  H51  1  0.628230  0.801970  0.704670  1.0  0.0623
  H  H52  1  0.594500  0.917900  0.159700  1.0  0.169
  H  H53  1  0.806600  0.016000  0.199600  1.0  0.1739
  H  H54  1  0.737800  0.095900  0.066900  1.0  0.1701
  H  H55  1  0.993500  0.299400  0.023700  1.0  0.1572
  H  H56  1  0.116300  0.347400  0.043900  1.0  0.154
  H  H57  1  0.154600  0.296100  0.115000  1.0  0.1355
  H  H58  1  0.071600  0.191700  0.166900  1.0  0.1729
  H  H59  1  0.921200  0.077300  0.145700  1.0  0.0925
  H  H60  1  0.916400  0.128500  0.195500  1.0  0.0881
  H  H61  1  0.861300  0.208300  0.091000  1.0  0.0542
  H  H62  1  0.864700  0.159600  0.038000  1.0  0.064
  H  H63  1  0.261170  0.251230  0.493030  1.0  0.169
  H  H64  1  0.473270  0.349330  0.532930  1.0  0.1739
  H  H65  1  0.404470  0.429230  0.400230  1.0  0.1701
  H  H66  1  0.660170  0.632730  0.357030  1.0  0.1572
  H  H67  1  0.782970  0.680730  0.377230  1.0  0.1539
  H  H68  1  0.821270  0.629430  0.448330  1.0  0.1355
  H  H69  1  0.738270  0.525030  0.500230  1.0  0.1729
  H  H70  1  0.587870  0.410630  0.479030  1.0  0.0926
  H  H71  1  0.583070  0.461830  0.528830  1.0  0.088
  H  H72  1  0.527970  0.541630  0.424330  1.0  0.0542
  H  H73  1  0.531370  0.492930  0.371330  1.0  0.064
  H  H74  1  0.927830  0.584570  0.826370  1.0  0.169
  H  H75  1  0.139930  0.682670  0.866270  1.0  0.1739
  H  H76  1  0.071130  0.762570  0.733570  1.0  0.1701
  H  H77  1  0.326830  0.966070  0.690370  1.0  0.1572
  H  H78  1  0.449630  0.014070  0.710570  1.0  0.154
  H  H79  1  0.487930  0.962770  0.781670  1.0  0.1355
  H  H80  1  0.404930  0.858370  0.833570  1.0  0.1729
  H  H81  1  0.254530  0.743970  0.812370  1.0  0.0925
  H  H82  1  0.249730  0.795170  0.862170  1.0  0.0881
  H  H83  1  0.194630  0.874970  0.757670  1.0  0.0542
  H  H84  1  0.198030  0.826270  0.704670  1.0  0.064
  H  H85  1  0.082100  0.676600  0.159700  1.0  0.1674
  H  H86  1  0.984000  0.790600  0.199600  1.0  0.1751
  H  H87  1  0.904100  0.641900  0.066900  1.0  0.1673
  H  H88  1  0.700600  0.694100  0.023700  1.0  0.1574
  H  H89  1  0.652600  0.768900  0.043900  1.0  0.1535
  H  H90  1  0.703900  0.858500  0.115000  1.0  0.1351
  H  H91  1  0.808300  0.879900  0.166900  1.0  0.1731
  H  H92  1  0.922700  0.843900  0.145700  1.0  0.0941
  H  H93  1  0.871500  0.787900  0.195500  1.0  0.0857
  H  H94  1  0.791700  0.653000  0.091000  1.0  0.0554
  H  H95  1  0.840400  0.705100  0.038000  1.0  0.0666
  H  H96  1  0.748770  0.009930  0.493030  1.0  0.1677
  H  H97  1  0.650670  0.123930  0.532930  1.0  0.1751
  H  H98  1  0.570770  0.975230  0.400230  1.0  0.1673
  H  H99  1  0.367270  0.027430  0.357030  1.0  0.1573
  H  H100  1  0.319270  0.102230  0.377230  1.0  0.1535
  H  H101  1  0.370570  0.191830  0.448330  1.0  0.1351
  H  H102  1  0.474970  0.213230  0.500230  1.0  0.1731
  H  H103  1  0.589370  0.177230  0.479030  1.0  0.0941
  H  H104  1  0.538170  0.121230  0.528830  1.0  0.0857
  H  H105  1  0.458370  0.986330  0.424330  1.0  0.0554
  H  H106  1  0.507070  0.038430  0.371330  1.0  0.0666
  H  H107  1  0.415430  0.343270  0.826370  1.0  0.1674
  H  H108  1  0.317330  0.457270  0.866270  1.0  0.1751
  H  H109  1  0.237430  0.308570  0.733570  1.0  0.1673
  H  H110  1  0.033930  0.360770  0.690370  1.0  0.1574
  H  H111  1  0.985930  0.435570  0.710570  1.0  0.1535
  H  H112  1  0.037230  0.525170  0.781670  1.0  0.1351
  H  H113  1  0.141630  0.546570  0.833570  1.0  0.1731
  H  H114  1  0.256030  0.510570  0.812370  1.0  0.0941
  H  H115  1  0.204830  0.454570  0.862170  1.0  0.0857
  H  H116  1  0.125030  0.319670  0.757670  1.0  0.0554
  H  H117  1  0.173730  0.371770  0.704670  1.0  0.0666
  H  H118  1  0.676600  0.594500  0.840300  1.0  0.1689
  H  H119  1  0.790600  0.806600  0.800400  1.0  0.1746
  H  H120  1  0.641900  0.737800  0.933100  1.0  0.1681
  H  H121  1  0.694100  0.993500  0.976300  1.0  0.1569
  H  H122  1  0.768900  0.116300  0.956100  1.0  0.1532
  H  H123  1  0.858500  0.154600  0.885000  1.0  0.1349
  H  H124  1  0.879900  0.071600  0.833100  1.0  0.1731
  H  H125  1  0.843900  0.921200  0.854300  1.0  0.1002
  H  H126  1  0.787900  0.916400  0.804500  1.0  0.0901
  H  H127  1  0.653000  0.861300  0.909000  1.0  0.0597
  H  H128  1  0.705100  0.864700  0.962000  1.0  0.0626
  H  H129  1  0.343270  0.927830  0.173630  1.0  0.1689
  H  H130  1  0.457270  0.139930  0.133730  1.0  0.1746
  H  H131  1  0.308570  0.071130  0.266430  1.0  0.1681
  H  H132  1  0.360770  0.326830  0.309630  1.0  0.1569
  H  H133  1  0.435570  0.449630  0.289430  1.0  0.1531
  H  H134  1  0.525170  0.487930  0.218330  1.0  0.1349
  H  H135  1  0.546570  0.404930  0.166430  1.0  0.1731
  H  H136  1  0.510570  0.254530  0.187630  1.0  0.1002
  H  H137  1  0.454570  0.249730  0.137830  1.0  0.0901
  H  H138  1  0.319670  0.194630  0.242330  1.0  0.0597
  H  H139  1  0.371770  0.198030  0.295330  1.0  0.0626
  H  H140  1  0.009930  0.261170  0.506970  1.0  0.1688
  H  H141  1  0.123930  0.473270  0.467070  1.0  0.1746
  H  H142  1  0.975230  0.404470  0.599770  1.0  0.1681
  H  H143  1  0.027430  0.660170  0.642970  1.0  0.1571
  H  H144  1  0.102230  0.782970  0.622770  1.0  0.1531
  H  H145  1  0.191830  0.821270  0.551670  1.0  0.1349
  H  H146  1  0.213230  0.738270  0.499770  1.0  0.173
  H  H147  1  0.177230  0.587870  0.520970  1.0  0.1002
  H  H148  1  0.121230  0.583070  0.471170  1.0  0.09
  H  H149  1  0.986330  0.527970  0.575670  1.0  0.0597
  H  H150  1  0.038430  0.531370  0.628670  1.0  0.0626
  H  H151  1  0.405500  0.082100  0.840300  1.0  0.1684
  H  H152  1  0.193400  0.984000  0.800400  1.0  0.175
  H  H153  1  0.262200  0.904100  0.933100  1.0  0.1685
  H  H154  1  0.006500  0.700600  0.976300  1.0  0.1574
  H  H155  1  0.883700  0.652600  0.956100  1.0  0.1543
  H  H156  1  0.845400  0.703900  0.885000  1.0  0.1355
  H  H157  1  0.928400  0.808300  0.833100  1.0  0.1728
  H  H158  1  0.078800  0.922700  0.854300  1.0  0.0967
  H  H159  1  0.083600  0.871500  0.804500  1.0  0.0862
  H  H160  1  0.138700  0.791700  0.909000  1.0  0.0594
  H  H161  1  0.135300  0.840400  0.962000  1.0  0.0629
  H  H162  1  0.072170  0.415430  0.173630  1.0  0.1684
  H  H163  1  0.860070  0.317330  0.133730  1.0  0.175
  H  H164  1  0.928870  0.237430  0.266430  1.0  0.1685
  H  H165  1  0.673170  0.033930  0.309630  1.0  0.1574
  H  H166  1  0.550370  0.985930  0.289430  1.0  0.1543
  H  H167  1  0.512070  0.037230  0.218330  1.0  0.1355
  H  H168  1  0.595070  0.141630  0.166430  1.0  0.1728
  H  H169  1  0.745470  0.256030  0.187630  1.0  0.0967
  H  H170  1  0.750270  0.204830  0.137830  1.0  0.0862
  H  H171  1  0.805370  0.125030  0.242330  1.0  0.0594
  H  H172  1  0.801970  0.173730  0.295330  1.0  0.0629
  H  H173  1  0.738830  0.748770  0.506970  1.0  0.1684
  H  H174  1  0.526730  0.650670  0.467070  1.0  0.175
  H  H175  1  0.595530  0.570770  0.599770  1.0  0.1684
  H  H176  1  0.339830  0.367270  0.642970  1.0  0.1574
  H  H177  1  0.217030  0.319270  0.622770  1.0  0.1543
  H  H178  1  0.178730  0.370570  0.551670  1.0  0.1355
  H  H179  1  0.261730  0.474970  0.499770  1.0  0.1728
  H  H180  1  0.412130  0.589370  0.520970  1.0  0.0967
  H  H181  1  0.416930  0.538170  0.471170  1.0  0.0861
  H  H182  1  0.472030  0.458370  0.575670  1.0  0.0594
  H  H183  1  0.468630  0.507070  0.628670  1.0  0.0629
  H  H184  1  0.917900  0.323400  0.840300  1.0  0.1671
  H  H185  1  0.016000  0.209400  0.800400  1.0  0.1739
  H  H186  1  0.095900  0.358100  0.933100  1.0  0.1668
  H  H187  1  0.299400  0.305900  0.976300  1.0  0.1571
  H  H188  1  0.347400  0.231100  0.956100  1.0  0.1526
  H  H189  1  0.296100  0.141500  0.885000  1.0  0.135
  H  H190  1  0.191700  0.120100  0.833100  1.0  0.1731
  H  H191  1  0.077300  0.156100  0.854300  1.0  0.0942
  H  H192  1  0.128500  0.212100  0.804500  1.0  0.0869
  H  H193  1  0.208300  0.347000  0.909000  1.0  0.0592
  H  H194  1  0.159600  0.294900  0.962000  1.0  0.0615
  H  H195  1  0.584570  0.656730  0.173630  1.0  0.1671
  H  H196  1  0.682670  0.542730  0.133730  1.0  0.1739
  H  H197  1  0.762570  0.691430  0.266430  1.0  0.1668
  H  H198  1  0.966070  0.639230  0.309630  1.0  0.1571
  H  H199  1  0.014070  0.564430  0.289430  1.0  0.1526
  H  H200  1  0.962770  0.474830  0.218330  1.0  0.135
  H  H201  1  0.858370  0.453430  0.166430  1.0  0.1731
  H  H202  1  0.743970  0.489430  0.187630  1.0  0.0942
  H  H203  1  0.795170  0.545430  0.137830  1.0  0.0869
  H  H204  1  0.874970  0.680330  0.242330  1.0  0.0592
  H  H205  1  0.826270  0.628230  0.295330  1.0  0.0615
  H  H206  1  0.251230  0.990070  0.506970  1.0  0.1674
  H  H207  1  0.349330  0.876070  0.467070  1.0  0.174
  H  H208  1  0.429230  0.024770  0.599770  1.0  0.1668
  H  H209  1  0.632730  0.972570  0.642970  1.0  0.157
  H  H210  1  0.680730  0.897770  0.622770  1.0  0.1526
  H  H211  1  0.629430  0.808170  0.551670  1.0  0.135
  H  H212  1  0.525030  0.786770  0.499770  1.0  0.1731
  H  H213  1  0.410630  0.822770  0.520970  1.0  0.0942
  H  H214  1  0.461830  0.878770  0.471170  1.0  0.0869
  H  H215  1  0.541630  0.013670  0.575670  1.0  0.0592
  H  H216  1  0.492930  0.961570  0.628670  1.0  0.0615
  C  C217  1  0.405500  0.402700  0.068210  1.0  0.739
  C  C218  1  0.349200  0.342900  0.107110  1.0  -0.1053
  C  C219  1  0.313200  0.358000  0.152930  1.0  0.0223
  C  C220  1  0.262200  0.301500  0.188290  1.0  -0.0566
  C  C221  1  0.245100  0.231100  0.176500  1.0  -0.0886
  C  C222  1  0.279900  0.215100  0.130910  1.0  0.1613
  C  C223  1  0.333000  0.271900  0.096930  1.0  -0.1246
  C  C224  1  0.296500  0.119400  0.079100  1.0  -0.0285
  C  C225  1  0.255500  0.038700  0.083300  1.0  0.0991
  C  C226  1  0.268500  0.990700  0.052200  1.0  -0.1405
  C  C227  1  0.224100  0.917900  0.064700  1.0  -0.0399
  C  C228  1  0.170200  0.895000  0.106900  1.0  -0.0458
  C  C229  1  0.157200  0.944100  0.138200  1.0  -0.1254
  C  C230  1  0.201400  0.017300  0.125400  1.0  0.1344
  C  C231  1  0.202300  0.080800  0.152000  1.0  -0.0364
  C  C232  1  0.227700  0.316500  0.241470  1.0  0.7099
  C  C233  1  0.072170  0.736030  0.401540  1.0  0.739
  C  C234  1  0.015870  0.676230  0.440440  1.0  -0.1053
  C  C235  1  0.979870  0.691330  0.486260  1.0  0.0229
  C  C236  1  0.928870  0.634830  0.521620  1.0  -0.0566
  C  C237  1  0.911770  0.564430  0.509830  1.0  -0.0888
  C  C238  1  0.946570  0.548430  0.464240  1.0  0.1612
  C  C239  1  0.999670  0.605230  0.430260  1.0  -0.1246
  C  C240  1  0.963170  0.452730  0.412430  1.0  -0.0285
  C  C241  1  0.922170  0.372030  0.416630  1.0  0.0991
  C  C242  1  0.935170  0.324030  0.385530  1.0  -0.1401
  C  C243  1  0.890770  0.251230  0.398030  1.0  -0.0399
  C  C244  1  0.836870  0.228330  0.440230  1.0  -0.0458
  C  C245  1  0.823870  0.277430  0.471530  1.0  -0.1254
  C  C246  1  0.868070  0.350630  0.458730  1.0  0.1343
  C  C247  1  0.868970  0.414130  0.485330  1.0  -0.0364
  C  C248  1  0.894370  0.649830  0.574800  1.0  0.7095
  C  C249  1  0.738830  0.069370  0.734880  1.0  0.7389
  C  C250  1  0.682530  0.009570  0.773780  1.0  -0.1053
  C  C251  1  0.646530  0.024670  0.819600  1.0  0.0223
  C  C252  1  0.595530  0.968170  0.854960  1.0  -0.0566
  C  C253  1  0.578430  0.897770  0.843170  1.0  -0.0886
  C  C254  1  0.613230  0.881770  0.797580  1.0  0.1613
  C  C255  1  0.666330  0.938570  0.763600  1.0  -0.1246
  C  C256  1  0.629830  0.786070  0.745770  1.0  -0.0285
  C  C257  1  0.588830  0.705370  0.749970  1.0  0.0991
  C  C258  1  0.601830  0.657370  0.718870  1.0  -0.1405
  C  C259  1  0.557430  0.584570  0.731370  1.0  -0.0399
  C  C260  1  0.503530  0.561670  0.773570  1.0  -0.0458
  C  C261  1  0.490530  0.610770  0.804870  1.0  -0.1254
  C  C262  1  0.534730  0.683970  0.792070  1.0  0.1344
  C  C263  1  0.535630  0.747470  0.818670  1.0  -0.0364
  C  C264  1  0.561030  0.983170  0.908140  1.0  0.7099
  C  C265  1  0.597300  0.002800  0.068210  1.0  0.7344
  C  C266  1  0.657100  0.006300  0.107110  1.0  -0.1069
  C  C267  1  0.642000  0.955200  0.152930  1.0  0.0197
  C  C268  1  0.698500  0.960700  0.188290  1.0  -0.0484
  C  C269  1  0.768900  0.014000  0.176500  1.0  -0.0886
  C  C270  1  0.784900  0.064800  0.130910  1.0  0.1631
  C  C271  1  0.728100  0.061100  0.096930  1.0  -0.1276
  C  C272  1  0.880600  0.177100  0.079100  1.0  -0.0288
  C  C273  1  0.961300  0.216800  0.083300  1.0  0.0991
  C  C274  1  0.009300  0.277800  0.052200  1.0  -0.1421
  C  C275  1  0.082100  0.306200  0.064700  1.0  -0.04
  C  C276  1  0.105000  0.275200  0.106900  1.0  -0.0488
  C  C277  1  0.055900  0.213100  0.138200  1.0  -0.1263
  C  C278  1  0.982700  0.184100  0.125400  1.0  0.1327
  C  C279  1  0.919200  0.121500  0.152000  1.0  -0.0402
  C  C280  1  0.683500  0.911200  0.241470  1.0  0.7091
  C  C281  1  0.263970  0.336130  0.401540  1.0  0.7343
  C  C282  1  0.323770  0.339630  0.440440  1.0  -0.1067
  C  C283  1  0.308670  0.288530  0.486260  1.0  0.0197
  C  C284  1  0.365170  0.294030  0.521620  1.0  -0.0484
  C  C285  1  0.435570  0.347330  0.509830  1.0  -0.0887
  C  C286  1  0.451570  0.398130  0.464240  1.0  0.1631
  C  C287  1  0.394770  0.394430  0.430260  1.0  -0.1276
  C  C288  1  0.547270  0.510430  0.412430  1.0  -0.0288
  C  C289  1  0.627970  0.550130  0.416630  1.0  0.0992
  C  C290  1  0.675970  0.611130  0.385530  1.0  -0.1423
  C  C291  1  0.748770  0.639530  0.398030  1.0  -0.0399
  C  C292  1  0.771670  0.608530  0.440230  1.0  -0.0488
  C  C293  1  0.722570  0.546430  0.471530  1.0  -0.1264
  C  C294  1  0.649370  0.517430  0.458730  1.0  0.1329
  C  C295  1  0.585870  0.454830  0.485330  1.0  -0.0401
  C  C296  1  0.350170  0.244530  0.574800  1.0  0.7092
  C  C297  1  0.930630  0.669470  0.734880  1.0  0.7344
  C  C298  1  0.990430  0.672970  0.773780  1.0  -0.1067
  C  C299  1  0.975330  0.621870  0.819600  1.0  0.0197
  C  C300  1  0.031830  0.627370  0.854960  1.0  -0.0484
  C  C301  1  0.102230  0.680670  0.843170  1.0  -0.0886
  C  C302  1  0.118230  0.731470  0.797580  1.0  0.1631
  C  C303  1  0.061430  0.727770  0.763600  1.0  -0.1276
  C  C304  1  0.213930  0.843770  0.745770  1.0  -0.0288
  C  C305  1  0.294630  0.883470  0.749970  1.0  0.0991
  C  C306  1  0.342630  0.944470  0.718870  1.0  -0.1421
  C  C307  1  0.415430  0.972870  0.731370  1.0  -0.04
  C  C308  1  0.438330  0.941870  0.773570  1.0  -0.0488
  C  C309  1  0.389230  0.879770  0.804870  1.0  -0.1263
  C  C310  1  0.316030  0.850770  0.792070  1.0  0.1327
  C  C311  1  0.252530  0.788170  0.818670  1.0  -0.0402
  C  C312  1  0.016830  0.577870  0.908140  1.0  0.7091
  C  C313  1  0.997200  0.594500  0.068210  1.0  0.7377
  C  C314  1  0.993700  0.650800  0.107110  1.0  -0.1078
  C  C315  1  0.044800  0.686800  0.152930  1.0  0.02
  C  C316  1  0.039300  0.737800  0.188290  1.0  -0.0539
  C  C317  1  0.986000  0.754900  0.176500  1.0  -0.0908
  C  C318  1  0.935200  0.720100  0.130910  1.0  0.1641
  C  C319  1  0.938900  0.667000  0.096930  1.0  -0.124
  C  C320  1  0.822900  0.703500  0.079100  1.0  -0.0268
  C  C321  1  0.783200  0.744500  0.083300  1.0  0.0975
  C  C322  1  0.722200  0.731500  0.052200  1.0  -0.1402
  C  C323  1  0.693800  0.775900  0.064700  1.0  -0.0426
  C  C324  1  0.724800  0.829800  0.106900  1.0  -0.0449
  C  C325  1  0.786900  0.842800  0.138200  1.0  -0.1244
  C  C326  1  0.815900  0.798600  0.125400  1.0  0.1362
  C  C327  1  0.878500  0.797700  0.152000  1.0  -0.0388
  C  C328  1  0.088800  0.772300  0.241470  1.0  0.7093
  C  C329  1  0.663870  0.927830  0.401540  1.0  0.7376
  C  C330  1  0.660370  0.984130  0.440440  1.0  -0.1078
  C  C331  1  0.711470  0.020130  0.486260  1.0  0.02
  C  C332  1  0.705970  0.071130  0.521620  1.0  -0.0539
  C  C333  1  0.652670  0.088230  0.509830  1.0  -0.091
  C  C334  1  0.601870  0.053430  0.464240  1.0  0.1641
  C  C335  1  0.605570  0.000330  0.430260  1.0  -0.124
  C  C336  1  0.489570  0.036830  0.412430  1.0  -0.0268
  C  C337  1  0.449870  0.077830  0.416630  1.0  0.0975
  C  C338  1  0.388870  0.064830  0.385530  1.0  -0.1399
  C  C339  1  0.360470  0.109230  0.398030  1.0  -0.0426
  C  C340  1  0.391470  0.163130  0.440230  1.0  -0.0449
  C  C341  1  0.453570  0.176130  0.471530  1.0  -0.1245
  C  C342  1  0.482570  0.131930  0.458730  1.0  0.1362
  C  C343  1  0.545170  0.131030  0.485330  1.0  -0.0387
  C  C344  1  0.755470  0.105630  0.574800  1.0  0.7089
  C  C345  1  0.330530  0.261170  0.734880  1.0  0.7375
  C  C346  1  0.327030  0.317470  0.773780  1.0  -0.1078
  C  C347  1  0.378130  0.353470  0.819600  1.0  0.02
  C  C348  1  0.372630  0.404470  0.854960  1.0  -0.0539
  C  C349  1  0.319330  0.421570  0.843170  1.0  -0.0908
  C  C350  1  0.268530  0.386770  0.797580  1.0  0.1641
  C  C351  1  0.272230  0.333670  0.763600  1.0  -0.124
  C  C352  1  0.156230  0.370170  0.745770  1.0  -0.0268
  C  C353  1  0.116530  0.411170  0.749970  1.0  0.0975
  C  C354  1  0.055530  0.398170  0.718870  1.0  -0.1402
  C  C355  1  0.027130  0.442570  0.731370  1.0  -0.0426
  C  C356  1  0.058130  0.496470  0.773570  1.0  -0.0449
  C  C357  1  0.120230  0.509470  0.804870  1.0  -0.1244
  C  C358  1  0.149230  0.465270  0.792070  1.0  0.1362
  C  C359  1  0.211830  0.464370  0.818670  1.0  -0.0388
  C  C360  1  0.422130  0.438970  0.908140  1.0  0.7093
  C  C361  1  0.594500  0.597300  0.931790  1.0  0.7378
  C  C362  1  0.650800  0.657100  0.892890  1.0  -0.105
  C  C363  1  0.686800  0.642000  0.847070  1.0  0.0186
  C  C364  1  0.737800  0.698500  0.811710  1.0  -0.0535
  C  C365  1  0.754900  0.768900  0.823500  1.0  -0.0896
  C  C366  1  0.720100  0.784900  0.869090  1.0  0.1651
  C  C367  1  0.667000  0.728100  0.903070  1.0  -0.1236
  C  C368  1  0.703500  0.880600  0.920900  1.0  -0.0327
  C  C369  1  0.744500  0.961300  0.916700  1.0  0.1038
  C  C370  1  0.731500  0.009300  0.947800  1.0  -0.1418
  C  C371  1  0.775900  0.082100  0.935300  1.0  -0.0385
  C  C372  1  0.829800  0.105000  0.893100  1.0  -0.0441
  C  C373  1  0.842800  0.055900  0.861800  1.0  -0.1264
  C  C374  1  0.798600  0.982700  0.874600  1.0  0.1322
  C  C375  1  0.797700  0.919200  0.848000  1.0  -0.0371
  C  C376  1  0.772300  0.683500  0.758530  1.0  0.7088
  C  C377  1  0.261170  0.930630  0.265120  1.0  0.7377
  C  C378  1  0.317470  0.990430  0.226220  1.0  -0.105
  C  C379  1  0.353470  0.975330  0.180400  1.0  0.0186
  C  C380  1  0.404470  0.031830  0.145040  1.0  -0.0535
  C  C381  1  0.421570  0.102230  0.156830  1.0  -0.0896
  C  C382  1  0.386770  0.118230  0.202420  1.0  0.1651
  C  C383  1  0.333670  0.061430  0.236400  1.0  -0.1236
  C  C384  1  0.370170  0.213930  0.254230  1.0  -0.0327
  C  C385  1  0.411170  0.294630  0.250030  1.0  0.1038
  C  C386  1  0.398170  0.342630  0.281130  1.0  -0.1418
  C  C387  1  0.442570  0.415430  0.268630  1.0  -0.0385
  C  C388  1  0.496470  0.438330  0.226430  1.0  -0.0441
  C  C389  1  0.509470  0.389230  0.195130  1.0  -0.1264
  C  C390  1  0.465270  0.316030  0.207930  1.0  0.1322
  C  C391  1  0.464370  0.252530  0.181330  1.0  -0.0371
  C  C392  1  0.438970  0.016830  0.091860  1.0  0.7088
  C  C393  1  0.927830  0.263970  0.598460  1.0  0.7378
  C  C394  1  0.984130  0.323770  0.559560  1.0  -0.105
  C  C395  1  0.020130  0.308670  0.513740  1.0  0.0192
  C  C396  1  0.071130  0.365170  0.478380  1.0  -0.0535
  C  C397  1  0.088230  0.435570  0.490170  1.0  -0.0899
  C  C398  1  0.053430  0.451570  0.535760  1.0  0.165
  C  C399  1  0.000330  0.394770  0.569740  1.0  -0.1236
  C  C400  1  0.036830  0.547270  0.587570  1.0  -0.0327
  C  C401  1  0.077830  0.627970  0.583370  1.0  0.1038
  C  C402  1  0.064830  0.675970  0.614470  1.0  -0.1415
  C  C403  1  0.109230  0.748770  0.601970  1.0  -0.0385
  C  C404  1  0.163130  0.771670  0.559770  1.0  -0.0441
  C  C405  1  0.176130  0.722570  0.528470  1.0  -0.1263
  C  C406  1  0.131930  0.649370  0.541270  1.0  0.1319
  C  C407  1  0.131030  0.585870  0.514670  1.0  -0.0371
  C  C408  1  0.105630  0.350170  0.425200  1.0  0.7085
  C  C409  1  0.402700  0.997200  0.931790  1.0  0.7377
  C  C410  1  0.342900  0.993700  0.892890  1.0  -0.106
  C  C411  1  0.358000  0.044800  0.847070  1.0  0.0178
  C  C412  1  0.301500  0.039300  0.811710  1.0  -0.0481
  C  C413  1  0.231100  0.986000  0.823500  1.0  -0.0888
  C  C414  1  0.215100  0.935200  0.869090  1.0  0.163
  C  C415  1  0.271900  0.938900  0.903070  1.0  -0.123
  C  C416  1  0.119400  0.822900  0.920900  1.0  -0.0294
  C  C417  1  0.038700  0.783200  0.916700  1.0  0.103
  C  C418  1  0.990700  0.722200  0.947800  1.0  -0.1435
  C  C419  1  0.917900  0.693800  0.935300  1.0  -0.0412
  C  C420  1  0.895000  0.724800  0.893100  1.0  -0.0469
  C  C421  1  0.944100  0.786900  0.861800  1.0  -0.1258
  C  C422  1  0.017300  0.815900  0.874600  1.0  0.1356
  C  C423  1  0.080800  0.878500  0.848000  1.0  -0.0356
  C  C424  1  0.316500  0.088800  0.758530  1.0  0.7103
  C  C425  1  0.069370  0.330530  0.265120  1.0  0.7377
  C  C426  1  0.009570  0.327030  0.226220  1.0  -0.1059
  C  C427  1  0.024670  0.378130  0.180400  1.0  0.0178
  C  C428  1  0.968170  0.372630  0.145040  1.0  -0.0481
  C  C429  1  0.897770  0.319330  0.156830  1.0  -0.0888
  C  C430  1  0.881770  0.268530  0.202420  1.0  0.163
  C  C431  1  0.938570  0.272230  0.236400  1.0  -0.123
  C  C432  1  0.786070  0.156230  0.254230  1.0  -0.0294
  C  C433  1  0.705370  0.116530  0.250030  1.0  0.103
  C  C434  1  0.657370  0.055530  0.281130  1.0  -0.1435
  C  C435  1  0.584570  0.027130  0.268630  1.0  -0.0412
  C  C436  1  0.561670  0.058130  0.226430  1.0  -0.0469
  C  C437  1  0.610770  0.120230  0.195130  1.0  -0.1258
  C  C438  1  0.683970  0.149230  0.207930  1.0  0.1356
  C  C439  1  0.747470  0.211830  0.181330  1.0  -0.0356
  C  C440  1  0.983170  0.422130  0.091860  1.0  0.7103
  C  C441  1  0.736030  0.663870  0.598460  1.0  0.7376
  C  C442  1  0.676230  0.660370  0.559560  1.0  -0.1059
  C  C443  1  0.691330  0.711470  0.513740  1.0  0.0178
  C  C444  1  0.634830  0.705970  0.478380  1.0  -0.048
  C  C445  1  0.564430  0.652670  0.490170  1.0  -0.0889
  C  C446  1  0.548430  0.601870  0.535760  1.0  0.1631
  C  C447  1  0.605230  0.605570  0.569740  1.0  -0.123
  C  C448  1  0.452730  0.489570  0.587570  1.0  -0.0294
  C  C449  1  0.372030  0.449870  0.583370  1.0  0.103
  C  C450  1  0.324030  0.388870  0.614470  1.0  -0.1437
  C  C451  1  0.251230  0.360470  0.601970  1.0  -0.0412
  C  C452  1  0.228330  0.391470  0.559770  1.0  -0.0469
  C  C453  1  0.277430  0.453570  0.528470  1.0  -0.1258
  C  C454  1  0.350630  0.482570  0.541270  1.0  0.1358
  C  C455  1  0.414130  0.545170  0.514670  1.0  -0.0354
  C  C456  1  0.649830  0.755470  0.425200  1.0  0.7102
  C  C457  1  0.002800  0.405500  0.931790  1.0  0.7379
  C  C458  1  0.006300  0.349200  0.892890  1.0  -0.1075
  C  C459  1  0.955200  0.313200  0.847070  1.0  0.0199
  C  C460  1  0.960700  0.262200  0.811710  1.0  -0.0576
  C  C461  1  0.014000  0.245100  0.823500  1.0  -0.0883
  C  C462  1  0.064800  0.279900  0.869090  1.0  0.1626
  C  C463  1  0.061100  0.333000  0.903070  1.0  -0.1224
  C  C464  1  0.177100  0.296500  0.920900  1.0  -0.0251
  C  C465  1  0.216800  0.255500  0.916700  1.0  0.1043
  C  C466  1  0.277800  0.268500  0.947800  1.0  -0.1412
  C  C467  1  0.306200  0.224100  0.935300  1.0  -0.0427
  C  C468  1  0.275200  0.170200  0.893100  1.0  -0.044
  C  C469  1  0.213100  0.157200  0.861800  1.0  -0.124
  C  C470  1  0.184100  0.201400  0.874600  1.0  0.1369
  C  C471  1  0.121500  0.202300  0.848000  1.0  -0.0345
  C  C472  1  0.911200  0.227700  0.758530  1.0  0.7099
  C  C473  1  0.669470  0.738830  0.265120  1.0  0.7378
  C  C474  1  0.672970  0.682530  0.226220  1.0  -0.1075
  C  C475  1  0.621870  0.646530  0.180400  1.0  0.0199
  C  C476  1  0.627370  0.595530  0.145040  1.0  -0.0576
  C  C477  1  0.680670  0.578430  0.156830  1.0  -0.0883
  C  C478  1  0.731470  0.613230  0.202420  1.0  0.1626
  C  C479  1  0.727770  0.666330  0.236400  1.0  -0.1224
  C  C480  1  0.843770  0.629830  0.254230  1.0  -0.0251
  C  C481  1  0.883470  0.588830  0.250030  1.0  0.1043
  C  C482  1  0.944470  0.601830  0.281130  1.0  -0.1412
  C  C483  1  0.972870  0.557430  0.268630  1.0  -0.0427
  C  C484  1  0.941870  0.503530  0.226430  1.0  -0.044
  C  C485  1  0.879770  0.490530  0.195130  1.0  -0.124
  C  C486  1  0.850770  0.534730  0.207930  1.0  0.1369
  C  C487  1  0.788170  0.535630  0.181330  1.0  -0.0345
  C  C488  1  0.577870  0.561030  0.091860  1.0  0.7099
  C  C489  1  0.336130  0.072170  0.598460  1.0  0.7378
  C  C490  1  0.339630  0.015870  0.559560  1.0  -0.1075
  C  C491  1  0.288530  0.979870  0.513740  1.0  0.0199
  C  C492  1  0.294030  0.928870  0.478380  1.0  -0.0576
  C  C493  1  0.347330  0.911770  0.490170  1.0  -0.0885
  C  C494  1  0.398130  0.946570  0.535760  1.0  0.1626
  C  C495  1  0.394430  0.999670  0.569740  1.0  -0.1224
  C  C496  1  0.510430  0.963170  0.587570  1.0  -0.0251
  C  C497  1  0.550130  0.922170  0.583370  1.0  0.1043
  C  C498  1  0.611130  0.935170  0.614470  1.0  -0.141
  C  C499  1  0.639530  0.890770  0.601970  1.0  -0.0427
  C  C500  1  0.608530  0.836870  0.559770  1.0  -0.044
  C  C501  1  0.546430  0.823870  0.528470  1.0  -0.1241
  C  C502  1  0.517430  0.868070  0.541270  1.0  0.1369
  C  C503  1  0.454830  0.868970  0.514670  1.0  -0.0345
  C  C504  1  0.244530  0.894370  0.425200  1.0  0.7095
  N  N505  1  0.260110  0.142070  0.120550  1.0  -0.1562
  N  N506  1  0.926780  0.475400  0.453880  1.0  -0.1562
  N  N507  1  0.593440  0.808740  0.787220  1.0  -0.1562
  N  N508  1  0.857930  0.118040  0.120550  1.0  -0.1555
  N  N509  1  0.524600  0.451370  0.453880  1.0  -0.1555
  N  N510  1  0.191260  0.784710  0.787220  1.0  -0.1555
  N  N511  1  0.881960  0.739890  0.120550  1.0  -0.1532
  N  N512  1  0.548630  0.073220  0.453880  1.0  -0.1532
  N  N513  1  0.215290  0.406560  0.787220  1.0  -0.1532
  N  N514  1  0.739890  0.857930  0.879450  1.0  -0.1545
  N  N515  1  0.406560  0.191260  0.212780  1.0  -0.1545
  N  N516  1  0.073220  0.524600  0.546120  1.0  -0.1545
  N  N517  1  0.142070  0.881960  0.879450  1.0  -0.1561
  N  N518  1  0.808740  0.215290  0.212780  1.0  -0.1561
  N  N519  1  0.475400  0.548630  0.546120  1.0  -0.1561
  N  N520  1  0.118040  0.260110  0.879450  1.0  -0.1561
  N  N521  1  0.784710  0.593440  0.212780  1.0  -0.1561
  N  N522  1  0.451370  0.926780  0.546120  1.0  -0.156
  O  O523  1  0.450550  0.389730  0.042550  1.0  -0.5177
  O  O524  1  0.247210  0.381220  0.253280  1.0  -0.5264
  O  O525  1  0.401330  0.458660  0.061890  1.0  -0.5392
  O  O526  1  0.180670  0.261440  0.270880  1.0  -0.5482
  O  O527  1  0.349700  0.156800  0.050840  1.0  -0.5656
  O  O528  1  0.170400  0.081000  0.190500  1.0  -0.5935
  O  O529  1  0.117220  0.723060  0.375880  1.0  -0.5177
  O  O530  1  0.913880  0.714550  0.586610  1.0  -0.5263
  O  O531  1  0.068000  0.791990  0.395220  1.0  -0.5389
  O  O532  1  0.847340  0.594770  0.604210  1.0  -0.5483
  O  O533  1  0.016370  0.490130  0.384170  1.0  -0.5656
  O  O534  1  0.837070  0.414330  0.523830  1.0  -0.6057
  O  O535  1  0.783880  0.056400  0.709220  1.0  -0.5177
  O  O536  1  0.580540  0.047890  0.919950  1.0  -0.5264
  O  O537  1  0.734660  0.125330  0.728560  1.0  -0.5391
  O  O538  1  0.514000  0.928110  0.937550  1.0  -0.5482
  O  O539  1  0.683030  0.823470  0.717510  1.0  -0.5656
  O  O540  1  0.503730  0.747670  0.857170  1.0  -0.5935
  O  O541  1  0.610270  0.060820  0.042550  1.0  -0.5206
  O  O542  1  0.618780  0.865990  0.253280  1.0  -0.527
  O  O543  1  0.541340  0.942670  0.061890  1.0  -0.5422
  O  O544  1  0.738560  0.919230  0.270880  1.0  -0.5475
  O  O545  1  0.843200  0.192900  0.050840  1.0  -0.571
  O  O546  1  0.919000  0.089400  0.190500  1.0  -0.6068
  O  O547  1  0.276940  0.394150  0.375880  1.0  -0.5206
  O  O548  1  0.285450  0.199320  0.586610  1.0  -0.527
  O  O549  1  0.208010  0.276000  0.395220  1.0  -0.5418
  O  O550  1  0.405230  0.252560  0.604210  1.0  -0.5475
  O  O551  1  0.509870  0.526230  0.384170  1.0  -0.571
  O  O552  1  0.585670  0.422730  0.523830  1.0  -0.5989
  O  O553  1  0.943600  0.727490  0.709220  1.0  -0.5206
  O  O554  1  0.952110  0.532660  0.919950  1.0  -0.527
  O  O555  1  0.874670  0.609340  0.728560  1.0  -0.5422
  O  O556  1  0.071890  0.585900  0.937550  1.0  -0.5475
  O  O557  1  0.176530  0.859570  0.717510  1.0  -0.571
  O  O558  1  0.252330  0.756070  0.857170  1.0  -0.6068
  O  O559  1  0.939180  0.549450  0.042550  1.0  -0.5211
  O  O560  1  0.134010  0.752790  0.253280  1.0  -0.5262
  O  O561  1  0.057330  0.598670  0.061890  1.0  -0.5399
  O  O562  1  0.080770  0.819330  0.270880  1.0  -0.5477
  O  O563  1  0.807100  0.650300  0.050840  1.0  -0.5644
  O  O564  1  0.910600  0.829600  0.190500  1.0  -0.5932
  O  O565  1  0.605850  0.882780  0.375880  1.0  -0.5212
  O  O566  1  0.800680  0.086120  0.586610  1.0  -0.5261
  O  O567  1  0.724000  0.932000  0.395220  1.0  -0.5398
  O  O568  1  0.747440  0.152660  0.604210  1.0  -0.5477
  O  O569  1  0.473770  0.983630  0.384170  1.0  -0.5645
  O  O570  1  0.577270  0.162930  0.523830  1.0  -0.6048
  O  O571  1  0.272510  0.216120  0.709220  1.0  -0.5211
  O  O572  1  0.467340  0.419460  0.919950  1.0  -0.5262
  O  O573  1  0.390660  0.265340  0.728560  1.0  -0.5398
  O  O574  1  0.414100  0.486000  0.937550  1.0  -0.5477
  O  O575  1  0.140430  0.316970  0.717510  1.0  -0.5644
  O  O576  1  0.243930  0.496270  0.857170  1.0  -0.5932
  O  O577  1  0.549450  0.610270  0.957450  1.0  -0.5169
  O  O578  1  0.752790  0.618780  0.746720  1.0  -0.5263
  O  O579  1  0.598670  0.541340  0.938110  1.0  -0.5384
  O  O580  1  0.819330  0.738560  0.729120  1.0  -0.5475
  O  O581  1  0.650300  0.843200  0.949160  1.0  -0.5693
  O  O582  1  0.829600  0.919000  0.809500  1.0  -0.589
  O  O583  1  0.216120  0.943600  0.290780  1.0  -0.5169
  O  O584  1  0.419460  0.952110  0.080050  1.0  -0.5263
  O  O585  1  0.265340  0.874670  0.271440  1.0  -0.5382
  O  O586  1  0.486000  0.071890  0.062450  1.0  -0.5475
  O  O587  1  0.316970  0.176530  0.282490  1.0  -0.5693
  O  O588  1  0.496270  0.252330  0.142830  1.0  -0.589
  O  O589  1  0.882780  0.276940  0.624120  1.0  -0.5169
  O  O590  1  0.086120  0.285450  0.413390  1.0  -0.5264
  O  O591  1  0.932000  0.208010  0.604780  1.0  -0.5376
  O  O592  1  0.152660  0.405230  0.395790  1.0  -0.5475
  O  O593  1  0.983630  0.509870  0.615830  1.0  -0.5693
  O  O594  1  0.162930  0.585670  0.476170  1.0  -0.602
  O  O595  1  0.389730  0.939180  0.957450  1.0  -0.52
  O  O596  1  0.381220  0.134010  0.746720  1.0  -0.5256
  O  O597  1  0.458660  0.057330  0.938110  1.0  -0.5401
  O  O598  1  0.261440  0.080770  0.729120  1.0  -0.5479
  O  O599  1  0.156800  0.807100  0.949160  1.0  -0.5573
  O  O600  1  0.081000  0.910600  0.809500  1.0  -0.5991
  O  O601  1  0.056400  0.272510  0.290780  1.0  -0.52
  O  O602  1  0.047890  0.467340  0.080050  1.0  -0.5256
  O  O603  1  0.125330  0.390660  0.271440  1.0  -0.5401
  O  O604  1  0.928110  0.414100  0.062450  1.0  -0.5479
  O  O605  1  0.823470  0.140430  0.282490  1.0  -0.5573
  O  O606  1  0.747670  0.243930  0.142830  1.0  -0.5991
  O  O607  1  0.723060  0.605850  0.624120  1.0  -0.52
  O  O608  1  0.714550  0.800680  0.413390  1.0  -0.5256
  O  O609  1  0.791990  0.724000  0.604780  1.0  -0.5397
  O  O610  1  0.594770  0.747440  0.395790  1.0  -0.5479
  O  O611  1  0.490130  0.473770  0.615830  1.0  -0.5574
  O  O612  1  0.414330  0.577270  0.476170  1.0  -0.5927
  O  O613  1  0.060820  0.450550  0.957450  1.0  -0.5196
  O  O614  1  0.865990  0.247210  0.746720  1.0  -0.526
  O  O615  1  0.942670  0.401330  0.938110  1.0  -0.5381
  O  O616  1  0.919230  0.180670  0.729120  1.0  -0.5478
  O  O617  1  0.192900  0.349700  0.949160  1.0  -0.5703
  O  O618  1  0.089400  0.170400  0.809500  1.0  -0.597
  O  O619  1  0.727490  0.783880  0.290780  1.0  -0.5196
  O  O620  1  0.532660  0.580540  0.080050  1.0  -0.526
  O  O621  1  0.609340  0.734660  0.271440  1.0  -0.538
  O  O622  1  0.585900  0.514000  0.062450  1.0  -0.5478
  O  O623  1  0.859570  0.683030  0.282490  1.0  -0.5703
  O  O624  1  0.756070  0.503730  0.142830  1.0  -0.597
  O  O625  1  0.394150  0.117220  0.624120  1.0  -0.5196
  O  O626  1  0.199320  0.913880  0.413390  1.0  -0.5259
  O  O627  1  0.276000  0.068000  0.604780  1.0  -0.5379
  O  O628  1  0.252560  0.847340  0.395790  1.0  -0.5478
  O  O629  1  0.526230  0.016370  0.615830  1.0  -0.5704
  O  O630  1  0.422730  0.837070  0.476170  1.0  -0.6072
