# generated using pymatgen
data_CoHC5O4
_symmetry_space_group_name_H-M   'P 1'
_cell_length_a   9.40980000
_cell_length_b   9.40980000
_cell_length_c   11.74200000
_cell_angle_alpha   90.31820000
_cell_angle_beta   90.31820000
_cell_angle_gamma   110.04100000
_symmetry_Int_Tables_number   1
_chemical_formula_structural   CoHC5O4
_chemical_formula_sum   'Co4 H4 C20 O16'
_cell_volume   976.68622000
_cell_formula_units_Z   4
loop_
 _symmetry_equiv_pos_site_id
 _symmetry_equiv_pos_as_xyz
  1  'x, y, z'
loop_
 _atom_site_type_symbol
 _atom_site_label
 _atom_site_symmetry_multiplicity
 _atom_site_fract_x
 _atom_site_fract_y
 _atom_site_fract_z
 _atom_site_occupancy
 _atom_site_charge
  Co  Co1  1  0.112780  0.887220  0.500000  1.0  1.0115
  Co  Co2  1  0.858500  0.868700  0.688480  1.0  1.1232
  Co  Co3  1  0.887220  0.112780  0.000000  1.0  1.0084
  Co  Co4  1  0.868700  0.858500  0.188480  1.0  1.1241
  H  H5  1  0.931000  0.434800  0.234600  1.0  0.1245
  H  H6  1  0.877700  0.330900  0.617800  1.0  0.1073
  H  H7  1  0.434800  0.931000  0.734600  1.0  0.1245
  H  H8  1  0.330900  0.877700  0.117800  1.0  0.1069
  C  C9  1  0.861600  0.596600  0.590400  1.0  0.6826
  C  C10  1  0.908300  0.665700  0.329800  1.0  0.6931
  C  C11  1  0.918200  0.157800  0.260800  1.0  0.7154
  C  C12  1  0.934400  0.110000  0.520100  1.0  0.7255
  C  C13  1  0.891000  0.493200  0.504000  1.0  -0.1099
  C  C14  1  0.907800  0.523800  0.387300  1.0  -0.0832
  C  C15  1  0.922000  0.414200  0.312100  1.0  -0.0282
  C  C16  1  0.923000  0.275000  0.350400  1.0  -0.1012
  C  C17  1  0.913000  0.245400  0.468300  1.0  -0.0622
  C  C18  1  0.891900  0.353300  0.540800  1.0  -0.0083
  C  C19  1  0.596600  0.861600  0.090400  1.0  0.6825
  C  C20  1  0.665700  0.908300  0.829800  1.0  0.6918
  C  C21  1  0.157800  0.918200  0.760800  1.0  0.7136
  C  C22  1  0.110000  0.934400  0.020100  1.0  0.7232
  C  C23  1  0.493200  0.891000  0.004000  1.0  -0.1106
  C  C24  1  0.523800  0.907800  0.887300  1.0  -0.0827
  C  C25  1  0.414200  0.922000  0.812100  1.0  -0.0282
  C  C26  1  0.275000  0.923000  0.850400  1.0  -0.1001
  C  C27  1  0.245400  0.913000  0.968300  1.0  -0.0622
  C  C28  1  0.353300  0.891900  0.040800  1.0  -0.0101
  O  O29  1  0.901700  0.740700  0.565100  1.0  -0.704
  O  O30  1  0.799500  0.547900  0.677600  1.0  -0.4866
  O  O31  1  0.005700  0.793700  0.345800  1.0  -0.6368
  O  O32  1  0.805300  0.648300  0.253100  1.0  -0.5497
  O  O33  1  0.959900  0.202900  0.162900  1.0  -0.6256
  O  O34  1  0.864200  0.021800  0.291400  1.0  -0.5627
  O  O35  1  0.043800  0.071000  0.485600  1.0  -0.63
  O  O36  1  0.847000  0.044200  0.598900  1.0  -0.5888
  O  O37  1  0.740700  0.901700  0.065100  1.0  -0.7028
  O  O38  1  0.547900  0.799500  0.177600  1.0  -0.4865
  O  O39  1  0.793700  0.005700  0.845800  1.0  -0.633
  O  O40  1  0.648300  0.805300  0.753100  1.0  -0.5478
  O  O41  1  0.202900  0.959900  0.662900  1.0  -0.6252
  O  O42  1  0.021800  0.864200  0.791400  1.0  -0.5613
  O  O43  1  0.071000  0.043800  0.985600  1.0  -0.6415
  O  O44  1  0.044200  0.847000  0.098900  1.0  -0.5889
