# generated using pymatgen
data_V2NiH12C15N3O4
_symmetry_space_group_name_H-M   'P 1'
_cell_length_a   11.24020000
_cell_length_b   11.53660000
_cell_length_c   16.19630000
_cell_angle_alpha   104.94500000
_cell_angle_beta   110.30400000
_cell_angle_gamma   90.00000000
_symmetry_Int_Tables_number   1
_chemical_formula_structural   V2NiH12C15N3O4
_chemical_formula_sum   'V8 Ni4 H48 C60 N12 O16'
_cell_volume   1893.80335990
_cell_formula_units_Z   4
loop_
 _symmetry_equiv_pos_site_id
 _symmetry_equiv_pos_as_xyz
  1  'x, y, z'
loop_
 _atom_site_type_symbol
 _atom_site_label
 _atom_site_symmetry_multiplicity
 _atom_site_fract_x
 _atom_site_fract_y
 _atom_site_fract_z
 _atom_site_occupancy
 _atom_site_charge
  V  V1  1  0.195270  0.178630  0.213660  1.0  1.2042
  V  V2  1  0.051290  0.435830  0.289660  1.0  1.209
  V  V3  1  0.981610  0.321370  0.786340  1.0  1.197
  V  V4  1  0.761630  0.064170  0.710340  1.0  1.2078
  V  V5  1  0.804730  0.821370  0.786340  1.0  1.2029
  V  V6  1  0.948710  0.564170  0.710340  1.0  1.2079
  V  V7  1  0.018390  0.678630  0.213660  1.0  1.1957
  V  V8  1  0.238370  0.935830  0.289660  1.0  1.2109
  Ni  Ni9  1  0.000000  0.500000  0.500000  1.0  0.6888
  Ni  Ni10  1  0.500000  0.000000  0.500000  1.0  0.6888
  Ni  Ni11  1  0.000000  0.500000  0.000000  1.0  0.4528
  Ni  Ni12  1  0.000000  0.000000  0.000000  1.0  0.4528
  H  H13  1  0.140000  0.359000  0.640000  1.0  0.0462
  H  H14  1  0.326000  0.363000  0.736000  1.0  0.0953
  H  H15  1  0.473000  0.636000  0.682000  1.0  0.1093
  H  H16  1  0.264000  0.640000  0.578000  1.0  0.0739
  H  H17  1  0.567000  0.310000  0.764000  1.0  0.1062
  H  H18  1  0.781000  0.322000  0.870000  1.0  0.057
  H  H19  1  0.806000  0.669000  0.942000  1.0  0.0746
  H  H20  1  0.617000  0.671000  0.844000  1.0  0.094
  H  H21  1  0.877000  0.313000  0.560000  1.0  0.075
  H  H22  1  0.877000  0.123000  0.574000  1.0  0.1202
  H  H23  1  0.101300  0.065500  0.407000  1.0  0.1152
  H  H24  1  0.082000  0.256000  0.400000  1.0  0.091
  H  H25  1  0.500000  0.141000  0.360000  1.0  0.0459
  H  H26  1  0.590000  0.137000  0.264000  1.0  0.0962
  H  H27  1  0.791000  0.864000  0.318000  1.0  0.1078
  H  H28  1  0.686000  0.860000  0.422000  1.0  0.0739
  H  H29  1  0.803000  0.190000  0.236000  1.0  0.1056
  H  H30  1  0.911000  0.178000  0.130000  1.0  0.0558
  H  H31  1  0.864000  0.831000  0.058000  1.0  0.0735
  H  H32  1  0.773000  0.829000  0.156000  1.0  0.0908
  H  H33  1  0.317000  0.187000  0.440000  1.0  0.0753
  H  H34  1  0.303000  0.377000  0.426000  1.0  0.1191
  H  H35  1  0.694300  0.434500  0.593000  1.0  0.1164
  H  H36  1  0.682000  0.244000  0.600000  1.0  0.0892
  H  H37  1  0.860000  0.641000  0.360000  1.0  0.0454
  H  H38  1  0.674000  0.637000  0.264000  1.0  0.0959
  H  H39  1  0.527000  0.364000  0.318000  1.0  0.1093
  H  H40  1  0.736000  0.360000  0.422000  1.0  0.074
  H  H41  1  0.433000  0.690000  0.236000  1.0  0.1058
  H  H42  1  0.219000  0.678000  0.130000  1.0  0.057
  H  H43  1  0.194000  0.331000  0.058000  1.0  0.0742
  H  H44  1  0.383000  0.329000  0.156000  1.0  0.0932
  H  H45  1  0.123000  0.687000  0.440000  1.0  0.0757
  H  H46  1  0.123000  0.877000  0.426000  1.0  0.1197
  H  H47  1  0.898700  0.934500  0.593000  1.0  0.1161
  H  H48  1  0.918000  0.744000  0.600000  1.0  0.0904
  H  H49  1  0.500000  0.859000  0.640000  1.0  0.0466
  H  H50  1  0.410000  0.863000  0.736000  1.0  0.097
  H  H51  1  0.209000  0.136000  0.682000  1.0  0.1094
  H  H52  1  0.314000  0.140000  0.578000  1.0  0.0736
  H  H53  1  0.197000  0.810000  0.764000  1.0  0.1056
  H  H54  1  0.089000  0.822000  0.870000  1.0  0.0561
  H  H55  1  0.136000  0.169000  0.942000  1.0  0.0744
  H  H56  1  0.227000  0.171000  0.844000  1.0  0.0919
  H  H57  1  0.683000  0.813000  0.560000  1.0  0.0753
  H  H58  1  0.697000  0.623000  0.574000  1.0  0.1192
  H  H59  1  0.305700  0.565500  0.407000  1.0  0.1144
  H  H60  1  0.318000  0.756000  0.400000  1.0  0.0894
  C  C61  1  0.211100  0.418900  0.647600  1.0  0.09
  C  C62  1  0.329500  0.414200  0.711200  1.0  -0.1496
  C  C63  1  0.429900  0.497100  0.728800  1.0  0.0895
  C  C64  1  0.404500  0.583300  0.679200  1.0  -0.1839
  C  C65  1  0.284200  0.580500  0.616400  1.0  0.1366
  C  C66  1  0.559100  0.494700  0.795400  1.0  0.0933
  C  C67  1  0.610200  0.388100  0.807000  1.0  -0.2022
  C  C68  1  0.733300  0.392400  0.867400  1.0  0.1385
  C  C69  1  0.758100  0.597000  0.905600  1.0  0.1658
  C  C70  1  0.635500  0.601100  0.847600  1.0  -0.1786
  C  C71  1  0.916750  0.257200  0.527700  1.0  0.132
  C  C72  1  0.923400  0.140900  0.536200  1.0  -0.1963
  C  C73  1  0.992020  0.062000  0.494040  1.0  0.0796
  C  C74  1  0.045200  0.106000  0.442000  1.0  -0.1689
  C  C75  1  0.032900  0.223600  0.434800  1.0  0.116
  C  C76  1  0.563500  0.081100  0.352400  1.0  0.0902
  C  C77  1  0.618300  0.085800  0.288800  1.0  -0.1499
  C  C78  1  0.701100  0.002900  0.271200  1.0  0.0864
  C  C79  1  0.725300  0.916700  0.320800  1.0  -0.1835
  C  C80  1  0.667800  0.919500  0.383600  1.0  0.1375
  C  C81  1  0.763700  0.005300  0.204600  1.0  0.0921
  C  C82  1  0.803200  0.111900  0.193000  1.0  -0.1915
  C  C83  1  0.865900  0.107600  0.132600  1.0  0.1393
  C  C84  1  0.852500  0.903000  0.094400  1.0  0.1651
  C  C85  1  0.787900  0.898900  0.152400  1.0  -0.1778
  C  C86  1  0.389050  0.242800  0.472300  1.0  0.1327
  C  C87  1  0.387200  0.359100  0.463800  1.0  -0.1908
  C  C88  1  0.497980  0.438000  0.505960  1.0  0.0798
  C  C89  1  0.603200  0.394000  0.558000  1.0  -0.1733
  C  C90  1  0.598100  0.276400  0.565200  1.0  0.1156
  C  C91  1  0.788900  0.581100  0.352400  1.0  0.091
  C  C92  1  0.670500  0.585800  0.288800  1.0  -0.1484
  C  C93  1  0.570100  0.502900  0.271200  1.0  0.0878
  C  C94  1  0.595500  0.416700  0.320800  1.0  -0.1827
  C  C95  1  0.715800  0.419500  0.383600  1.0  0.1374
  C  C96  1  0.440900  0.505300  0.204600  1.0  0.092
  C  C97  1  0.389800  0.611900  0.193000  1.0  -0.2002
  C  C98  1  0.266700  0.607600  0.132600  1.0  0.1392
  C  C99  1  0.241900  0.403000  0.094400  1.0  0.1644
  C  C100  1  0.364500  0.398900  0.152400  1.0  -0.1794
  C  C101  1  0.083250  0.742800  0.472300  1.0  0.1327
  C  C102  1  0.076600  0.859100  0.463800  1.0  -0.1928
  C  C103  1  0.007980  0.938000  0.505960  1.0  0.0797
  C  C104  1  0.954800  0.894000  0.558000  1.0  -0.1766
  C  C105  1  0.967100  0.776400  0.565200  1.0  0.1147
  C  C106  1  0.436500  0.918900  0.647600  1.0  0.09
  C  C107  1  0.381700  0.914200  0.711200  1.0  -0.1503
  C  C108  1  0.298900  0.997100  0.728800  1.0  0.0872
  C  C109  1  0.274700  0.083300  0.679200  1.0  -0.1813
  C  C110  1  0.332200  0.080500  0.616400  1.0  0.1363
  C  C111  1  0.236300  0.994700  0.795400  1.0  0.0926
  C  C112  1  0.196800  0.888100  0.807000  1.0  -0.1969
  C  C113  1  0.134100  0.892400  0.867400  1.0  0.1384
  C  C114  1  0.147500  0.097000  0.905600  1.0  0.1635
  C  C115  1  0.212100  0.101100  0.847600  1.0  -0.1767
  C  C116  1  0.610950  0.757200  0.527700  1.0  0.1331
  C  C117  1  0.612800  0.640900  0.536200  1.0  -0.1907
  C  C118  1  0.502020  0.562000  0.494040  1.0  0.0797
  C  C119  1  0.396800  0.606000  0.442000  1.0  -0.1736
  C  C120  1  0.401900  0.723600  0.434800  1.0  0.117
  N  N121  1  0.187180  0.498800  0.599160  1.0  -0.3065
  N  N122  1  0.971840  0.301700  0.479480  1.0  -0.3167
  N  N123  1  0.808190  0.495100  0.916980  1.0  -0.2618
  N  N124  1  0.588020  0.001200  0.400840  1.0  -0.3066
  N  N125  1  0.492360  0.198300  0.520520  1.0  -0.3139
  N  N126  1  0.891210  0.004900  0.083020  1.0  -0.2749
  N  N127  1  0.812820  0.501200  0.400840  1.0  -0.3036
  N  N128  1  0.028160  0.698300  0.520520  1.0  -0.3137
  N  N129  1  0.191810  0.504900  0.083020  1.0  -0.2637
  N  N130  1  0.411980  0.998800  0.599160  1.0  -0.3073
  N  N131  1  0.507640  0.801700  0.479480  1.0  -0.3166
  N  N132  1  0.108790  0.995100  0.916980  1.0  -0.2646
  O  O133  1  0.074690  0.471900  0.400580  1.0  -0.7395
  O  O134  1  0.121860  0.136600  0.100520  1.0  -0.738
  O  O135  1  0.099650  0.565600  0.263100  1.0  -0.8051
  O  O136  1  0.146410  0.317900  0.264820  1.0  -0.8257
  O  O137  1  0.674110  0.028100  0.599420  1.0  -0.7412
  O  O138  1  0.021340  0.363400  0.899480  1.0  -0.7405
  O  O139  1  0.836550  0.934400  0.736900  1.0  -0.8079
  O  O140  1  0.881590  0.182100  0.735180  1.0  -0.825
  O  O141  1  0.925310  0.528100  0.599420  1.0  -0.7409
  O  O142  1  0.878140  0.863400  0.899480  1.0  -0.7402
  O  O143  1  0.900350  0.434400  0.736900  1.0  -0.8044
  O  O144  1  0.853590  0.682100  0.735180  1.0  -0.8252
  O  O145  1  0.325890  0.971900  0.400580  1.0  -0.7403
  O  O146  1  0.978660  0.636600  0.100520  1.0  -0.7393
  O  O147  1  0.163450  0.065600  0.263100  1.0  -0.8077
  O  O148  1  0.118410  0.817900  0.264820  1.0  -0.8254
