# generated using pymatgen
data_Cd3SiH12C25O12
_symmetry_space_group_name_H-M   'P 1'
_cell_length_a   10.40600000
_cell_length_b   27.24420000
_cell_length_c   13.17220000
_cell_angle_alpha   90.00000000
_cell_angle_beta   102.39500000
_cell_angle_gamma   90.00000000
_symmetry_Int_Tables_number   1
_chemical_formula_structural   Cd3SiH12C25O12
_chemical_formula_sum   'Cd12 Si4 H48 C100 O48'
_cell_volume   3647.31598051
_cell_formula_units_Z   4
loop_
 _symmetry_equiv_pos_site_id
 _symmetry_equiv_pos_as_xyz
  1  'x, y, z'
loop_
 _atom_site_type_symbol
 _atom_site_label
 _atom_site_symmetry_multiplicity
 _atom_site_fract_x
 _atom_site_fract_y
 _atom_site_fract_z
 _atom_site_occupancy
 _atom_site_charge
  Cd  Cd1  1  0.026640  0.070050  0.380250  1.0  1.0023
  Cd  Cd2  1  0.269890  0.882710  0.802400  1.0  0.9845
  Cd  Cd3  1  0.228850  0.188320  0.159200  1.0  1.0466
  Cd  Cd4  1  0.473360  0.570050  0.119750  1.0  1.0026
  Cd  Cd5  1  0.230110  0.382710  0.697600  1.0  0.9862
  Cd  Cd6  1  0.271150  0.688320  0.340800  1.0  1.0474
  Cd  Cd7  1  0.973360  0.929950  0.619750  1.0  1.0028
  Cd  Cd8  1  0.730110  0.117290  0.197600  1.0  0.9815
  Cd  Cd9  1  0.771150  0.811680  0.840800  1.0  1.0476
  Cd  Cd10  1  0.526640  0.429950  0.880250  1.0  1.0032
  Cd  Cd11  1  0.769890  0.617290  0.302400  1.0  0.9788
  Cd  Cd12  1  0.728850  0.311680  0.659200  1.0  1.046
  Si  Si13  1  0.650680  0.048530  0.814340  1.0  0.9759
  Si  Si14  1  0.849320  0.548530  0.685660  1.0  0.9752
  Si  Si15  1  0.349320  0.951470  0.185660  1.0  0.9749
  Si  Si16  1  0.150680  0.451470  0.314340  1.0  0.9756
  H  H17  1  0.582600  0.999600  0.940900  1.0  0.1642
  H  H18  1  0.601400  0.966400  0.847900  1.0  0.1854
  H  H19  1  0.474300  0.998600  0.837800  1.0  0.1695
  H  H20  1  0.655600  0.146600  0.737900  1.0  0.1086
  H  H21  1  0.525200  0.237400  0.933100  1.0  0.1188
  H  H22  1  0.539900  0.092200  0.985700  1.0  0.1039
  H  H23  1  0.859700  0.110500  0.933200  1.0  0.1116
  H  H24  1  0.198700  0.037000  0.960100  1.0  0.1143
  H  H25  1  0.862800  0.978900  0.796400  1.0  0.1026
  H  H26  1  0.783700  0.057900  0.636700  1.0  0.1097
  H  H27  1  0.494900  0.067000  0.381500  1.0  0.1169
  H  H28  1  0.406700  0.046500  0.660100  1.0  0.107
  H  H29  1  0.917400  0.499600  0.559100  1.0  0.1624
  H  H30  1  0.898600  0.466400  0.652100  1.0  0.186
  H  H31  1  0.025700  0.498600  0.662200  1.0  0.1679
  H  H32  1  0.844400  0.646600  0.762100  1.0  0.1086
  H  H33  1  0.974800  0.737400  0.566900  1.0  0.1183
  H  H34  1  0.960100  0.592200  0.514300  1.0  0.1032
  H  H35  1  0.640300  0.610500  0.566800  1.0  0.1116
  H  H36  1  0.301300  0.537000  0.539900  1.0  0.1139
  H  H37  1  0.637200  0.478900  0.703600  1.0  0.1031
  H  H38  1  0.716300  0.557900  0.863300  1.0  0.1093
  H  H39  1  0.005100  0.567000  0.118500  1.0  0.1161
  H  H40  1  0.093300  0.546500  0.839900  1.0  0.1062
  H  H41  1  0.417400  0.000400  0.059100  1.0  0.1628
  H  H42  1  0.398600  0.033600  0.152100  1.0  0.1849
  H  H43  1  0.525700  0.001400  0.162200  1.0  0.168
  H  H44  1  0.344400  0.853400  0.262100  1.0  0.1089
  H  H45  1  0.474800  0.762600  0.066900  1.0  0.1184
  H  H46  1  0.460100  0.907800  0.014300  1.0  0.1028
  H  H47  1  0.140300  0.889500  0.066800  1.0  0.1117
  H  H48  1  0.801300  0.963000  0.039900  1.0  0.1139
  H  H49  1  0.137200  0.021100  0.203600  1.0  0.103
  H  H50  1  0.216300  0.942100  0.363300  1.0  0.1096
  H  H51  1  0.505100  0.933000  0.618500  1.0  0.1159
  H  H52  1  0.593300  0.953500  0.339900  1.0  0.1065
  H  H53  1  0.082600  0.500400  0.440900  1.0  0.1645
  H  H54  1  0.101400  0.533600  0.347900  1.0  0.1847
  H  H55  1  0.974300  0.501400  0.337800  1.0  0.1695
  H  H56  1  0.155600  0.353400  0.237900  1.0  0.1088
  H  H57  1  0.025200  0.262600  0.433100  1.0  0.1193
  H  H58  1  0.039900  0.407800  0.485700  1.0  0.1035
  H  H59  1  0.359700  0.389500  0.433200  1.0  0.1113
  H  H60  1  0.698700  0.463000  0.460100  1.0  0.1143
  H  H61  1  0.362800  0.521100  0.296400  1.0  0.1031
  H  H62  1  0.283700  0.442100  0.136700  1.0  0.1098
  H  H63  1  0.994900  0.433000  0.881500  1.0  0.1165
  H  H64  1  0.906700  0.453500  0.160100  1.0  0.1067
  C  C65  1  0.567100  0.997080  0.866500  1.0  -0.6806
  C  C66  1  0.600700  0.110040  0.855300  1.0  -0.2906
  C  C67  1  0.622900  0.151270  0.797600  1.0  -0.0048
  C  C68  1  0.597700  0.198760  0.826400  1.0  -0.1474
  C  C69  1  0.545700  0.205950  0.914400  1.0  0.0263
  C  C70  1  0.524500  0.165830  0.974100  1.0  -0.122
  C  C71  1  0.553100  0.118710  0.944500  1.0  0.0021
  C  C72  1  0.476900  0.172310  0.073100  1.0  0.7784
  C  C73  1  0.631700  0.240540  0.763300  1.0  0.6787
  C  C74  1  0.834700  0.045120  0.858300  1.0  -0.3334
  C  C75  1  0.904600  0.082720  0.919000  1.0  0.0163
  C  C76  1  0.039000  0.079360  0.958300  1.0  -0.1427
  C  C77  1  0.108300  0.039020  0.934600  1.0  -0.0209
  C  C78  1  0.042600  0.001610  0.873000  1.0  -0.1301
  C  C79  1  0.906600  0.004450  0.836200  1.0  0.0182
  C  C80  1  0.109500  0.117800  0.030500  1.0  0.6949
  C  C81  1  0.118700  0.958230  0.848500  1.0  0.6829
  C  C82  1  0.603200  0.050790  0.669000  1.0  -0.3397
  C  C83  1  0.694400  0.057410  0.606200  1.0  0.002
  C  C84  1  0.655100  0.063240  0.499600  1.0  -0.1405
  C  C85  1  0.521800  0.063460  0.453200  1.0  0.0016
  C  C86  1  0.429300  0.058460  0.513900  1.0  -0.138
  C  C87  1  0.469500  0.051170  0.620400  1.0  0.002
  C  C88  1  0.753100  0.069090  0.431800  1.0  0.7272
  C  C89  1  0.285400  0.061060  0.464700  1.0  0.6873
  C  C90  1  0.932900  0.497080  0.633500  1.0  -0.6791
  C  C91  1  0.899300  0.610040  0.644700  1.0  -0.2902
  C  C92  1  0.877100  0.651270  0.702400  1.0  -0.0053
  C  C93  1  0.902300  0.698760  0.673600  1.0  -0.1488
  C  C94  1  0.954300  0.705950  0.585600  1.0  0.0259
  C  C95  1  0.975500  0.665830  0.525900  1.0  -0.1222
  C  C96  1  0.946900  0.618710  0.555500  1.0  0.0019
  C  C97  1  0.023100  0.672310  0.426900  1.0  0.7752
  C  C98  1  0.868300  0.740540  0.736700  1.0  0.6777
  C  C99  1  0.665300  0.545120  0.641700  1.0  -0.333
  C  C100  1  0.595400  0.582720  0.581000  1.0  0.0157
  C  C101  1  0.461000  0.579360  0.541700  1.0  -0.1429
  C  C102  1  0.391700  0.539020  0.565400  1.0  -0.0225
  C  C103  1  0.457400  0.501610  0.627000  1.0  -0.129
  C  C104  1  0.593400  0.504450  0.663800  1.0  0.0175
  C  C105  1  0.390500  0.617800  0.469500  1.0  0.6957
  C  C106  1  0.381300  0.458230  0.651500  1.0  0.6828
  C  C107  1  0.896800  0.550790  0.831000  1.0  -0.3382
  C  C108  1  0.805600  0.557410  0.893800  1.0  0.0026
  C  C109  1  0.844900  0.563240  0.000400  1.0  -0.1399
  C  C110  1  0.978200  0.563460  0.046800  1.0  0.0013
  C  C111  1  0.070700  0.558460  0.986100  1.0  -0.1387
  C  C112  1  0.030500  0.551170  0.879600  1.0  0.0021
  C  C113  1  0.746900  0.569090  0.068200  1.0  0.7268
  C  C114  1  0.214600  0.561060  0.035300  1.0  0.6848
  C  C115  1  0.432900  0.002920  0.133500  1.0  -0.6797
  C  C116  1  0.399300  0.889960  0.144700  1.0  -0.2905
  C  C117  1  0.377100  0.848730  0.202400  1.0  -0.0049
  C  C118  1  0.402300  0.801240  0.173600  1.0  -0.15
  C  C119  1  0.454300  0.794050  0.085600  1.0  0.0265
  C  C120  1  0.475500  0.834170  0.025900  1.0  -0.1224
  C  C121  1  0.446900  0.881290  0.055500  1.0  0.0017
  C  C122  1  0.523100  0.827690  0.926900  1.0  0.7758
  C  C123  1  0.368300  0.759460  0.236700  1.0  0.6811
  C  C124  1  0.165300  0.954880  0.141700  1.0  -0.332
  C  C125  1  0.095400  0.917280  0.081000  1.0  0.0166
  C  C126  1  0.961000  0.920640  0.041700  1.0  -0.1439
  C  C127  1  0.891700  0.960980  0.065400  1.0  -0.0223
  C  C128  1  0.957400  0.998390  0.127000  1.0  -0.1302
  C  C129  1  0.093400  0.995550  0.163800  1.0  0.0173
  C  C130  1  0.890500  0.882200  0.969500  1.0  0.6952
  C  C131  1  0.881300  0.041770  0.151500  1.0  0.6829
  C  C132  1  0.396800  0.949210  0.331000  1.0  -0.338
  C  C133  1  0.305600  0.942590  0.393800  1.0  0.0027
  C  C134  1  0.344900  0.936760  0.500400  1.0  -0.1405
  C  C135  1  0.478200  0.936540  0.546800  1.0  0.0007
  C  C136  1  0.570700  0.941540  0.486100  1.0  -0.1385
  C  C137  1  0.530500  0.948830  0.379600  1.0  0.0014
  C  C138  1  0.246900  0.930910  0.568200  1.0  0.7258
  C  C139  1  0.714600  0.938940  0.535300  1.0  0.6881
  C  C140  1  0.067100  0.502920  0.366500  1.0  -0.6812
  C  C141  1  0.100700  0.389960  0.355300  1.0  -0.2904
  C  C142  1  0.122900  0.348730  0.297600  1.0  -0.005
  C  C143  1  0.097700  0.301240  0.326400  1.0  -0.1493
  C  C144  1  0.045700  0.294050  0.414400  1.0  0.0263
  C  C145  1  0.024500  0.334170  0.474100  1.0  -0.122
  C  C146  1  0.053100  0.381290  0.444500  1.0  0.002
  C  C147  1  0.976900  0.327690  0.573100  1.0  0.7785
  C  C148  1  0.131700  0.259460  0.263300  1.0  0.68
  C  C149  1  0.334700  0.454880  0.358300  1.0  -0.3335
  C  C150  1  0.404600  0.417280  0.419000  1.0  0.0172
  C  C151  1  0.539000  0.420640  0.458300  1.0  -0.1442
  C  C152  1  0.608300  0.460980  0.434600  1.0  -0.0213
  C  C153  1  0.542600  0.498390  0.373000  1.0  -0.1292
  C  C154  1  0.406600  0.495550  0.336200  1.0  0.017
  C  C155  1  0.609500  0.382200  0.530500  1.0  0.6955
  C  C156  1  0.618700  0.541770  0.348500  1.0  0.683
  C  C157  1  0.103200  0.449210  0.169000  1.0  -0.3391
  C  C158  1  0.194400  0.442590  0.106200  1.0  0.0024
  C  C159  1  0.155100  0.436760  0.999600  1.0  -0.1411
  C  C160  1  0.021800  0.436540  0.953200  1.0  0.002
  C  C161  1  0.929300  0.441540  0.013900  1.0  -0.1378
  C  C162  1  0.969500  0.448830  0.120400  1.0  0.0021
  C  C163  1  0.253100  0.430910  0.931800  1.0  0.7259
  C  C164  1  0.785400  0.438940  0.964700  1.0  0.6873
  O  O165  1  0.673100  0.232020  0.682700  1.0  -0.6002
  O  O166  1  0.623500  0.283860  0.792900  1.0  -0.601
  O  O167  1  0.390300  0.204500  0.074600  1.0  -0.6057
  O  O168  1  0.523700  0.144370  0.148800  1.0  -0.6174
  O  O169  1  0.049900  0.157100  0.045000  1.0  -0.5954
  O  O170  1  0.224900  0.110330  0.076900  1.0  -0.5814
  O  O171  1  0.239000  0.954320  0.888200  1.0  -0.5719
  O  O172  1  0.058700  0.924460  0.788700  1.0  -0.6791
  O  O173  1  0.873400  0.071130  0.477600  1.0  -0.6272
  O  O174  1  0.712100  0.071200  0.336300  1.0  -0.6926
  O  O175  1  0.249900  0.075450  0.371900  1.0  -0.5819
  O  O176  1  0.202200  0.049670  0.516700  1.0  -0.5901
  O  O177  1  0.826900  0.732020  0.817300  1.0  -0.5977
  O  O178  1  0.876500  0.783860  0.707100  1.0  -0.6018
  O  O179  1  0.109700  0.704500  0.425400  1.0  -0.6069
  O  O180  1  0.976300  0.644370  0.351200  1.0  -0.6182
  O  O181  1  0.450100  0.657100  0.455000  1.0  -0.5955
  O  O182  1  0.275100  0.610330  0.423100  1.0  -0.5805
  O  O183  1  0.261000  0.454320  0.611800  1.0  -0.5717
  O  O184  1  0.441300  0.424460  0.711300  1.0  -0.6782
  O  O185  1  0.626600  0.571130  0.022400  1.0  -0.6254
  O  O186  1  0.787900  0.571200  0.163700  1.0  -0.6938
  O  O187  1  0.250100  0.575450  0.128100  1.0  -0.5831
  O  O188  1  0.297800  0.549670  0.983300  1.0  -0.5912
  O  O189  1  0.326900  0.767980  0.317300  1.0  -0.5978
  O  O190  1  0.376500  0.716140  0.207100  1.0  -0.6016
  O  O191  1  0.609700  0.795500  0.925400  1.0  -0.6047
  O  O192  1  0.476300  0.855630  0.851200  1.0  -0.6166
  O  O193  1  0.950100  0.842900  0.955000  1.0  -0.5934
  O  O194  1  0.775100  0.889670  0.923100  1.0  -0.5788
  O  O195  1  0.761000  0.045680  0.111800  1.0  -0.5718
  O  O196  1  0.941300  0.075540  0.211300  1.0  -0.679
  O  O197  1  0.126600  0.928870  0.522400  1.0  -0.6253
  O  O198  1  0.287900  0.928800  0.663700  1.0  -0.6932
  O  O199  1  0.750100  0.924550  0.628100  1.0  -0.5842
  O  O200  1  0.797800  0.950330  0.483300  1.0  -0.5914
  O  O201  1  0.173100  0.267980  0.182700  1.0  -0.6001
  O  O202  1  0.123500  0.216140  0.292900  1.0  -0.5993
  O  O203  1  0.890300  0.295500  0.574600  1.0  -0.6041
  O  O204  1  0.023700  0.355630  0.648800  1.0  -0.6178
  O  O205  1  0.549900  0.342900  0.545000  1.0  -0.5931
  O  O206  1  0.724900  0.389670  0.576900  1.0  -0.5801
  O  O207  1  0.739000  0.545680  0.388200  1.0  -0.5716
  O  O208  1  0.558700  0.575540  0.288700  1.0  -0.6802
  O  O209  1  0.373400  0.428870  0.977600  1.0  -0.6265
  O  O210  1  0.212100  0.428800  0.836300  1.0  -0.6933
  O  O211  1  0.749900  0.424550  0.871900  1.0  -0.5819
  O  O212  1  0.702200  0.450330  0.016700  1.0  -0.5902
