# generated using pymatgen
data_ZrP4C10(NO6)2
_symmetry_space_group_name_H-M   'P 1'
_cell_length_a   18.92300000
_cell_length_b   16.50460000
_cell_length_c   7.84370000
_cell_angle_alpha   90.00000000
_cell_angle_beta   91.86800000
_cell_angle_gamma   90.00000000
_symmetry_Int_Tables_number   1
_chemical_formula_structural   ZrP4C10(NO6)2
_chemical_formula_sum   'Zr4 P16 C40 N8 O48'
_cell_volume   2448.41545518
_cell_formula_units_Z   4
loop_
 _symmetry_equiv_pos_site_id
 _symmetry_equiv_pos_as_xyz
  1  'x, y, z'
loop_
 _atom_site_type_symbol
 _atom_site_label
 _atom_site_symmetry_multiplicity
 _atom_site_fract_x
 _atom_site_fract_y
 _atom_site_fract_z
 _atom_site_occupancy
 _atom_site_charge
  Zr  Zr1  1  0.000000  0.891400  0.750000  1.0  2.1633
  Zr  Zr2  1  0.500000  0.391400  0.750000  1.0  2.1633
  Zr  Zr3  1  0.000000  0.108600  0.250000  1.0  2.163
  Zr  Zr4  1  0.500000  0.608600  0.250000  1.0  2.163
  P  P5  1  0.067200  0.723600  0.988600  1.0  1.3242
  P  P6  1  0.104500  0.946000  0.406300  1.0  1.5517
  P  P7  1  0.567200  0.223600  0.988600  1.0  1.3242
  P  P8  1  0.604500  0.446000  0.406300  1.0  1.5517
  P  P9  1  0.932800  0.723600  0.511400  1.0  1.3353
  P  P10  1  0.895500  0.946000  0.093700  1.0  1.5545
  P  P11  1  0.432800  0.223600  0.511400  1.0  1.3353
  P  P12  1  0.395500  0.446000  0.093700  1.0  1.5545
  P  P13  1  0.932800  0.276400  0.011400  1.0  1.3368
  P  P14  1  0.895500  0.054000  0.593700  1.0  1.554
  P  P15  1  0.432800  0.776400  0.011400  1.0  1.3368
  P  P16  1  0.395500  0.554000  0.593700  1.0  1.554
  P  P17  1  0.067200  0.276400  0.488600  1.0  1.3275
  P  P18  1  0.104500  0.054000  0.906300  1.0  1.5512
  P  P19  1  0.567200  0.776400  0.488600  1.0  1.3275
  P  P20  1  0.604500  0.554000  0.906300  1.0  1.5512
  C  C21  1  0.119000  0.875300  0.236000  1.0  -0.0167
  C  C22  1  0.253400  0.804000  0.350000  1.0  0.0244
  C  C23  1  0.136500  0.736700  0.154000  1.0  -0.0067
  C  C24  1  0.182300  0.789000  0.432000  1.0  0.0909
  C  C25  1  0.187200  0.705000  0.510000  1.0  0.0078
  C  C26  1  0.619000  0.375300  0.236000  1.0  -0.0167
  C  C27  1  0.753400  0.304000  0.350000  1.0  0.0244
  C  C28  1  0.636500  0.236700  0.154000  1.0  -0.0067
  C  C29  1  0.682300  0.289000  0.432000  1.0  0.0909
  C  C30  1  0.687200  0.205000  0.510000  1.0  0.0078
  C  C31  1  0.881000  0.875300  0.264000  1.0  -0.02
  C  C32  1  0.746600  0.804000  0.150000  1.0  0.0257
  C  C33  1  0.863500  0.736700  0.346000  1.0  -0.009
  C  C34  1  0.817700  0.789000  0.068000  1.0  0.0914
  C  C35  1  0.812800  0.705000  0.990000  1.0  0.0084
  C  C36  1  0.381000  0.375300  0.264000  1.0  -0.02
  C  C37  1  0.246600  0.304000  0.150000  1.0  0.0257
  C  C38  1  0.363500  0.236700  0.346000  1.0  -0.009
  C  C39  1  0.317700  0.289000  0.068000  1.0  0.0914
  C  C40  1  0.312800  0.205000  0.990000  1.0  0.0084
  C  C41  1  0.881000  0.124700  0.764000  1.0  -0.0186
  C  C42  1  0.746600  0.196000  0.650000  1.0  0.0255
  C  C43  1  0.863500  0.263300  0.846000  1.0  -0.0077
  C  C44  1  0.817700  0.211000  0.568000  1.0  0.0918
  C  C45  1  0.812800  0.295000  0.490000  1.0  0.0084
  C  C46  1  0.381000  0.624700  0.764000  1.0  -0.0186
  C  C47  1  0.246600  0.696000  0.650000  1.0  0.0255
  C  C48  1  0.363500  0.763300  0.846000  1.0  -0.0077
  C  C49  1  0.317700  0.711000  0.568000  1.0  0.0918
  C  C50  1  0.312800  0.795000  0.490000  1.0  0.0084
  C  C51  1  0.119000  0.124700  0.736000  1.0  -0.0168
  C  C52  1  0.253400  0.196000  0.850000  1.0  0.025
  C  C53  1  0.136500  0.263300  0.654000  1.0  -0.0051
  C  C54  1  0.182300  0.211000  0.932000  1.0  0.0911
  C  C55  1  0.187200  0.295000  0.010000  1.0  0.0092
  C  C56  1  0.619000  0.624700  0.736000  1.0  -0.0168
  C  C57  1  0.753400  0.696000  0.850000  1.0  0.025
  C  C58  1  0.636500  0.763300  0.654000  1.0  -0.0051
  C  C59  1  0.682300  0.711000  0.932000  1.0  0.0911
  C  C60  1  0.687200  0.795000  0.010000  1.0  0.0092
  N  N61  1  0.124500  0.789800  0.298000  1.0  -0.0763
  N  N62  1  0.624500  0.289800  0.298000  1.0  -0.0763
  N  N63  1  0.875500  0.789800  0.202000  1.0  -0.0756
  N  N64  1  0.375500  0.289800  0.202000  1.0  -0.0756
  N  N65  1  0.875500  0.210200  0.702000  1.0  -0.0757
  N  N66  1  0.375500  0.710200  0.702000  1.0  -0.0757
  N  N67  1  0.124500  0.210200  0.798000  1.0  -0.0762
  N  N68  1  0.624500  0.710200  0.798000  1.0  -0.0762
  O  O69  1  0.062900  0.801400  0.863000  1.0  -0.7882
  O  O70  1  0.066000  0.023700  0.353000  1.0  -0.7839
  O  O71  1  0.083700  0.647200  0.880000  1.0  -0.4998
  O  O72  1  0.998400  0.708400  0.063000  1.0  -0.5582
  O  O73  1  0.171700  0.968000  0.504000  1.0  -0.5426
  O  O74  1  0.057000  0.897300  0.538000  1.0  -0.8163
  O  O75  1  0.562900  0.301400  0.863000  1.0  -0.7882
  O  O76  1  0.566000  0.523700  0.353000  1.0  -0.7839
  O  O77  1  0.583700  0.147200  0.880000  1.0  -0.4998
  O  O78  1  0.498400  0.208400  0.063000  1.0  -0.5582
  O  O79  1  0.671700  0.468000  0.504000  1.0  -0.5426
  O  O80  1  0.557000  0.397300  0.538000  1.0  -0.8163
  O  O81  1  0.937100  0.801400  0.637000  1.0  -0.7882
  O  O82  1  0.934000  0.023700  0.147000  1.0  -0.7853
  O  O83  1  0.916300  0.647200  0.620000  1.0  -0.5009
  O  O84  1  0.001600  0.708400  0.437000  1.0  -0.5583
  O  O85  1  0.828300  0.968000  0.996000  1.0  -0.5398
  O  O86  1  0.943000  0.897300  0.962000  1.0  -0.8169
  O  O87  1  0.437100  0.301400  0.637000  1.0  -0.7882
  O  O88  1  0.434000  0.523700  0.147000  1.0  -0.7853
  O  O89  1  0.416300  0.147200  0.620000  1.0  -0.5009
  O  O90  1  0.501600  0.208400  0.437000  1.0  -0.5583
  O  O91  1  0.328300  0.468000  0.996000  1.0  -0.5398
  O  O92  1  0.443000  0.397300  0.962000  1.0  -0.8169
  O  O93  1  0.937100  0.198600  0.137000  1.0  -0.7886
  O  O94  1  0.934000  0.976300  0.647000  1.0  -0.784
  O  O95  1  0.916300  0.352800  0.120000  1.0  -0.5007
  O  O96  1  0.001600  0.291600  0.937000  1.0  -0.5583
  O  O97  1  0.828300  0.032000  0.496000  1.0  -0.54
  O  O98  1  0.943000  0.102700  0.462000  1.0  -0.8169
  O  O99  1  0.437100  0.698600  0.137000  1.0  -0.7886
  O  O100  1  0.434000  0.476300  0.647000  1.0  -0.784
  O  O101  1  0.416300  0.852800  0.120000  1.0  -0.5007
  O  O102  1  0.501600  0.791600  0.937000  1.0  -0.5583
  O  O103  1  0.328300  0.532000  0.496000  1.0  -0.54
  O  O104  1  0.443000  0.602700  0.462000  1.0  -0.8169
  O  O105  1  0.062900  0.198600  0.363000  1.0  -0.7884
  O  O106  1  0.066000  0.976300  0.853000  1.0  -0.7825
  O  O107  1  0.083700  0.352800  0.380000  1.0  -0.5017
  O  O108  1  0.998400  0.291600  0.563000  1.0  -0.5578
  O  O109  1  0.171700  0.032000  0.004000  1.0  -0.5429
  O  O110  1  0.057000  0.102700  0.038000  1.0  -0.8165
  O  O111  1  0.562900  0.698600  0.363000  1.0  -0.7884
  O  O112  1  0.566000  0.476300  0.853000  1.0  -0.7825
  O  O113  1  0.583700  0.852800  0.380000  1.0  -0.5017
  O  O114  1  0.498400  0.791600  0.563000  1.0  -0.5578
  O  O115  1  0.671700  0.532000  0.004000  1.0  -0.5429
  O  O116  1  0.557000  0.602700  0.038000  1.0  -0.8165
