# generated using pymatgen
data_Zn5H10C22(N3O7)2
_symmetry_space_group_name_H-M   'P 1'
_cell_length_a   16.97510000
_cell_length_b   10.96590000
_cell_length_c   22.44200000
_cell_angle_alpha   90.00000000
_cell_angle_beta   109.71400000
_cell_angle_gamma   90.00000000
_symmetry_Int_Tables_number   1
_chemical_formula_structural   Zn5H10C22(N3O7)2
_chemical_formula_sum   'Zn20 H40 C88 N24 O56'
_cell_volume   3932.66458483
_cell_formula_units_Z   4
loop_
 _symmetry_equiv_pos_site_id
 _symmetry_equiv_pos_as_xyz
  1  'x, y, z'
loop_
 _atom_site_type_symbol
 _atom_site_label
 _atom_site_symmetry_multiplicity
 _atom_site_fract_x
 _atom_site_fract_y
 _atom_site_fract_z
 _atom_site_occupancy
 _atom_site_charge
  Zn  Zn1  1  0.199420  0.030700  0.283370  1.0  0.9504
  Zn  Zn2  1  0.072000  0.075410  0.135540  1.0  0.9941
  Zn  Zn3  1  0.699420  0.530700  0.283370  1.0  0.9504
  Zn  Zn4  1  0.572000  0.575410  0.135540  1.0  0.9936
  Zn  Zn5  1  0.800580  0.030700  0.216630  1.0  0.9505
  Zn  Zn6  1  0.928000  0.075410  0.364460  1.0  0.9931
  Zn  Zn7  1  0.300580  0.530700  0.216630  1.0  0.9505
  Zn  Zn8  1  0.428000  0.575410  0.364460  1.0  0.9927
  Zn  Zn9  1  0.800580  0.969300  0.716630  1.0  0.9507
  Zn  Zn10  1  0.928000  0.924590  0.864460  1.0  0.9946
  Zn  Zn11  1  0.300580  0.469300  0.716630  1.0  0.9507
  Zn  Zn12  1  0.428000  0.424590  0.864460  1.0  0.9939
  Zn  Zn13  1  0.199420  0.969300  0.783370  1.0  0.95
  Zn  Zn14  1  0.072000  0.924590  0.635540  1.0  0.9952
  Zn  Zn15  1  0.699420  0.469300  0.783370  1.0  0.95
  Zn  Zn16  1  0.572000  0.424590  0.635540  1.0  0.9945
  Zn  Zn17  1  0.000000  0.136950  0.250000  1.0  1.1388
  Zn  Zn18  1  0.500000  0.636950  0.250000  1.0  1.1388
  Zn  Zn19  1  0.000000  0.863050  0.750000  1.0  1.1403
  Zn  Zn20  1  0.500000  0.363050  0.750000  1.0  1.1403
  H  H21  1  0.181100  0.006900  0.471900  1.0  0.1125
  H  H22  1  0.311100  0.132500  0.645300  1.0  0.1047
  H  H23  1  0.392100  0.199300  0.500500  1.0  0.1081
  H  H24  1  0.309200  0.283000  0.299600  1.0  0.1046
  H  H25  1  0.150200  0.367300  0.135000  1.0  0.0832
  H  H26  1  0.681100  0.506900  0.471900  1.0  0.1125
  H  H27  1  0.811100  0.632500  0.645300  1.0  0.1047
  H  H28  1  0.892100  0.699300  0.500500  1.0  0.1081
  H  H29  1  0.809200  0.783000  0.299600  1.0  0.1046
  H  H30  1  0.650200  0.867300  0.135000  1.0  0.0832
  H  H31  1  0.818900  0.006900  0.028100  1.0  0.1128
  H  H32  1  0.688900  0.132500  0.854700  1.0  0.1052
  H  H33  1  0.607900  0.199300  0.999500  1.0  0.108
  H  H34  1  0.690800  0.283000  0.200400  1.0  0.103
  H  H35  1  0.849800  0.367300  0.365000  1.0  0.0834
  H  H36  1  0.318900  0.506900  0.028100  1.0  0.1128
  H  H37  1  0.188900  0.632500  0.854700  1.0  0.1052
  H  H38  1  0.107900  0.699300  0.999500  1.0  0.108
  H  H39  1  0.190800  0.783000  0.200400  1.0  0.103
  H  H40  1  0.349800  0.867300  0.365000  1.0  0.0834
  H  H41  1  0.818900  0.993100  0.528100  1.0  0.1121
  H  H42  1  0.688900  0.867500  0.354700  1.0  0.1051
  H  H43  1  0.607900  0.800700  0.499500  1.0  0.1082
  H  H44  1  0.690800  0.717000  0.700400  1.0  0.103
  H  H45  1  0.849800  0.632700  0.865000  1.0  0.0836
  H  H46  1  0.318900  0.493100  0.528100  1.0  0.1121
  H  H47  1  0.188900  0.367500  0.354700  1.0  0.1051
  H  H48  1  0.107900  0.300700  0.499500  1.0  0.1082
  H  H49  1  0.190800  0.217000  0.700400  1.0  0.103
  H  H50  1  0.349800  0.132700  0.865000  1.0  0.0836
  H  H51  1  0.181100  0.993100  0.971900  1.0  0.1126
  H  H52  1  0.311100  0.867500  0.145300  1.0  0.1047
  H  H53  1  0.392100  0.800700  0.000500  1.0  0.1083
  H  H54  1  0.309200  0.717000  0.799600  1.0  0.1043
  H  H55  1  0.150200  0.632700  0.635000  1.0  0.0828
  H  H56  1  0.681100  0.493100  0.971900  1.0  0.1126
  H  H57  1  0.811100  0.367500  0.145300  1.0  0.1047
  H  H58  1  0.892100  0.300700  0.000500  1.0  0.1083
  H  H59  1  0.809200  0.217000  0.799600  1.0  0.1043
  H  H60  1  0.650200  0.132700  0.635000  1.0  0.0828
  C  C61  1  0.286500  0.099300  0.475560  1.0  -0.1519
  C  C62  1  0.227200  0.048100  0.498990  1.0  0.0066
  C  C63  1  0.237600  0.059000  0.562670  1.0  -0.145
  C  C64  1  0.305200  0.124200  0.602720  1.0  0.0053
  C  C65  1  0.363400  0.176700  0.580130  1.0  -0.1528
  C  C66  1  0.353300  0.163900  0.516200  1.0  0.0091
  C  C67  1  0.276300  0.086000  0.407100  1.0  0.6811
  C  C68  1  0.174200  0.006700  0.588400  1.0  0.6609
  C  C69  1  0.433000  0.253400  0.623320  1.0  0.7239
  C  C70  1  0.265600  0.279500  0.261020  1.0  0.2276
  C  C71  1  0.179000  0.324900  0.171900  1.0  0.2624
  C  C72  1  0.786500  0.599300  0.475560  1.0  -0.1519
  C  C73  1  0.727200  0.548100  0.498990  1.0  0.0066
  C  C74  1  0.737600  0.559000  0.562670  1.0  -0.145
  C  C75  1  0.805200  0.624200  0.602720  1.0  0.0053
  C  C76  1  0.863400  0.676700  0.580130  1.0  -0.1528
  C  C77  1  0.853300  0.663900  0.516200  1.0  0.0091
  C  C78  1  0.776300  0.586000  0.407100  1.0  0.6811
  C  C79  1  0.674200  0.506700  0.588400  1.0  0.6609
  C  C80  1  0.933000  0.753400  0.623320  1.0  0.7239
  C  C81  1  0.765600  0.779500  0.261020  1.0  0.2276
  C  C82  1  0.679000  0.824900  0.171900  1.0  0.2624
  C  C83  1  0.713500  0.099300  0.024440  1.0  -0.1528
  C  C84  1  0.772800  0.048100  0.001010  1.0  0.006
  C  C85  1  0.762400  0.059000  0.937330  1.0  -0.1456
  C  C86  1  0.694800  0.124200  0.897280  1.0  0.0051
  C  C87  1  0.636600  0.176700  0.919870  1.0  -0.1524
  C  C88  1  0.646700  0.163900  0.983800  1.0  0.0098
  C  C89  1  0.723700  0.086000  0.092900  1.0  0.6804
  C  C90  1  0.825800  0.006700  0.911600  1.0  0.6596
  C  C91  1  0.567000  0.253400  0.876680  1.0  0.7231
  C  C92  1  0.734400  0.279500  0.238980  1.0  0.2273
  C  C93  1  0.821000  0.324900  0.328100  1.0  0.2599
  C  C94  1  0.213500  0.599300  0.024440  1.0  -0.1528
  C  C95  1  0.272800  0.548100  0.001010  1.0  0.006
  C  C96  1  0.262400  0.559000  0.937330  1.0  -0.1456
  C  C97  1  0.194800  0.624200  0.897280  1.0  0.0051
  C  C98  1  0.136600  0.676700  0.919870  1.0  -0.1524
  C  C99  1  0.146700  0.663900  0.983800  1.0  0.0098
  C  C100  1  0.223700  0.586000  0.092900  1.0  0.6804
  C  C101  1  0.325800  0.506700  0.911600  1.0  0.6596
  C  C102  1  0.067000  0.753400  0.876680  1.0  0.7231
  C  C103  1  0.234400  0.779500  0.238980  1.0  0.2273
  C  C104  1  0.321000  0.824900  0.328100  1.0  0.2599
  C  C105  1  0.713500  0.900700  0.524440  1.0  -0.1526
  C  C106  1  0.772800  0.951900  0.501010  1.0  0.0068
  C  C107  1  0.762400  0.941000  0.437330  1.0  -0.1461
  C  C108  1  0.694800  0.875800  0.397280  1.0  0.0051
  C  C109  1  0.636600  0.823300  0.419870  1.0  -0.1511
  C  C110  1  0.646700  0.836100  0.483800  1.0  0.0086
  C  C111  1  0.723700  0.914000  0.592900  1.0  0.6805
  C  C112  1  0.825800  0.993300  0.411600  1.0  0.659
  C  C113  1  0.567000  0.746600  0.376680  1.0  0.7224
  C  C114  1  0.734400  0.720500  0.738980  1.0  0.2276
  C  C115  1  0.821000  0.675100  0.828100  1.0  0.2607
  C  C116  1  0.213500  0.400700  0.524440  1.0  -0.1526
  C  C117  1  0.272800  0.451900  0.501010  1.0  0.0068
  C  C118  1  0.262400  0.441000  0.437330  1.0  -0.1461
  C  C119  1  0.194800  0.375800  0.397280  1.0  0.0051
  C  C120  1  0.136600  0.323300  0.419870  1.0  -0.1511
  C  C121  1  0.146700  0.336100  0.483800  1.0  0.0086
  C  C122  1  0.223700  0.414000  0.592900  1.0  0.6805
  C  C123  1  0.325800  0.493300  0.411600  1.0  0.659
  C  C124  1  0.067000  0.246600  0.376680  1.0  0.7224
  C  C125  1  0.234400  0.220500  0.738980  1.0  0.2276
  C  C126  1  0.321000  0.175100  0.828100  1.0  0.2607
  C  C127  1  0.286500  0.900700  0.975560  1.0  -0.1509
  C  C128  1  0.227200  0.951900  0.998990  1.0  0.0058
  C  C129  1  0.237600  0.941000  0.062670  1.0  -0.1453
  C  C130  1  0.305200  0.875800  0.102720  1.0  0.0061
  C  C131  1  0.363400  0.823300  0.080130  1.0  -0.1527
  C  C132  1  0.353300  0.836100  0.016200  1.0  0.0091
  C  C133  1  0.276300  0.914000  0.907100  1.0  0.6813
  C  C134  1  0.174200  0.993300  0.088400  1.0  0.659
  C  C135  1  0.433000  0.746600  0.123320  1.0  0.7237
  C  C136  1  0.265600  0.720500  0.761020  1.0  0.2281
  C  C137  1  0.179000  0.675100  0.671900  1.0  0.2631
  C  C138  1  0.786500  0.400700  0.975560  1.0  -0.1509
  C  C139  1  0.727200  0.451900  0.998990  1.0  0.0058
  C  C140  1  0.737600  0.441000  0.062670  1.0  -0.1453
  C  C141  1  0.805200  0.375800  0.102720  1.0  0.0061
  C  C142  1  0.863400  0.323300  0.080130  1.0  -0.1527
  C  C143  1  0.853300  0.336100  0.016200  1.0  0.0091
  C  C144  1  0.776300  0.414000  0.907100  1.0  0.6813
  C  C145  1  0.674200  0.493300  0.088400  1.0  0.659
  C  C146  1  0.933000  0.246600  0.123320  1.0  0.7237
  C  C147  1  0.765600  0.220500  0.761020  1.0  0.2281
  C  C148  1  0.679000  0.175100  0.671900  1.0  0.2631
  N  N149  1  0.159100  0.215100  0.183970  1.0  -0.2665
  N  N150  1  0.216100  0.184800  0.241580  1.0  -0.2378
  N  N151  1  0.245700  0.370700  0.218460  1.0  -0.4313
  N  N152  1  0.659100  0.715100  0.183970  1.0  -0.2665
  N  N153  1  0.716100  0.684800  0.241580  1.0  -0.2378
  N  N154  1  0.745700  0.870700  0.218460  1.0  -0.4313
  N  N155  1  0.840900  0.215100  0.316030  1.0  -0.2652
  N  N156  1  0.783900  0.184800  0.258420  1.0  -0.2382
  N  N157  1  0.754300  0.370700  0.281540  1.0  -0.4325
  N  N158  1  0.340900  0.715100  0.316030  1.0  -0.2652
  N  N159  1  0.283900  0.684800  0.258420  1.0  -0.2382
  N  N160  1  0.254300  0.870700  0.281540  1.0  -0.4325
  N  N161  1  0.840900  0.784900  0.816030  1.0  -0.2656
  N  N162  1  0.783900  0.815200  0.758420  1.0  -0.2385
  N  N163  1  0.754300  0.629300  0.781540  1.0  -0.4336
  N  N164  1  0.340900  0.284900  0.816030  1.0  -0.2656
  N  N165  1  0.283900  0.315200  0.758420  1.0  -0.2385
  N  N166  1  0.254300  0.129300  0.781540  1.0  -0.4336
  N  N167  1  0.159100  0.784900  0.683970  1.0  -0.266
  N  N168  1  0.216100  0.815200  0.741580  1.0  -0.238
  N  N169  1  0.245700  0.629300  0.718460  1.0  -0.4322
  N  N170  1  0.659100  0.284900  0.683970  1.0  -0.266
  N  N171  1  0.716100  0.315200  0.741580  1.0  -0.238
  N  N172  1  0.745700  0.129300  0.718460  1.0  -0.4322
  O  O173  1  0.206100  0.046900  0.371570  1.0  -0.5821
  O  O174  1  0.335600  0.109900  0.388010  1.0  -0.5236
  O  O175  1  0.118200  0.937400  0.555300  1.0  -0.5488
  O  O176  1  0.178300  0.036000  0.643480  1.0  -0.5837
  O  O177  1  0.440230  0.256000  0.680640  1.0  -0.6082
  O  O178  1  0.479070  0.305600  0.598600  1.0  -0.6128
  O  O179  1  0.077810  0.025600  0.229590  1.0  -0.7533
  O  O180  1  0.706100  0.546900  0.371570  1.0  -0.5821
  O  O181  1  0.835600  0.609900  0.388010  1.0  -0.5236
  O  O182  1  0.618200  0.437400  0.555300  1.0  -0.5488
  O  O183  1  0.678300  0.536000  0.643480  1.0  -0.5837
  O  O184  1  0.940230  0.756000  0.680640  1.0  -0.6082
  O  O185  1  0.979070  0.805600  0.598600  1.0  -0.6128
  O  O186  1  0.577810  0.525600  0.229590  1.0  -0.7533
  O  O187  1  0.793900  0.046900  0.128430  1.0  -0.5818
  O  O188  1  0.664400  0.109900  0.111990  1.0  -0.5221
  O  O189  1  0.881800  0.937400  0.944700  1.0  -0.5506
  O  O190  1  0.821700  0.036000  0.856520  1.0  -0.584
  O  O191  1  0.559770  0.256000  0.819360  1.0  -0.609
  O  O192  1  0.520930  0.305600  0.901400  1.0  -0.6118
  O  O193  1  0.922190  0.025600  0.270410  1.0  -0.7539
  O  O194  1  0.293900  0.546900  0.128430  1.0  -0.5818
  O  O195  1  0.164400  0.609900  0.111990  1.0  -0.5221
  O  O196  1  0.381800  0.437400  0.944700  1.0  -0.5505
  O  O197  1  0.321700  0.536000  0.856520  1.0  -0.584
  O  O198  1  0.059770  0.756000  0.819360  1.0  -0.609
  O  O199  1  0.020930  0.805600  0.901400  1.0  -0.6118
  O  O200  1  0.422190  0.525600  0.270410  1.0  -0.7539
  O  O201  1  0.793900  0.953100  0.628430  1.0  -0.5831
  O  O202  1  0.664400  0.890100  0.611990  1.0  -0.5223
  O  O203  1  0.881800  0.062600  0.444700  1.0  -0.5499
  O  O204  1  0.821700  0.964000  0.356520  1.0  -0.5841
  O  O205  1  0.559770  0.744000  0.319360  1.0  -0.6086
  O  O206  1  0.520930  0.694400  0.401400  1.0  -0.6123
  O  O207  1  0.922190  0.974400  0.770410  1.0  -0.7569
  O  O208  1  0.293900  0.453100  0.628430  1.0  -0.5831
  O  O209  1  0.164400  0.390100  0.611990  1.0  -0.5223
  O  O210  1  0.381800  0.562600  0.444700  1.0  -0.5498
  O  O211  1  0.321700  0.464000  0.356520  1.0  -0.5841
  O  O212  1  0.059770  0.244000  0.319360  1.0  -0.6086
  O  O213  1  0.020930  0.194400  0.401400  1.0  -0.6123
  O  O214  1  0.422190  0.474400  0.770410  1.0  -0.7569
  O  O215  1  0.206100  0.953100  0.871570  1.0  -0.583
  O  O216  1  0.335600  0.890100  0.888010  1.0  -0.5232
  O  O217  1  0.118200  0.062600  0.055300  1.0  -0.5481
  O  O218  1  0.178300  0.964000  0.143480  1.0  -0.5831
  O  O219  1  0.440230  0.744000  0.180640  1.0  -0.6082
  O  O220  1  0.479070  0.694400  0.098600  1.0  -0.6129
  O  O221  1  0.077810  0.974400  0.729590  1.0  -0.7561
  O  O222  1  0.706100  0.453100  0.871570  1.0  -0.583
  O  O223  1  0.835600  0.390100  0.888010  1.0  -0.5232
  O  O224  1  0.618200  0.562600  0.055300  1.0  -0.5481
  O  O225  1  0.678300  0.464000  0.143480  1.0  -0.5831
  O  O226  1  0.940230  0.244000  0.180640  1.0  -0.6082
  O  O227  1  0.979070  0.194400  0.098600  1.0  -0.6129
  O  O228  1  0.577810  0.474400  0.729590  1.0  -0.7561
