# generated using pymatgen
data_Pr2Co3H18C42(NO4)6
_symmetry_space_group_name_H-M   'P 1'
_cell_length_a   15.19900000
_cell_length_b   15.49300000
_cell_length_c   15.49300000
_cell_angle_alpha   120.00000000
_cell_angle_beta   90.00000000
_cell_angle_gamma   90.00000000
_symmetry_Int_Tables_number   1
_chemical_formula_structural   Pr2Co3H18C42(NO4)6
_chemical_formula_sum   'Pr4 Co6 H36 C84 N12 O48'
_cell_volume   3159.48784165
_cell_formula_units_Z   2
loop_
 _symmetry_equiv_pos_site_id
 _symmetry_equiv_pos_as_xyz
  1  'x, y, z'
loop_
 _atom_site_type_symbol
 _atom_site_label
 _atom_site_symmetry_multiplicity
 _atom_site_fract_x
 _atom_site_fract_y
 _atom_site_fract_z
 _atom_site_occupancy
 _atom_site_charge
  Pr  Pr1  1  0.997490  0.333333  0.666667  1.0  2.1314
  Pr  Pr2  1  0.997490  0.666667  0.333333  1.0  2.1314
  Pr  Pr3  1  0.497490  0.333333  0.666667  1.0  2.1314
  Pr  Pr4  1  0.497490  0.666667  0.333333  1.0  2.1314
  Co  Co5  1  0.747200  0.500000  0.000000  1.0  1.0673
  Co  Co6  1  0.747200  0.500000  0.500000  1.0  1.0673
  Co  Co7  1  0.747200  0.000000  0.500000  1.0  1.0673
  Co  Co8  1  0.247200  0.500000  0.000000  1.0  1.0674
  Co  Co9  1  0.247200  0.000000  0.500000  1.0  1.0674
  Co  Co10  1  0.247200  0.500000  0.500000  1.0  1.0674
  H  H11  1  0.087700  0.712500  0.764200  1.0  0.0898
  H  H12  1  0.009500  0.798400  0.898500  1.0  0.1185
  H  H13  1  0.901100  0.711900  0.947100  1.0  0.1335
  H  H14  1  0.087700  0.051700  0.287500  1.0  0.0891
  H  H15  1  0.009500  0.100100  0.201600  1.0  0.1192
  H  H16  1  0.901100  0.235200  0.288100  1.0  0.1336
  H  H17  1  0.087700  0.235800  0.948300  1.0  0.0893
  H  H18  1  0.009500  0.101500  0.899900  1.0  0.1192
  H  H19  1  0.901100  0.052900  0.764800  1.0  0.1344
  H  H20  1  0.087700  0.287500  0.235800  1.0  0.0895
  H  H21  1  0.009500  0.201600  0.101500  1.0  0.1177
  H  H22  1  0.901100  0.288100  0.052900  1.0  0.1335
  H  H23  1  0.087700  0.948300  0.712500  1.0  0.0895
  H  H24  1  0.009500  0.899900  0.798400  1.0  0.1192
  H  H25  1  0.901100  0.764800  0.711900  1.0  0.1339
  H  H26  1  0.087700  0.764200  0.051700  1.0  0.09
  H  H27  1  0.009500  0.898500  0.100100  1.0  0.1192
  H  H28  1  0.901100  0.947100  0.235200  1.0  0.1342
  H  H29  1  0.587700  0.051700  0.764200  1.0  0.089
  H  H30  1  0.509500  0.100100  0.898500  1.0  0.1191
  H  H31  1  0.401100  0.235200  0.947100  1.0  0.1339
  H  H32  1  0.587700  0.235800  0.287500  1.0  0.0895
  H  H33  1  0.509500  0.101500  0.201600  1.0  0.1193
  H  H34  1  0.401100  0.052900  0.288100  1.0  0.134
  H  H35  1  0.587700  0.712500  0.948300  1.0  0.0891
  H  H36  1  0.509500  0.798400  0.899900  1.0  0.1186
  H  H37  1  0.401100  0.711900  0.764800  1.0  0.1338
  H  H38  1  0.587700  0.948300  0.235800  1.0  0.0898
  H  H39  1  0.509500  0.899900  0.101500  1.0  0.1192
  H  H40  1  0.401100  0.764800  0.052900  1.0  0.1337
  H  H41  1  0.587700  0.764200  0.712500  1.0  0.0897
  H  H42  1  0.509500  0.898500  0.798400  1.0  0.1192
  H  H43  1  0.401100  0.947100  0.711900  1.0  0.1344
  H  H44  1  0.587700  0.287500  0.051700  1.0  0.0899
  H  H45  1  0.509500  0.201600  0.100100  1.0  0.1177
  H  H46  1  0.401100  0.288100  0.235200  1.0  0.1337
  C  C47  1  0.052500  0.576200  0.733100  1.0  0.0347
  C  C48  1  0.051600  0.678600  0.785800  1.0  -0.0655
  C  C49  1  0.004200  0.729400  0.862600  1.0  -0.1069
  C  C50  1  0.940400  0.678400  0.894700  1.0  -0.0986
  C  C51  1  0.885800  0.513500  0.867300  1.0  0.6507
  C  C52  1  0.107800  0.510000  0.646200  1.0  0.6658
  C  C53  1  0.945900  0.575100  0.838000  1.0  0.181
  C  C54  1  0.052500  0.156900  0.423800  1.0  0.0355
  C  C55  1  0.051600  0.107200  0.321400  1.0  -0.066
  C  C56  1  0.004200  0.133200  0.270600  1.0  -0.1055
  C  C57  1  0.940400  0.216300  0.321600  1.0  -0.0992
  C  C58  1  0.885800  0.353800  0.486500  1.0  0.6501
  C  C59  1  0.107800  0.136200  0.490000  1.0  0.6695
  C  C60  1  0.945900  0.262900  0.424900  1.0  0.1826
  C  C61  1  0.052500  0.266900  0.843100  1.0  0.0353
  C  C62  1  0.051600  0.214200  0.892800  1.0  -0.067
  C  C63  1  0.004200  0.137400  0.866800  1.0  -0.1053
  C  C64  1  0.940400  0.105300  0.783700  1.0  -0.0976
  C  C65  1  0.885800  0.132700  0.646200  1.0  0.6514
  C  C66  1  0.107800  0.353800  0.863800  1.0  0.6659
  C  C67  1  0.945900  0.162000  0.737100  1.0  0.1828
  C  C68  1  0.052500  0.423800  0.266900  1.0  0.0347
  C  C69  1  0.051600  0.321400  0.214200  1.0  -0.0649
  C  C70  1  0.004200  0.270600  0.137400  1.0  -0.1061
  C  C71  1  0.940400  0.321600  0.105300  1.0  -0.0986
  C  C72  1  0.885800  0.486500  0.132700  1.0  0.6507
  C  C73  1  0.107800  0.490000  0.353800  1.0  0.6661
  C  C74  1  0.945900  0.424900  0.162000  1.0  0.1815
  C  C75  1  0.052500  0.843100  0.576200  1.0  0.036
  C  C76  1  0.051600  0.892800  0.678600  1.0  -0.065
  C  C77  1  0.004200  0.866800  0.729400  1.0  -0.1065
  C  C78  1  0.940400  0.783700  0.678400  1.0  -0.0994
  C  C79  1  0.885800  0.646200  0.513500  1.0  0.6494
  C  C80  1  0.107800  0.863800  0.510000  1.0  0.669
  C  C81  1  0.945900  0.737100  0.575100  1.0  0.1815
  C  C82  1  0.052500  0.733100  0.156900  1.0  0.0352
  C  C83  1  0.051600  0.785800  0.107200  1.0  -0.0664
  C  C84  1  0.004200  0.862600  0.133200  1.0  -0.1063
  C  C85  1  0.940400  0.894700  0.216300  1.0  -0.0983
  C  C86  1  0.885800  0.867300  0.353800  1.0  0.6511
  C  C87  1  0.107800  0.646200  0.136200  1.0  0.6663
  C  C88  1  0.945900  0.838000  0.262900  1.0  0.1825
  C  C89  1  0.552500  0.156900  0.733100  1.0  0.0362
  C  C90  1  0.551600  0.107200  0.785800  1.0  -0.0654
  C  C91  1  0.504200  0.133200  0.862600  1.0  -0.1058
  C  C92  1  0.440400  0.216300  0.894700  1.0  -0.0992
  C  C93  1  0.385800  0.353800  0.867300  1.0  0.6501
  C  C94  1  0.607800  0.136200  0.646200  1.0  0.669
  C  C95  1  0.445900  0.262900  0.838000  1.0  0.1825
  C  C96  1  0.552500  0.266900  0.423800  1.0  0.0348
  C  C97  1  0.551600  0.214200  0.321400  1.0  -0.0666
  C  C98  1  0.504200  0.137400  0.270600  1.0  -0.1059
  C  C99  1  0.440400  0.105300  0.321600  1.0  -0.0978
  C  C100  1  0.385800  0.132700  0.486500  1.0  0.6513
  C  C101  1  0.607800  0.353800  0.490000  1.0  0.666
  C  C102  1  0.445900  0.162000  0.424900  1.0  0.1824
  C  C103  1  0.552500  0.576200  0.843100  1.0  0.0351
  C  C104  1  0.551600  0.678600  0.892800  1.0  -0.0657
  C  C105  1  0.504200  0.729400  0.866800  1.0  -0.1067
  C  C106  1  0.440400  0.678400  0.783700  1.0  -0.099
  C  C107  1  0.385800  0.513500  0.646200  1.0  0.65
  C  C108  1  0.607800  0.510000  0.863800  1.0  0.6663
  C  C109  1  0.445900  0.575100  0.737100  1.0  0.1806
  C  C110  1  0.552500  0.843100  0.266900  1.0  0.0353
  C  C111  1  0.551600  0.892800  0.214200  1.0  -0.0652
  C  C112  1  0.504200  0.866800  0.137400  1.0  -0.1062
  C  C113  1  0.440400  0.783700  0.105300  1.0  -0.0991
  C  C114  1  0.385800  0.646200  0.132700  1.0  0.6493
  C  C115  1  0.607800  0.863800  0.353800  1.0  0.6694
  C  C116  1  0.445900  0.737100  0.162000  1.0  0.1817
  C  C117  1  0.552500  0.733100  0.576200  1.0  0.0352
  C  C118  1  0.551600  0.785800  0.678600  1.0  -0.0665
  C  C119  1  0.504200  0.862600  0.729400  1.0  -0.106
  C  C120  1  0.440400  0.894700  0.678400  1.0  -0.0982
  C  C121  1  0.385800  0.867300  0.513500  1.0  0.6514
  C  C122  1  0.607800  0.646200  0.510000  1.0  0.6661
  C  C123  1  0.445900  0.838000  0.575100  1.0  0.1828
  C  C124  1  0.552500  0.423800  0.156900  1.0  0.0345
  C  C125  1  0.551600  0.321400  0.107200  1.0  -0.0649
  C  C126  1  0.504200  0.270600  0.133200  1.0  -0.1062
  C  C127  1  0.440400  0.321600  0.216300  1.0  -0.0982
  C  C128  1  0.385800  0.486500  0.353800  1.0  0.6513
  C  C129  1  0.607800  0.490000  0.136200  1.0  0.6655
  C  C130  1  0.445900  0.424900  0.262900  1.0  0.1817
  N  N131  1  0.997600  0.525400  0.763800  1.0  -0.3511
  N  N132  1  0.997600  0.238400  0.474600  1.0  -0.3518
  N  N133  1  0.997600  0.236200  0.761600  1.0  -0.3516
  N  N134  1  0.997600  0.474600  0.236200  1.0  -0.3518
  N  N135  1  0.997600  0.761600  0.525400  1.0  -0.3521
  N  N136  1  0.997600  0.763800  0.238400  1.0  -0.3526
  N  N137  1  0.497600  0.238400  0.763800  1.0  -0.3518
  N  N138  1  0.497600  0.236200  0.474600  1.0  -0.3522
  N  N139  1  0.497600  0.525400  0.761600  1.0  -0.3513
  N  N140  1  0.497600  0.761600  0.236200  1.0  -0.3518
  N  N141  1  0.497600  0.763800  0.525400  1.0  -0.3522
  N  N142  1  0.497600  0.474600  0.238400  1.0  -0.3513
  O  O143  1  0.107000  0.416500  0.614000  1.0  -0.6386
  O  O144  1  0.889100  0.421400  0.806400  1.0  -0.6743
  O  O145  1  0.843100  0.556100  0.941100  1.0  -0.5722
  O  O146  1  0.154800  0.553400  0.609200  1.0  -0.6122
  O  O147  1  0.107000  0.197500  0.583500  1.0  -0.6407
  O  O148  1  0.889100  0.385000  0.578600  1.0  -0.6769
  O  O149  1  0.843100  0.385000  0.443900  1.0  -0.5727
  O  O150  1  0.154800  0.055800  0.446600  1.0  -0.6113
  O  O151  1  0.107000  0.386000  0.802500  1.0  -0.6391
  O  O152  1  0.889100  0.193600  0.615000  1.0  -0.675
  O  O153  1  0.843100  0.058900  0.615000  1.0  -0.5724
  O  O154  1  0.154800  0.390800  0.944200  1.0  -0.6113
  O  O155  1  0.107000  0.583500  0.386000  1.0  -0.6382
  O  O156  1  0.889100  0.578600  0.193600  1.0  -0.6753
  O  O157  1  0.843100  0.443900  0.058900  1.0  -0.5732
  O  O158  1  0.154800  0.446600  0.390800  1.0  -0.6107
  O  O159  1  0.107000  0.802500  0.416500  1.0  -0.6396
  O  O160  1  0.889100  0.615000  0.421400  1.0  -0.6733
  O  O161  1  0.843100  0.615000  0.556100  1.0  -0.5724
  O  O162  1  0.154800  0.944200  0.553400  1.0  -0.6098
  O  O163  1  0.107000  0.614000  0.197500  1.0  -0.6404
  O  O164  1  0.889100  0.806400  0.385000  1.0  -0.6784
  O  O165  1  0.843100  0.941100  0.385000  1.0  -0.5727
  O  O166  1  0.154800  0.609200  0.055800  1.0  -0.6106
  O  O167  1  0.607000  0.197500  0.614000  1.0  -0.6391
  O  O168  1  0.389100  0.385000  0.806400  1.0  -0.6741
  O  O169  1  0.343100  0.385000  0.941100  1.0  -0.573
  O  O170  1  0.654800  0.055800  0.609200  1.0  -0.6104
  O  O171  1  0.607000  0.386000  0.583500  1.0  -0.6404
  O  O172  1  0.389100  0.193600  0.578600  1.0  -0.6784
  O  O173  1  0.343100  0.058900  0.443900  1.0  -0.5732
  O  O174  1  0.654800  0.390800  0.446600  1.0  -0.6103
  O  O175  1  0.607000  0.416500  0.802500  1.0  -0.6385
  O  O176  1  0.389100  0.421400  0.615000  1.0  -0.6744
  O  O177  1  0.343100  0.556100  0.615000  1.0  -0.5734
  O  O178  1  0.654800  0.553400  0.944200  1.0  -0.6112
  O  O179  1  0.607000  0.802500  0.386000  1.0  -0.6406
  O  O180  1  0.389100  0.615000  0.193600  1.0  -0.6757
  O  O181  1  0.343100  0.615000  0.058900  1.0  -0.5748
  O  O182  1  0.654800  0.944200  0.390800  1.0  -0.6098
  O  O183  1  0.607000  0.614000  0.416500  1.0  -0.6396
  O  O184  1  0.389100  0.806400  0.421400  1.0  -0.6744
  O  O185  1  0.343100  0.941100  0.556100  1.0  -0.5742
  O  O186  1  0.654800  0.609200  0.553400  1.0  -0.6102
  O  O187  1  0.607000  0.583500  0.197500  1.0  -0.6385
  O  O188  1  0.389100  0.578600  0.385000  1.0  -0.6758
  O  O189  1  0.343100  0.443900  0.385000  1.0  -0.5743
  O  O190  1  0.654800  0.446600  0.055800  1.0  -0.6114
