# generated using pymatgen
data_MnH6C10N3
_symmetry_space_group_name_H-M   'P 1'
_cell_length_a   8.36300000
_cell_length_b   12.82700000
_cell_length_c   12.98700000
_cell_angle_alpha   78.01000000
_cell_angle_beta   77.50000000
_cell_angle_gamma   71.85000000
_symmetry_Int_Tables_number   1
_chemical_formula_structural   MnH6C10N3
_chemical_formula_sum   'Mn4 H24 C40 N12'
_cell_volume   1277.57800754
_cell_formula_units_Z   4
loop_
 _symmetry_equiv_pos_site_id
 _symmetry_equiv_pos_as_xyz
  1  'x, y, z'
loop_
 _atom_site_type_symbol
 _atom_site_label
 _atom_site_symmetry_multiplicity
 _atom_site_fract_x
 _atom_site_fract_y
 _atom_site_fract_z
 _atom_site_occupancy
 _atom_site_charge
  Mn  Mn1  1  0.361890  0.098080  0.309910  1.0  0.9969
  Mn  Mn2  1  0.895630  0.220120  0.041460  1.0  0.9727
  Mn  Mn3  1  0.638110  0.901920  0.690090  1.0  0.9979
  Mn  Mn4  1  0.104370  0.779880  0.958540  1.0  0.9724
  H  H5  1  0.348000  0.974600  0.116500  1.0  0.0488
  H  H6  1  0.456900  0.807200  0.055900  1.0  0.0852
  H  H7  1  0.799300  0.721700  0.252900  1.0  0.087
  H  H8  1  0.681900  0.892400  0.306500  1.0  0.0531
  H  H9  1  0.716300  0.484600  0.942500  1.0  0.0455
  H  H10  1  0.623300  0.662400  0.977300  1.0  0.0959
  H  H11  1  0.812500  0.552400  0.248200  1.0  0.0918
  H  H12  1  0.903100  0.378800  0.203200  1.0  0.0388
  H  H13  1  0.261600  0.359500  0.258400  1.0  0.0432
  H  H14  1  0.121800  0.520200  0.327100  1.0  0.0906
  H  H15  1  0.997600  0.335800  0.605200  1.0  0.091
  H  H16  1  0.137000  0.181400  0.527700  1.0  0.0533
  H  H17  1  0.652000  0.025400  0.883500  1.0  0.0483
  H  H18  1  0.543100  0.192800  0.944100  1.0  0.0872
  H  H19  1  0.200700  0.278300  0.747100  1.0  0.0861
  H  H20  1  0.318100  0.107600  0.693500  1.0  0.0528
  H  H21  1  0.283700  0.515400  0.057500  1.0  0.0454
  H  H22  1  0.376700  0.337600  0.022700  1.0  0.096
  H  H23  1  0.187500  0.447600  0.751800  1.0  0.0915
  H  H24  1  0.096900  0.621200  0.796800  1.0  0.0388
  H  H25  1  0.738400  0.640500  0.741600  1.0  0.0432
  H  H26  1  0.878200  0.479800  0.672900  1.0  0.0907
  H  H27  1  0.002400  0.664200  0.394800  1.0  0.0911
  H  H28  1  0.863000  0.818600  0.472300  1.0  0.0533
  C  C29  1  0.477300  0.019700  0.459500  1.0  -0.0643
  C  C30  1  0.437900  0.922200  0.145800  1.0  0.1463
  C  C31  1  0.503700  0.821600  0.108400  1.0  -0.2191
  C  C32  1  0.638700  0.742700  0.148600  1.0  0.0606
  C  C33  1  0.706100  0.771300  0.224600  1.0  -0.2387
  C  C34  1  0.633300  0.873900  0.257300  1.0  0.1343
  C  C35  1  0.736100  0.498300  0.005500  1.0  0.1581
  C  C36  1  0.678700  0.605900  0.025800  1.0  -0.2275
  C  C37  1  0.704500  0.628600  0.119200  1.0  0.0604
  C  C38  1  0.790400  0.541100  0.184800  1.0  -0.2239
  C  C39  1  0.844200  0.436300  0.157000  1.0  0.1577
  C  C40  1  0.675900  0.198500  0.158200  1.0  1e-04
  C  C41  1  0.109500  0.194500  0.123100  1.0  -0.0916
  C  C42  1  0.855100  0.286300  0.879100  1.0  0.0265
  C  C43  1  0.979200  0.043900  0.010500  1.0  -0.0211
  C  C44  1  0.207600  0.354700  0.329000  1.0  0.1645
  C  C45  1  0.124400  0.452100  0.370100  1.0  -0.2058
  C  C46  1  0.044300  0.447900  0.476300  1.0  0.0704
  C  C47  1  0.050500  0.343100  0.534400  1.0  -0.2161
  C  C48  1  0.135000  0.250400  0.487000  1.0  0.1539
  C  C49  1  0.522700  0.980300  0.540500  1.0  -0.0649
  C  C50  1  0.562100  0.077800  0.854200  1.0  0.1457
  C  C51  1  0.496300  0.178400  0.891600  1.0  -0.2193
  C  C52  1  0.361300  0.257300  0.851400  1.0  0.059
  C  C53  1  0.293900  0.228700  0.775400  1.0  -0.2371
  C  C54  1  0.366700  0.126100  0.742700  1.0  0.1338
  C  C55  1  0.263900  0.501700  0.994500  1.0  0.1596
  C  C56  1  0.321300  0.394100  0.974200  1.0  -0.2265
  C  C57  1  0.295500  0.371400  0.880800  1.0  0.0595
  C  C58  1  0.209600  0.458900  0.815200  1.0  -0.2243
  C  C59  1  0.155800  0.563700  0.843000  1.0  0.1582
  C  C60  1  0.324100  0.801500  0.841800  1.0  -0.0023
  C  C61  1  0.890500  0.805500  0.876900  1.0  -0.0943
  C  C62  1  0.144900  0.713700  0.120900  1.0  0.0267
  C  C63  1  0.020800  0.956100  0.989500  1.0  -0.0196
  C  C64  1  0.792400  0.645300  0.671000  1.0  0.1656
  C  C65  1  0.875600  0.547900  0.629900  1.0  -0.206
  C  C66  1  0.955700  0.552100  0.523700  1.0  0.0709
  C  C67  1  0.949500  0.656900  0.465600  1.0  -0.2179
  C  C68  1  0.865000  0.749600  0.513000  1.0  0.1531
  N  N69  1  0.497200  0.948000  0.222300  1.0  -0.3517
  N  N70  1  0.818200  0.411800  0.069700  1.0  -0.3609
  N  N71  1  0.835300  0.318400  0.793900  1.0  -0.4636
  N  N72  1  0.206200  0.172300  0.179100  1.0  -0.4411
  N  N73  1  0.214900  0.253600  0.385200  1.0  -0.3814
  N  N74  1  0.565800  0.177100  0.219100  1.0  -0.4201
  N  N75  1  0.502800  0.052000  0.777700  1.0  -0.3515
  N  N76  1  0.181800  0.588200  0.930300  1.0  -0.3587
  N  N77  1  0.164700  0.681600  0.206100  1.0  -0.4632
  N  N78  1  0.793800  0.827700  0.820900  1.0  -0.4408
  N  N79  1  0.785100  0.746400  0.614800  1.0  -0.3822
  N  N80  1  0.434200  0.822900  0.780900  1.0  -0.4179
