# generated using pymatgen
data_NdH12(C3O2)3
_symmetry_space_group_name_H-M   'P 1'
_cell_length_a   8.62660000
_cell_length_b   9.91900000
_cell_length_c   11.69400000
_cell_angle_alpha   74.70000000
_cell_angle_beta   69.75000000
_cell_angle_gamma   85.92000000
_symmetry_Int_Tables_number   1
_chemical_formula_structural   NdH12(C3O2)3
_chemical_formula_sum   'Nd2 H24 C18 O12'
_cell_volume   905.27831155
_cell_formula_units_Z   2
loop_
 _symmetry_equiv_pos_site_id
 _symmetry_equiv_pos_as_xyz
  1  'x, y, z'
loop_
 _atom_site_type_symbol
 _atom_site_label
 _atom_site_symmetry_multiplicity
 _atom_site_fract_x
 _atom_site_fract_y
 _atom_site_fract_z
 _atom_site_occupancy
 _atom_site_charge
  Nd  Nd1  1  0.245530  0.477590  0.011840  1.0  2.2609
  Nd  Nd2  1  0.754470  0.522410  0.988160  1.0  2.2606
  H  H3  1  0.232000  0.525700  0.328200  1.0  0.1275
  H  H4  1  0.252900  0.687900  0.274400  1.0  0.1213
  H  H5  1  0.405400  0.702500  0.396800  1.0  0.0669
  H  H6  1  0.415300  0.539100  0.438800  1.0  0.0625
  H  H7  1  0.122200  0.690800  0.507600  1.0  0.0679
  H  H8  1  0.124300  0.527200  0.543300  1.0  0.0691
  H  H9  1  0.294900  0.539100  0.663100  1.0  0.1145
  H  H10  1  0.266900  0.700300  0.637300  1.0  0.1321
  H  H11  1  0.250100  0.982500  0.217400  1.0  0.117
  H  H12  1  0.220200  0.970900  0.095400  1.0  0.1087
  H  H13  1  0.478500  0.879500  0.101000  1.0  0.0626
  H  H14  1  0.534300  0.026100  0.102000  1.0  0.0699
  H  H15  1  0.768000  0.474300  0.671800  1.0  0.1268
  H  H16  1  0.747100  0.312100  0.725600  1.0  0.1212
  H  H17  1  0.594600  0.297500  0.603200  1.0  0.0659
  H  H18  1  0.584700  0.460900  0.561200  1.0  0.0617
  H  H19  1  0.877800  0.309200  0.492400  1.0  0.0674
  H  H20  1  0.875700  0.472800  0.456700  1.0  0.0695
  H  H21  1  0.705100  0.460900  0.336900  1.0  0.1157
  H  H22  1  0.733100  0.299700  0.362700  1.0  0.1323
  H  H23  1  0.749900  0.017500  0.782600  1.0  0.1161
  H  H24  1  0.779800  0.029100  0.904600  1.0  0.1088
  H  H25  1  0.521500  0.120500  0.899000  1.0  0.0651
  H  H26  1  0.465700  0.973900  0.898000  1.0  0.0692
  C  C27  1  0.455000  0.584600  0.192600  1.0  0.7808
  C  C28  1  0.308500  0.603900  0.302600  1.0  -0.3483
  C  C29  1  0.345500  0.615400  0.416800  1.0  -0.0667
  C  C30  1  0.187800  0.610700  0.528600  1.0  -0.0695
  C  C31  1  0.216600  0.611100  0.648800  1.0  -0.3546
  C  C32  1  0.064700  0.587400  0.764200  1.0  0.8109
  C  C33  1  0.260700  0.172200  0.092400  1.0  0.7451
  C  C34  1  0.287000  0.017100  0.126300  1.0  -0.3208
  C  C35  1  0.467500  0.979500  0.071400  1.0  -0.0905
  C  C36  1  0.545000  0.415400  0.807400  1.0  0.7789
  C  C37  1  0.691500  0.396100  0.697400  1.0  -0.3476
  C  C38  1  0.654500  0.384600  0.583200  1.0  -0.0684
  C  C39  1  0.812200  0.389300  0.471400  1.0  -0.07
  C  C40  1  0.783400  0.388900  0.351200  1.0  -0.3543
  C  C41  1  0.935300  0.412600  0.235800  1.0  0.8103
  C  C42  1  0.739300  0.827800  0.907600  1.0  0.746
  C  C43  1  0.713000  0.982900  0.873700  1.0  -0.3208
  C  C44  1  0.532500  0.020500  0.928600  1.0  -0.09
  O  O45  1  0.431000  0.535300  0.110380  1.0  -0.8647
  O  O46  1  0.599800  0.615600  0.180110  1.0  -0.662
  O  O47  1  0.077000  0.544100  0.872830  1.0  -0.8891
  O  O48  1  0.923600  0.606700  0.754100  1.0  -0.6648
  O  O49  1  0.362900  0.253800  0.097500  1.0  -0.6915
  O  O50  1  0.141000  0.219700  0.057700  1.0  -0.6905
  O  O51  1  0.569000  0.464700  0.889620  1.0  -0.8683
  O  O52  1  0.400200  0.384400  0.819890  1.0  -0.6622
  O  O53  1  0.923000  0.455900  0.127170  1.0  -0.89
  O  O54  1  0.076400  0.393300  0.245900  1.0  -0.6657
  O  O55  1  0.637100  0.746200  0.902500  1.0  -0.6891
  O  O56  1  0.859000  0.780300  0.942300  1.0  -0.6937
