# generated using pymatgen
data_NdH12(C3O2)3
_symmetry_space_group_name_H-M   'P 1'
_cell_length_a   8.67420000
_cell_length_b   9.96860000
_cell_length_c   11.75600000
_cell_angle_alpha   74.81000000
_cell_angle_beta   69.69900000
_cell_angle_gamma   85.93000000
_symmetry_Int_Tables_number   1
_chemical_formula_structural   NdH12(C3O2)3
_chemical_formula_sum   'Nd2 H24 C18 O12'
_cell_volume   919.86006454
_cell_formula_units_Z   2
loop_
 _symmetry_equiv_pos_site_id
 _symmetry_equiv_pos_as_xyz
  1  'x, y, z'
loop_
 _atom_site_type_symbol
 _atom_site_label
 _atom_site_symmetry_multiplicity
 _atom_site_fract_x
 _atom_site_fract_y
 _atom_site_fract_z
 _atom_site_occupancy
 _atom_site_charge
  Nd  Nd1  1  0.254450  0.522420  0.488090  1.0  2.2625
  Nd  Nd2  1  0.745550  0.477580  0.511910  1.0  2.263
  H  H3  1  0.767300  0.700200  0.137500  1.0  0.1303
  H  H4  1  0.795400  0.539700  0.162700  1.0  0.1172
  H  H5  1  0.624500  0.528000  0.043100  1.0  0.072
  H  H6  1  0.623100  0.690800  0.007500  1.0  0.0679
  H  H7  1  0.914900  0.539200  0.939300  1.0  0.0631
  H  H8  1  0.905400  0.701600  0.897200  1.0  0.0703
  H  H9  1  0.734500  0.525300  0.828700  1.0  0.1364
  H  H10  1  0.754400  0.686500  0.775600  1.0  0.1239
  H  H11  1  0.278400  0.030400  0.400900  1.0  0.1103
  H  H12  1  0.244800  0.015800  0.282100  1.0  0.1211
  H  H13  1  0.024000  0.122000  0.400500  1.0  0.0686
  H  H14  1  0.965200  0.978800  0.396600  1.0  0.0709
  H  H15  1  0.232700  0.299800  0.862500  1.0  0.1306
  H  H16  1  0.204600  0.460300  0.837300  1.0  0.118
  H  H17  1  0.375500  0.472000  0.956900  1.0  0.0727
  H  H18  1  0.376900  0.309200  0.992500  1.0  0.069
  H  H19  1  0.085100  0.460800  0.060700  1.0  0.0626
  H  H20  1  0.094600  0.298400  0.102800  1.0  0.0691
  H  H21  1  0.265500  0.474700  0.171300  1.0  0.1335
  H  H22  1  0.245600  0.313500  0.224400  1.0  0.1247
  H  H23  1  0.721600  0.969600  0.599100  1.0  0.1118
  H  H24  1  0.755200  0.984200  0.717900  1.0  0.1221
  H  H25  1  0.976000  0.878000  0.599500  1.0  0.0657
  H  H26  1  0.034800  0.021200  0.603400  1.0  0.0696
  C  C27  1  0.564900  0.587400  0.263200  1.0  0.8099
  C  C28  1  0.717500  0.611400  0.148600  1.0  -0.3507
  C  C29  1  0.688000  0.611000  0.028400  1.0  -0.0736
  C  C30  1  0.845800  0.615100  0.917000  1.0  -0.0678
  C  C31  1  0.810300  0.603300  0.803300  1.0  -0.3739
  C  C32  1  0.955700  0.584300  0.692500  1.0  0.7733
  C  C33  1  0.238700  0.829200  0.407100  1.0  0.745
  C  C34  1  0.210200  0.983100  0.372700  1.0  -0.3238
  C  C35  1  0.033000  0.022100  0.428100  1.0  -0.0746
  C  C36  1  0.435100  0.412600  0.736800  1.0  0.8033
  C  C37  1  0.282500  0.388600  0.851400  1.0  -0.3543
  C  C38  1  0.312000  0.389000  0.971600  1.0  -0.0763
  C  C39  1  0.154200  0.384900  0.083000  1.0  -0.0657
  C  C40  1  0.189700  0.396700  0.196700  1.0  -0.3725
  C  C41  1  0.044300  0.415700  0.307500  1.0  0.7727
  C  C42  1  0.761300  0.170800  0.592900  1.0  0.7459
  C  C43  1  0.789800  0.016900  0.627300  1.0  -0.3259
  C  C44  1  0.967000  0.977900  0.571900  1.0  -0.0795
  O  O45  1  0.424600  0.607300  0.253600  1.0  -0.6659
  O  O46  1  0.577200  0.544300  0.372000  1.0  -0.8964
  O  O47  1  0.099000  0.616400  0.681200  1.0  -0.6479
  O  O48  1  0.932100  0.535200  0.610500  1.0  -0.855
  O  O49  1  0.137300  0.747100  0.401600  1.0  -0.7137
  O  O50  1  0.357600  0.781600  0.441000  1.0  -0.6902
  O  O51  1  0.575400  0.392700  0.746400  1.0  -0.6691
  O  O52  1  0.422800  0.455700  0.628000  1.0  -0.8888
  O  O53  1  0.901000  0.383600  0.318800  1.0  -0.6488
  O  O54  1  0.067900  0.464800  0.389500  1.0  -0.8574
  O  O55  1  0.862700  0.252900  0.598400  1.0  -0.7166
  O  O56  1  0.642400  0.218400  0.559000  1.0  -0.6884
