# generated using pymatgen
data_Mn2H6C16N2O13
_symmetry_space_group_name_H-M   'P 1'
_cell_length_a   25.76750000
_cell_length_b   16.88910000
_cell_length_c   13.28190000
_cell_angle_alpha   90.00000000
_cell_angle_beta   104.73000000
_cell_angle_gamma   90.00000000
_symmetry_Int_Tables_number   1
_chemical_formula_structural   Mn2H6C16N2O13
_chemical_formula_sum   'Mn16 H48 C128 N16 O104'
_cell_volume   5590.18251378
_cell_formula_units_Z   8
loop_
 _symmetry_equiv_pos_site_id
 _symmetry_equiv_pos_as_xyz
  1  'x, y, z'
loop_
 _atom_site_type_symbol
 _atom_site_label
 _atom_site_symmetry_multiplicity
 _atom_site_fract_x
 _atom_site_fract_y
 _atom_site_fract_z
 _atom_site_occupancy
 _atom_site_charge
  Mn  Mn1  1  0.634430  0.072910  0.856670  1.0  1.1033
  Mn  Mn2  1  0.672870  0.995620  0.615950  1.0  1.1229
  Mn  Mn3  1  0.134430  0.572910  0.856670  1.0  1.1033
  Mn  Mn4  1  0.172870  0.495620  0.615950  1.0  1.1229
  Mn  Mn5  1  0.365570  0.072910  0.643330  1.0  1.1013
  Mn  Mn6  1  0.327130  0.995620  0.884050  1.0  1.1255
  Mn  Mn7  1  0.865570  0.572910  0.643330  1.0  1.1013
  Mn  Mn8  1  0.827130  0.495620  0.884050  1.0  1.1255
  Mn  Mn9  1  0.365570  0.927090  0.143330  1.0  1.1006
  Mn  Mn10  1  0.327130  0.004380  0.384050  1.0  1.1259
  Mn  Mn11  1  0.865570  0.427090  0.143330  1.0  1.1006
  Mn  Mn12  1  0.827130  0.504380  0.384050  1.0  1.1259
  Mn  Mn13  1  0.634430  0.927090  0.356670  1.0  1.102
  Mn  Mn14  1  0.672870  0.004380  0.115950  1.0  1.1231
  Mn  Mn15  1  0.134430  0.427090  0.356670  1.0  1.102
  Mn  Mn16  1  0.172870  0.504380  0.115950  1.0  1.1231
  H  H17  1  0.971700  0.476100  0.824600  1.0  0.1208
  H  H18  1  0.051900  0.308200  0.012300  1.0  0.1341
  H  H19  1  0.807800  0.123100  0.675000  1.0  0.1352
  H  H20  1  0.774700  0.225600  0.921100  1.0  0.1097
  H  H21  1  0.677300  0.061000  0.428900  1.0  0.4323
  H  H22  1  0.699100  0.984900  0.435300  1.0  0.3455
  H  H23  1  0.471700  0.976100  0.824600  1.0  0.1208
  H  H24  1  0.551900  0.808200  0.012300  1.0  0.1341
  H  H25  1  0.307800  0.623100  0.675000  1.0  0.1352
  H  H26  1  0.274700  0.725600  0.921100  1.0  0.1097
  H  H27  1  0.177300  0.561000  0.428900  1.0  0.4323
  H  H28  1  0.199100  0.484900  0.435300  1.0  0.3455
  H  H29  1  0.028300  0.476100  0.675400  1.0  0.1203
  H  H30  1  0.948100  0.308200  0.487700  1.0  0.135
  H  H31  1  0.192200  0.123100  0.825000  1.0  0.1348
  H  H32  1  0.225300  0.225600  0.578900  1.0  0.1092
  H  H33  1  0.322700  0.061000  0.071100  1.0  0.433
  H  H34  1  0.300900  0.984900  0.064700  1.0  0.3472
  H  H35  1  0.528300  0.976100  0.675400  1.0  0.1203
  H  H36  1  0.448100  0.808200  0.487700  1.0  0.135
  H  H37  1  0.692200  0.623100  0.825000  1.0  0.1348
  H  H38  1  0.725300  0.725600  0.578900  1.0  0.1092
  H  H39  1  0.822700  0.561000  0.071100  1.0  0.433
  H  H40  1  0.800900  0.484900  0.064700  1.0  0.3472
  H  H41  1  0.028300  0.523900  0.175400  1.0  0.1211
  H  H42  1  0.948100  0.691800  0.987700  1.0  0.135
  H  H43  1  0.192200  0.876900  0.325000  1.0  0.1353
  H  H44  1  0.225300  0.774400  0.078900  1.0  0.1094
  H  H45  1  0.322700  0.939000  0.571100  1.0  0.4316
  H  H46  1  0.300900  0.015100  0.564700  1.0  0.3457
  H  H47  1  0.528300  0.023900  0.175400  1.0  0.1211
  H  H48  1  0.448100  0.191800  0.987700  1.0  0.135
  H  H49  1  0.692200  0.376900  0.325000  1.0  0.1353
  H  H50  1  0.725300  0.274400  0.078900  1.0  0.1094
  H  H51  1  0.822700  0.439000  0.571100  1.0  0.4316
  H  H52  1  0.800900  0.515100  0.564700  1.0  0.3457
  H  H53  1  0.971700  0.523900  0.324600  1.0  0.1215
  H  H54  1  0.051900  0.691800  0.512300  1.0  0.1343
  H  H55  1  0.807800  0.876900  0.175000  1.0  0.1354
  H  H56  1  0.774700  0.774400  0.421100  1.0  0.1098
  H  H57  1  0.677300  0.939000  0.928900  1.0  0.4312
  H  H58  1  0.699100  0.015100  0.935300  1.0  0.3447
  H  H59  1  0.471700  0.023900  0.324600  1.0  0.1215
  H  H60  1  0.551900  0.191800  0.512300  1.0  0.1343
  H  H61  1  0.307800  0.376900  0.175000  1.0  0.1354
  H  H62  1  0.274700  0.274400  0.421100  1.0  0.1098
  H  H63  1  0.177300  0.439000  0.928900  1.0  0.4312
  H  H64  1  0.199100  0.515100  0.935300  1.0  0.3447
  C  C65  1  0.066700  0.454300  0.953900  1.0  0.7103
  C  C66  1  0.018300  0.400200  0.921500  1.0  -0.1259
  C  C67  1  0.973200  0.425000  0.851200  1.0  -0.043
  C  C68  1  0.929200  0.374800  0.818400  1.0  -0.0907
  C  C69  1  0.931100  0.297400  0.858400  1.0  0.0366
  C  C70  1  0.978400  0.273800  0.930500  1.0  0.0975
  C  C71  1  0.021300  0.324500  0.963000  1.0  -0.0551
  C  C72  1  0.880300  0.404100  0.737500  1.0  0.6757
  C  C73  1  0.880600  0.248100  0.833500  1.0  0.0211
  C  C74  1  0.865200  0.196300  0.750800  1.0  0.089
  C  C75  1  0.817700  0.157300  0.731600  1.0  -0.0544
  C  C76  1  0.783600  0.168600  0.797200  1.0  -0.1228
  C  C77  1  0.797500  0.218500  0.877600  1.0  -0.0247
  C  C78  1  0.845300  0.259700  0.896800  1.0  -0.0837
  C  C79  1  0.860200  0.316100  0.988200  1.0  0.7218
  C  C80  1  0.730100  0.125400  0.775300  1.0  0.7552
  C  C81  1  0.566700  0.954300  0.953900  1.0  0.7103
  C  C82  1  0.518300  0.900200  0.921500  1.0  -0.1259
  C  C83  1  0.473200  0.925000  0.851200  1.0  -0.043
  C  C84  1  0.429200  0.874800  0.818400  1.0  -0.0907
  C  C85  1  0.431100  0.797400  0.858400  1.0  0.0366
  C  C86  1  0.478400  0.773800  0.930500  1.0  0.0975
  C  C87  1  0.521300  0.824500  0.963000  1.0  -0.0551
  C  C88  1  0.380300  0.904100  0.737500  1.0  0.6757
  C  C89  1  0.380600  0.748100  0.833500  1.0  0.0211
  C  C90  1  0.365200  0.696300  0.750800  1.0  0.089
  C  C91  1  0.317700  0.657300  0.731600  1.0  -0.0544
  C  C92  1  0.283600  0.668600  0.797200  1.0  -0.1228
  C  C93  1  0.297500  0.718500  0.877600  1.0  -0.0247
  C  C94  1  0.345300  0.759700  0.896800  1.0  -0.0837
  C  C95  1  0.360200  0.816100  0.988200  1.0  0.7218
  C  C96  1  0.230100  0.625400  0.775300  1.0  0.7552
  C  C97  1  0.933300  0.454300  0.546100  1.0  0.7085
  C  C98  1  0.981700  0.400200  0.578500  1.0  -0.1254
  C  C99  1  0.026800  0.425000  0.648800  1.0  -0.0433
  C  C100  1  0.070800  0.374800  0.681600  1.0  -0.0906
  C  C101  1  0.068900  0.297400  0.641600  1.0  0.0361
  C  C102  1  0.021600  0.273800  0.569500  1.0  0.0959
  C  C103  1  0.978700  0.324500  0.537000  1.0  -0.0532
  C  C104  1  0.119700  0.404100  0.762500  1.0  0.6773
  C  C105  1  0.119400  0.248100  0.666500  1.0  0.0213
  C  C106  1  0.134800  0.196300  0.749200  1.0  0.0883
  C  C107  1  0.182300  0.157300  0.768400  1.0  -0.0544
  C  C108  1  0.216400  0.168600  0.702800  1.0  -0.1219
  C  C109  1  0.202500  0.218500  0.622400  1.0  -0.0232
  C  C110  1  0.154700  0.259700  0.603200  1.0  -0.0839
  C  C111  1  0.139800  0.316100  0.511800  1.0  0.724
  C  C112  1  0.269900  0.125400  0.724700  1.0  0.755
  C  C113  1  0.433300  0.954300  0.546100  1.0  0.7085
  C  C114  1  0.481700  0.900200  0.578500  1.0  -0.1254
  C  C115  1  0.526800  0.925000  0.648800  1.0  -0.0433
  C  C116  1  0.570800  0.874800  0.681600  1.0  -0.0906
  C  C117  1  0.568900  0.797400  0.641600  1.0  0.0361
  C  C118  1  0.521600  0.773800  0.569500  1.0  0.0959
  C  C119  1  0.478700  0.824500  0.537000  1.0  -0.0532
  C  C120  1  0.619700  0.904100  0.762500  1.0  0.6773
  C  C121  1  0.619400  0.748100  0.666500  1.0  0.0213
  C  C122  1  0.634800  0.696300  0.749200  1.0  0.0883
  C  C123  1  0.682300  0.657300  0.768400  1.0  -0.0544
  C  C124  1  0.716400  0.668600  0.702800  1.0  -0.1219
  C  C125  1  0.702500  0.718500  0.622400  1.0  -0.0232
  C  C126  1  0.654700  0.759700  0.603200  1.0  -0.0839
  C  C127  1  0.639800  0.816100  0.511800  1.0  0.724
  C  C128  1  0.769900  0.625400  0.724700  1.0  0.755
  C  C129  1  0.933300  0.545700  0.046100  1.0  0.7061
  C  C130  1  0.981700  0.599800  0.078500  1.0  -0.1257
  C  C131  1  0.026800  0.575000  0.148800  1.0  -0.0434
  C  C132  1  0.070800  0.625200  0.181600  1.0  -0.0902
  C  C133  1  0.068900  0.702600  0.141600  1.0  0.0366
  C  C134  1  0.021600  0.726200  0.069500  1.0  0.0953
  C  C135  1  0.978700  0.675500  0.037000  1.0  -0.0536
  C  C136  1  0.119700  0.595900  0.262500  1.0  0.6779
  C  C137  1  0.119400  0.751900  0.166500  1.0  0.0223
  C  C138  1  0.134800  0.803700  0.249200  1.0  0.0891
  C  C139  1  0.182300  0.842700  0.268400  1.0  -0.0549
  C  C140  1  0.216400  0.831400  0.202800  1.0  -0.122
  C  C141  1  0.202500  0.781500  0.122400  1.0  -0.0232
  C  C142  1  0.154700  0.740300  0.103200  1.0  -0.0842
  C  C143  1  0.139800  0.683900  0.011800  1.0  0.7238
  C  C144  1  0.269900  0.874600  0.224700  1.0  0.7557
  C  C145  1  0.433300  0.045700  0.046100  1.0  0.7061
  C  C146  1  0.481700  0.099800  0.078500  1.0  -0.1257
  C  C147  1  0.526800  0.075000  0.148800  1.0  -0.0434
  C  C148  1  0.570800  0.125200  0.181600  1.0  -0.0902
  C  C149  1  0.568900  0.202600  0.141600  1.0  0.0366
  C  C150  1  0.521600  0.226200  0.069500  1.0  0.0953
  C  C151  1  0.478700  0.175500  0.037000  1.0  -0.0536
  C  C152  1  0.619700  0.095900  0.262500  1.0  0.6779
  C  C153  1  0.619400  0.251900  0.166500  1.0  0.0223
  C  C154  1  0.634800  0.303700  0.249200  1.0  0.0891
  C  C155  1  0.682300  0.342700  0.268400  1.0  -0.0549
  C  C156  1  0.716400  0.331400  0.202800  1.0  -0.122
  C  C157  1  0.702500  0.281500  0.122400  1.0  -0.0232
  C  C158  1  0.654700  0.240300  0.103200  1.0  -0.0842
  C  C159  1  0.639800  0.183900  0.011800  1.0  0.7238
  C  C160  1  0.769900  0.374600  0.224700  1.0  0.7557
  C  C161  1  0.066700  0.545700  0.453900  1.0  0.7079
  C  C162  1  0.018300  0.599800  0.421500  1.0  -0.1256
  C  C163  1  0.973200  0.575000  0.351200  1.0  -0.0435
  C  C164  1  0.929200  0.625200  0.318400  1.0  -0.0907
  C  C165  1  0.931100  0.702600  0.358400  1.0  0.0371
  C  C166  1  0.978400  0.726200  0.430500  1.0  0.0959
  C  C167  1  0.021300  0.675500  0.463000  1.0  -0.056
  C  C168  1  0.880300  0.595900  0.237500  1.0  0.676
  C  C169  1  0.880600  0.751900  0.333500  1.0  0.0217
  C  C170  1  0.865200  0.803700  0.250800  1.0  0.0884
  C  C171  1  0.817700  0.842700  0.231600  1.0  -0.0547
  C  C172  1  0.783600  0.831400  0.297200  1.0  -0.1219
  C  C173  1  0.797500  0.781500  0.377600  1.0  -0.0246
  C  C174  1  0.845300  0.740300  0.396800  1.0  -0.0839
  C  C175  1  0.860200  0.683900  0.488200  1.0  0.7215
  C  C176  1  0.730100  0.874600  0.275300  1.0  0.7556
  C  C177  1  0.566700  0.045700  0.453900  1.0  0.7079
  C  C178  1  0.518300  0.099800  0.421500  1.0  -0.1256
  C  C179  1  0.473200  0.075000  0.351200  1.0  -0.0435
  C  C180  1  0.429200  0.125200  0.318400  1.0  -0.0907
  C  C181  1  0.431100  0.202600  0.358400  1.0  0.0371
  C  C182  1  0.478400  0.226200  0.430500  1.0  0.0959
  C  C183  1  0.521300  0.175500  0.463000  1.0  -0.056
  C  C184  1  0.380300  0.095900  0.237500  1.0  0.676
  C  C185  1  0.380600  0.251900  0.333500  1.0  0.0217
  C  C186  1  0.365200  0.303700  0.250800  1.0  0.0884
  C  C187  1  0.317700  0.342700  0.231600  1.0  -0.0547
  C  C188  1  0.283600  0.331400  0.297200  1.0  -0.1219
  C  C189  1  0.297500  0.281500  0.377600  1.0  -0.0246
  C  C190  1  0.345300  0.240300  0.396800  1.0  -0.0839
  C  C191  1  0.360200  0.183900  0.488200  1.0  0.7215
  C  C192  1  0.230100  0.374600  0.275300  1.0  0.7556
  N  N193  1  0.984200  0.195600  0.972600  1.0  0.6121
  N  N194  1  0.900000  0.178400  0.685200  1.0  0.5999
  N  N195  1  0.484200  0.695600  0.972600  1.0  0.6121
  N  N196  1  0.400000  0.678400  0.685200  1.0  0.5999
  N  N197  1  0.015800  0.195600  0.527400  1.0  0.6121
  N  N198  1  0.100000  0.178400  0.814800  1.0  0.6019
  N  N199  1  0.515800  0.695600  0.527400  1.0  0.6121
  N  N200  1  0.600000  0.678400  0.814800  1.0  0.6019
  N  N201  1  0.015800  0.804400  0.027400  1.0  0.6129
  N  N202  1  0.100000  0.821600  0.314800  1.0  0.6014
  N  N203  1  0.515800  0.304400  0.027400  1.0  0.6129
  N  N204  1  0.600000  0.321600  0.314800  1.0  0.6014
  N  N205  1  0.984200  0.804400  0.472600  1.0  0.6116
  N  N206  1  0.900000  0.821600  0.185200  1.0  0.6006
  N  N207  1  0.484200  0.304400  0.472600  1.0  0.6116
  N  N208  1  0.400000  0.321600  0.185200  1.0  0.6006
  O  O209  1  0.070200  0.508000  0.890200  1.0  -0.596
  O  O210  1  0.099200  0.443100  0.039800  1.0  -0.6021
  O  O211  1  0.863300  0.472200  0.755300  1.0  -0.6756
  O  O212  1  0.862100  0.363200  0.659800  1.0  -0.5242
  O  O213  1  0.884400  0.292900  0.071700  1.0  -0.5482
  O  O214  1  0.847500  0.387000  0.974600  1.0  -0.6523
  O  O215  1  0.708800  0.120100  0.849000  1.0  -0.5677
  O  O216  1  0.711000  0.099700  0.684600  1.0  -0.6387
  O  O217  1  0.879200  0.160700  0.595600  1.0  -0.4023
  O  O218  1  0.943700  0.201300  0.702800  1.0  -0.364
  O  O219  1  0.956700  0.140900  0.929500  1.0  -0.4028
  O  O220  1  0.017800  0.185700  0.061000  1.0  -0.4701
  O  O221  1  0.695700  0.026400  0.468700  1.0  -0.776
  O  O222  1  0.570200  0.008000  0.890200  1.0  -0.596
  O  O223  1  0.599200  0.943100  0.039800  1.0  -0.6021
  O  O224  1  0.363300  0.972200  0.755300  1.0  -0.6756
  O  O225  1  0.362100  0.863200  0.659800  1.0  -0.5242
  O  O226  1  0.384400  0.792900  0.071700  1.0  -0.5482
  O  O227  1  0.347500  0.887000  0.974600  1.0  -0.6523
  O  O228  1  0.208800  0.620100  0.849000  1.0  -0.5677
  O  O229  1  0.211000  0.599700  0.684600  1.0  -0.6387
  O  O230  1  0.379200  0.660700  0.595600  1.0  -0.4023
  O  O231  1  0.443700  0.701300  0.702800  1.0  -0.364
  O  O232  1  0.456700  0.640900  0.929500  1.0  -0.4028
  O  O233  1  0.517800  0.685700  0.061000  1.0  -0.4701
  O  O234  1  0.195700  0.526400  0.468700  1.0  -0.776
  O  O235  1  0.929800  0.508000  0.609800  1.0  -0.5957
  O  O236  1  0.900800  0.443100  0.460200  1.0  -0.6022
  O  O237  1  0.136700  0.472200  0.744700  1.0  -0.6761
  O  O238  1  0.137900  0.363200  0.840200  1.0  -0.5256
  O  O239  1  0.115600  0.292900  0.428300  1.0  -0.5498
  O  O240  1  0.152500  0.387000  0.525400  1.0  -0.653
  O  O241  1  0.291200  0.120100  0.651000  1.0  -0.5678
  O  O242  1  0.289000  0.099700  0.815400  1.0  -0.642
  O  O243  1  0.120800  0.160700  0.904400  1.0  -0.403
  O  O244  1  0.056300  0.201300  0.797200  1.0  -0.3624
  O  O245  1  0.043300  0.140900  0.570500  1.0  -0.4018
  O  O246  1  0.982200  0.185700  0.439000  1.0  -0.4646
  O  O247  1  0.304300  0.026400  0.031300  1.0  -0.7812
  O  O248  1  0.429800  0.008000  0.609800  1.0  -0.5957
  O  O249  1  0.400800  0.943100  0.460200  1.0  -0.6022
  O  O250  1  0.636700  0.972200  0.744700  1.0  -0.6761
  O  O251  1  0.637900  0.863200  0.840200  1.0  -0.5256
  O  O252  1  0.615600  0.792900  0.428300  1.0  -0.5498
  O  O253  1  0.652500  0.887000  0.525400  1.0  -0.653
  O  O254  1  0.791200  0.620100  0.651000  1.0  -0.5678
  O  O255  1  0.789000  0.599700  0.815400  1.0  -0.642
  O  O256  1  0.620800  0.660700  0.904400  1.0  -0.403
  O  O257  1  0.556300  0.701300  0.797200  1.0  -0.3624
  O  O258  1  0.543300  0.640900  0.570500  1.0  -0.4018
  O  O259  1  0.482200  0.685700  0.439000  1.0  -0.4646
  O  O260  1  0.804300  0.526400  0.031300  1.0  -0.7812
  O  O261  1  0.929800  0.492000  0.109800  1.0  -0.5953
  O  O262  1  0.900800  0.556900  0.960200  1.0  -0.6029
  O  O263  1  0.136700  0.527800  0.244700  1.0  -0.6769
  O  O264  1  0.137900  0.636800  0.340200  1.0  -0.5257
  O  O265  1  0.115600  0.707100  0.928300  1.0  -0.5489
  O  O266  1  0.152500  0.613000  0.025400  1.0  -0.6535
  O  O267  1  0.291200  0.879900  0.151000  1.0  -0.5673
  O  O268  1  0.289000  0.900300  0.315400  1.0  -0.641
  O  O269  1  0.120800  0.839300  0.404400  1.0  -0.4008
  O  O270  1  0.056300  0.798700  0.297200  1.0  -0.3663
  O  O271  1  0.043300  0.859100  0.070500  1.0  -0.4024
  O  O272  1  0.982200  0.814300  0.939000  1.0  -0.4704
  O  O273  1  0.304300  0.973600  0.531300  1.0  -0.781
  O  O274  1  0.429800  0.992000  0.109800  1.0  -0.5953
  O  O275  1  0.400800  0.056900  0.960200  1.0  -0.6029
  O  O276  1  0.636700  0.027800  0.244700  1.0  -0.6769
  O  O277  1  0.637900  0.136800  0.340200  1.0  -0.5257
  O  O278  1  0.615600  0.207100  0.928300  1.0  -0.5489
  O  O279  1  0.652500  0.113000  0.025400  1.0  -0.6535
  O  O280  1  0.791200  0.379900  0.151000  1.0  -0.5673
  O  O281  1  0.789000  0.400300  0.315400  1.0  -0.641
  O  O282  1  0.620800  0.339300  0.404400  1.0  -0.4008
  O  O283  1  0.556300  0.298700  0.297200  1.0  -0.3663
  O  O284  1  0.543300  0.359100  0.070500  1.0  -0.4024
  O  O285  1  0.482200  0.314300  0.939000  1.0  -0.4704
  O  O286  1  0.804300  0.473600  0.531300  1.0  -0.781
  O  O287  1  0.070200  0.492000  0.390200  1.0  -0.5965
  O  O288  1  0.099200  0.556900  0.539800  1.0  -0.6034
  O  O289  1  0.863300  0.527800  0.255300  1.0  -0.6758
  O  O290  1  0.862100  0.636800  0.159800  1.0  -0.5253
  O  O291  1  0.884400  0.707100  0.571700  1.0  -0.5469
  O  O292  1  0.847500  0.613000  0.474600  1.0  -0.6524
  O  O293  1  0.708800  0.879900  0.349000  1.0  -0.5674
  O  O294  1  0.711000  0.900300  0.184600  1.0  -0.6385
  O  O295  1  0.879200  0.839300  0.095600  1.0  -0.4048
  O  O296  1  0.943700  0.798700  0.202800  1.0  -0.3648
  O  O297  1  0.956700  0.859100  0.429500  1.0  -0.4035
  O  O298  1  0.017800  0.814300  0.561000  1.0  -0.4677
  O  O299  1  0.695700  0.973600  0.968700  1.0  -0.7748
  O  O300  1  0.570200  0.992000  0.390200  1.0  -0.5965
  O  O301  1  0.599200  0.056900  0.539800  1.0  -0.6034
  O  O302  1  0.363300  0.027800  0.255300  1.0  -0.6758
  O  O303  1  0.362100  0.136800  0.159800  1.0  -0.5253
  O  O304  1  0.384400  0.207100  0.571700  1.0  -0.5469
  O  O305  1  0.347500  0.113000  0.474600  1.0  -0.6524
  O  O306  1  0.208800  0.379900  0.349000  1.0  -0.5674
  O  O307  1  0.211000  0.400300  0.184600  1.0  -0.6385
  O  O308  1  0.379200  0.339300  0.095600  1.0  -0.4048
  O  O309  1  0.443700  0.298700  0.202800  1.0  -0.3648
  O  O310  1  0.456700  0.359100  0.429500  1.0  -0.4035
  O  O311  1  0.517800  0.314300  0.561000  1.0  -0.4677
  O  O312  1  0.195700  0.473600  0.968700  1.0  -0.7748
