# generated using pymatgen
data_MnH2C8NO6
_symmetry_space_group_name_H-M   'P 1'
_cell_length_a   25.56000000
_cell_length_b   17.28000000
_cell_length_c   13.18700000
_cell_angle_alpha   90.00000000
_cell_angle_beta   107.19800000
_cell_angle_gamma   90.00000000
_symmetry_Int_Tables_number   1
_chemical_formula_structural   MnH2C8NO6
_chemical_formula_sum   'Mn16 H32 C128 N16 O96'
_cell_volume   5563.97573034
_cell_formula_units_Z   16
loop_
 _symmetry_equiv_pos_site_id
 _symmetry_equiv_pos_as_xyz
  1  'x, y, z'
loop_
 _atom_site_type_symbol
 _atom_site_label
 _atom_site_symmetry_multiplicity
 _atom_site_fract_x
 _atom_site_fract_y
 _atom_site_fract_z
 _atom_site_occupancy
 _atom_site_charge
  Mn  Mn1  1  0.360590  0.068500  0.140810  1.0  1.1725
  Mn  Mn2  1  0.321900  0.014640  0.879280  1.0  1.1488
  Mn  Mn3  1  0.860590  0.568500  0.140810  1.0  1.1725
  Mn  Mn4  1  0.821900  0.514640  0.879280  1.0  1.1488
  Mn  Mn5  1  0.639410  0.068500  0.359190  1.0  1.1733
  Mn  Mn6  1  0.678100  0.014640  0.620720  1.0  1.1491
  Mn  Mn7  1  0.139410  0.568500  0.359190  1.0  1.1733
  Mn  Mn8  1  0.178100  0.514640  0.620720  1.0  1.1491
  Mn  Mn9  1  0.639410  0.931500  0.859190  1.0  1.1724
  Mn  Mn10  1  0.678100  0.985360  0.120720  1.0  1.149
  Mn  Mn11  1  0.139410  0.431500  0.859190  1.0  1.1724
  Mn  Mn12  1  0.178100  0.485360  0.120720  1.0  1.149
  Mn  Mn13  1  0.360590  0.931500  0.640810  1.0  1.1716
  Mn  Mn14  1  0.321900  0.985360  0.379280  1.0  1.1482
  Mn  Mn15  1  0.860590  0.431500  0.640810  1.0  1.1716
  Mn  Mn16  1  0.821900  0.485360  0.379280  1.0  1.1482
  H  H17  1  0.440900  0.816200  0.985300  1.0  0.1248
  H  H18  1  0.531000  0.975600  0.180900  1.0  0.1117
  H  H19  1  0.718000  0.721800  0.069300  1.0  0.1178
  H  H20  1  0.691100  0.622600  0.321400  1.0  0.1202
  H  H21  1  0.940900  0.316200  0.985300  1.0  0.1248
  H  H22  1  0.031000  0.475600  0.180900  1.0  0.1117
  H  H23  1  0.218000  0.221800  0.069300  1.0  0.1178
  H  H24  1  0.191100  0.122600  0.321400  1.0  0.1202
  H  H25  1  0.559100  0.816200  0.514700  1.0  0.1255
  H  H26  1  0.469000  0.975600  0.319100  1.0  0.1117
  H  H27  1  0.282000  0.721800  0.430700  1.0  0.1183
  H  H28  1  0.308900  0.622600  0.178600  1.0  0.1204
  H  H29  1  0.059100  0.316200  0.514700  1.0  0.1255
  H  H30  1  0.969000  0.475600  0.319100  1.0  0.1117
  H  H31  1  0.782000  0.221800  0.430700  1.0  0.1183
  H  H32  1  0.808900  0.122600  0.178600  1.0  0.1204
  H  H33  1  0.559100  0.183800  0.014700  1.0  0.1257
  H  H34  1  0.469000  0.024400  0.819100  1.0  0.1126
  H  H35  1  0.282000  0.278200  0.930700  1.0  0.1181
  H  H36  1  0.308900  0.377400  0.678600  1.0  0.1201
  H  H37  1  0.059100  0.683800  0.014700  1.0  0.1257
  H  H38  1  0.969000  0.524400  0.819100  1.0  0.1126
  H  H39  1  0.782000  0.778200  0.930700  1.0  0.1181
  H  H40  1  0.808900  0.877400  0.678600  1.0  0.1201
  H  H41  1  0.440900  0.183800  0.485300  1.0  0.1249
  H  H42  1  0.531000  0.024400  0.680900  1.0  0.1123
  H  H43  1  0.718000  0.278200  0.569300  1.0  0.118
  H  H44  1  0.691100  0.377400  0.821400  1.0  0.1202
  H  H45  1  0.940900  0.683800  0.485300  1.0  0.1249
  H  H46  1  0.031000  0.524400  0.680900  1.0  0.1123
  H  H47  1  0.218000  0.778200  0.569300  1.0  0.118
  H  H48  1  0.191100  0.877400  0.821400  1.0  0.1202
  C  C49  1  0.516740  0.781000  0.066900  1.0  0.0158
  C  C50  1  0.473380  0.831500  0.035000  1.0  -0.0899
  C  C51  1  0.478590  0.905000  0.077500  1.0  -0.136
  C  C52  1  0.527400  0.926200  0.151600  1.0  -0.0556
  C  C53  1  0.570880  0.874800  0.182600  1.0  -0.1041
  C  C54  1  0.566170  0.800600  0.141000  1.0  -0.0234
  C  C55  1  0.616110  0.750500  0.163700  1.0  0.0031
  C  C56  1  0.649190  0.759400  0.098200  1.0  -0.0972
  C  C57  1  0.696640  0.716100  0.114900  1.0  -0.0202
  C  C58  1  0.712480  0.664900  0.198100  1.0  -0.1547
  C  C59  1  0.680510  0.656500  0.264300  1.0  -0.0251
  C  C60  1  0.632650  0.698300  0.246500  1.0  0.1089
  C  C61  1  0.431090  0.959600  0.048600  1.0  0.7147
  C  C62  1  0.622600  0.900800  0.265600  1.0  0.677
  C  C63  1  0.633420  0.814200  0.005500  1.0  0.7293
  C  C64  1  0.765020  0.619400  0.217900  1.0  0.7199
  C  C65  1  0.016740  0.281000  0.066900  1.0  0.0158
  C  C66  1  0.973380  0.331500  0.035000  1.0  -0.0899
  C  C67  1  0.978590  0.405000  0.077500  1.0  -0.136
  C  C68  1  0.027400  0.426200  0.151600  1.0  -0.0556
  C  C69  1  0.070880  0.374800  0.182600  1.0  -0.1041
  C  C70  1  0.066170  0.300600  0.141000  1.0  -0.0234
  C  C71  1  0.116110  0.250500  0.163700  1.0  0.0031
  C  C72  1  0.149190  0.259400  0.098200  1.0  -0.0972
  C  C73  1  0.196640  0.216100  0.114900  1.0  -0.0202
  C  C74  1  0.212480  0.164900  0.198100  1.0  -0.1547
  C  C75  1  0.180510  0.156500  0.264300  1.0  -0.0251
  C  C76  1  0.132650  0.198300  0.246500  1.0  0.1089
  C  C77  1  0.931090  0.459600  0.048600  1.0  0.7147
  C  C78  1  0.122600  0.400800  0.265600  1.0  0.677
  C  C79  1  0.133420  0.314200  0.005500  1.0  0.7293
  C  C80  1  0.265020  0.119400  0.217900  1.0  0.7199
  C  C81  1  0.483260  0.781000  0.433100  1.0  0.0175
  C  C82  1  0.526620  0.831500  0.465000  1.0  -0.0932
  C  C83  1  0.521410  0.905000  0.422500  1.0  -0.1361
  C  C84  1  0.472600  0.926200  0.348400  1.0  -0.0555
  C  C85  1  0.429120  0.874800  0.317400  1.0  -0.1049
  C  C86  1  0.433830  0.800600  0.359000  1.0  -0.0235
  C  C87  1  0.383890  0.750500  0.336300  1.0  0.0025
  C  C88  1  0.350810  0.759400  0.401800  1.0  -0.0973
  C  C89  1  0.303360  0.716100  0.385100  1.0  -0.0187
  C  C90  1  0.287520  0.664900  0.301900  1.0  -0.1563
  C  C91  1  0.319490  0.656500  0.235700  1.0  -0.0232
  C  C92  1  0.367350  0.698300  0.253500  1.0  0.1095
  C  C93  1  0.568910  0.959600  0.451400  1.0  0.7144
  C  C94  1  0.377400  0.900800  0.234400  1.0  0.6852
  C  C95  1  0.366580  0.814200  0.494500  1.0  0.7287
  C  C96  1  0.234980  0.619400  0.282100  1.0  0.7214
  C  C97  1  0.983260  0.281000  0.433100  1.0  0.0175
  C  C98  1  0.026620  0.331500  0.465000  1.0  -0.0932
  C  C99  1  0.021410  0.405000  0.422500  1.0  -0.1361
  C  C100  1  0.972600  0.426200  0.348400  1.0  -0.0555
  C  C101  1  0.929120  0.374800  0.317400  1.0  -0.1049
  C  C102  1  0.933830  0.300600  0.359000  1.0  -0.0235
  C  C103  1  0.883890  0.250500  0.336300  1.0  0.0025
  C  C104  1  0.850810  0.259400  0.401800  1.0  -0.0973
  C  C105  1  0.803360  0.216100  0.385100  1.0  -0.0187
  C  C106  1  0.787520  0.164900  0.301900  1.0  -0.1563
  C  C107  1  0.819490  0.156500  0.235700  1.0  -0.0232
  C  C108  1  0.867350  0.198300  0.253500  1.0  0.1095
  C  C109  1  0.068910  0.459600  0.451400  1.0  0.7144
  C  C110  1  0.877400  0.400800  0.234400  1.0  0.6852
  C  C111  1  0.866580  0.314200  0.494500  1.0  0.7287
  C  C112  1  0.734980  0.119400  0.282100  1.0  0.7214
  C  C113  1  0.483260  0.219000  0.933100  1.0  0.0165
  C  C114  1  0.526620  0.168500  0.965000  1.0  -0.0938
  C  C115  1  0.521410  0.095000  0.922500  1.0  -0.1355
  C  C116  1  0.472600  0.073800  0.848400  1.0  -0.0549
  C  C117  1  0.429120  0.125200  0.817400  1.0  -0.1053
  C  C118  1  0.433830  0.199400  0.859000  1.0  -0.0235
  C  C119  1  0.383890  0.249500  0.836300  1.0  0.0024
  C  C120  1  0.350810  0.240600  0.901800  1.0  -0.097
  C  C121  1  0.303360  0.283900  0.885100  1.0  -0.0196
  C  C122  1  0.287520  0.335100  0.801900  1.0  -0.1555
  C  C123  1  0.319490  0.343500  0.735700  1.0  -0.0249
  C  C124  1  0.367350  0.301700  0.753500  1.0  0.1085
  C  C125  1  0.568910  0.040400  0.951400  1.0  0.7144
  C  C126  1  0.377400  0.099200  0.734400  1.0  0.6775
  C  C127  1  0.366580  0.185800  0.994500  1.0  0.728
  C  C128  1  0.234980  0.380600  0.782100  1.0  0.721
  C  C129  1  0.983260  0.719000  0.933100  1.0  0.0165
  C  C130  1  0.026620  0.668500  0.965000  1.0  -0.0938
  C  C131  1  0.021410  0.595000  0.922500  1.0  -0.1355
  C  C132  1  0.972600  0.573800  0.848400  1.0  -0.0549
  C  C133  1  0.929120  0.625200  0.817400  1.0  -0.1053
  C  C134  1  0.933830  0.699400  0.859000  1.0  -0.0235
  C  C135  1  0.883890  0.749500  0.836300  1.0  0.0024
  C  C136  1  0.850810  0.740600  0.901800  1.0  -0.097
  C  C137  1  0.803360  0.783900  0.885100  1.0  -0.0196
  C  C138  1  0.787520  0.835100  0.801900  1.0  -0.1555
  C  C139  1  0.819490  0.843500  0.735700  1.0  -0.0249
  C  C140  1  0.867350  0.801700  0.753500  1.0  0.1085
  C  C141  1  0.068910  0.540400  0.951400  1.0  0.7144
  C  C142  1  0.877400  0.599200  0.734400  1.0  0.6775
  C  C143  1  0.866580  0.685800  0.994500  1.0  0.728
  C  C144  1  0.734980  0.880600  0.782100  1.0  0.721
  C  C145  1  0.516740  0.219000  0.566900  1.0  0.0157
  C  C146  1  0.473380  0.168500  0.535000  1.0  -0.091
  C  C147  1  0.478590  0.095000  0.577500  1.0  -0.1374
  C  C148  1  0.527400  0.073800  0.651600  1.0  -0.0549
  C  C149  1  0.570880  0.125200  0.682600  1.0  -0.1042
  C  C150  1  0.566170  0.199400  0.641000  1.0  -0.0231
  C  C151  1  0.616110  0.249500  0.663700  1.0  0.0034
  C  C152  1  0.649190  0.240600  0.598200  1.0  -0.0977
  C  C153  1  0.696640  0.283900  0.614900  1.0  -0.0205
  C  C154  1  0.712480  0.335100  0.698100  1.0  -0.1551
  C  C155  1  0.680510  0.343500  0.764300  1.0  -0.0262
  C  C156  1  0.632650  0.301700  0.746500  1.0  0.1087
  C  C157  1  0.431090  0.040400  0.548600  1.0  0.7146
  C  C158  1  0.622600  0.099200  0.765600  1.0  0.6847
  C  C159  1  0.633420  0.185800  0.505500  1.0  0.7293
  C  C160  1  0.765020  0.380600  0.717900  1.0  0.7194
  C  C161  1  0.016740  0.719000  0.566900  1.0  0.0157
  C  C162  1  0.973380  0.668500  0.535000  1.0  -0.091
  C  C163  1  0.978590  0.595000  0.577500  1.0  -0.1374
  C  C164  1  0.027400  0.573800  0.651600  1.0  -0.0549
  C  C165  1  0.070880  0.625200  0.682600  1.0  -0.1042
  C  C166  1  0.066170  0.699400  0.641000  1.0  -0.0231
  C  C167  1  0.116110  0.749500  0.663700  1.0  0.0034
  C  C168  1  0.149190  0.740600  0.598200  1.0  -0.0977
  C  C169  1  0.196640  0.783900  0.614900  1.0  -0.0205
  C  C170  1  0.212480  0.835100  0.698100  1.0  -0.1551
  C  C171  1  0.180510  0.843500  0.764300  1.0  -0.0262
  C  C172  1  0.132650  0.801700  0.746500  1.0  0.1087
  C  C173  1  0.931090  0.540400  0.548600  1.0  0.7146
  C  C174  1  0.122600  0.599200  0.765600  1.0  0.6847
  C  C175  1  0.133420  0.685800  0.505500  1.0  0.7293
  C  C176  1  0.265020  0.880600  0.717900  1.0  0.7194
  N  N177  1  0.507930  0.703300  0.022100  1.0  0.625
  N  N178  1  0.598770  0.685500  0.315000  1.0  0.6552
  N  N179  1  0.007930  0.203300  0.022100  1.0  0.625
  N  N180  1  0.098770  0.185500  0.315000  1.0  0.6552
  N  N181  1  0.492070  0.703300  0.477900  1.0  0.6199
  N  N182  1  0.401230  0.685500  0.185000  1.0  0.6525
  N  N183  1  0.992070  0.203300  0.477900  1.0  0.6199
  N  N184  1  0.901230  0.185500  0.185000  1.0  0.6525
  N  N185  1  0.492070  0.296700  0.977900  1.0  0.6235
  N  N186  1  0.401230  0.314500  0.685000  1.0  0.6528
  N  N187  1  0.992070  0.796700  0.977900  1.0  0.6235
  N  N188  1  0.901230  0.814500  0.685000  1.0  0.6528
  N  N189  1  0.507930  0.296700  0.522100  1.0  0.6257
  N  N190  1  0.598770  0.314500  0.815000  1.0  0.6565
  N  N191  1  0.007930  0.796700  0.522100  1.0  0.6257
  N  N192  1  0.098770  0.814500  0.815000  1.0  0.6565
  O  O193  1  0.532790  0.650200  0.073300  1.0  -0.3854
  O  O194  1  0.475290  0.695500  0.935100  1.0  -0.3367
  O  O195  1  0.397070  0.951590  0.957900  1.0  -0.6332
  O  O196  1  0.428080  0.007550  0.116300  1.0  -0.5997
  O  O197  1  0.642430  0.965940  0.247400  1.0  -0.7158
  O  O198  1  0.641240  0.862440  0.345100  1.0  -0.5018
  O  O199  1  0.650870  0.882320  0.019400  1.0  -0.6609
  O  O200  1  0.605210  0.789500  0.919800  1.0  -0.5097
  O  O201  1  0.788730  0.622970  0.148500  1.0  -0.5927
  O  O202  1  0.780330  0.583200  0.302600  1.0  -0.64
  O  O203  1  0.558090  0.718500  0.305500  1.0  -0.4063
  O  O204  1  0.615400  0.642400  0.387800  1.0  -0.3573
  O  O205  1  0.032790  0.150200  0.073300  1.0  -0.3854
  O  O206  1  0.975290  0.195500  0.935100  1.0  -0.3367
  O  O207  1  0.897070  0.451590  0.957900  1.0  -0.6332
  O  O208  1  0.928080  0.507550  0.116300  1.0  -0.5997
  O  O209  1  0.142430  0.465940  0.247400  1.0  -0.7158
  O  O210  1  0.141240  0.362440  0.345100  1.0  -0.5018
  O  O211  1  0.150870  0.382320  0.019400  1.0  -0.6606
  O  O212  1  0.105210  0.289500  0.919800  1.0  -0.5097
  O  O213  1  0.288730  0.122970  0.148500  1.0  -0.5927
  O  O214  1  0.280330  0.083200  0.302600  1.0  -0.64
  O  O215  1  0.058090  0.218500  0.305500  1.0  -0.4063
  O  O216  1  0.115400  0.142400  0.387800  1.0  -0.3573
  O  O217  1  0.467210  0.650200  0.426700  1.0  -0.3861
  O  O218  1  0.524710  0.695500  0.564900  1.0  -0.3346
  O  O219  1  0.602930  0.951590  0.542100  1.0  -0.6319
  O  O220  1  0.571920  0.007550  0.383700  1.0  -0.6011
  O  O221  1  0.357570  0.965940  0.252600  1.0  -0.7148
  O  O222  1  0.358760  0.862440  0.154900  1.0  -0.4978
  O  O223  1  0.349130  0.882320  0.480600  1.0  -0.6641
  O  O224  1  0.394790  0.789500  0.580200  1.0  -0.5122
  O  O225  1  0.211270  0.622970  0.351500  1.0  -0.5914
  O  O226  1  0.219670  0.583200  0.197400  1.0  -0.6396
  O  O227  1  0.441910  0.718500  0.194500  1.0  -0.408
  O  O228  1  0.384600  0.642400  0.112200  1.0  -0.3526
  O  O229  1  0.967210  0.150200  0.426700  1.0  -0.3861
  O  O230  1  0.024710  0.195500  0.564900  1.0  -0.3346
  O  O231  1  0.102930  0.451590  0.542100  1.0  -0.6319
  O  O232  1  0.071920  0.507550  0.383700  1.0  -0.6011
  O  O233  1  0.857570  0.465940  0.252600  1.0  -0.7148
  O  O234  1  0.858760  0.362440  0.154900  1.0  -0.4978
  O  O235  1  0.849130  0.382320  0.480600  1.0  -0.6635
  O  O236  1  0.894790  0.289500  0.580200  1.0  -0.5122
  O  O237  1  0.711270  0.122970  0.351500  1.0  -0.5914
  O  O238  1  0.719670  0.083200  0.197400  1.0  -0.6396
  O  O239  1  0.941910  0.218500  0.194500  1.0  -0.408
  O  O240  1  0.884600  0.142400  0.112200  1.0  -0.3526
  O  O241  1  0.467210  0.349800  0.926700  1.0  -0.3885
  O  O242  1  0.524710  0.304500  0.064900  1.0  -0.3329
  O  O243  1  0.602930  0.048410  0.042100  1.0  -0.6318
  O  O244  1  0.571920  0.992450  0.883700  1.0  -0.6015
  O  O245  1  0.357570  0.034060  0.752600  1.0  -0.7146
  O  O246  1  0.358760  0.137560  0.654900  1.0  -0.4972
  O  O247  1  0.349130  0.117680  0.980600  1.0  -0.662
  O  O248  1  0.394790  0.210500  0.080200  1.0  -0.5109
  O  O249  1  0.211270  0.377030  0.851500  1.0  -0.5923
  O  O250  1  0.219670  0.416800  0.697400  1.0  -0.6397
  O  O251  1  0.441910  0.281500  0.694500  1.0  -0.4098
  O  O252  1  0.384600  0.357600  0.612200  1.0  -0.3548
  O  O253  1  0.967210  0.849800  0.926700  1.0  -0.3885
  O  O254  1  0.024710  0.804500  0.064900  1.0  -0.3329
  O  O255  1  0.102930  0.548410  0.042100  1.0  -0.6318
  O  O256  1  0.071920  0.492450  0.883700  1.0  -0.6015
  O  O257  1  0.857570  0.534060  0.752600  1.0  -0.7146
  O  O258  1  0.858760  0.637560  0.654900  1.0  -0.4972
  O  O259  1  0.849130  0.617680  0.980600  1.0  -0.6625
  O  O260  1  0.894790  0.710500  0.080200  1.0  -0.5109
  O  O261  1  0.711270  0.877030  0.851500  1.0  -0.5923
  O  O262  1  0.719670  0.916800  0.697400  1.0  -0.6397
  O  O263  1  0.941910  0.781500  0.694500  1.0  -0.4098
  O  O264  1  0.884600  0.857600  0.612200  1.0  -0.3548
  O  O265  1  0.532790  0.349800  0.573300  1.0  -0.3893
  O  O266  1  0.475290  0.304500  0.435100  1.0  -0.3403
  O  O267  1  0.397070  0.048410  0.457900  1.0  -0.6326
  O  O268  1  0.428080  0.992450  0.616300  1.0  -0.5997
  O  O269  1  0.642430  0.034060  0.747400  1.0  -0.7164
  O  O270  1  0.641240  0.137560  0.845100  1.0  -0.5013
  O  O271  1  0.650870  0.117680  0.519400  1.0  -0.6604
  O  O272  1  0.605210  0.210500  0.419800  1.0  -0.5085
  O  O273  1  0.788730  0.377030  0.648500  1.0  -0.5932
  O  O274  1  0.780330  0.416800  0.802600  1.0  -0.6397
  O  O275  1  0.558090  0.281500  0.805500  1.0  -0.4095
  O  O276  1  0.615400  0.357600  0.887800  1.0  -0.3546
  O  O277  1  0.032790  0.849800  0.573300  1.0  -0.3893
  O  O278  1  0.975290  0.804500  0.435100  1.0  -0.3403
  O  O279  1  0.897070  0.548410  0.457900  1.0  -0.6326
  O  O280  1  0.928080  0.492450  0.616300  1.0  -0.5997
  O  O281  1  0.142430  0.534060  0.747400  1.0  -0.7164
  O  O282  1  0.141240  0.637560  0.845100  1.0  -0.5013
  O  O283  1  0.150870  0.617680  0.519400  1.0  -0.6608
  O  O284  1  0.105210  0.710500  0.419800  1.0  -0.5085
  O  O285  1  0.288730  0.877030  0.648500  1.0  -0.5932
  O  O286  1  0.280330  0.916800  0.802600  1.0  -0.6397
  O  O287  1  0.058090  0.781500  0.805500  1.0  -0.4095
  O  O288  1  0.115400  0.857600  0.887800  1.0  -0.3546
