# generated using pymatgen
data_MnH2C8NO6
_symmetry_space_group_name_H-M   'P 1'
_cell_length_a   26.44610000
_cell_length_b   16.54890000
_cell_length_c   13.48940000
_cell_angle_alpha   90.00000000
_cell_angle_beta   104.28800000
_cell_angle_gamma   90.00000000
_symmetry_Int_Tables_number   1
_chemical_formula_structural   MnH2C8NO6
_chemical_formula_sum   'Mn16 H32 C128 N16 O96'
_cell_volume   5721.07186142
_cell_formula_units_Z   16
loop_
 _symmetry_equiv_pos_site_id
 _symmetry_equiv_pos_as_xyz
  1  'x, y, z'
loop_
 _atom_site_type_symbol
 _atom_site_label
 _atom_site_symmetry_multiplicity
 _atom_site_fract_x
 _atom_site_fract_y
 _atom_site_fract_z
 _atom_site_occupancy
 _atom_site_charge
  Mn  Mn1  1  0.870100  0.578340  0.148510  1.0  1.1523
  Mn  Mn2  1  0.828170  0.496610  0.386080  1.0  1.145
  Mn  Mn3  1  0.370100  0.078340  0.148510  1.0  1.1523
  Mn  Mn4  1  0.328170  0.996610  0.386080  1.0  1.145
  Mn  Mn5  1  0.129900  0.578340  0.351490  1.0  1.1525
  Mn  Mn6  1  0.171830  0.496610  0.113920  1.0  1.1475
  Mn  Mn7  1  0.629900  0.078340  0.351490  1.0  1.1525
  Mn  Mn8  1  0.671830  0.996610  0.113920  1.0  1.1475
  Mn  Mn9  1  0.129900  0.421660  0.851490  1.0  1.1513
  Mn  Mn10  1  0.171830  0.503390  0.613920  1.0  1.1484
  Mn  Mn11  1  0.629900  0.921660  0.851490  1.0  1.1513
  Mn  Mn12  1  0.671830  0.003390  0.613920  1.0  1.1484
  Mn  Mn13  1  0.870100  0.421660  0.648510  1.0  1.1509
  Mn  Mn14  1  0.828170  0.503390  0.886080  1.0  1.1459
  Mn  Mn15  1  0.370100  0.921660  0.648510  1.0  1.1509
  Mn  Mn16  1  0.328170  0.003390  0.886080  1.0  1.1459
  H  H17  1  0.448700  0.802200  0.993200  1.0  0.1279
  H  H18  1  0.528600  0.975100  0.176200  1.0  0.1183
  H  H19  1  0.696900  0.622200  0.329000  1.0  0.134
  H  H20  1  0.723000  0.723900  0.074300  1.0  0.1246
  H  H21  1  0.948700  0.302200  0.993200  1.0  0.1279
  H  H22  1  0.028600  0.475100  0.176200  1.0  0.1183
  H  H23  1  0.196900  0.122200  0.329000  1.0  0.134
  H  H24  1  0.223000  0.223900  0.074300  1.0  0.1246
  H  H25  1  0.551300  0.802200  0.506800  1.0  0.1284
  H  H26  1  0.471400  0.975100  0.323800  1.0  0.1183
  H  H27  1  0.303100  0.622200  0.171000  1.0  0.1333
  H  H28  1  0.277000  0.723900  0.425700  1.0  0.1254
  H  H29  1  0.051300  0.302200  0.506800  1.0  0.1284
  H  H30  1  0.971400  0.475100  0.323800  1.0  0.1183
  H  H31  1  0.803100  0.122200  0.171000  1.0  0.1333
  H  H32  1  0.777000  0.223900  0.425700  1.0  0.1254
  H  H33  1  0.551300  0.197800  0.006800  1.0  0.1282
  H  H34  1  0.471400  0.024900  0.823800  1.0  0.1199
  H  H35  1  0.303100  0.377800  0.671000  1.0  0.1335
  H  H36  1  0.277000  0.276100  0.925700  1.0  0.1253
  H  H37  1  0.051300  0.697800  0.006800  1.0  0.1282
  H  H38  1  0.971400  0.524900  0.823800  1.0  0.1199
  H  H39  1  0.803100  0.877800  0.671000  1.0  0.1335
  H  H40  1  0.777000  0.776100  0.925700  1.0  0.1253
  H  H41  1  0.448700  0.197800  0.493200  1.0  0.1278
  H  H42  1  0.528600  0.024900  0.676200  1.0  0.1197
  H  H43  1  0.696900  0.377800  0.829000  1.0  0.1342
  H  H44  1  0.723000  0.276100  0.574300  1.0  0.1247
  H  H45  1  0.948700  0.697800  0.493200  1.0  0.1278
  H  H46  1  0.028600  0.524900  0.676200  1.0  0.1197
  H  H47  1  0.196900  0.877800  0.829000  1.0  0.1342
  H  H48  1  0.223000  0.776100  0.574300  1.0  0.1247
  C  C49  1  0.434900  0.953200  0.046900  1.0  0.7177
  C  C50  1  0.481300  0.898100  0.079600  1.0  -0.1055
  C  C51  1  0.478700  0.819800  0.039900  1.0  -0.0323
  C  C52  1  0.522600  0.767000  0.071700  1.0  0.0615
  C  C53  1  0.569600  0.792700  0.143900  1.0  -0.0242
  C  C54  1  0.571100  0.871400  0.181200  1.0  -0.0884
  C  C55  1  0.527000  0.923000  0.149500  1.0  -0.0511
  C  C56  1  0.619800  0.743500  0.164900  1.0  0.0028
  C  C57  1  0.637600  0.692200  0.250900  1.0  -0.0217
  C  C58  1  0.686000  0.654400  0.271200  1.0  -0.0168
  C  C59  1  0.718300  0.665500  0.202900  1.0  -0.1142
  C  C60  1  0.701700  0.716000  0.119000  1.0  0.0054
  C  C61  1  0.653300  0.755400  0.100500  1.0  -0.0624
  C  C62  1  0.638000  0.812500  0.009100  1.0  0.715
  C  C63  1  0.772300  0.624900  0.223900  1.0  0.6915
  C  C64  1  0.618800  0.902600  0.260800  1.0  0.7137
  C  C65  1  0.934900  0.453200  0.046900  1.0  0.7177
  C  C66  1  0.981300  0.398100  0.079600  1.0  -0.1055
  C  C67  1  0.978700  0.319800  0.039900  1.0  -0.0323
  C  C68  1  0.022600  0.267000  0.071700  1.0  0.0615
  C  C69  1  0.069600  0.292700  0.143900  1.0  -0.0242
  C  C70  1  0.071100  0.371400  0.181200  1.0  -0.0884
  C  C71  1  0.027000  0.423000  0.149500  1.0  -0.0511
  C  C72  1  0.119800  0.243500  0.164900  1.0  0.0028
  C  C73  1  0.137600  0.192200  0.250900  1.0  -0.0217
  C  C74  1  0.186000  0.154400  0.271200  1.0  -0.0168
  C  C75  1  0.218300  0.165500  0.202900  1.0  -0.1142
  C  C76  1  0.201700  0.216000  0.119000  1.0  0.0054
  C  C77  1  0.153300  0.255400  0.100500  1.0  -0.0624
  C  C78  1  0.138000  0.312500  0.009100  1.0  0.715
  C  C79  1  0.272300  0.124900  0.223900  1.0  0.6915
  C  C80  1  0.118800  0.402600  0.260800  1.0  0.7137
  C  C81  1  0.565100  0.953200  0.453100  1.0  0.7168
  C  C82  1  0.518700  0.898100  0.420400  1.0  -0.1048
  C  C83  1  0.521300  0.819800  0.460100  1.0  -0.0316
  C  C84  1  0.477400  0.767000  0.428300  1.0  0.0617
  C  C85  1  0.430400  0.792700  0.356100  1.0  -0.0245
  C  C86  1  0.428900  0.871400  0.318800  1.0  -0.0887
  C  C87  1  0.473000  0.923000  0.350500  1.0  -0.0511
  C  C88  1  0.380200  0.743500  0.335100  1.0  0.0011
  C  C89  1  0.362400  0.692200  0.249100  1.0  -0.0208
  C  C90  1  0.314000  0.654400  0.228800  1.0  -0.0168
  C  C91  1  0.281700  0.665500  0.297100  1.0  -0.1148
  C  C92  1  0.298300  0.716000  0.381000  1.0  0.0049
  C  C93  1  0.346700  0.755400  0.399500  1.0  -0.0617
  C  C94  1  0.362000  0.812500  0.490900  1.0  0.7135
  C  C95  1  0.227700  0.624900  0.276100  1.0  0.6922
  C  C96  1  0.381200  0.902600  0.239200  1.0  0.7153
  C  C97  1  0.065100  0.453200  0.453100  1.0  0.7168
  C  C98  1  0.018700  0.398100  0.420400  1.0  -0.1048
  C  C99  1  0.021300  0.319800  0.460100  1.0  -0.0316
  C  C100  1  0.977400  0.267000  0.428300  1.0  0.0617
  C  C101  1  0.930400  0.292700  0.356100  1.0  -0.0245
  C  C102  1  0.928900  0.371400  0.318800  1.0  -0.0887
  C  C103  1  0.973000  0.423000  0.350500  1.0  -0.0511
  C  C104  1  0.880200  0.243500  0.335100  1.0  0.0011
  C  C105  1  0.862400  0.192200  0.249100  1.0  -0.0208
  C  C106  1  0.814000  0.154400  0.228800  1.0  -0.0168
  C  C107  1  0.781700  0.165500  0.297100  1.0  -0.1148
  C  C108  1  0.798300  0.216000  0.381000  1.0  0.0049
  C  C109  1  0.846700  0.255400  0.399500  1.0  -0.0617
  C  C110  1  0.862000  0.312500  0.490900  1.0  0.7135
  C  C111  1  0.727700  0.124900  0.276100  1.0  0.6922
  C  C112  1  0.881200  0.402600  0.239200  1.0  0.7153
  C  C113  1  0.565100  0.046800  0.953100  1.0  0.7168
  C  C114  1  0.518700  0.101900  0.920400  1.0  -0.1048
  C  C115  1  0.521300  0.180200  0.960100  1.0  -0.032
  C  C116  1  0.477400  0.233000  0.928300  1.0  0.0618
  C  C117  1  0.430400  0.207300  0.856100  1.0  -0.0246
  C  C118  1  0.428900  0.128600  0.818800  1.0  -0.0885
  C  C119  1  0.473000  0.077000  0.850500  1.0  -0.0512
  C  C120  1  0.380200  0.256500  0.835100  1.0  0.0014
  C  C121  1  0.362400  0.307800  0.749100  1.0  -0.0211
  C  C122  1  0.314000  0.345600  0.728800  1.0  -0.0172
  C  C123  1  0.281700  0.334500  0.797100  1.0  -0.1136
  C  C124  1  0.298300  0.284000  0.881000  1.0  0.0051
  C  C125  1  0.346700  0.244600  0.899500  1.0  -0.0625
  C  C126  1  0.362000  0.187500  0.990900  1.0  0.7131
  C  C127  1  0.227700  0.375100  0.776100  1.0  0.6925
  C  C128  1  0.381200  0.097400  0.739200  1.0  0.7153
  C  C129  1  0.065100  0.546800  0.953100  1.0  0.7168
  C  C130  1  0.018700  0.601900  0.920400  1.0  -0.1048
  C  C131  1  0.021300  0.680200  0.960100  1.0  -0.032
  C  C132  1  0.977400  0.733000  0.928300  1.0  0.0618
  C  C133  1  0.930400  0.707300  0.856100  1.0  -0.0246
  C  C134  1  0.928900  0.628600  0.818800  1.0  -0.0885
  C  C135  1  0.973000  0.577000  0.850500  1.0  -0.0512
  C  C136  1  0.880200  0.756500  0.835100  1.0  0.0014
  C  C137  1  0.862400  0.807800  0.749100  1.0  -0.0211
  C  C138  1  0.814000  0.845600  0.728800  1.0  -0.0172
  C  C139  1  0.781700  0.834500  0.797100  1.0  -0.1136
  C  C140  1  0.798300  0.784000  0.881000  1.0  0.0051
  C  C141  1  0.846700  0.744600  0.899500  1.0  -0.0625
  C  C142  1  0.862000  0.687500  0.990900  1.0  0.7131
  C  C143  1  0.727700  0.875100  0.776100  1.0  0.6925
  C  C144  1  0.881200  0.597400  0.739200  1.0  0.7153
  C  C145  1  0.434900  0.046800  0.546900  1.0  0.7171
  C  C146  1  0.481300  0.101900  0.579600  1.0  -0.1062
  C  C147  1  0.478700  0.180200  0.539900  1.0  -0.0327
  C  C148  1  0.522600  0.233000  0.571700  1.0  0.0605
  C  C149  1  0.569600  0.207300  0.643900  1.0  -0.024
  C  C150  1  0.571100  0.128600  0.681200  1.0  -0.0878
  C  C151  1  0.527000  0.077000  0.649500  1.0  -0.051
  C  C152  1  0.619800  0.256500  0.664900  1.0  0.0035
  C  C153  1  0.637600  0.307800  0.750900  1.0  -0.0207
  C  C154  1  0.686000  0.345600  0.771200  1.0  -0.0173
  C  C155  1  0.718300  0.334500  0.702900  1.0  -0.1134
  C  C156  1  0.701700  0.284000  0.619000  1.0  0.0057
  C  C157  1  0.653300  0.244600  0.600500  1.0  -0.0626
  C  C158  1  0.638000  0.187500  0.509100  1.0  0.7142
  C  C159  1  0.772300  0.375100  0.723900  1.0  0.6918
  C  C160  1  0.618800  0.097400  0.760800  1.0  0.714
  C  C161  1  0.934900  0.546800  0.546900  1.0  0.7171
  C  C162  1  0.981300  0.601900  0.579600  1.0  -0.1062
  C  C163  1  0.978700  0.680200  0.539900  1.0  -0.0327
  C  C164  1  0.022600  0.733000  0.571700  1.0  0.0605
  C  C165  1  0.069600  0.707300  0.643900  1.0  -0.024
  C  C166  1  0.071100  0.628600  0.681200  1.0  -0.0878
  C  C167  1  0.027000  0.577000  0.649500  1.0  -0.051
  C  C168  1  0.119800  0.756500  0.664900  1.0  0.0035
  C  C169  1  0.137600  0.807800  0.750900  1.0  -0.0207
  C  C170  1  0.186000  0.845600  0.771200  1.0  -0.0173
  C  C171  1  0.218300  0.834500  0.702900  1.0  -0.1134
  C  C172  1  0.201700  0.784000  0.619000  1.0  0.0057
  C  C173  1  0.153300  0.744600  0.600500  1.0  -0.0626
  C  C174  1  0.138000  0.687500  0.509100  1.0  0.7142
  C  C175  1  0.272300  0.875100  0.723900  1.0  0.6918
  C  C176  1  0.118800  0.597400  0.760800  1.0  0.714
  N  N177  1  0.516300  0.685800  0.029300  1.0  0.6195
  N  N178  1  0.603900  0.676400  0.322600  1.0  0.6049
  N  N179  1  0.016300  0.185800  0.029300  1.0  0.6195
  N  N180  1  0.103900  0.176400  0.322600  1.0  0.6049
  N  N181  1  0.483700  0.685800  0.470700  1.0  0.6171
  N  N182  1  0.396100  0.676400  0.177400  1.0  0.6078
  N  N183  1  0.983700  0.185800  0.470700  1.0  0.6171
  N  N184  1  0.896100  0.176400  0.177400  1.0  0.6078
  N  N185  1  0.483700  0.314200  0.970700  1.0  0.6155
  N  N186  1  0.396100  0.323600  0.677400  1.0  0.607
  N  N187  1  0.983700  0.814200  0.970700  1.0  0.6155
  N  N188  1  0.896100  0.823600  0.677400  1.0  0.607
  N  N189  1  0.516300  0.314200  0.529300  1.0  0.6229
  N  N190  1  0.603900  0.323600  0.822600  1.0  0.6057
  N  N191  1  0.016300  0.814200  0.529300  1.0  0.6229
  N  N192  1  0.103900  0.823600  0.822600  1.0  0.6057
  O  O193  1  0.431510  0.010000  0.110200  1.0  -0.6393
  O  O194  1  0.402140  0.940500  0.961400  1.0  -0.5992
  O  O195  1  0.557500  0.692500  0.297400  1.0  -0.3936
  O  O196  1  0.624700  0.649700  0.408800  1.0  -0.4047
  O  O197  1  0.482800  0.673600  0.952400  1.0  -0.3275
  O  O198  1  0.547300  0.633100  0.068900  1.0  -0.3598
  O  O199  1  0.792400  0.603000  0.315000  1.0  -0.6219
  O  O200  1  0.793100  0.618500  0.149600  1.0  -0.5712
  O  O201  1  0.651300  0.886200  0.023900  1.0  -0.6829
  O  O202  1  0.615200  0.787900  0.923100  1.0  -0.5865
  O  O203  1  0.636270  0.973100  0.243800  1.0  -0.6855
  O  O204  1  0.637450  0.861800  0.339400  1.0  -0.5465
  O  O205  1  0.931510  0.510000  0.110200  1.0  -0.6393
  O  O206  1  0.902140  0.440500  0.961400  1.0  -0.5992
  O  O207  1  0.057500  0.192500  0.297400  1.0  -0.3936
  O  O208  1  0.124700  0.149700  0.408800  1.0  -0.4047
  O  O209  1  0.982800  0.173600  0.952400  1.0  -0.3275
  O  O210  1  0.047300  0.133100  0.068900  1.0  -0.3598
  O  O211  1  0.292400  0.103000  0.315000  1.0  -0.6219
  O  O212  1  0.293100  0.118500  0.149600  1.0  -0.5712
  O  O213  1  0.151300  0.386200  0.023900  1.0  -0.6829
  O  O214  1  0.115200  0.287900  0.923100  1.0  -0.5865
  O  O215  1  0.136270  0.473100  0.243800  1.0  -0.6855
  O  O216  1  0.137450  0.361800  0.339400  1.0  -0.5465
  O  O217  1  0.568490  0.010000  0.389800  1.0  -0.6388
  O  O218  1  0.597860  0.940500  0.538600  1.0  -0.5981
  O  O219  1  0.442500  0.692500  0.202600  1.0  -0.3956
  O  O220  1  0.375300  0.649700  0.091200  1.0  -0.4033
  O  O221  1  0.517200  0.673600  0.547600  1.0  -0.3285
  O  O222  1  0.452700  0.633100  0.431100  1.0  -0.3605
  O  O223  1  0.207600  0.603000  0.185000  1.0  -0.6258
  O  O224  1  0.206900  0.618500  0.350400  1.0  -0.5724
  O  O225  1  0.348700  0.886200  0.476100  1.0  -0.6849
  O  O226  1  0.384800  0.787900  0.576900  1.0  -0.5854
  O  O227  1  0.363730  0.973100  0.256200  1.0  -0.6849
  O  O228  1  0.362550  0.861800  0.160600  1.0  -0.5423
  O  O229  1  0.068490  0.510000  0.389800  1.0  -0.6388
  O  O230  1  0.097860  0.440500  0.538600  1.0  -0.5981
  O  O231  1  0.942500  0.192500  0.202600  1.0  -0.3956
  O  O232  1  0.875300  0.149700  0.091200  1.0  -0.4033
  O  O233  1  0.017200  0.173600  0.547600  1.0  -0.3285
  O  O234  1  0.952700  0.133100  0.431100  1.0  -0.3605
  O  O235  1  0.707600  0.103000  0.185000  1.0  -0.6258
  O  O236  1  0.706900  0.118500  0.350400  1.0  -0.5724
  O  O237  1  0.848700  0.386200  0.476100  1.0  -0.6849
  O  O238  1  0.884800  0.287900  0.576900  1.0  -0.5854
  O  O239  1  0.863730  0.473100  0.256200  1.0  -0.6849
  O  O240  1  0.862550  0.361800  0.160600  1.0  -0.5423
  O  O241  1  0.568490  0.990000  0.889800  1.0  -0.6385
  O  O242  1  0.597860  0.059500  0.038600  1.0  -0.5989
  O  O243  1  0.442500  0.307500  0.702600  1.0  -0.3943
  O  O244  1  0.375300  0.350300  0.591200  1.0  -0.4054
  O  O245  1  0.517200  0.326400  0.047600  1.0  -0.3272
  O  O246  1  0.452700  0.366900  0.931100  1.0  -0.3597
  O  O247  1  0.207600  0.397000  0.685000  1.0  -0.6256
  O  O248  1  0.206900  0.381500  0.850400  1.0  -0.5724
  O  O249  1  0.348700  0.113800  0.976100  1.0  -0.6833
  O  O250  1  0.384800  0.212100  0.076900  1.0  -0.5866
  O  O251  1  0.363730  0.026900  0.756200  1.0  -0.6849
  O  O252  1  0.362550  0.138200  0.660600  1.0  -0.5441
  O  O253  1  0.068490  0.490000  0.889800  1.0  -0.6385
  O  O254  1  0.097860  0.559500  0.038600  1.0  -0.5989
  O  O255  1  0.942500  0.807500  0.702600  1.0  -0.3943
  O  O256  1  0.875300  0.850300  0.591200  1.0  -0.4054
  O  O257  1  0.017200  0.826400  0.047600  1.0  -0.3272
  O  O258  1  0.952700  0.866900  0.931100  1.0  -0.3597
  O  O259  1  0.707600  0.897000  0.685000  1.0  -0.6256
  O  O260  1  0.706900  0.881500  0.850400  1.0  -0.5724
  O  O261  1  0.848700  0.613800  0.976100  1.0  -0.6833
  O  O262  1  0.884800  0.712100  0.076900  1.0  -0.5866
  O  O263  1  0.863730  0.526900  0.756200  1.0  -0.6849
  O  O264  1  0.862550  0.638200  0.660600  1.0  -0.5441
  O  O265  1  0.431510  0.990000  0.610200  1.0  -0.6374
  O  O266  1  0.402140  0.059500  0.461400  1.0  -0.5997
  O  O267  1  0.557500  0.307500  0.797400  1.0  -0.3961
  O  O268  1  0.624700  0.350300  0.908800  1.0  -0.4044
  O  O269  1  0.482800  0.326400  0.452400  1.0  -0.33
  O  O270  1  0.547300  0.366900  0.568900  1.0  -0.359
  O  O271  1  0.792400  0.397000  0.815000  1.0  -0.6224
  O  O272  1  0.793100  0.381500  0.649600  1.0  -0.5713
  O  O273  1  0.651300  0.113800  0.523900  1.0  -0.682
  O  O274  1  0.615200  0.212100  0.423100  1.0  -0.5873
  O  O275  1  0.636270  0.026900  0.743800  1.0  -0.6859
  O  O276  1  0.637450  0.138200  0.839400  1.0  -0.5457
  O  O277  1  0.931510  0.490000  0.610200  1.0  -0.6374
  O  O278  1  0.902140  0.559500  0.461400  1.0  -0.5997
  O  O279  1  0.057500  0.807500  0.797400  1.0  -0.3961
  O  O280  1  0.124700  0.850300  0.908800  1.0  -0.4044
  O  O281  1  0.982800  0.826400  0.452400  1.0  -0.33
  O  O282  1  0.047300  0.866900  0.568900  1.0  -0.359
  O  O283  1  0.292400  0.897000  0.815000  1.0  -0.6224
  O  O284  1  0.293100  0.881500  0.649600  1.0  -0.5713
  O  O285  1  0.151300  0.613800  0.523900  1.0  -0.682
  O  O286  1  0.115200  0.712100  0.423100  1.0  -0.5873
  O  O287  1  0.136270  0.526900  0.743800  1.0  -0.6859
  O  O288  1  0.137450  0.638200  0.839400  1.0  -0.5457
