# generated using pymatgen
data_V2P2H12C5O7
_symmetry_space_group_name_H-M   'P 1'
_cell_length_a   7.43300000
_cell_length_b   9.36730000
_cell_length_c   12.44780000
_cell_angle_alpha   112.10200000
_cell_angle_beta   107.37100000
_cell_angle_gamma   90.00010000
_symmetry_Int_Tables_number   1
_chemical_formula_structural   V2P2H12C5O7
_chemical_formula_sum   'V4 P4 H24 C10 O14'
_cell_volume   760.18148822
_cell_formula_units_Z   2
loop_
 _symmetry_equiv_pos_site_id
 _symmetry_equiv_pos_as_xyz
  1  'x, y, z'
loop_
 _atom_site_type_symbol
 _atom_site_label
 _atom_site_symmetry_multiplicity
 _atom_site_fract_x
 _atom_site_fract_y
 _atom_site_fract_z
 _atom_site_occupancy
 _atom_site_charge
  V  V1  1  0.537940  0.244170  0.488340  1.0  1.0836
  V  V2  1  0.950400  0.244170  0.488340  1.0  1.0893
  V  V3  1  0.462060  0.755830  0.511660  1.0  1.0901
  V  V4  1  0.049600  0.755830  0.511660  1.0  1.0895
  P  P5  1  0.811450  0.579290  0.622900  1.0  1.5055
  P  P6  1  0.811450  0.043610  0.622900  1.0  1.5038
  P  P7  1  0.188550  0.956390  0.377100  1.0  1.5044
  P  P8  1  0.188550  0.420710  0.377100  1.0  1.5056
  H  H9  1  0.997500  0.521200  0.780600  1.0  0.1363
  H  H10  1  0.831000  0.796900  0.878000  1.0  0.0862
  H  H11  1  0.783100  0.259400  0.780600  1.0  0.133
  H  H12  1  0.047000  0.081100  0.878000  1.0  0.0839
  H  H13  1  0.002500  0.740600  0.219400  1.0  0.1339
  H  H14  1  0.169000  0.918900  0.122000  1.0  0.0888
  H  H15  1  0.216900  0.478800  0.219400  1.0  0.1331
  H  H16  1  0.953000  0.203100  0.122000  1.0  0.0835
  H  H17  1  0.002500  0.478800  0.219400  1.0  0.1364
  H  H18  1  0.169000  0.203100  0.122000  1.0  0.0856
  H  H19  1  0.216900  0.740600  0.219400  1.0  0.1322
  H  H20  1  0.953000  0.918900  0.122000  1.0  0.0846
  H  H21  1  0.997500  0.259400  0.780600  1.0  0.1325
  H  H22  1  0.831000  0.081100  0.878000  1.0  0.0896
  H  H23  1  0.783100  0.521200  0.780600  1.0  0.1338
  H  H24  1  0.047000  0.796900  0.878000  1.0  0.0832
  H  H25  1  0.646900  0.209900  0.293800  1.0  0.4274
  H  H26  1  0.646900  0.083900  0.293800  1.0  0.4111
  H  H27  1  0.353100  0.916100  0.706200  1.0  0.4151
  H  H28  1  0.353100  0.790100  0.706200  1.0  0.4272
  H  H29  1  0.892700  0.647700  0.000000  1.0  0.0838
  H  H30  1  0.107300  0.352300  0.000000  1.0  0.0829
  H  H31  1  0.107300  0.647700  0.000000  1.0  0.0802
  H  H32  1  0.892700  0.352300  0.000000  1.0  0.0817
  C  C33  1  0.886490  0.579490  0.772980  1.0  -0.5273
  C  C34  1  0.940680  0.736880  0.881360  1.0  -0.1022
  C  C35  1  0.886490  0.193490  0.772980  1.0  -0.5162
  C  C36  1  0.940680  0.144480  0.881360  1.0  -0.1026
  C  C37  1  0.113510  0.806510  0.227020  1.0  -0.514
  C  C38  1  0.059320  0.855520  0.118640  1.0  -0.1033
  C  C39  1  0.113510  0.420510  0.227020  1.0  -0.5264
  C  C40  1  0.059320  0.263120  0.118640  1.0  -0.1038
  C  C41  1  0.000000  0.710300  0.000000  1.0  -0.1036
  C  C42  1  0.000000  0.289700  0.000000  1.0  -0.1035
  O  O43  1  0.630880  0.654870  0.607000  1.0  -0.8376
  O  O44  1  0.976120  0.952130  0.607000  1.0  -0.8444
  O  O45  1  0.369120  0.047870  0.393000  1.0  -0.8465
  O  O46  1  0.023880  0.345130  0.393000  1.0  -0.8363
  O  O47  1  0.369120  0.345130  0.393000  1.0  -0.8373
  O  O48  1  0.023880  0.047870  0.393000  1.0  -0.8441
  O  O49  1  0.630880  0.952130  0.607000  1.0  -0.8467
  O  O50  1  0.976120  0.654870  0.607000  1.0  -0.8366
  O  O51  1  0.765650  0.404700  0.531300  1.0  -0.8043
  O  O52  1  0.765650  0.126600  0.531300  1.0  -0.784
  O  O53  1  0.234350  0.873400  0.468700  1.0  -0.7844
  O  O54  1  0.234350  0.595300  0.468700  1.0  -0.8048
  O  O55  1  0.666050  0.166050  0.332100  1.0  -0.7631
  O  O56  1  0.333950  0.833950  0.667900  1.0  -0.7642
