# generated using pymatgen
data_V2P2H7C3O7
_symmetry_space_group_name_H-M   'P 1'
_cell_length_a   15.71200000
_cell_length_b   10.03000000
_cell_length_c   18.65600000
_cell_angle_alpha   90.00000000
_cell_angle_beta   103.32800000
_cell_angle_gamma   90.00000000
_symmetry_Int_Tables_number   1
_chemical_formula_structural   V2P2H7C3O7
_chemical_formula_sum   'V16 P16 H56 C24 O56'
_cell_volume   2860.83877386
_cell_formula_units_Z   8
loop_
 _symmetry_equiv_pos_site_id
 _symmetry_equiv_pos_as_xyz
  1  'x, y, z'
loop_
 _atom_site_type_symbol
 _atom_site_label
 _atom_site_symmetry_multiplicity
 _atom_site_fract_x
 _atom_site_fract_y
 _atom_site_fract_z
 _atom_site_occupancy
 _atom_site_charge
  V  V1  1  0.162720  0.116900  0.083710  1.0  1.3767
  V  V2  1  0.754120  0.042240  0.216080  1.0  1.3645
  V  V3  1  0.662720  0.616900  0.083710  1.0  1.3767
  V  V4  1  0.254120  0.542240  0.216080  1.0  1.3643
  V  V5  1  0.837280  0.116900  0.416290  1.0  1.376
  V  V6  1  0.245880  0.042240  0.283920  1.0  1.3654
  V  V7  1  0.337280  0.616900  0.416290  1.0  1.376
  V  V8  1  0.745880  0.542240  0.283920  1.0  1.3652
  V  V9  1  0.837280  0.883100  0.916290  1.0  1.3762
  V  V10  1  0.245880  0.957760  0.783920  1.0  1.3651
  V  V11  1  0.337280  0.383100  0.916290  1.0  1.3762
  V  V12  1  0.745880  0.457760  0.783920  1.0  1.3649
  V  V13  1  0.162720  0.883100  0.583710  1.0  1.3768
  V  V14  1  0.754120  0.957760  0.716080  1.0  1.3651
  V  V15  1  0.662720  0.383100  0.583710  1.0  1.3768
  V  V16  1  0.254120  0.457760  0.716080  1.0  1.3649
  P  P17  1  0.159560  0.827850  0.162880  1.0  1.5875
  P  P18  1  0.794160  0.878770  0.078980  1.0  1.5693
  P  P19  1  0.659560  0.327850  0.162880  1.0  1.5875
  P  P20  1  0.294160  0.378770  0.078980  1.0  1.5693
  P  P21  1  0.840440  0.827850  0.337120  1.0  1.5918
  P  P22  1  0.205840  0.878770  0.421020  1.0  1.5687
  P  P23  1  0.340440  0.327850  0.337120  1.0  1.5918
  P  P24  1  0.705840  0.378770  0.421020  1.0  1.5687
  P  P25  1  0.840440  0.172150  0.837120  1.0  1.5921
  P  P26  1  0.205840  0.121230  0.921020  1.0  1.57
  P  P27  1  0.340440  0.672150  0.837120  1.0  1.5921
  P  P28  1  0.705840  0.621230  0.921020  1.0  1.57
  P  P29  1  0.159560  0.172150  0.662880  1.0  1.5876
  P  P30  1  0.794160  0.121230  0.578980  1.0  1.5702
  P  P31  1  0.659560  0.672150  0.662880  1.0  1.5876
  P  P32  1  0.294160  0.621230  0.578980  1.0  1.5702
  H  H33  1  0.047900  0.700500  0.094900  1.0  0.1273
  H  H34  1  0.048100  0.690300  0.178600  1.0  0.1249
  H  H35  1  0.977400  0.907100  0.087000  1.0  0.0884
  H  H36  1  0.981600  0.904400  0.171800  1.0  0.0775
  H  H37  1  0.881500  0.733500  0.158900  1.0  0.1181
  H  H38  1  0.888800  0.704300  0.078200  1.0  0.1255
  H  H39  1  0.218000  0.198000  0.194000  1.0  0.4105
  H  H40  1  0.547900  0.200500  0.094900  1.0  0.1273
  H  H41  1  0.548100  0.190300  0.178600  1.0  0.1249
  H  H42  1  0.477400  0.407100  0.087000  1.0  0.0884
  H  H43  1  0.481600  0.404400  0.171800  1.0  0.0775
  H  H44  1  0.381500  0.233500  0.158900  1.0  0.1181
  H  H45  1  0.388800  0.204300  0.078200  1.0  0.1255
  H  H46  1  0.718000  0.698000  0.194000  1.0  0.4105
  H  H47  1  0.952100  0.700500  0.405100  1.0  0.1278
  H  H48  1  0.951900  0.690300  0.321400  1.0  0.1252
  H  H49  1  0.022600  0.907100  0.413000  1.0  0.0881
  H  H50  1  0.018400  0.904400  0.328200  1.0  0.077
  H  H51  1  0.118500  0.733500  0.341100  1.0  0.1185
  H  H52  1  0.111200  0.704300  0.421800  1.0  0.1278
  H  H53  1  0.782000  0.198000  0.306000  1.0  0.4111
  H  H54  1  0.452100  0.200500  0.405100  1.0  0.1278
  H  H55  1  0.451900  0.190300  0.321400  1.0  0.1252
  H  H56  1  0.522600  0.407100  0.413000  1.0  0.0881
  H  H57  1  0.518400  0.404400  0.328200  1.0  0.077
  H  H58  1  0.618500  0.233500  0.341100  1.0  0.1185
  H  H59  1  0.611200  0.204300  0.421800  1.0  0.1278
  H  H60  1  0.282000  0.698000  0.306000  1.0  0.4111
  H  H61  1  0.952100  0.299500  0.905100  1.0  0.1276
  H  H62  1  0.951900  0.309700  0.821400  1.0  0.1247
  H  H63  1  0.022600  0.092900  0.913000  1.0  0.0891
  H  H64  1  0.018400  0.095600  0.828200  1.0  0.078
  H  H65  1  0.118500  0.266500  0.841100  1.0  0.1176
  H  H66  1  0.111200  0.295700  0.921800  1.0  0.1257
  H  H67  1  0.782000  0.802000  0.806000  1.0  0.4083
  H  H68  1  0.452100  0.799500  0.905100  1.0  0.1276
  H  H69  1  0.451900  0.809700  0.821400  1.0  0.1247
  H  H70  1  0.522600  0.592900  0.913000  1.0  0.0891
  H  H71  1  0.518400  0.595600  0.828200  1.0  0.078
  H  H72  1  0.618500  0.766500  0.841100  1.0  0.1176
  H  H73  1  0.611200  0.795700  0.921800  1.0  0.1257
  H  H74  1  0.282000  0.302000  0.806000  1.0  0.4083
  H  H75  1  0.047900  0.299500  0.594900  1.0  0.1279
  H  H76  1  0.048100  0.309700  0.678600  1.0  0.124
  H  H77  1  0.977400  0.092900  0.587000  1.0  0.0896
  H  H78  1  0.981600  0.095600  0.671800  1.0  0.0781
  H  H79  1  0.881500  0.266500  0.658900  1.0  0.1177
  H  H80  1  0.888800  0.295700  0.578200  1.0  0.1243
  H  H81  1  0.218000  0.802000  0.694000  1.0  0.409
  H  H82  1  0.547900  0.799500  0.594900  1.0  0.1279
  H  H83  1  0.548100  0.809700  0.678600  1.0  0.124
  H  H84  1  0.477400  0.592900  0.587000  1.0  0.0896
  H  H85  1  0.481600  0.595600  0.671800  1.0  0.0781
  H  H86  1  0.381500  0.766500  0.658900  1.0  0.1177
  H  H87  1  0.388800  0.795700  0.578200  1.0  0.1243
  H  H88  1  0.718000  0.302000  0.694000  1.0  0.409
  C  C89  1  0.052800  0.752000  0.139700  1.0  -0.4302
  C  C90  1  0.976000  0.849200  0.128300  1.0  -0.1271
  C  C91  1  0.887800  0.774900  0.113500  1.0  -0.4599
  C  C92  1  0.552800  0.252000  0.139700  1.0  -0.4302
  C  C93  1  0.476000  0.349200  0.128300  1.0  -0.1271
  C  C94  1  0.387800  0.274900  0.113500  1.0  -0.4599
  C  C95  1  0.947200  0.752000  0.360300  1.0  -0.4285
  C  C96  1  0.024000  0.849200  0.371700  1.0  -0.1256
  C  C97  1  0.112200  0.774900  0.386500  1.0  -0.4595
  C  C98  1  0.447200  0.252000  0.360300  1.0  -0.4285
  C  C99  1  0.524000  0.349200  0.371700  1.0  -0.1256
  C  C100  1  0.612200  0.274900  0.386500  1.0  -0.4595
  C  C101  1  0.947200  0.248000  0.860300  1.0  -0.4282
  C  C102  1  0.024000  0.150800  0.871700  1.0  -0.1246
  C  C103  1  0.112200  0.225100  0.886500  1.0  -0.4574
  C  C104  1  0.447200  0.748000  0.860300  1.0  -0.4282
  C  C105  1  0.524000  0.650800  0.871700  1.0  -0.1246
  C  C106  1  0.612200  0.725100  0.886500  1.0  -0.4574
  C  C107  1  0.052800  0.248000  0.639700  1.0  -0.4294
  C  C108  1  0.976000  0.150800  0.628300  1.0  -0.1263
  C  C109  1  0.887800  0.225100  0.613500  1.0  -0.4571
  C  C110  1  0.552800  0.748000  0.639700  1.0  -0.4294
  C  C111  1  0.476000  0.650800  0.628300  1.0  -0.1263
  C  C112  1  0.387800  0.725100  0.613500  1.0  -0.4571
  O  O113  1  0.797310  0.000500  0.128710  1.0  -0.8269
  O  O114  1  0.228160  0.718500  0.168350  1.0  -0.8238
  O  O115  1  0.166910  0.898700  0.236180  1.0  -0.7936
  O  O116  1  0.210900  0.141500  0.190370  1.0  -0.9588
  O  O117  1  0.168270  0.923400  0.101630  1.0  -0.8334
  O  O118  1  0.799190  0.932300  0.004040  1.0  -0.8609
  O  O119  1  0.711030  0.798100  0.075500  1.0  -0.8712
  O  O120  1  0.297310  0.500500  0.128710  1.0  -0.8269
  O  O121  1  0.728160  0.218500  0.168350  1.0  -0.8238
  O  O122  1  0.666910  0.398700  0.236180  1.0  -0.7936
  O  O123  1  0.710900  0.641500  0.190370  1.0  -0.9582
  O  O124  1  0.668270  0.423400  0.101630  1.0  -0.8334
  O  O125  1  0.299190  0.432300  0.004040  1.0  -0.8609
  O  O126  1  0.211030  0.298100  0.075500  1.0  -0.8712
  O  O127  1  0.202690  0.000500  0.371290  1.0  -0.8265
  O  O128  1  0.771840  0.718500  0.331650  1.0  -0.818
  O  O129  1  0.833090  0.898700  0.263820  1.0  -0.7947
  O  O130  1  0.789100  0.141500  0.309630  1.0  -0.9579
  O  O131  1  0.831730  0.923400  0.398370  1.0  -0.8324
  O  O132  1  0.200810  0.932300  0.495960  1.0  -0.8605
  O  O133  1  0.288970  0.798100  0.424500  1.0  -0.8682
  O  O134  1  0.702690  0.500500  0.371290  1.0  -0.8265
  O  O135  1  0.271840  0.218500  0.331650  1.0  -0.818
  O  O136  1  0.333090  0.398700  0.263820  1.0  -0.7947
  O  O137  1  0.289100  0.641500  0.309630  1.0  -0.9579
  O  O138  1  0.331730  0.423400  0.398370  1.0  -0.8324
  O  O139  1  0.700810  0.432300  0.495960  1.0  -0.8605
  O  O140  1  0.788970  0.298100  0.424500  1.0  -0.8682
  O  O141  1  0.202690  0.999500  0.871290  1.0  -0.8265
  O  O142  1  0.771840  0.281500  0.831650  1.0  -0.8192
  O  O143  1  0.833090  0.101300  0.763820  1.0  -0.7952
  O  O144  1  0.789100  0.858500  0.809630  1.0  -0.9498
  O  O145  1  0.831730  0.076600  0.898370  1.0  -0.8327
  O  O146  1  0.200810  0.067700  0.995960  1.0  -0.8622
  O  O147  1  0.288970  0.201900  0.924500  1.0  -0.8678
  O  O148  1  0.702690  0.499500  0.871290  1.0  -0.8265
  O  O149  1  0.271840  0.781500  0.831650  1.0  -0.8192
  O  O150  1  0.333090  0.601300  0.763820  1.0  -0.7952
  O  O151  1  0.289100  0.358500  0.809630  1.0  -0.9492
  O  O152  1  0.331730  0.576600  0.898370  1.0  -0.8327
  O  O153  1  0.700810  0.567700  0.995960  1.0  -0.8622
  O  O154  1  0.788970  0.701900  0.924500  1.0  -0.8675
  O  O155  1  0.797310  0.999500  0.628710  1.0  -0.8271
  O  O156  1  0.228160  0.281500  0.668350  1.0  -0.8221
  O  O157  1  0.166910  0.101300  0.736180  1.0  -0.7945
  O  O158  1  0.210900  0.858500  0.690370  1.0  -0.9492
  O  O159  1  0.168270  0.076600  0.601630  1.0  -0.8343
  O  O160  1  0.799190  0.067700  0.504040  1.0  -0.8615
  O  O161  1  0.711030  0.201900  0.575500  1.0  -0.8698
  O  O162  1  0.297310  0.499500  0.628710  1.0  -0.8271
  O  O163  1  0.728160  0.781500  0.668350  1.0  -0.8221
  O  O164  1  0.666910  0.601300  0.736180  1.0  -0.7945
  O  O165  1  0.710900  0.358500  0.690370  1.0  -0.9492
  O  O166  1  0.668270  0.576600  0.601630  1.0  -0.8343
  O  O167  1  0.299190  0.567700  0.504040  1.0  -0.8615
  O  O168  1  0.211030  0.701900  0.575500  1.0  -0.8695
