# generated using pymatgen
data_V2P2H7C3O7
_symmetry_space_group_name_H-M   'P 1'
_cell_length_a   15.55270000
_cell_length_b   10.08410000
_cell_length_c   18.78130000
_cell_angle_alpha   90.00000000
_cell_angle_beta   104.42300000
_cell_angle_gamma   90.00000000
_symmetry_Int_Tables_number   1
_chemical_formula_structural   V2P2H7C3O7
_chemical_formula_sum   'V16 P16 H56 C24 O56'
_cell_volume   2852.73022538
_cell_formula_units_Z   8
loop_
 _symmetry_equiv_pos_site_id
 _symmetry_equiv_pos_as_xyz
  1  'x, y, z'
loop_
 _atom_site_type_symbol
 _atom_site_label
 _atom_site_symmetry_multiplicity
 _atom_site_fract_x
 _atom_site_fract_y
 _atom_site_fract_z
 _atom_site_occupancy
 _atom_site_charge
  V  V1  1  0.249280  0.969380  0.284880  1.0  1.3648
  V  V2  1  0.831010  0.890170  0.414300  1.0  1.3658
  V  V3  1  0.749280  0.469380  0.284880  1.0  1.3648
  V  V4  1  0.331010  0.390170  0.414300  1.0  1.3658
  V  V5  1  0.750720  0.969380  0.215120  1.0  1.3642
  V  V6  1  0.168990  0.890170  0.085700  1.0  1.3658
  V  V7  1  0.250720  0.469380  0.215120  1.0  1.3642
  V  V8  1  0.668990  0.390170  0.085700  1.0  1.3658
  V  V9  1  0.750720  0.030620  0.715120  1.0  1.3642
  V  V10  1  0.168990  0.109830  0.585700  1.0  1.3658
  V  V11  1  0.250720  0.530620  0.715120  1.0  1.3642
  V  V12  1  0.668990  0.609830  0.585700  1.0  1.3658
  V  V13  1  0.249280  0.030620  0.784880  1.0  1.3646
  V  V14  1  0.831010  0.109830  0.914300  1.0  1.3658
  V  V15  1  0.749280  0.530620  0.784880  1.0  1.3646
  V  V16  1  0.331010  0.609830  0.914300  1.0  1.3658
  P  P17  1  0.201510  0.128210  0.419820  1.0  1.5676
  P  P18  1  0.831450  0.180350  0.340340  1.0  1.5827
  P  P19  1  0.701510  0.628210  0.419820  1.0  1.5676
  P  P20  1  0.331450  0.680350  0.340340  1.0  1.5827
  P  P21  1  0.798490  0.128210  0.080180  1.0  1.5697
  P  P22  1  0.168550  0.180350  0.159660  1.0  1.5798
  P  P23  1  0.298490  0.628210  0.080180  1.0  1.5697
  P  P24  1  0.668550  0.680350  0.159660  1.0  1.5798
  P  P25  1  0.798490  0.871790  0.580180  1.0  1.5686
  P  P26  1  0.168550  0.819650  0.659660  1.0  1.5798
  P  P27  1  0.298490  0.371790  0.580180  1.0  1.5686
  P  P28  1  0.668550  0.319650  0.659660  1.0  1.5798
  P  P29  1  0.201510  0.871790  0.919820  1.0  1.5662
  P  P30  1  0.831450  0.819650  0.840340  1.0  1.5827
  P  P31  1  0.701510  0.371790  0.919820  1.0  1.5662
  P  P32  1  0.331450  0.319650  0.840340  1.0  1.5827
  H  H33  1  0.106500  0.298700  0.430000  1.0  0.1225
  H  H34  1  0.108400  0.278400  0.346000  1.0  0.1125
  H  H35  1  0.009600  0.101000  0.332100  1.0  0.0884
  H  H36  1  0.018200  0.094500  0.418900  1.0  0.0943
  H  H37  1  0.945100  0.297900  0.416000  1.0  0.1274
  H  H38  1  0.945500  0.320100  0.331900  1.0  0.1321
  H  H39  1  0.227000  0.801000  0.200300  1.0  0.4517
  H  H40  1  0.606500  0.798700  0.430000  1.0  0.1225
  H  H41  1  0.608400  0.778400  0.346000  1.0  0.1125
  H  H42  1  0.509600  0.601000  0.332100  1.0  0.0884
  H  H43  1  0.518200  0.594500  0.418900  1.0  0.0943
  H  H44  1  0.445100  0.797900  0.416000  1.0  0.1274
  H  H45  1  0.445500  0.820100  0.331900  1.0  0.1321
  H  H46  1  0.727000  0.301000  0.200300  1.0  0.4518
  H  H47  1  0.893500  0.298700  0.070000  1.0  0.1226
  H  H48  1  0.891600  0.278400  0.154000  1.0  0.1109
  H  H49  1  0.990400  0.101000  0.167900  1.0  0.0895
  H  H50  1  0.981800  0.094500  0.081100  1.0  0.094
  H  H51  1  0.054900  0.297900  0.084000  1.0  0.1276
  H  H52  1  0.054500  0.320100  0.168100  1.0  0.1324
  H  H53  1  0.773000  0.801000  0.299700  1.0  0.4514
  H  H54  1  0.393500  0.798700  0.070000  1.0  0.1226
  H  H55  1  0.391600  0.778400  0.154000  1.0  0.1109
  H  H56  1  0.490400  0.601000  0.167900  1.0  0.0895
  H  H57  1  0.481800  0.594500  0.081100  1.0  0.094
  H  H58  1  0.554900  0.797900  0.084000  1.0  0.1276
  H  H59  1  0.554500  0.820100  0.168100  1.0  0.1324
  H  H60  1  0.273000  0.301000  0.299700  1.0  0.4514
  H  H61  1  0.893500  0.701300  0.570000  1.0  0.1234
  H  H62  1  0.891600  0.721600  0.654000  1.0  0.112
  H  H63  1  0.990400  0.899000  0.667900  1.0  0.0886
  H  H64  1  0.981800  0.905500  0.581100  1.0  0.0934
  H  H65  1  0.054900  0.702100  0.584000  1.0  0.1278
  H  H66  1  0.054500  0.679900  0.668100  1.0  0.1335
  H  H67  1  0.773000  0.199000  0.799700  1.0  0.4533
  H  H68  1  0.393500  0.201300  0.570000  1.0  0.1234
  H  H69  1  0.391600  0.221600  0.654000  1.0  0.112
  H  H70  1  0.490400  0.399000  0.667900  1.0  0.0886
  H  H71  1  0.481800  0.405500  0.581100  1.0  0.0934
  H  H72  1  0.554900  0.202100  0.584000  1.0  0.1278
  H  H73  1  0.554500  0.179900  0.668100  1.0  0.1335
  H  H74  1  0.273000  0.699000  0.799700  1.0  0.4533
  H  H75  1  0.106500  0.701300  0.930000  1.0  0.1235
  H  H76  1  0.108400  0.721600  0.846000  1.0  0.114
  H  H77  1  0.009600  0.899000  0.832100  1.0  0.0876
  H  H78  1  0.018200  0.905500  0.918900  1.0  0.0942
  H  H79  1  0.945100  0.702100  0.916000  1.0  0.1281
  H  H80  1  0.945500  0.679900  0.831900  1.0  0.1325
  H  H81  1  0.227000  0.199000  0.700300  1.0  0.4523
  H  H82  1  0.606500  0.201300  0.930000  1.0  0.1235
  H  H83  1  0.608400  0.221600  0.846000  1.0  0.114
  H  H84  1  0.509600  0.399000  0.832100  1.0  0.0876
  H  H85  1  0.518200  0.405500  0.918900  1.0  0.0942
  H  H86  1  0.445100  0.202100  0.916000  1.0  0.1281
  H  H87  1  0.445500  0.179900  0.831900  1.0  0.1325
  H  H88  1  0.727000  0.699000  0.700300  1.0  0.4523
  C  C89  1  0.105490  0.231190  0.391490  1.0  -0.4355
  C  C90  1  0.017300  0.155100  0.377290  1.0  -0.1852
  C  C91  1  0.939880  0.252000  0.368480  1.0  -0.4476
  C  C92  1  0.605490  0.731190  0.391490  1.0  -0.4355
  C  C93  1  0.517300  0.655100  0.377290  1.0  -0.1852
  C  C94  1  0.439880  0.752000  0.368480  1.0  -0.4476
  C  C95  1  0.894510  0.231190  0.108510  1.0  -0.4337
  C  C96  1  0.982700  0.155100  0.122710  1.0  -0.1865
  C  C97  1  0.060120  0.252000  0.131520  1.0  -0.45
  C  C98  1  0.394510  0.731190  0.108510  1.0  -0.4337
  C  C99  1  0.482700  0.655100  0.122710  1.0  -0.1865
  C  C100  1  0.560120  0.752000  0.131520  1.0  -0.45
  C  C101  1  0.894510  0.768810  0.608510  1.0  -0.4359
  C  C102  1  0.982700  0.844900  0.622710  1.0  -0.1871
  C  C103  1  0.060120  0.748000  0.631520  1.0  -0.4506
  C  C104  1  0.394510  0.268810  0.608510  1.0  -0.4359
  C  C105  1  0.482700  0.344900  0.622710  1.0  -0.1871
  C  C106  1  0.560120  0.248000  0.631520  1.0  -0.4506
  C  C107  1  0.105490  0.768810  0.891490  1.0  -0.4371
  C  C108  1  0.017300  0.844900  0.877290  1.0  -0.1857
  C  C109  1  0.939880  0.748000  0.868480  1.0  -0.4488
  C  C110  1  0.605490  0.268810  0.891490  1.0  -0.4371
  C  C111  1  0.517300  0.344900  0.877290  1.0  -0.1857
  C  C112  1  0.439880  0.248000  0.868480  1.0  -0.4488
  O  O113  1  0.816740  0.081380  0.397740  1.0  -0.8309
  O  O114  1  0.283660  0.210780  0.421640  1.0  -0.8572
  O  O115  1  0.202460  0.066500  0.494610  1.0  -0.857
  O  O116  1  0.194720  0.012110  0.365870  1.0  -0.8303
  O  O117  1  0.824890  0.115530  0.265500  1.0  -0.8047
  O  O118  1  0.764550  0.293420  0.334790  1.0  -0.7955
  O  O119  1  0.216410  0.867480  0.192550  1.0  -0.9653
  O  O120  1  0.316740  0.581380  0.397740  1.0  -0.8309
  O  O121  1  0.783660  0.710780  0.421640  1.0  -0.8572
  O  O122  1  0.702460  0.566500  0.494610  1.0  -0.857
  O  O123  1  0.694720  0.512110  0.365870  1.0  -0.8297
  O  O124  1  0.324890  0.615530  0.265500  1.0  -0.8047
  O  O125  1  0.264550  0.793420  0.334790  1.0  -0.7951
  O  O126  1  0.716410  0.367480  0.192550  1.0  -0.9653
  O  O127  1  0.183260  0.081380  0.102260  1.0  -0.8306
  O  O128  1  0.716340  0.210780  0.078360  1.0  -0.8574
  O  O129  1  0.797540  0.066500  0.005390  1.0  -0.857
  O  O130  1  0.805280  0.012110  0.134130  1.0  -0.8304
  O  O131  1  0.175110  0.115530  0.234500  1.0  -0.803
  O  O132  1  0.235450  0.293420  0.165210  1.0  -0.7945
  O  O133  1  0.783590  0.867480  0.307450  1.0  -0.965
  O  O134  1  0.683260  0.581380  0.102260  1.0  -0.8306
  O  O135  1  0.216340  0.710780  0.078360  1.0  -0.8574
  O  O136  1  0.297540  0.566500  0.005390  1.0  -0.857
  O  O137  1  0.305280  0.512110  0.134130  1.0  -0.8305
  O  O138  1  0.675110  0.615530  0.234500  1.0  -0.803
  O  O139  1  0.735450  0.793420  0.165210  1.0  -0.794
  O  O140  1  0.283590  0.367480  0.307450  1.0  -0.965
  O  O141  1  0.183260  0.918620  0.602260  1.0  -0.8303
  O  O142  1  0.716340  0.789220  0.578360  1.0  -0.8569
  O  O143  1  0.797540  0.933500  0.505390  1.0  -0.8592
  O  O144  1  0.805280  0.987890  0.634130  1.0  -0.8299
  O  O145  1  0.175110  0.884470  0.734500  1.0  -0.8025
  O  O146  1  0.235450  0.706580  0.665210  1.0  -0.795
  O  O147  1  0.783590  0.132520  0.807450  1.0  -0.9652
  O  O148  1  0.683260  0.418620  0.602260  1.0  -0.8303
  O  O149  1  0.216340  0.289220  0.578360  1.0  -0.8569
  O  O150  1  0.297540  0.433500  0.505390  1.0  -0.8592
  O  O151  1  0.305280  0.487890  0.634130  1.0  -0.8293
  O  O152  1  0.675110  0.384470  0.734500  1.0  -0.8025
  O  O153  1  0.735450  0.206580  0.665210  1.0  -0.7946
  O  O154  1  0.283590  0.632520  0.807450  1.0  -0.9652
  O  O155  1  0.816740  0.918620  0.897740  1.0  -0.8312
  O  O156  1  0.283660  0.789220  0.921640  1.0  -0.8561
  O  O157  1  0.202460  0.933500  0.994610  1.0  -0.8586
  O  O158  1  0.194720  0.987890  0.865870  1.0  -0.8287
  O  O159  1  0.824890  0.884470  0.765500  1.0  -0.8038
  O  O160  1  0.764550  0.706580  0.834790  1.0  -0.795
  O  O161  1  0.216410  0.132520  0.692550  1.0  -0.9658
  O  O162  1  0.316740  0.418620  0.897740  1.0  -0.8312
  O  O163  1  0.783660  0.289220  0.921640  1.0  -0.8561
  O  O164  1  0.702460  0.433500  0.994610  1.0  -0.8586
  O  O165  1  0.694720  0.487890  0.865870  1.0  -0.8288
  O  O166  1  0.324890  0.384470  0.765500  1.0  -0.8038
  O  O167  1  0.264550  0.206580  0.834790  1.0  -0.7947
  O  O168  1  0.716410  0.632520  0.692550  1.0  -0.9658
