# generated using pymatgen
data_V2P2H7C3O7
_symmetry_space_group_name_H-M   'P 1'
_cell_length_a   15.20030000
_cell_length_b   10.21220000
_cell_length_c   18.59030000
_cell_angle_alpha   90.00000000
_cell_angle_beta   103.53000000
_cell_angle_gamma   90.00000000
_symmetry_Int_Tables_number   1
_chemical_formula_structural   V2P2H7C3O7
_chemical_formula_sum   'V16 P16 H56 C24 O56'
_cell_volume   2805.65798859
_cell_formula_units_Z   8
loop_
 _symmetry_equiv_pos_site_id
 _symmetry_equiv_pos_as_xyz
  1  'x, y, z'
loop_
 _atom_site_type_symbol
 _atom_site_label
 _atom_site_symmetry_multiplicity
 _atom_site_fract_x
 _atom_site_fract_y
 _atom_site_fract_z
 _atom_site_occupancy
 _atom_site_charge
  V  V1  1  0.160250  0.384170  0.083940  1.0  1.3695
  V  V2  1  0.247900  0.453520  0.283940  1.0  1.3731
  V  V3  1  0.660250  0.884170  0.083940  1.0  1.3695
  V  V4  1  0.747900  0.953520  0.283940  1.0  1.3731
  V  V5  1  0.839750  0.384170  0.416060  1.0  1.3687
  V  V6  1  0.752100  0.453520  0.216060  1.0  1.3723
  V  V7  1  0.339750  0.884170  0.416060  1.0  1.3687
  V  V8  1  0.252100  0.953520  0.216060  1.0  1.3723
  V  V9  1  0.839750  0.615830  0.916060  1.0  1.3689
  V  V10  1  0.752100  0.546480  0.716060  1.0  1.3725
  V  V11  1  0.339750  0.115830  0.916060  1.0  1.3689
  V  V12  1  0.252100  0.046480  0.716060  1.0  1.3725
  V  V13  1  0.160250  0.615830  0.583940  1.0  1.3697
  V  V14  1  0.247900  0.546480  0.783940  1.0  1.3732
  V  V15  1  0.660250  0.115830  0.583940  1.0  1.3697
  V  V16  1  0.747900  0.046480  0.783940  1.0  1.3732
  P  P17  1  0.213640  0.378370  0.922210  1.0  1.5386
  P  P18  1  0.836570  0.331340  0.835720  1.0  1.5995
  P  P19  1  0.713640  0.878370  0.922210  1.0  1.5386
  P  P20  1  0.336570  0.831340  0.835720  1.0  1.5995
  P  P21  1  0.786360  0.378370  0.577790  1.0  1.5388
  P  P22  1  0.163430  0.331340  0.664280  1.0  1.5994
  P  P23  1  0.286360  0.878370  0.577790  1.0  1.5388
  P  P24  1  0.663430  0.831340  0.664280  1.0  1.5994
  P  P25  1  0.786360  0.621630  0.077790  1.0  1.5395
  P  P26  1  0.163430  0.668660  0.164280  1.0  1.5998
  P  P27  1  0.286360  0.121630  0.077790  1.0  1.5395
  P  P28  1  0.663430  0.168660  0.164280  1.0  1.5998
  P  P29  1  0.213640  0.621630  0.422210  1.0  1.5395
  P  P30  1  0.836570  0.668660  0.335720  1.0  1.6003
  P  P31  1  0.713640  0.121630  0.422210  1.0  1.5395
  P  P32  1  0.336570  0.168660  0.335720  1.0  1.6003
  H  H33  1  0.114000  0.209100  0.924200  1.0  0.1341
  H  H34  1  0.122400  0.236300  0.841400  1.0  0.1133
  H  H35  1  0.952400  0.197200  0.820100  1.0  0.1285
  H  H36  1  0.951700  0.207100  0.905600  1.0  0.1324
  H  H37  1  0.021300  0.408900  0.827700  1.0  0.0795
  H  H38  1  0.024800  0.411500  0.914500  1.0  0.0931
  H  H39  1  0.214000  0.294000  0.196000  1.0  0.4321
  H  H40  1  0.614000  0.709100  0.924200  1.0  0.1341
  H  H41  1  0.622400  0.736300  0.841400  1.0  0.1133
  H  H42  1  0.452400  0.697200  0.820100  1.0  0.1285
  H  H43  1  0.451700  0.707100  0.905600  1.0  0.1324
  H  H44  1  0.521300  0.908900  0.827700  1.0  0.0795
  H  H45  1  0.524800  0.911500  0.914500  1.0  0.0931
  H  H46  1  0.714000  0.794000  0.196000  1.0  0.4321
  H  H47  1  0.886000  0.209100  0.575800  1.0  0.1332
  H  H48  1  0.877600  0.236300  0.658600  1.0  0.1121
  H  H49  1  0.047600  0.197200  0.679900  1.0  0.1287
  H  H50  1  0.048300  0.207100  0.594400  1.0  0.1307
  H  H51  1  0.978700  0.408900  0.672300  1.0  0.0806
  H  H52  1  0.975200  0.411500  0.585500  1.0  0.0938
  H  H53  1  0.786000  0.294000  0.304000  1.0  0.431
  H  H54  1  0.386000  0.709100  0.575800  1.0  0.1332
  H  H55  1  0.377600  0.736300  0.658600  1.0  0.1121
  H  H56  1  0.547600  0.697200  0.679900  1.0  0.1287
  H  H57  1  0.548300  0.707100  0.594400  1.0  0.1307
  H  H58  1  0.478700  0.908900  0.672300  1.0  0.0806
  H  H59  1  0.475200  0.911500  0.585500  1.0  0.0938
  H  H60  1  0.286000  0.794000  0.304000  1.0  0.431
  H  H61  1  0.886000  0.790900  0.075800  1.0  0.1329
  H  H62  1  0.877600  0.763700  0.158600  1.0  0.1114
  H  H63  1  0.047600  0.802800  0.179900  1.0  0.1281
  H  H64  1  0.048300  0.792900  0.094400  1.0  0.1312
  H  H65  1  0.978700  0.591100  0.172300  1.0  0.0816
  H  H66  1  0.975200  0.588500  0.085500  1.0  0.0946
  H  H67  1  0.786000  0.706000  0.804000  1.0  0.4332
  H  H68  1  0.386000  0.290900  0.075800  1.0  0.1329
  H  H69  1  0.377600  0.263700  0.158600  1.0  0.1114
  H  H70  1  0.547600  0.302800  0.179900  1.0  0.1281
  H  H71  1  0.548300  0.292900  0.094400  1.0  0.1312
  H  H72  1  0.478700  0.091100  0.172300  1.0  0.0816
  H  H73  1  0.475200  0.088500  0.085500  1.0  0.0946
  H  H74  1  0.286000  0.206000  0.804000  1.0  0.4332
  H  H75  1  0.114000  0.790900  0.424200  1.0  0.1329
  H  H76  1  0.122400  0.763700  0.341400  1.0  0.1125
  H  H77  1  0.952400  0.802800  0.320100  1.0  0.1287
  H  H78  1  0.951700  0.792900  0.405600  1.0  0.1318
  H  H79  1  0.021300  0.591100  0.327700  1.0  0.0811
  H  H80  1  0.024800  0.588500  0.414500  1.0  0.0942
  H  H81  1  0.214000  0.706000  0.696000  1.0  0.4326
  H  H82  1  0.614000  0.290900  0.424200  1.0  0.1329
  H  H83  1  0.622400  0.263700  0.341400  1.0  0.1125
  H  H84  1  0.452400  0.302800  0.320100  1.0  0.1287
  H  H85  1  0.451700  0.292900  0.405600  1.0  0.1318
  H  H86  1  0.521300  0.091100  0.327700  1.0  0.0811
  H  H87  1  0.524800  0.088500  0.414500  1.0  0.0942
  H  H88  1  0.714000  0.206000  0.696000  1.0  0.4326
  C  C89  1  0.116000  0.279000  0.887700  1.0  -0.4936
  C  C90  1  0.946800  0.258900  0.859900  1.0  -0.4533
  C  C91  1  0.026300  0.353500  0.872200  1.0  -0.1283
  C  C92  1  0.616000  0.779000  0.887700  1.0  -0.4936
  C  C93  1  0.446800  0.758900  0.859900  1.0  -0.4533
  C  C94  1  0.526300  0.853500  0.872200  1.0  -0.1283
  C  C95  1  0.884000  0.279000  0.612300  1.0  -0.4946
  C  C96  1  0.053200  0.258900  0.640100  1.0  -0.4543
  C  C97  1  0.973700  0.353500  0.627800  1.0  -0.1307
  C  C98  1  0.384000  0.779000  0.612300  1.0  -0.4946
  C  C99  1  0.553200  0.758900  0.640100  1.0  -0.4543
  C  C100  1  0.473700  0.853500  0.627800  1.0  -0.1307
  C  C101  1  0.884000  0.721000  0.112300  1.0  -0.4927
  C  C102  1  0.053200  0.741100  0.140100  1.0  -0.4535
  C  C103  1  0.973700  0.646500  0.127800  1.0  -0.1308
  C  C104  1  0.384000  0.221000  0.112300  1.0  -0.4927
  C  C105  1  0.553200  0.241100  0.140100  1.0  -0.4535
  C  C106  1  0.473700  0.146500  0.127800  1.0  -0.1308
  C  C107  1  0.116000  0.721000  0.387700  1.0  -0.4925
  C  C108  1  0.946800  0.741100  0.359900  1.0  -0.4536
  C  C109  1  0.026300  0.646500  0.372200  1.0  -0.1284
  C  C110  1  0.616000  0.221000  0.387700  1.0  -0.4925
  C  C111  1  0.446800  0.241100  0.359900  1.0  -0.4536
  C  C112  1  0.526300  0.146500  0.372200  1.0  -0.1284
  O  O113  1  0.211420  0.425700  0.999870  1.0  -0.8689
  O  O114  1  0.825290  0.427000  0.896130  1.0  -0.8287
  O  O115  1  0.202500  0.356600  0.191550  1.0  -0.9472
  O  O116  1  0.298140  0.299200  0.921590  1.0  -0.8303
  O  O117  1  0.209810  0.501400  0.874200  1.0  -0.8197
  O  O118  1  0.767040  0.221900  0.830320  1.0  -0.8224
  O  O119  1  0.828410  0.399400  0.761130  1.0  -0.7992
  O  O120  1  0.711420  0.925700  0.999870  1.0  -0.8689
  O  O121  1  0.325290  0.927000  0.896130  1.0  -0.8287
  O  O122  1  0.702500  0.856600  0.191550  1.0  -0.9472
  O  O123  1  0.798140  0.799200  0.921590  1.0  -0.8303
  O  O124  1  0.709810  0.001400  0.874200  1.0  -0.8198
  O  O125  1  0.267040  0.721900  0.830320  1.0  -0.8222
  O  O126  1  0.328410  0.899400  0.761130  1.0  -0.7992
  O  O127  1  0.788580  0.425700  0.500130  1.0  -0.869
  O  O128  1  0.174710  0.427000  0.603870  1.0  -0.828
  O  O129  1  0.797500  0.356600  0.308450  1.0  -0.9449
  O  O130  1  0.701860  0.299200  0.578410  1.0  -0.8345
  O  O131  1  0.790190  0.501400  0.625800  1.0  -0.8201
  O  O132  1  0.232960  0.221900  0.669680  1.0  -0.8224
  O  O133  1  0.171590  0.399400  0.738870  1.0  -0.7985
  O  O134  1  0.288580  0.925700  0.500130  1.0  -0.869
  O  O135  1  0.674710  0.927000  0.603870  1.0  -0.828
  O  O136  1  0.297500  0.856600  0.308450  1.0  -0.9449
  O  O137  1  0.201860  0.799200  0.578410  1.0  -0.8345
  O  O138  1  0.290190  0.001400  0.625800  1.0  -0.8203
  O  O139  1  0.732960  0.721900  0.669680  1.0  -0.8222
  O  O140  1  0.671590  0.899400  0.738870  1.0  -0.7985
  O  O141  1  0.788580  0.574300  0.000130  1.0  -0.8675
  O  O142  1  0.174710  0.573000  0.103870  1.0  -0.8287
  O  O143  1  0.797500  0.643400  0.808450  1.0  -0.9457
  O  O144  1  0.701860  0.700800  0.078410  1.0  -0.8344
  O  O145  1  0.790190  0.498600  0.125800  1.0  -0.8198
  O  O146  1  0.232960  0.778100  0.169680  1.0  -0.8217
  O  O147  1  0.171590  0.600600  0.238870  1.0  -0.7992
  O  O148  1  0.288580  0.074300  0.000130  1.0  -0.8675
  O  O149  1  0.674710  0.073000  0.103870  1.0  -0.8287
  O  O150  1  0.297500  0.143400  0.808450  1.0  -0.9457
  O  O151  1  0.201860  0.200800  0.078410  1.0  -0.8344
  O  O152  1  0.290190  0.998600  0.125800  1.0  -0.8198
  O  O153  1  0.732960  0.278100  0.169680  1.0  -0.8217
  O  O154  1  0.671590  0.100600  0.238870  1.0  -0.7992
  O  O155  1  0.211420  0.574300  0.499870  1.0  -0.8679
  O  O156  1  0.825290  0.573000  0.396130  1.0  -0.8289
  O  O157  1  0.202500  0.643400  0.691550  1.0  -0.9465
  O  O158  1  0.298140  0.700800  0.421590  1.0  -0.8307
  O  O159  1  0.209810  0.498600  0.374200  1.0  -0.8197
  O  O160  1  0.767040  0.778100  0.330320  1.0  -0.8225
  O  O161  1  0.828410  0.600600  0.261130  1.0  -0.7997
  O  O162  1  0.711420  0.074300  0.499870  1.0  -0.8679
  O  O163  1  0.325290  0.073000  0.396130  1.0  -0.8289
  O  O164  1  0.702500  0.143400  0.691550  1.0  -0.9465
  O  O165  1  0.798140  0.200800  0.421590  1.0  -0.8307
  O  O166  1  0.709810  0.998600  0.374200  1.0  -0.8197
  O  O167  1  0.267040  0.278100  0.330320  1.0  -0.8226
  O  O168  1  0.328410  0.100600  0.261130  1.0  -0.7997
