# generated using pymatgen
data_V2P2H7C3O7
_symmetry_space_group_name_H-M   'P 1'
_cell_length_a   15.64030000
_cell_length_b   10.21120000
_cell_length_c   18.67950000
_cell_angle_alpha   90.00000000
_cell_angle_beta   105.48400000
_cell_angle_gamma   90.00000000
_symmetry_Int_Tables_number   1
_chemical_formula_structural   V2P2H7C3O7
_chemical_formula_sum   'V16 P16 H56 C24 O56'
_cell_volume   2874.95625062
_cell_formula_units_Z   8
loop_
 _symmetry_equiv_pos_site_id
 _symmetry_equiv_pos_as_xyz
  1  'x, y, z'
loop_
 _atom_site_type_symbol
 _atom_site_label
 _atom_site_symmetry_multiplicity
 _atom_site_fract_x
 _atom_site_fract_y
 _atom_site_fract_z
 _atom_site_occupancy
 _atom_site_charge
  V  V1  1  0.165040  0.380630  0.084500  1.0  1.3958
  V  V2  1  0.248270  0.453110  0.287480  1.0  1.3719
  V  V3  1  0.665040  0.880630  0.084500  1.0  1.3958
  V  V4  1  0.748270  0.953110  0.287480  1.0  1.3717
  V  V5  1  0.834960  0.380630  0.415500  1.0  1.396
  V  V6  1  0.751730  0.453110  0.212520  1.0  1.3713
  V  V7  1  0.334960  0.880630  0.415500  1.0  1.396
  V  V8  1  0.251730  0.953110  0.212520  1.0  1.3713
  V  V9  1  0.834960  0.619370  0.915500  1.0  1.3958
  V  V10  1  0.751730  0.546890  0.712520  1.0  1.3722
  V  V11  1  0.334960  0.119370  0.915500  1.0  1.3958
  V  V12  1  0.251730  0.046890  0.712520  1.0  1.3722
  V  V13  1  0.165040  0.619370  0.584500  1.0  1.3957
  V  V14  1  0.248270  0.546890  0.787480  1.0  1.3711
  V  V15  1  0.665040  0.119370  0.584500  1.0  1.3957
  V  V16  1  0.748270  0.046890  0.787480  1.0  1.371
  P  P17  1  0.207390  0.379920  0.921250  1.0  1.5591
  P  P18  1  0.835870  0.332300  0.837190  1.0  1.5798
  P  P19  1  0.707390  0.879920  0.921250  1.0  1.5591
  P  P20  1  0.335870  0.832300  0.837190  1.0  1.5798
  P  P21  1  0.792610  0.379920  0.578750  1.0  1.5591
  P  P22  1  0.164130  0.332300  0.662810  1.0  1.5765
  P  P23  1  0.292610  0.879920  0.578750  1.0  1.5591
  P  P24  1  0.664130  0.832300  0.662810  1.0  1.5765
  P  P25  1  0.792610  0.620080  0.078750  1.0  1.5589
  P  P26  1  0.164130  0.667700  0.162810  1.0  1.5769
  P  P27  1  0.292610  0.120080  0.078750  1.0  1.5589
  P  P28  1  0.664130  0.167700  0.162810  1.0  1.5769
  P  P29  1  0.207390  0.620080  0.421250  1.0  1.5595
  P  P30  1  0.835870  0.667700  0.337190  1.0  1.5804
  P  P31  1  0.707390  0.120080  0.421250  1.0  1.5595
  P  P32  1  0.335870  0.167700  0.337190  1.0  1.5804
  H  H33  1  0.113600  0.242700  0.837800  1.0  0.1283
  H  H34  1  0.109900  0.210100  0.920500  1.0  0.1376
  H  H35  1  0.948200  0.197700  0.822400  1.0  0.135
  H  H36  1  0.952400  0.211500  0.908300  1.0  0.1344
  H  H37  1  0.013100  0.412000  0.826700  1.0  0.0988
  H  H38  1  0.023400  0.415100  0.914400  1.0  0.1015
  H  H39  1  0.217000  0.290000  0.196000  1.0  0.396
  H  H40  1  0.613600  0.742700  0.837800  1.0  0.1283
  H  H41  1  0.609900  0.710100  0.920500  1.0  0.1376
  H  H42  1  0.448200  0.697700  0.822400  1.0  0.135
  H  H43  1  0.452400  0.711500  0.908300  1.0  0.1344
  H  H44  1  0.513100  0.912000  0.826700  1.0  0.0988
  H  H45  1  0.523400  0.915100  0.914400  1.0  0.1015
  H  H46  1  0.717000  0.790000  0.196000  1.0  0.396
  H  H47  1  0.886400  0.242700  0.662200  1.0  0.127
  H  H48  1  0.890100  0.210100  0.579500  1.0  0.137
  H  H49  1  0.051800  0.197700  0.677600  1.0  0.1351
  H  H50  1  0.047600  0.211500  0.591700  1.0  0.1327
  H  H51  1  0.986900  0.412000  0.673300  1.0  0.0999
  H  H52  1  0.976600  0.415100  0.585600  1.0  0.1021
  H  H53  1  0.783000  0.290000  0.304000  1.0  0.3938
  H  H54  1  0.386400  0.742700  0.662200  1.0  0.127
  H  H55  1  0.390100  0.710100  0.579500  1.0  0.137
  H  H56  1  0.551800  0.697700  0.677600  1.0  0.1351
  H  H57  1  0.547600  0.711500  0.591700  1.0  0.1327
  H  H58  1  0.486900  0.912000  0.673300  1.0  0.0999
  H  H59  1  0.476600  0.915100  0.585600  1.0  0.1021
  H  H60  1  0.283000  0.790000  0.304000  1.0  0.3938
  H  H61  1  0.886400  0.757300  0.162200  1.0  0.1267
  H  H62  1  0.890100  0.789900  0.079500  1.0  0.1358
  H  H63  1  0.051800  0.802300  0.177600  1.0  0.1343
  H  H64  1  0.047600  0.788500  0.091700  1.0  0.1332
  H  H65  1  0.986900  0.588000  0.173300  1.0  0.0995
  H  H66  1  0.976600  0.584900  0.085600  1.0  0.1027
  H  H67  1  0.783000  0.710000  0.804000  1.0  0.3951
  H  H68  1  0.386400  0.257300  0.162200  1.0  0.1267
  H  H69  1  0.390100  0.289900  0.079500  1.0  0.1358
  H  H70  1  0.551800  0.302300  0.177600  1.0  0.1343
  H  H71  1  0.547600  0.288500  0.091700  1.0  0.1332
  H  H72  1  0.486900  0.088000  0.173300  1.0  0.0995
  H  H73  1  0.476600  0.084900  0.085600  1.0  0.1027
  H  H74  1  0.283000  0.210000  0.804000  1.0  0.3951
  H  H75  1  0.113600  0.757300  0.337800  1.0  0.1277
  H  H76  1  0.109900  0.789900  0.420500  1.0  0.1362
  H  H77  1  0.948200  0.802300  0.322400  1.0  0.1349
  H  H78  1  0.952400  0.788500  0.408300  1.0  0.1339
  H  H79  1  0.013100  0.588000  0.326700  1.0  0.0983
  H  H80  1  0.023400  0.584900  0.414400  1.0  0.1016
  H  H81  1  0.217000  0.710000  0.696000  1.0  0.3961
  H  H82  1  0.613600  0.257300  0.337800  1.0  0.1277
  H  H83  1  0.609900  0.289900  0.420500  1.0  0.1362
  H  H84  1  0.448200  0.302300  0.322400  1.0  0.1349
  H  H85  1  0.452400  0.288500  0.408300  1.0  0.1339
  H  H86  1  0.513100  0.088000  0.326700  1.0  0.0983
  H  H87  1  0.523400  0.084900  0.414400  1.0  0.1016
  H  H88  1  0.717000  0.210000  0.696000  1.0  0.3961
  C  C89  1  0.110000  0.282400  0.885300  1.0  -0.467
  C  C90  1  0.944700  0.261200  0.861500  1.0  -0.4597
  C  C91  1  0.021800  0.356900  0.871600  1.0  -0.1958
  C  C92  1  0.610000  0.782400  0.885300  1.0  -0.467
  C  C93  1  0.444700  0.761200  0.861500  1.0  -0.4597
  C  C94  1  0.521800  0.856900  0.871600  1.0  -0.1958
  C  C95  1  0.890000  0.282400  0.614700  1.0  -0.468
  C  C96  1  0.055300  0.261200  0.638500  1.0  -0.4602
  C  C97  1  0.978200  0.356900  0.628400  1.0  -0.1975
  C  C98  1  0.390000  0.782400  0.614700  1.0  -0.468
  C  C99  1  0.555300  0.761200  0.638500  1.0  -0.4602
  C  C100  1  0.478200  0.856900  0.628400  1.0  -0.1975
  C  C101  1  0.890000  0.717600  0.114700  1.0  -0.4659
  C  C102  1  0.055300  0.738800  0.138500  1.0  -0.4596
  C  C103  1  0.978200  0.643100  0.128400  1.0  -0.1973
  C  C104  1  0.390000  0.217600  0.114700  1.0  -0.4659
  C  C105  1  0.555300  0.238800  0.138500  1.0  -0.4596
  C  C106  1  0.478200  0.143100  0.128400  1.0  -0.1973
  C  C107  1  0.110000  0.717600  0.385300  1.0  -0.4658
  C  C108  1  0.944700  0.738800  0.361500  1.0  -0.4607
  C  C109  1  0.021800  0.643100  0.371600  1.0  -0.196
  C  C110  1  0.610000  0.217600  0.385300  1.0  -0.4658
  C  C111  1  0.444700  0.238800  0.361500  1.0  -0.4607
  C  C112  1  0.521800  0.143100  0.371600  1.0  -0.196
  O  O113  1  0.207400  0.427300  0.998930  1.0  -0.8514
  O  O114  1  0.288660  0.298600  0.921290  1.0  -0.8579
  O  O115  1  0.828400  0.428800  0.897970  1.0  -0.8298
  O  O116  1  0.211700  0.357100  0.192440  1.0  -0.9663
  O  O117  1  0.824200  0.398500  0.761860  1.0  -0.8065
  O  O118  1  0.768850  0.222300  0.834340  1.0  -0.7975
  O  O119  1  0.203630  0.503400  0.873590  1.0  -0.796
  O  O120  1  0.707400  0.927300  0.998930  1.0  -0.8514
  O  O121  1  0.788660  0.798600  0.921290  1.0  -0.8579
  O  O122  1  0.328400  0.928800  0.897970  1.0  -0.8298
  O  O123  1  0.711700  0.857100  0.192440  1.0  -0.966
  O  O124  1  0.324200  0.898500  0.761860  1.0  -0.8065
  O  O125  1  0.268850  0.722300  0.834340  1.0  -0.7975
  O  O126  1  0.703630  0.003400  0.873590  1.0  -0.796
  O  O127  1  0.792600  0.427300  0.501070  1.0  -0.852
  O  O128  1  0.711340  0.298600  0.578710  1.0  -0.8598
  O  O129  1  0.171600  0.428800  0.602030  1.0  -0.8312
  O  O130  1  0.788300  0.357100  0.307560  1.0  -0.9633
  O  O131  1  0.175800  0.398500  0.738140  1.0  -0.8046
  O  O132  1  0.231150  0.222300  0.665660  1.0  -0.8014
  O  O133  1  0.796370  0.503400  0.626410  1.0  -0.7961
  O  O134  1  0.292600  0.927300  0.501070  1.0  -0.852
  O  O135  1  0.211340  0.798600  0.578710  1.0  -0.8598
  O  O136  1  0.671600  0.928800  0.602030  1.0  -0.8312
  O  O137  1  0.288300  0.857100  0.307560  1.0  -0.9633
  O  O138  1  0.675800  0.898500  0.738140  1.0  -0.8046
  O  O139  1  0.731150  0.722300  0.665660  1.0  -0.8014
  O  O140  1  0.296370  0.003400  0.626410  1.0  -0.7961
  O  O141  1  0.792600  0.572700  0.001070  1.0  -0.8482
  O  O142  1  0.711340  0.701400  0.078710  1.0  -0.8576
  O  O143  1  0.171600  0.571200  0.102030  1.0  -0.8318
  O  O144  1  0.788300  0.642900  0.807560  1.0  -0.9746
  O  O145  1  0.175800  0.601500  0.238140  1.0  -0.8052
  O  O146  1  0.231150  0.777700  0.165660  1.0  -0.8001
  O  O147  1  0.796370  0.496600  0.126410  1.0  -0.7973
  O  O148  1  0.292600  0.072700  0.001070  1.0  -0.8482
  O  O149  1  0.211340  0.201400  0.078710  1.0  -0.8576
  O  O150  1  0.671600  0.071200  0.102030  1.0  -0.8318
  O  O151  1  0.288300  0.142900  0.807560  1.0  -0.9746
  O  O152  1  0.675800  0.101500  0.238140  1.0  -0.8052
  O  O153  1  0.731150  0.277700  0.165660  1.0  -0.8
  O  O154  1  0.296370  0.996600  0.126410  1.0  -0.7973
  O  O155  1  0.207400  0.572700  0.498930  1.0  -0.8484
  O  O156  1  0.288660  0.701400  0.421290  1.0  -0.8567
  O  O157  1  0.828400  0.571200  0.397970  1.0  -0.8301
  O  O158  1  0.211700  0.642900  0.692440  1.0  -0.976
  O  O159  1  0.824200  0.601500  0.261860  1.0  -0.8073
  O  O160  1  0.768850  0.777700  0.334340  1.0  -0.7975
  O  O161  1  0.203630  0.496600  0.373590  1.0  -0.797
  O  O162  1  0.707400  0.072700  0.498930  1.0  -0.8484
  O  O163  1  0.788660  0.201400  0.421290  1.0  -0.8567
  O  O164  1  0.328400  0.071200  0.397970  1.0  -0.8301
  O  O165  1  0.711700  0.142900  0.692440  1.0  -0.976
  O  O166  1  0.324200  0.101500  0.261860  1.0  -0.8073
  O  O167  1  0.268850  0.277700  0.334340  1.0  -0.7974
  O  O168  1  0.703630  0.996600  0.373590  1.0  -0.797
