# generated using pymatgen
data_V2P2H7C3O7
_symmetry_space_group_name_H-M   'P 1'
_cell_length_a   15.00300000
_cell_length_b   10.12600000
_cell_length_c   18.60400000
_cell_angle_alpha   90.00000000
_cell_angle_beta   101.00000000
_cell_angle_gamma   90.00000000
_symmetry_Int_Tables_number   1
_chemical_formula_structural   V2P2H7C3O7
_chemical_formula_sum   'V16 P16 H56 C24 O56'
_cell_volume   2774.39913011
_cell_formula_units_Z   8
loop_
 _symmetry_equiv_pos_site_id
 _symmetry_equiv_pos_as_xyz
  1  'x, y, z'
loop_
 _atom_site_type_symbol
 _atom_site_label
 _atom_site_symmetry_multiplicity
 _atom_site_fract_x
 _atom_site_fract_y
 _atom_site_fract_z
 _atom_site_occupancy
 _atom_site_charge
  V  V1  1  0.158980  0.385930  0.085850  1.0  1.3776
  V  V2  1  0.246820  0.454130  0.281350  1.0  1.4141
  V  V3  1  0.658980  0.885930  0.085850  1.0  1.3776
  V  V4  1  0.746820  0.954130  0.281350  1.0  1.4141
  V  V5  1  0.841020  0.385930  0.414150  1.0  1.3778
  V  V6  1  0.753180  0.454130  0.218650  1.0  1.4126
  V  V7  1  0.341020  0.885930  0.414150  1.0  1.3778
  V  V8  1  0.253180  0.954130  0.218650  1.0  1.4125
  V  V9  1  0.841020  0.614070  0.914150  1.0  1.3778
  V  V10  1  0.753180  0.545870  0.718650  1.0  1.4126
  V  V11  1  0.341020  0.114070  0.914150  1.0  1.3778
  V  V12  1  0.253180  0.045870  0.718650  1.0  1.4124
  V  V13  1  0.158980  0.614070  0.585850  1.0  1.3776
  V  V14  1  0.246820  0.545870  0.781350  1.0  1.4133
  V  V15  1  0.658980  0.114070  0.585850  1.0  1.3776
  V  V16  1  0.746820  0.045870  0.781350  1.0  1.4135
  P  P17  1  0.785740  0.622540  0.077020  1.0  1.5607
  P  P18  1  0.162600  0.669870  0.166860  1.0  1.5755
  P  P19  1  0.285740  0.122540  0.077020  1.0  1.5607
  P  P20  1  0.662600  0.169870  0.166860  1.0  1.5755
  P  P21  1  0.214260  0.622540  0.422980  1.0  1.5607
  P  P22  1  0.837400  0.669870  0.333140  1.0  1.5764
  P  P23  1  0.714260  0.122540  0.422980  1.0  1.5607
  P  P24  1  0.337400  0.169870  0.333140  1.0  1.5764
  P  P25  1  0.214260  0.377460  0.922980  1.0  1.5596
  P  P26  1  0.837400  0.330130  0.833140  1.0  1.5761
  P  P27  1  0.714260  0.877460  0.922980  1.0  1.5596
  P  P28  1  0.337400  0.830130  0.833140  1.0  1.5761
  P  P29  1  0.785740  0.377460  0.577020  1.0  1.5597
  P  P30  1  0.162600  0.330130  0.666860  1.0  1.5754
  P  P31  1  0.285740  0.877460  0.577020  1.0  1.5597
  P  P32  1  0.662600  0.830130  0.666860  1.0  1.5754
  H  H33  1  0.886700  0.791800  0.074000  1.0  0.126
  H  H34  1  0.873400  0.768500  0.154500  1.0  0.1148
  H  H35  1  0.978600  0.595700  0.084900  1.0  0.0782
  H  H36  1  0.972700  0.591200  0.168200  1.0  0.0831
  H  H37  1  0.044100  0.800400  0.184900  1.0  0.1244
  H  H38  1  0.051600  0.802100  0.102200  1.0  0.1218
  H  H39  1  0.208000  0.304000  0.198000  1.0  0.4061
  H  H40  1  0.386700  0.291800  0.074000  1.0  0.126
  H  H41  1  0.373400  0.268500  0.154500  1.0  0.1148
  H  H42  1  0.478600  0.095700  0.084900  1.0  0.0782
  H  H43  1  0.472700  0.091200  0.168200  1.0  0.0831
  H  H44  1  0.544100  0.300400  0.184900  1.0  0.1244
  H  H45  1  0.551600  0.302100  0.102200  1.0  0.1218
  H  H46  1  0.708000  0.804000  0.198000  1.0  0.4061
  H  H47  1  0.113300  0.791800  0.426000  1.0  0.1266
  H  H48  1  0.126600  0.768500  0.345500  1.0  0.1157
  H  H49  1  0.021400  0.595700  0.415100  1.0  0.0779
  H  H50  1  0.027300  0.591200  0.331800  1.0  0.0829
  H  H51  1  0.955900  0.800400  0.315100  1.0  0.1247
  H  H52  1  0.948400  0.802100  0.397800  1.0  0.122
  H  H53  1  0.792000  0.304000  0.302000  1.0  0.4056
  H  H54  1  0.613300  0.291800  0.426000  1.0  0.1266
  H  H55  1  0.626600  0.268500  0.345500  1.0  0.1157
  H  H56  1  0.521400  0.095700  0.415100  1.0  0.0779
  H  H57  1  0.527300  0.091200  0.331800  1.0  0.0829
  H  H58  1  0.455900  0.300400  0.315100  1.0  0.1247
  H  H59  1  0.448400  0.302100  0.397800  1.0  0.122
  H  H60  1  0.292000  0.804000  0.302000  1.0  0.4056
  H  H61  1  0.113300  0.208200  0.926000  1.0  0.127
  H  H62  1  0.126600  0.231500  0.845500  1.0  0.1162
  H  H63  1  0.021400  0.404300  0.915100  1.0  0.0775
  H  H64  1  0.027300  0.408800  0.831800  1.0  0.0813
  H  H65  1  0.955900  0.199600  0.815100  1.0  0.125
  H  H66  1  0.948400  0.197900  0.897800  1.0  0.1224
  H  H67  1  0.792000  0.696000  0.802000  1.0  0.4077
  H  H68  1  0.613300  0.708200  0.926000  1.0  0.127
  H  H69  1  0.626600  0.731500  0.845500  1.0  0.1162
  H  H70  1  0.521400  0.904300  0.915100  1.0  0.0775
  H  H71  1  0.527300  0.908800  0.831800  1.0  0.0813
  H  H72  1  0.455900  0.699600  0.815100  1.0  0.125
  H  H73  1  0.448400  0.697900  0.897800  1.0  0.1224
  H  H74  1  0.292000  0.196000  0.802000  1.0  0.4077
  H  H75  1  0.886700  0.208200  0.574000  1.0  0.126
  H  H76  1  0.873400  0.231500  0.654500  1.0  0.1153
  H  H77  1  0.978600  0.404300  0.584900  1.0  0.0782
  H  H78  1  0.972700  0.408800  0.668200  1.0  0.0816
  H  H79  1  0.044100  0.199600  0.684900  1.0  0.1254
  H  H80  1  0.051600  0.197900  0.602200  1.0  0.121
  H  H81  1  0.208000  0.696000  0.698000  1.0  0.4069
  H  H82  1  0.386700  0.708200  0.574000  1.0  0.126
  H  H83  1  0.373400  0.731500  0.654500  1.0  0.1153
  H  H84  1  0.478600  0.904300  0.584900  1.0  0.0782
  H  H85  1  0.472700  0.908800  0.668200  1.0  0.0816
  H  H86  1  0.544100  0.699600  0.684900  1.0  0.1254
  H  H87  1  0.551600  0.697900  0.602200  1.0  0.121
  H  H88  1  0.708000  0.196000  0.698000  1.0  0.4069
  C  C89  1  0.882600  0.724300  0.110200  1.0  -0.4691
  C  C90  1  0.972400  0.649500  0.126800  1.0  -0.1195
  C  C91  1  0.052700  0.745000  0.144300  1.0  -0.4483
  C  C92  1  0.382600  0.224300  0.110200  1.0  -0.4691
  C  C93  1  0.472400  0.149500  0.126800  1.0  -0.1195
  C  C94  1  0.552700  0.245000  0.144300  1.0  -0.4483
  C  C95  1  0.117400  0.724300  0.389800  1.0  -0.4686
  C  C96  1  0.027600  0.649500  0.373200  1.0  -0.1175
  C  C97  1  0.947300  0.745000  0.355700  1.0  -0.4457
  C  C98  1  0.617400  0.224300  0.389800  1.0  -0.4686
  C  C99  1  0.527600  0.149500  0.373200  1.0  -0.1175
  C  C100  1  0.447300  0.245000  0.355700  1.0  -0.4457
  C  C101  1  0.117400  0.275700  0.889800  1.0  -0.4702
  C  C102  1  0.027600  0.350500  0.873200  1.0  -0.1189
  C  C103  1  0.947300  0.255000  0.855700  1.0  -0.4469
  C  C104  1  0.617400  0.775700  0.889800  1.0  -0.4702
  C  C105  1  0.527600  0.850500  0.873200  1.0  -0.1189
  C  C106  1  0.447300  0.755000  0.855700  1.0  -0.4469
  C  C107  1  0.882600  0.275700  0.610200  1.0  -0.4713
  C  C108  1  0.972400  0.350500  0.626800  1.0  -0.1202
  C  C109  1  0.052700  0.255000  0.644300  1.0  -0.4504
  C  C110  1  0.382600  0.775700  0.610200  1.0  -0.4713
  C  C111  1  0.472400  0.850500  0.626800  1.0  -0.1202
  C  C112  1  0.552700  0.755000  0.644300  1.0  -0.4504
  O  O113  1  0.176000  0.575900  0.105490  1.0  -0.817
  O  O114  1  0.792100  0.571800  0.000900  1.0  -0.8581
  O  O115  1  0.199200  0.357700  0.191100  1.0  -0.9641
  O  O116  1  0.700000  0.701800  0.077000  1.0  -0.8495
  O  O117  1  0.787300  0.500500  0.125620  1.0  -0.842
  O  O118  1  0.166600  0.598800  0.240100  1.0  -0.791
  O  O119  1  0.234200  0.778200  0.172400  1.0  -0.8239
  O  O120  1  0.676000  0.075900  0.105490  1.0  -0.817
  O  O121  1  0.292100  0.071800  0.000900  1.0  -0.8581
  O  O122  1  0.699200  0.857700  0.191100  1.0  -0.9641
  O  O123  1  0.200000  0.201800  0.077000  1.0  -0.8497
  O  O124  1  0.287300  0.000500  0.125620  1.0  -0.8427
  O  O125  1  0.666667  0.098800  0.240100  1.0  -0.7909
  O  O126  1  0.734200  0.278200  0.172400  1.0  -0.8239
  O  O127  1  0.824000  0.575900  0.394510  1.0  -0.8177
  O  O128  1  0.207900  0.571800  0.499100  1.0  -0.8585
  O  O129  1  0.800800  0.357700  0.308900  1.0  -0.9619
  O  O130  1  0.300000  0.701800  0.423000  1.0  -0.8454
  O  O131  1  0.212700  0.500500  0.374380  1.0  -0.8422
  O  O132  1  0.833400  0.598800  0.259900  1.0  -0.7925
  O  O133  1  0.765800  0.778200  0.327600  1.0  -0.8228
  O  O134  1  0.324000  0.075900  0.394510  1.0  -0.8177
  O  O135  1  0.707900  0.071800  0.499100  1.0  -0.8585
  O  O136  1  0.300800  0.857700  0.308900  1.0  -0.9619
  O  O137  1  0.800000  0.201800  0.423000  1.0  -0.8456
  O  O138  1  0.712700  0.000500  0.374380  1.0  -0.8429
  O  O139  1  0.333400  0.098800  0.259900  1.0  -0.7925
  O  O140  1  0.265800  0.278200  0.327600  1.0  -0.8228
  O  O141  1  0.824000  0.424100  0.894510  1.0  -0.8178
  O  O142  1  0.207900  0.428200  0.999100  1.0  -0.8599
  O  O143  1  0.800800  0.642300  0.808900  1.0  -0.9631
  O  O144  1  0.300000  0.298200  0.923000  1.0  -0.8454
  O  O145  1  0.212700  0.499500  0.874380  1.0  -0.8419
  O  O146  1  0.833400  0.401200  0.759900  1.0  -0.792
  O  O147  1  0.765800  0.221800  0.827600  1.0  -0.8231
  O  O148  1  0.324000  0.924100  0.894510  1.0  -0.8178
  O  O149  1  0.707900  0.928200  0.999100  1.0  -0.8599
  O  O150  1  0.300800  0.142300  0.808900  1.0  -0.9631
  O  O151  1  0.800000  0.798200  0.923000  1.0  -0.8453
  O  O152  1  0.712700  0.999500  0.874380  1.0  -0.8429
  O  O153  1  0.333400  0.901200  0.759900  1.0  -0.792
  O  O154  1  0.265800  0.721800  0.827600  1.0  -0.8231
  O  O155  1  0.176000  0.424100  0.605490  1.0  -0.8168
  O  O156  1  0.792100  0.428200  0.500900  1.0  -0.861
  O  O157  1  0.199200  0.642300  0.691100  1.0  -0.9646
  O  O158  1  0.700000  0.298200  0.577000  1.0  -0.8502
  O  O159  1  0.787300  0.499500  0.625620  1.0  -0.8436
  O  O160  1  0.166600  0.401200  0.740100  1.0  -0.7905
  O  O161  1  0.234200  0.221800  0.672400  1.0  -0.8246
  O  O162  1  0.676000  0.924100  0.605490  1.0  -0.8168
  O  O163  1  0.292100  0.928200  0.500900  1.0  -0.861
  O  O164  1  0.699200  0.142300  0.691100  1.0  -0.9646
  O  O165  1  0.200000  0.798200  0.577000  1.0  -0.85
  O  O166  1  0.287300  0.999500  0.625620  1.0  -0.8442
  O  O167  1  0.666667  0.901200  0.740100  1.0  -0.7904
  O  O168  1  0.734200  0.721800  0.672400  1.0  -0.8246
