# generated using pymatgen
data_V2P2H6C3O7
_symmetry_space_group_name_H-M   'P 1'
_cell_length_a   15.08770000
_cell_length_b   10.20270000
_cell_length_c   18.63760000
_cell_angle_alpha   90.00000000
_cell_angle_beta   102.52100000
_cell_angle_gamma   90.00000000
_symmetry_Int_Tables_number   1
_chemical_formula_structural   V2P2H6C3O7
_chemical_formula_sum   'V16 P16 H48 C24 O56'
_cell_volume   2800.74995315
_cell_formula_units_Z   8
loop_
 _symmetry_equiv_pos_site_id
 _symmetry_equiv_pos_as_xyz
  1  'x, y, z'
loop_
 _atom_site_type_symbol
 _atom_site_label
 _atom_site_symmetry_multiplicity
 _atom_site_fract_x
 _atom_site_fract_y
 _atom_site_fract_z
 _atom_site_occupancy
 _atom_site_charge
  V  V1  1  0.160600  0.615380  0.084850  1.0  1.3265
  V  V2  1  0.248290  0.546200  0.283190  1.0  1.3471
  V  V3  1  0.660600  0.115380  0.084850  1.0  1.3265
  V  V4  1  0.748290  0.046200  0.283190  1.0  1.3472
  V  V5  1  0.839400  0.615380  0.415150  1.0  1.3281
  V  V6  1  0.751710  0.546200  0.216810  1.0  1.3479
  V  V7  1  0.339400  0.115380  0.415150  1.0  1.3281
  V  V8  1  0.251710  0.046200  0.216810  1.0  1.3479
  V  V9  1  0.839400  0.384620  0.915150  1.0  1.3282
  V  V10  1  0.751710  0.453800  0.716810  1.0  1.3485
  V  V11  1  0.339400  0.884620  0.915150  1.0  1.3282
  V  V12  1  0.251710  0.953800  0.716810  1.0  1.3486
  V  V13  1  0.160600  0.384620  0.584850  1.0  1.3267
  V  V14  1  0.248290  0.453800  0.783190  1.0  1.3464
  V  V15  1  0.660600  0.884620  0.584850  1.0  1.3267
  V  V16  1  0.748290  0.953800  0.783190  1.0  1.3465
  P  P17  1  0.286320  0.878480  0.077210  1.0  1.5959
  P  P18  1  0.664110  0.830980  0.165620  1.0  1.6164
  P  P19  1  0.786320  0.378480  0.077210  1.0  1.5959
  P  P20  1  0.164110  0.330980  0.165620  1.0  1.6164
  P  P21  1  0.713680  0.878480  0.422790  1.0  1.5947
  P  P22  1  0.335890  0.830980  0.334380  1.0  1.6207
  P  P23  1  0.213680  0.378480  0.422790  1.0  1.5947
  P  P24  1  0.835890  0.330980  0.334380  1.0  1.6207
  P  P25  1  0.713680  0.121520  0.922790  1.0  1.5955
  P  P26  1  0.335890  0.169020  0.834380  1.0  1.621
  P  P27  1  0.213680  0.621520  0.922790  1.0  1.5955
  P  P28  1  0.835890  0.669020  0.834380  1.0  1.621
  P  P29  1  0.286320  0.121520  0.577210  1.0  1.5965
  P  P30  1  0.664110  0.169020  0.665620  1.0  1.6166
  P  P31  1  0.786320  0.621520  0.577210  1.0  1.5965
  P  P32  1  0.164110  0.669020  0.665620  1.0  1.6166
  H  H33  1  0.376200  0.734400  0.156800  1.0  0.1335
  H  H34  1  0.387100  0.709200  0.074500  1.0  0.145
  H  H35  1  0.550500  0.701600  0.098700  1.0  0.1406
  H  H36  1  0.547000  0.699000  0.183700  1.0  0.1426
  H  H37  1  0.476600  0.910700  0.170700  1.0  0.0993
  H  H38  1  0.477900  0.909400  0.085000  1.0  0.1107
  H  H39  1  0.876200  0.234400  0.156800  1.0  0.1335
  H  H40  1  0.887100  0.209200  0.074500  1.0  0.145
  H  H41  1  0.050500  0.201600  0.098700  1.0  0.1406
  H  H42  1  0.047000  0.199000  0.183700  1.0  0.1426
  H  H43  1  0.976600  0.410700  0.170700  1.0  0.0993
  H  H44  1  0.977900  0.409400  0.085000  1.0  0.1107
  H  H45  1  0.623800  0.734400  0.343200  1.0  0.135
  H  H46  1  0.612900  0.709200  0.425500  1.0  0.1461
  H  H47  1  0.449500  0.701600  0.401300  1.0  0.1416
  H  H48  1  0.453000  0.699000  0.316300  1.0  0.1428
  H  H49  1  0.523400  0.910700  0.329300  1.0  0.0977
  H  H50  1  0.522100  0.909400  0.415000  1.0  0.111
  H  H51  1  0.123800  0.234400  0.343200  1.0  0.135
  H  H52  1  0.112900  0.209200  0.425500  1.0  0.1461
  H  H53  1  0.949500  0.201600  0.401300  1.0  0.1416
  H  H54  1  0.953000  0.199000  0.316300  1.0  0.1428
  H  H55  1  0.023400  0.410700  0.329300  1.0  0.0977
  H  H56  1  0.022100  0.409400  0.415000  1.0  0.111
  H  H57  1  0.623800  0.265600  0.843200  1.0  0.1341
  H  H58  1  0.612900  0.290800  0.925500  1.0  0.145
  H  H59  1  0.449500  0.298400  0.901300  1.0  0.1416
  H  H60  1  0.453000  0.301000  0.816300  1.0  0.1421
  H  H61  1  0.523400  0.089300  0.829300  1.0  0.0986
  H  H62  1  0.522100  0.090600  0.915000  1.0  0.1122
  H  H63  1  0.123800  0.765600  0.843200  1.0  0.1341
  H  H64  1  0.112900  0.790800  0.925500  1.0  0.145
  H  H65  1  0.949500  0.798400  0.901300  1.0  0.1416
  H  H66  1  0.953000  0.801000  0.816300  1.0  0.1421
  H  H67  1  0.023400  0.589300  0.829300  1.0  0.0986
  H  H68  1  0.022100  0.590600  0.915000  1.0  0.1122
  H  H69  1  0.376200  0.265600  0.656800  1.0  0.1329
  H  H70  1  0.387100  0.290800  0.574500  1.0  0.1448
  H  H71  1  0.550500  0.298400  0.598700  1.0  0.141
  H  H72  1  0.547000  0.301000  0.683700  1.0  0.1418
  H  H73  1  0.476600  0.089300  0.670700  1.0  0.1001
  H  H74  1  0.477900  0.090600  0.585000  1.0  0.1115
  H  H75  1  0.876200  0.765600  0.656800  1.0  0.1329
  H  H76  1  0.887100  0.790800  0.574500  1.0  0.1448
  H  H77  1  0.050500  0.798400  0.598700  1.0  0.141
  H  H78  1  0.047000  0.801000  0.683700  1.0  0.1418
  H  H79  1  0.976600  0.589300  0.670700  1.0  0.1001
  H  H80  1  0.977900  0.590600  0.585000  1.0  0.1115
  C  C81  1  0.384000  0.778300  0.111200  1.0  -0.4755
  C  C82  1  0.553900  0.757200  0.142740  1.0  -0.4664
  C  C83  1  0.473900  0.853300  0.127490  1.0  -0.1585
  C  C84  1  0.884000  0.278300  0.111200  1.0  -0.4755
  C  C85  1  0.053900  0.257200  0.142740  1.0  -0.4664
  C  C86  1  0.973900  0.353300  0.127490  1.0  -0.1585
  C  C87  1  0.616000  0.778300  0.388800  1.0  -0.4746
  C  C88  1  0.446100  0.757200  0.357260  1.0  -0.4637
  C  C89  1  0.526100  0.853300  0.372510  1.0  -0.1566
  C  C90  1  0.116000  0.278300  0.388800  1.0  -0.4746
  C  C91  1  0.946100  0.257200  0.357260  1.0  -0.4637
  C  C92  1  0.026100  0.353300  0.372510  1.0  -0.1566
  C  C93  1  0.616000  0.221700  0.888800  1.0  -0.4726
  C  C94  1  0.446100  0.242800  0.857260  1.0  -0.4632
  C  C95  1  0.526100  0.146700  0.872510  1.0  -0.1571
  C  C96  1  0.116000  0.721700  0.888800  1.0  -0.4726
  C  C97  1  0.946100  0.742800  0.857260  1.0  -0.4632
  C  C98  1  0.026100  0.646700  0.872510  1.0  -0.1571
  C  C99  1  0.384000  0.221700  0.611200  1.0  -0.473
  C  C100  1  0.553900  0.242800  0.642740  1.0  -0.465
  C  C101  1  0.473900  0.146700  0.627490  1.0  -0.159
  C  C102  1  0.884000  0.721700  0.611200  1.0  -0.473
  C  C103  1  0.053900  0.742800  0.642740  1.0  -0.465
  C  C104  1  0.973900  0.646700  0.627490  1.0  -0.159
  O  O105  1  0.201490  0.797800  0.076850  1.0  -0.8308
  O  O106  1  0.290720  0.928200  0.000580  1.0  -0.8362
  O  O107  1  0.675060  0.925700  0.104500  1.0  -0.7856
  O  O108  1  0.202820  0.644200  0.191350  1.0  -0.7279
  O  O109  1  0.734250  0.721800  0.170270  1.0  -0.7699
  O  O110  1  0.288780  0.000600  0.125520  1.0  -0.8146
  O  O111  1  0.671000  0.900100  0.239460  1.0  -0.8044
  O  O112  1  0.701490  0.297800  0.076850  1.0  -0.8308
  O  O113  1  0.790720  0.428200  0.000580  1.0  -0.8362
  O  O114  1  0.175060  0.425700  0.104500  1.0  -0.7856
  O  O115  1  0.702820  0.144200  0.191350  1.0  -0.7279
  O  O116  1  0.234250  0.221800  0.170270  1.0  -0.7699
  O  O117  1  0.788780  0.500600  0.125520  1.0  -0.8142
  O  O118  1  0.171000  0.400100  0.239460  1.0  -0.8044
  O  O119  1  0.798510  0.797800  0.423150  1.0  -0.8299
  O  O120  1  0.709280  0.928200  0.499420  1.0  -0.8369
  O  O121  1  0.324940  0.925700  0.395500  1.0  -0.7868
  O  O122  1  0.797180  0.644200  0.308650  1.0  -0.7271
  O  O123  1  0.265750  0.721800  0.329730  1.0  -0.7677
  O  O124  1  0.711220  0.000600  0.374480  1.0  -0.8132
  O  O125  1  0.329000  0.900100  0.260540  1.0  -0.8055
  O  O126  1  0.298510  0.297800  0.423150  1.0  -0.8299
  O  O127  1  0.209280  0.428200  0.499420  1.0  -0.8369
  O  O128  1  0.824940  0.425700  0.395500  1.0  -0.7868
  O  O129  1  0.297180  0.144200  0.308650  1.0  -0.7271
  O  O130  1  0.765750  0.221800  0.329730  1.0  -0.7677
  O  O131  1  0.211220  0.500600  0.374480  1.0  -0.8134
  O  O132  1  0.829000  0.400100  0.260540  1.0  -0.8055
  O  O133  1  0.798510  0.202200  0.923150  1.0  -0.8305
  O  O134  1  0.709280  0.071800  0.999420  1.0  -0.8346
  O  O135  1  0.324940  0.074300  0.895500  1.0  -0.787
  O  O136  1  0.797180  0.355800  0.808650  1.0  -0.7265
  O  O137  1  0.265750  0.278200  0.829730  1.0  -0.7683
  O  O138  1  0.711220  0.999400  0.874480  1.0  -0.8121
  O  O139  1  0.329000  0.099900  0.760540  1.0  -0.8055
  O  O140  1  0.298510  0.702200  0.923150  1.0  -0.8305
  O  O141  1  0.209280  0.571800  0.999420  1.0  -0.8346
  O  O142  1  0.824940  0.574300  0.895500  1.0  -0.787
  O  O143  1  0.297180  0.855800  0.808650  1.0  -0.7265
  O  O144  1  0.765750  0.778200  0.829730  1.0  -0.7683
  O  O145  1  0.211220  0.499400  0.874480  1.0  -0.8117
  O  O146  1  0.829000  0.599900  0.760540  1.0  -0.8055
  O  O147  1  0.201490  0.202200  0.576850  1.0  -0.8311
  O  O148  1  0.290720  0.071800  0.500580  1.0  -0.8323
  O  O149  1  0.675060  0.074300  0.604500  1.0  -0.786
  O  O150  1  0.202820  0.355800  0.691350  1.0  -0.7272
  O  O151  1  0.734250  0.278200  0.670270  1.0  -0.7694
  O  O152  1  0.288780  0.999400  0.625520  1.0  -0.8122
  O  O153  1  0.671000  0.099900  0.739460  1.0  -0.8045
  O  O154  1  0.701490  0.702200  0.576850  1.0  -0.8311
  O  O155  1  0.790720  0.571800  0.500580  1.0  -0.8323
  O  O156  1  0.175060  0.574300  0.604500  1.0  -0.786
  O  O157  1  0.702820  0.855800  0.691350  1.0  -0.7272
  O  O158  1  0.234250  0.778200  0.670270  1.0  -0.7694
  O  O159  1  0.788780  0.499400  0.625520  1.0  -0.8123
  O  O160  1  0.171000  0.599900  0.739460  1.0  -0.8045
