# generated using pymatgen
data_V3P4H8(CO3)4
_symmetry_space_group_name_H-M   'P 1'
_cell_length_a   16.32480000
_cell_length_b   13.33610000
_cell_length_c   10.10190000
_cell_angle_alpha   90.00000000
_cell_angle_beta   89.99400000
_cell_angle_gamma   90.00000000
_symmetry_Int_Tables_number   1
_chemical_formula_structural   V3P4H8(CO3)4
_chemical_formula_sum   'V12 P16 H32 C16 O48'
_cell_volume   2199.27620468
_cell_formula_units_Z   4
loop_
 _symmetry_equiv_pos_site_id
 _symmetry_equiv_pos_as_xyz
  1  'x, y, z'
loop_
 _atom_site_type_symbol
 _atom_site_label
 _atom_site_symmetry_multiplicity
 _atom_site_fract_x
 _atom_site_fract_y
 _atom_site_fract_z
 _atom_site_occupancy
 _atom_site_charge
  V  V1  1  0.023700  0.546670  0.247680  1.0  1.3139
  V  V2  1  0.250030  0.249970  0.536470  1.0  1.359
  V  V3  1  0.476340  0.546690  0.747680  1.0  1.313
  V  V4  1  0.976300  0.046670  0.252320  1.0  1.3137
  V  V5  1  0.749970  0.749970  0.963530  1.0  1.3689
  V  V6  1  0.523660  0.046690  0.752320  1.0  1.3133
  V  V7  1  0.976300  0.453330  0.752320  1.0  1.3137
  V  V8  1  0.749970  0.750030  0.463530  1.0  1.3689
  V  V9  1  0.523660  0.453310  0.252320  1.0  1.3136
  V  V10  1  0.023700  0.953330  0.747680  1.0  1.3142
  V  V11  1  0.250030  0.250030  0.036470  1.0  1.359
  V  V12  1  0.476340  0.953310  0.247680  1.0  1.3132
  P  P13  1  0.086650  0.394780  0.497590  1.0  1.5978
  P  P14  1  0.085690  0.106190  0.514920  1.0  1.6266
  P  P15  1  0.414330  0.393850  0.514990  1.0  1.6192
  P  P16  1  0.413350  0.105170  0.497600  1.0  1.5975
  P  P17  1  0.913350  0.894780  0.002410  1.0  1.5976
  P  P18  1  0.914310  0.606190  0.985080  1.0  1.6248
  P  P19  1  0.585670  0.893850  0.985010  1.0  1.6198
  P  P20  1  0.586650  0.605170  0.002400  1.0  1.5985
  P  P21  1  0.913350  0.605220  0.502410  1.0  1.5983
  P  P22  1  0.914310  0.893810  0.485080  1.0  1.6246
  P  P23  1  0.585670  0.606150  0.485010  1.0  1.621
  P  P24  1  0.586650  0.894830  0.502400  1.0  1.5978
  P  P25  1  0.086650  0.105220  0.997590  1.0  1.5987
  P  P26  1  0.085690  0.393810  0.014920  1.0  1.6256
  P  P27  1  0.414330  0.106150  0.014990  1.0  1.6191
  P  P28  1  0.413350  0.394830  0.997600  1.0  1.5967
  H  H29  1  0.959800  0.325500  0.461700  1.0  0.1507
  H  H30  1  0.024800  0.273200  0.371500  1.0  0.1505
  H  H31  1  0.960300  0.177400  0.556000  1.0  0.1523
  H  H32  1  0.027300  0.229100  0.642800  1.0  0.1495
  H  H33  1  0.539700  0.322700  0.556300  1.0  0.1531
  H  H34  1  0.472600  0.270900  0.642900  1.0  0.1489
  H  H35  1  0.475200  0.226800  0.371500  1.0  0.1508
  H  H36  1  0.540200  0.174600  0.461800  1.0  0.15
  H  H37  1  0.040200  0.825500  0.038300  1.0  0.1482
  H  H38  1  0.975200  0.773200  0.128500  1.0  0.1497
  H  H39  1  0.039700  0.677400  0.944000  1.0  0.1518
  H  H40  1  0.972700  0.729100  0.857200  1.0  0.1491
  H  H41  1  0.460300  0.822700  0.943700  1.0  0.1546
  H  H42  1  0.527400  0.770900  0.857100  1.0  0.1499
  H  H43  1  0.524800  0.726800  0.128500  1.0  0.1515
  H  H44  1  0.459800  0.674600  0.038200  1.0  0.1513
  H  H45  1  0.040200  0.674500  0.538300  1.0  0.1487
  H  H46  1  0.975200  0.726800  0.628500  1.0  0.1498
  H  H47  1  0.039700  0.822600  0.444000  1.0  0.1517
  H  H48  1  0.972700  0.770900  0.357200  1.0  0.149
  H  H49  1  0.460300  0.677300  0.443700  1.0  0.1539
  H  H50  1  0.527400  0.729100  0.357100  1.0  0.15
  H  H51  1  0.524800  0.773200  0.628500  1.0  0.1516
  H  H52  1  0.459800  0.825400  0.538200  1.0  0.1512
  H  H53  1  0.959800  0.174500  0.961700  1.0  0.1506
  H  H54  1  0.024800  0.226800  0.871500  1.0  0.1501
  H  H55  1  0.960300  0.322600  0.056000  1.0  0.153
  H  H56  1  0.027300  0.270900  0.142800  1.0  0.1492
  H  H57  1  0.539700  0.177300  0.056300  1.0  0.1535
  H  H58  1  0.472600  0.229100  0.142900  1.0  0.1491
  H  H59  1  0.475200  0.273200  0.871500  1.0  0.1509
  H  H60  1  0.540200  0.325400  0.961800  1.0  0.1497
  C  C61  1  0.014410  0.296750  0.460700  1.0  -0.4057
  C  C62  1  0.015070  0.205510  0.554200  1.0  -0.4173
  C  C63  1  0.484880  0.294570  0.554300  1.0  -0.4237
  C  C64  1  0.485640  0.203280  0.460800  1.0  -0.4035
  C  C65  1  0.985590  0.796750  0.039300  1.0  -0.4068
  C  C66  1  0.984930  0.705510  0.945800  1.0  -0.4145
  C  C67  1  0.515120  0.794570  0.945700  1.0  -0.4227
  C  C68  1  0.514360  0.703280  0.039200  1.0  -0.4056
  C  C69  1  0.985590  0.703250  0.539300  1.0  -0.407
  C  C70  1  0.984930  0.794490  0.445800  1.0  -0.4146
  C  C71  1  0.515120  0.705430  0.445700  1.0  -0.4227
  C  C72  1  0.514360  0.796720  0.539200  1.0  -0.4055
  C  C73  1  0.014410  0.203250  0.960700  1.0  -0.4058
  C  C74  1  0.015070  0.294490  0.054200  1.0  -0.4169
  C  C75  1  0.484880  0.205430  0.054300  1.0  -0.4238
  C  C76  1  0.485640  0.296720  0.960800  1.0  -0.4028
  O  O77  1  0.071580  0.479780  0.401100  1.0  -0.8714
  O  O78  1  0.095290  0.042600  0.640370  1.0  -0.8246
  O  O79  1  0.075170  0.428310  0.641690  1.0  -0.7785
  O  O80  1  0.054710  0.044680  0.398860  1.0  -0.8306
  O  O81  1  0.168500  0.151380  0.478930  1.0  -0.825
  O  O82  1  0.325560  0.142870  0.481870  1.0  -0.8586
  O  O83  1  0.174400  0.357140  0.482010  1.0  -0.8607
  O  O84  1  0.331460  0.348570  0.479030  1.0  -0.8287
  O  O85  1  0.404780  0.457650  0.640420  1.0  -0.8248
  O  O86  1  0.428320  0.020060  0.401200  1.0  -0.8724
  O  O87  1  0.445180  0.455310  0.398760  1.0  -0.8309
  O  O88  1  0.424810  0.071570  0.641800  1.0  -0.7796
  O  O89  1  0.928420  0.979780  0.098900  1.0  -0.8723
  O  O90  1  0.904710  0.542600  0.859630  1.0  -0.8237
  O  O91  1  0.924830  0.928310  0.858310  1.0  -0.7791
  O  O92  1  0.945290  0.544680  0.101140  1.0  -0.8311
  O  O93  1  0.831500  0.651380  0.021070  1.0  -0.8238
  O  O94  1  0.674440  0.642870  0.018130  1.0  -0.859
  O  O95  1  0.825600  0.857140  0.017990  1.0  -0.8613
  O  O96  1  0.668540  0.848570  0.020970  1.0  -0.83
  O  O97  1  0.595220  0.957650  0.859580  1.0  -0.8253
  O  O98  1  0.571680  0.520060  0.098800  1.0  -0.871
  O  O99  1  0.554820  0.955310  0.101240  1.0  -0.8315
  O  O100  1  0.575190  0.571570  0.858200  1.0  -0.7812
  O  O101  1  0.928420  0.520220  0.598900  1.0  -0.8715
  O  O102  1  0.904710  0.957400  0.359630  1.0  -0.8238
  O  O103  1  0.924830  0.571690  0.358310  1.0  -0.7798
  O  O104  1  0.945290  0.955320  0.601140  1.0  -0.8325
  O  O105  1  0.831500  0.848620  0.521070  1.0  -0.8241
  O  O106  1  0.674440  0.857130  0.518130  1.0  -0.8584
  O  O107  1  0.825600  0.642860  0.517990  1.0  -0.8617
  O  O108  1  0.668540  0.651430  0.520970  1.0  -0.8307
  O  O109  1  0.595220  0.542350  0.359580  1.0  -0.8268
  O  O110  1  0.571680  0.979940  0.598800  1.0  -0.8721
  O  O111  1  0.554820  0.544690  0.601240  1.0  -0.832
  O  O112  1  0.575190  0.928430  0.358200  1.0  -0.78
  O  O113  1  0.071580  0.020220  0.901100  1.0  -0.871
  O  O114  1  0.095290  0.457400  0.140370  1.0  -0.8225
  O  O115  1  0.075170  0.071690  0.141690  1.0  -0.7791
  O  O116  1  0.054710  0.455320  0.898860  1.0  -0.8315
  O  O117  1  0.168500  0.348620  0.978930  1.0  -0.8244
  O  O118  1  0.325560  0.357130  0.981870  1.0  -0.8581
  O  O119  1  0.174400  0.142860  0.982010  1.0  -0.8616
  O  O120  1  0.331460  0.151430  0.979030  1.0  -0.8289
  O  O121  1  0.404780  0.042350  0.140420  1.0  -0.8237
  O  O122  1  0.428320  0.479940  0.901200  1.0  -0.8725
  O  O123  1  0.445180  0.044690  0.898760  1.0  -0.8318
  O  O124  1  0.424810  0.428430  0.141800  1.0  -0.779
