# generated using pymatgen
data_V2P2H7C3O7
_symmetry_space_group_name_H-M   'P 1'
_cell_length_a   15.27680000
_cell_length_b   10.22160000
_cell_length_c   18.62790000
_cell_angle_alpha   90.00000000
_cell_angle_beta   103.25200000
_cell_angle_gamma   90.00000000
_symmetry_Int_Tables_number   1
_chemical_formula_structural   V2P2H7C3O7
_chemical_formula_sum   'V16 P16 H56 C24 O56'
_cell_volume   2831.35086062
_cell_formula_units_Z   8
loop_
 _symmetry_equiv_pos_site_id
 _symmetry_equiv_pos_as_xyz
  1  'x, y, z'
loop_
 _atom_site_type_symbol
 _atom_site_label
 _atom_site_symmetry_multiplicity
 _atom_site_fract_x
 _atom_site_fract_y
 _atom_site_fract_z
 _atom_site_occupancy
 _atom_site_charge
  V  V1  1  0.748700  0.045350  0.214550  1.0  1.3646
  V  V2  1  0.837390  0.117350  0.414400  1.0  1.3847
  V  V3  1  0.248700  0.545350  0.214550  1.0  1.3648
  V  V4  1  0.337390  0.617350  0.414400  1.0  1.3847
  V  V5  1  0.251300  0.045350  0.285450  1.0  1.3658
  V  V6  1  0.162610  0.117350  0.085600  1.0  1.3851
  V  V7  1  0.751300  0.545350  0.285450  1.0  1.3657
  V  V8  1  0.662610  0.617350  0.085600  1.0  1.3851
  V  V9  1  0.251300  0.954650  0.785450  1.0  1.3657
  V  V10  1  0.162610  0.882650  0.585600  1.0  1.3851
  V  V11  1  0.751300  0.454650  0.785450  1.0  1.3657
  V  V12  1  0.662610  0.382650  0.585600  1.0  1.3851
  V  V13  1  0.748700  0.954650  0.714550  1.0  1.3652
  V  V14  1  0.837390  0.882650  0.914400  1.0  1.3848
  V  V15  1  0.248700  0.454650  0.714550  1.0  1.3652
  V  V16  1  0.337390  0.382650  0.914400  1.0  1.3848
  P  P17  1  0.663660  0.331900  0.165260  1.0  1.5688
  P  P18  1  0.288130  0.379850  0.077140  1.0  1.5733
  P  P19  1  0.163660  0.831900  0.165260  1.0  1.5688
  P  P20  1  0.788130  0.879850  0.077140  1.0  1.5733
  P  P21  1  0.336340  0.331900  0.334740  1.0  1.5721
  P  P22  1  0.711870  0.379850  0.422860  1.0  1.5711
  P  P23  1  0.836340  0.831900  0.334740  1.0  1.5721
  P  P24  1  0.211870  0.879850  0.422860  1.0  1.5711
  P  P25  1  0.336340  0.668100  0.834740  1.0  1.5725
  P  P26  1  0.711870  0.620150  0.922860  1.0  1.572
  P  P27  1  0.836340  0.168100  0.834740  1.0  1.5725
  P  P28  1  0.211870  0.120150  0.922860  1.0  1.572
  P  P29  1  0.663660  0.668100  0.665260  1.0  1.5691
  P  P30  1  0.288130  0.620150  0.577140  1.0  1.574
  P  P31  1  0.163660  0.168100  0.665260  1.0  1.5691
  P  P32  1  0.788130  0.120150  0.577140  1.0  1.574
  H  H33  1  0.549300  0.203800  0.099300  1.0  0.1307
  H  H34  1  0.547700  0.203100  0.184700  1.0  0.1303
  H  H35  1  0.378800  0.237800  0.157700  1.0  0.115
  H  H36  1  0.388100  0.211300  0.075300  1.0  0.1288
  H  H37  1  0.477800  0.411000  0.084700  1.0  0.099
  H  H38  1  0.478100  0.413400  0.170800  1.0  0.0891
  H  H39  1  0.788000  0.200000  0.303000  1.0  0.4063
  H  H40  1  0.049300  0.703800  0.099300  1.0  0.1307
  H  H41  1  0.047700  0.703100  0.184700  1.0  0.1303
  H  H42  1  0.878800  0.737800  0.157700  1.0  0.115
  H  H43  1  0.888100  0.711300  0.075300  1.0  0.1288
  H  H44  1  0.977800  0.911000  0.084700  1.0  0.099
  H  H45  1  0.978100  0.913400  0.170800  1.0  0.0891
  H  H46  1  0.288000  0.700000  0.303000  1.0  0.4063
  H  H47  1  0.450700  0.203800  0.400700  1.0  0.1326
  H  H48  1  0.452300  0.203100  0.315300  1.0  0.1289
  H  H49  1  0.621200  0.237800  0.342300  1.0  0.1169
  H  H50  1  0.611900  0.211300  0.424700  1.0  0.1301
  H  H51  1  0.522200  0.411000  0.415300  1.0  0.0991
  H  H52  1  0.521900  0.413400  0.329200  1.0  0.089
  H  H53  1  0.212000  0.200000  0.197000  1.0  0.4069
  H  H54  1  0.950700  0.703800  0.400700  1.0  0.1326
  H  H55  1  0.952300  0.703100  0.315300  1.0  0.1289
  H  H56  1  0.121200  0.737800  0.342300  1.0  0.1169
  H  H57  1  0.111900  0.711300  0.424700  1.0  0.1301
  H  H58  1  0.022200  0.911000  0.415300  1.0  0.0991
  H  H59  1  0.021900  0.913400  0.329200  1.0  0.089
  H  H60  1  0.712000  0.700000  0.197000  1.0  0.4069
  H  H61  1  0.450700  0.796200  0.900700  1.0  0.1324
  H  H62  1  0.452300  0.796900  0.815300  1.0  0.1282
  H  H63  1  0.621200  0.762200  0.842300  1.0  0.1162
  H  H64  1  0.611900  0.788700  0.924700  1.0  0.1287
  H  H65  1  0.522200  0.589000  0.915300  1.0  0.0999
  H  H66  1  0.521900  0.586600  0.829200  1.0  0.0896
  H  H67  1  0.212000  0.800000  0.697000  1.0  0.4072
  H  H68  1  0.950700  0.296200  0.900700  1.0  0.1324
  H  H69  1  0.952300  0.296900  0.815300  1.0  0.1282
  H  H70  1  0.121200  0.262200  0.842300  1.0  0.1162
  H  H71  1  0.111900  0.288700  0.924700  1.0  0.1287
  H  H72  1  0.022200  0.089000  0.915300  1.0  0.0999
  H  H73  1  0.021900  0.086600  0.829200  1.0  0.0896
  H  H74  1  0.712000  0.300000  0.697000  1.0  0.4072
  H  H75  1  0.549300  0.796200  0.599300  1.0  0.1315
  H  H76  1  0.547700  0.796900  0.684700  1.0  0.1289
  H  H77  1  0.378800  0.762200  0.657700  1.0  0.1144
  H  H78  1  0.388100  0.788700  0.575300  1.0  0.1284
  H  H79  1  0.477800  0.589000  0.584700  1.0  0.0994
  H  H80  1  0.478100  0.586600  0.670800  1.0  0.0896
  H  H81  1  0.788000  0.800000  0.803000  1.0  0.4048
  H  H82  1  0.049300  0.296200  0.599300  1.0  0.1315
  H  H83  1  0.047700  0.296900  0.684700  1.0  0.1289
  H  H84  1  0.878800  0.262200  0.657700  1.0  0.1144
  H  H85  1  0.888100  0.288700  0.575300  1.0  0.1284
  H  H86  1  0.977800  0.089000  0.584700  1.0  0.0994
  H  H87  1  0.978100  0.086600  0.670800  1.0  0.0896
  H  H88  1  0.288000  0.300000  0.803000  1.0  0.4048
  C  C89  1  0.553800  0.260300  0.143200  1.0  -0.4827
  C  C90  1  0.385600  0.280900  0.111700  1.0  -0.4882
  C  C91  1  0.474700  0.355600  0.127700  1.0  -0.1463
  C  C92  1  0.053800  0.760300  0.143200  1.0  -0.4827
  C  C93  1  0.885600  0.780900  0.111700  1.0  -0.4882
  C  C94  1  0.974700  0.855600  0.127700  1.0  -0.1463
  C  C95  1  0.446200  0.260300  0.356800  1.0  -0.4825
  C  C96  1  0.614400  0.280900  0.388300  1.0  -0.4862
  C  C97  1  0.525300  0.355600  0.372300  1.0  -0.1443
  C  C98  1  0.946200  0.760300  0.356800  1.0  -0.4825
  C  C99  1  0.114400  0.780900  0.388300  1.0  -0.4862
  C  C100  1  0.025300  0.855600  0.372300  1.0  -0.1443
  C  C101  1  0.446200  0.739700  0.856800  1.0  -0.4823
  C  C102  1  0.614400  0.719100  0.888300  1.0  -0.4847
  C  C103  1  0.525300  0.644400  0.872300  1.0  -0.1452
  C  C104  1  0.946200  0.239700  0.856800  1.0  -0.4823
  C  C105  1  0.114400  0.219100  0.888300  1.0  -0.4847
  C  C106  1  0.025300  0.144400  0.872300  1.0  -0.1452
  C  C107  1  0.553800  0.739700  0.643200  1.0  -0.4814
  C  C108  1  0.385600  0.719100  0.611700  1.0  -0.4855
  C  C109  1  0.474700  0.644400  0.627700  1.0  -0.1461
  C  C110  1  0.053800  0.239700  0.643200  1.0  -0.4814
  C  C111  1  0.885600  0.219100  0.611700  1.0  -0.4855
  C  C112  1  0.974700  0.144400  0.627700  1.0  -0.1461
  O  O113  1  0.732010  0.221500  0.168550  1.0  -0.7837
  O  O114  1  0.290470  0.502800  0.125220  1.0  -0.8298
  O  O115  1  0.673900  0.399500  0.239890  1.0  -0.7932
  O  O116  1  0.790700  0.142200  0.308080  1.0  -0.9471
  O  O117  1  0.673460  0.427000  0.104090  1.0  -0.8216
  O  O118  1  0.204840  0.298200  0.076820  1.0  -0.8566
  O  O119  1  0.292210  0.428700  0.000330  1.0  -0.8534
  O  O120  1  0.232010  0.721500  0.168550  1.0  -0.7837
  O  O121  1  0.790470  0.002800  0.125220  1.0  -0.8301
  O  O122  1  0.173900  0.899500  0.239890  1.0  -0.7932
  O  O123  1  0.290700  0.642200  0.308080  1.0  -0.9471
  O  O124  1  0.173460  0.927000  0.104090  1.0  -0.8216
  O  O125  1  0.704840  0.798200  0.076820  1.0  -0.8566
  O  O126  1  0.792210  0.928700  0.000330  1.0  -0.8534
  O  O127  1  0.267990  0.221500  0.331450  1.0  -0.7836
  O  O128  1  0.709530  0.502800  0.374780  1.0  -0.8291
  O  O129  1  0.326100  0.399500  0.260110  1.0  -0.7949
  O  O130  1  0.209300  0.142200  0.191920  1.0  -0.9464
  O  O131  1  0.326540  0.427000  0.395910  1.0  -0.8234
  O  O132  1  0.795160  0.298200  0.423180  1.0  -0.8552
  O  O133  1  0.707790  0.428700  0.499670  1.0  -0.8528
  O  O134  1  0.767990  0.721500  0.331450  1.0  -0.7836
  O  O135  1  0.209530  0.002800  0.374780  1.0  -0.8293
  O  O136  1  0.826100  0.899500  0.260110  1.0  -0.7949
  O  O137  1  0.709300  0.642200  0.191920  1.0  -0.9464
  O  O138  1  0.826540  0.927000  0.395910  1.0  -0.8234
  O  O139  1  0.295160  0.798200  0.423180  1.0  -0.8552
  O  O140  1  0.207790  0.928700  0.499670  1.0  -0.8528
  O  O141  1  0.267990  0.778500  0.831450  1.0  -0.7837
  O  O142  1  0.709530  0.497200  0.874780  1.0  -0.8295
  O  O143  1  0.326100  0.600500  0.760110  1.0  -0.7958
  O  O144  1  0.209300  0.857800  0.691920  1.0  -0.9366
  O  O145  1  0.326540  0.573000  0.895910  1.0  -0.8233
  O  O146  1  0.795160  0.701800  0.923180  1.0  -0.8553
  O  O147  1  0.707790  0.571300  0.999670  1.0  -0.8514
  O  O148  1  0.767990  0.278500  0.831450  1.0  -0.7837
  O  O149  1  0.209530  0.997200  0.874780  1.0  -0.8298
  O  O150  1  0.826100  0.100500  0.760110  1.0  -0.7958
  O  O151  1  0.709300  0.357800  0.691920  1.0  -0.9366
  O  O152  1  0.826540  0.073000  0.895910  1.0  -0.8233
  O  O153  1  0.295160  0.201800  0.923180  1.0  -0.8553
  O  O154  1  0.207790  0.071300  0.999670  1.0  -0.8514
  O  O155  1  0.732010  0.778500  0.668550  1.0  -0.7835
  O  O156  1  0.290470  0.497200  0.625220  1.0  -0.8301
  O  O157  1  0.673900  0.600500  0.739890  1.0  -0.7942
  O  O158  1  0.790700  0.857800  0.808080  1.0  -0.9365
  O  O159  1  0.673460  0.573000  0.604090  1.0  -0.8223
  O  O160  1  0.204840  0.701800  0.576820  1.0  -0.8567
  O  O161  1  0.292210  0.571300  0.500330  1.0  -0.8505
  O  O162  1  0.232010  0.278500  0.668550  1.0  -0.7835
  O  O163  1  0.790470  0.997200  0.625220  1.0  -0.8303
  O  O164  1  0.173900  0.100500  0.739890  1.0  -0.7942
  O  O165  1  0.290700  0.357800  0.808080  1.0  -0.9365
  O  O166  1  0.173460  0.073000  0.604090  1.0  -0.8223
  O  O167  1  0.704840  0.201800  0.576820  1.0  -0.8567
  O  O168  1  0.792210  0.071300  0.500330  1.0  -0.8505
