# generated using pymatgen
data_CuH42C32N6O7
_symmetry_space_group_name_H-M   'P 1'
_cell_length_a   10.43900000
_cell_length_b   14.44000000
_cell_length_c   28.41500000
_cell_angle_alpha   90.00000000
_cell_angle_beta   97.67000000
_cell_angle_gamma   90.00000000
_symmetry_Int_Tables_number   1
_chemical_formula_structural   CuH42C32N6O7
_chemical_formula_sum   'Cu4 H168 C128 N24 O28'
_cell_volume   4244.93190222
_cell_formula_units_Z   4
loop_
 _symmetry_equiv_pos_site_id
 _symmetry_equiv_pos_as_xyz
  1  'x, y, z'
loop_
 _atom_site_type_symbol
 _atom_site_label
 _atom_site_symmetry_multiplicity
 _atom_site_fract_x
 _atom_site_fract_y
 _atom_site_fract_z
 _atom_site_occupancy
 _atom_site_charge
  Cu  Cu1  1  0.321760  0.706720  0.178430  1.0  0.7946
  Cu  Cu2  1  0.821760  0.793280  0.678430  1.0  0.7959
  Cu  Cu3  1  0.178240  0.206720  0.321570  1.0  0.796
  Cu  Cu4  1  0.678240  0.293280  0.821570  1.0  0.7975
  H  H5  1  0.573100  0.794500  0.173300  1.0  0.0755
  H  H6  1  0.692600  0.926200  0.195100  1.0  0.1243
  H  H7  1  0.374500  0.028200  0.247000  1.0  0.1095
  H  H8  1  0.268900  0.895400  0.222300  1.0  0.0744
  H  H9  1  0.694000  0.057000  0.269000  1.0  0.0985
  H  H10  1  0.582000  0.134000  0.255000  1.0  0.1034
  H  H11  1  0.603400  0.142700  0.174600  1.0  0.0783
  H  H12  1  0.731500  0.081000  0.182600  1.0  0.077
  H  H13  1  0.705000  0.257800  0.225100  1.0  0.0789
  H  H14  1  0.833100  0.195500  0.234500  1.0  0.0791
  H  H15  1  0.728200  0.268900  0.143500  1.0  0.0791
  H  H16  1  0.851800  0.202800  0.151200  1.0  0.0776
  H  H17  1  0.970400  0.319000  0.196600  1.0  0.0727
  H  H18  1  0.846300  0.385200  0.190000  1.0  0.0723
  H  H19  1  0.973600  0.322800  0.112500  1.0  0.0978
  H  H20  1  0.854400  0.393600  0.107600  1.0  0.0917
  H  H21  1  0.894300  0.557100  0.135100  1.0  0.1368
  H  H22  1  0.042200  0.675700  0.152500  1.0  0.0771
  H  H23  1  0.330600  0.499100  0.165800  1.0  0.089
  H  H24  1  0.191600  0.376800  0.145100  1.0  0.1221
  H  H25  1  0.240600  0.859200  0.110100  1.0  0.0767
  H  H26  1  0.229000  0.891500  0.029800  1.0  0.117
  H  H27  1  0.379500  0.634900  0.012400  1.0  0.1351
  H  H28  1  0.379600  0.613100  0.091700  1.0  0.0518
  H  H29  1  0.210800  0.804100  0.945200  1.0  0.0839
  H  H30  1  0.326000  0.732000  0.942800  1.0  0.083
  H  H31  1  0.358000  0.924500  0.962200  1.0  0.0716
  H  H32  1  0.380900  0.875400  0.913600  1.0  0.0719
  H  H33  1  0.554000  0.790400  0.956800  1.0  0.0782
  H  H34  1  0.535300  0.850100  0.002700  1.0  0.0794
  H  H35  1  0.700900  0.916400  0.973900  1.0  0.0803
  H  H36  1  0.582200  0.984800  0.959700  1.0  0.081
  H  H37  1  0.561400  0.912800  0.880300  1.0  0.0764
  H  H38  1  0.681100  0.981700  0.893500  1.0  0.0742
  H  H39  1  0.701700  0.784800  0.903700  1.0  0.0907
  H  H40  1  0.820400  0.855500  0.913200  1.0  0.0856
  H  H41  1  0.917000  0.916200  0.844200  1.0  0.1211
  H  H42  1  0.948700  0.895500  0.766400  1.0  0.0776
  H  H43  1  0.637700  0.742500  0.742200  1.0  0.0778
  H  H44  1  0.602200  0.754100  0.820200  1.0  0.1209
  H  H45  1  0.551200  0.632700  0.157200  1.0  0.4003
  H  H46  1  0.513400  0.573200  0.189800  1.0  0.4201
  H  H47  1  0.073100  0.705500  0.673300  1.0  0.0753
  H  H48  1  0.192600  0.573800  0.695100  1.0  0.1244
  H  H49  1  0.874500  0.471800  0.747000  1.0  0.1098
  H  H50  1  0.768900  0.604600  0.722300  1.0  0.0743
  H  H51  1  0.194000  0.443000  0.769000  1.0  0.0984
  H  H52  1  0.082000  0.366000  0.755000  1.0  0.1048
  H  H53  1  0.103400  0.357300  0.674600  1.0  0.078
  H  H54  1  0.231500  0.419000  0.682600  1.0  0.0776
  H  H55  1  0.205000  0.242200  0.725100  1.0  0.0799
  H  H56  1  0.333100  0.304500  0.734500  1.0  0.0789
  H  H57  1  0.228200  0.231100  0.643500  1.0  0.0783
  H  H58  1  0.351800  0.297200  0.651200  1.0  0.079
  H  H59  1  0.470400  0.181000  0.696600  1.0  0.0725
  H  H60  1  0.346300  0.114800  0.690000  1.0  0.0728
  H  H61  1  0.473600  0.177200  0.612500  1.0  0.0972
  H  H62  1  0.354400  0.106400  0.607600  1.0  0.091
  H  H63  1  0.394300  0.942900  0.635100  1.0  0.1368
  H  H64  1  0.542200  0.824300  0.652500  1.0  0.0774
  H  H65  1  0.830600  0.000900  0.665800  1.0  0.089
  H  H66  1  0.691600  0.123200  0.645100  1.0  0.1222
  H  H67  1  0.740600  0.640800  0.610100  1.0  0.0767
  H  H68  1  0.729000  0.608500  0.529800  1.0  0.1162
  H  H69  1  0.879500  0.865100  0.512400  1.0  0.135
  H  H70  1  0.879600  0.886900  0.591700  1.0  0.0511
  H  H71  1  0.710800  0.695900  0.445200  1.0  0.0838
  H  H72  1  0.826000  0.768000  0.442800  1.0  0.0821
  H  H73  1  0.858000  0.575500  0.462200  1.0  0.0697
  H  H74  1  0.880900  0.624600  0.413600  1.0  0.0721
  H  H75  1  0.054000  0.709600  0.456800  1.0  0.0772
  H  H76  1  0.035300  0.649900  0.502700  1.0  0.0791
  H  H77  1  0.200900  0.583600  0.473900  1.0  0.0803
  H  H78  1  0.082200  0.515200  0.459700  1.0  0.0783
  H  H79  1  0.061400  0.587200  0.380300  1.0  0.0761
  H  H80  1  0.181100  0.518300  0.393500  1.0  0.0746
  H  H81  1  0.201700  0.715200  0.403700  1.0  0.0886
  H  H82  1  0.320400  0.644500  0.413200  1.0  0.0858
  H  H83  1  0.417000  0.583800  0.344200  1.0  0.1214
  H  H84  1  0.448700  0.604500  0.266400  1.0  0.0774
  H  H85  1  0.137700  0.757500  0.242200  1.0  0.0788
  H  H86  1  0.102200  0.745900  0.320200  1.0  0.1209
  H  H87  1  0.051200  0.867300  0.657200  1.0  0.4009
  H  H88  1  0.013400  0.926800  0.689800  1.0  0.4211
  H  H89  1  0.926900  0.294500  0.326700  1.0  0.0755
  H  H90  1  0.807400  0.426200  0.304900  1.0  0.1247
  H  H91  1  0.125500  0.528200  0.253000  1.0  0.1094
  H  H92  1  0.231100  0.395400  0.277700  1.0  0.074
  H  H93  1  0.806000  0.557000  0.231000  1.0  0.0989
  H  H94  1  0.918000  0.634000  0.245000  1.0  0.1031
  H  H95  1  0.896600  0.642700  0.325400  1.0  0.0778
  H  H96  1  0.768500  0.581000  0.317400  1.0  0.0778
  H  H97  1  0.795000  0.757800  0.274900  1.0  0.0803
  H  H98  1  0.666900  0.695500  0.265500  1.0  0.0769
  H  H99  1  0.771800  0.768900  0.356500  1.0  0.0794
  H  H100  1  0.648200  0.702800  0.348800  1.0  0.0795
  H  H101  1  0.529600  0.819000  0.303400  1.0  0.0713
  H  H102  1  0.653700  0.885200  0.310000  1.0  0.0732
  H  H103  1  0.526400  0.822800  0.387500  1.0  0.0974
  H  H104  1  0.645600  0.893600  0.392400  1.0  0.0913
  H  H105  1  0.605700  0.057100  0.364900  1.0  0.1372
  H  H106  1  0.457800  0.175700  0.347500  1.0  0.0776
  H  H107  1  0.169400  0.999100  0.334200  1.0  0.0877
  H  H108  1  0.308400  0.876800  0.354900  1.0  0.1221
  H  H109  1  0.259400  0.359200  0.389900  1.0  0.0764
  H  H110  1  0.271000  0.391500  0.470200  1.0  0.1171
  H  H111  1  0.120500  0.134900  0.487600  1.0  0.1348
  H  H112  1  0.120400  0.113100  0.408300  1.0  0.0521
  H  H113  1  0.289200  0.304100  0.554800  1.0  0.0842
  H  H114  1  0.174000  0.232000  0.557200  1.0  0.0823
  H  H115  1  0.142000  0.424500  0.537800  1.0  0.0706
  H  H116  1  0.119100  0.375400  0.586400  1.0  0.0695
  H  H117  1  0.946000  0.290400  0.543200  1.0  0.0779
  H  H118  1  0.964700  0.350100  0.497300  1.0  0.0814
  H  H119  1  0.799100  0.416400  0.526100  1.0  0.0814
  H  H120  1  0.917800  0.484800  0.540300  1.0  0.081
  H  H121  1  0.938600  0.412800  0.619700  1.0  0.0756
  H  H122  1  0.818900  0.481700  0.606500  1.0  0.0747
  H  H123  1  0.798300  0.284800  0.596300  1.0  0.0903
  H  H124  1  0.679600  0.355500  0.586800  1.0  0.0874
  H  H125  1  0.583000  0.416200  0.655800  1.0  0.1209
  H  H126  1  0.551300  0.395500  0.733600  1.0  0.0771
  H  H127  1  0.862300  0.242500  0.757800  1.0  0.0784
  H  H128  1  0.897800  0.254100  0.679800  1.0  0.1211
  H  H129  1  0.948800  0.132700  0.342800  1.0  0.4028
  H  H130  1  0.986600  0.073200  0.310200  1.0  0.4167
  H  H131  1  0.426900  0.205500  0.826700  1.0  0.0753
  H  H132  1  0.307400  0.073800  0.804900  1.0  0.1246
  H  H133  1  0.625500  0.971800  0.753000  1.0  0.1096
  H  H134  1  0.731100  0.104600  0.777700  1.0  0.074
  H  H135  1  0.306000  0.943000  0.731000  1.0  0.0993
  H  H136  1  0.418000  0.866000  0.745000  1.0  0.1039
  H  H137  1  0.396600  0.857300  0.825400  1.0  0.0778
  H  H138  1  0.268500  0.919000  0.817400  1.0  0.0767
  H  H139  1  0.295000  0.742200  0.774900  1.0  0.0801
  H  H140  1  0.166900  0.804500  0.765500  1.0  0.0773
  H  H141  1  0.271800  0.731100  0.856500  1.0  0.0792
  H  H142  1  0.148200  0.797200  0.848800  1.0  0.079
  H  H143  1  0.029600  0.681000  0.803400  1.0  0.0713
  H  H144  1  0.153700  0.614800  0.810000  1.0  0.0732
  H  H145  1  0.026400  0.677200  0.887500  1.0  0.0965
  H  H146  1  0.145600  0.606400  0.892400  1.0  0.0916
  H  H147  1  0.105700  0.442900  0.864900  1.0  0.1372
  H  H148  1  0.957800  0.324300  0.847500  1.0  0.0774
  H  H149  1  0.669400  0.500900  0.834200  1.0  0.0881
  H  H150  1  0.808400  0.623200  0.854900  1.0  0.1218
  H  H151  1  0.759400  0.140800  0.889900  1.0  0.0764
  H  H152  1  0.771000  0.108500  0.970200  1.0  0.1169
  H  H153  1  0.620500  0.365100  0.987600  1.0  0.135
  H  H154  1  0.620400  0.386900  0.908300  1.0  0.0511
  H  H155  1  0.789200  0.195900  0.054800  1.0  0.0846
  H  H156  1  0.674000  0.268000  0.057200  1.0  0.0817
  H  H157  1  0.642000  0.075500  0.037800  1.0  0.0711
  H  H158  1  0.619100  0.124600  0.086400  1.0  0.0699
  H  H159  1  0.446000  0.209600  0.043200  1.0  0.0772
  H  H160  1  0.464700  0.149900  0.997300  1.0  0.0813
  H  H161  1  0.299100  0.083600  0.026100  1.0  0.0821
  H  H162  1  0.417800  0.015200  0.040300  1.0  0.078
  H  H163  1  0.438600  0.087200  0.119700  1.0  0.0758
  H  H164  1  0.318900  0.018300  0.106500  1.0  0.0753
  H  H165  1  0.298300  0.215200  0.096300  1.0  0.0911
  H  H166  1  0.179600  0.144500  0.086800  1.0  0.0872
  H  H167  1  0.083000  0.083800  0.155800  1.0  0.1203
  H  H168  1  0.051300  0.104500  0.233600  1.0  0.0773
  H  H169  1  0.362300  0.257500  0.257800  1.0  0.0785
  H  H170  1  0.397800  0.245900  0.179800  1.0  0.1212
  H  H171  1  0.448800  0.367300  0.842800  1.0  0.4037
  H  H172  1  0.486600  0.426800  0.810200  1.0  0.42
  C  C173  1  0.532800  0.842800  0.188600  1.0  0.1647
  C  C174  1  0.606000  0.921500  0.201700  1.0  -0.2463
  C  C175  1  0.550400  0.993000  0.224600  1.0  0.0947
  C  C176  1  0.418200  0.981200  0.232000  1.0  -0.2128
  C  C177  1  0.356700  0.901600  0.217300  1.0  0.1574
  C  C178  1  0.629400  0.078200  0.239600  1.0  -0.203
  C  C179  1  0.678400  0.125600  0.198100  1.0  -0.1087
  C  C180  1  0.757800  0.211200  0.210800  1.0  -0.1129
  C  C181  1  0.804700  0.251700  0.166300  1.0  -0.1219
  C  C182  1  0.892100  0.336000  0.174700  1.0  -0.0817
  C  C183  1  0.932200  0.373000  0.128800  1.0  -0.2119
  C  C184  1  0.026700  0.454500  0.138300  1.0  0.1112
  C  C185  1  0.984100  0.543600  0.140800  1.0  -0.2137
  C  C186  1  0.073000  0.613900  0.151800  1.0  0.1705
  C  C187  1  0.240600  0.511200  0.159000  1.0  0.1635
  C  C188  1  0.158600  0.437800  0.147200  1.0  -0.2266
  C  C189  1  0.269700  0.813600  0.089900  1.0  0.1694
  C  C190  1  0.262700  0.833700  0.041600  1.0  -0.2475
  C  C191  1  0.304900  0.769500  0.011100  1.0  0.1399
  C  C192  1  0.350600  0.682700  0.031400  1.0  -0.1935
  C  C193  1  0.350800  0.671300  0.078800  1.0  0.1688
  C  C194  1  0.300700  0.788700  0.958700  1.0  -0.2226
  C  C195  1  0.388100  0.866700  0.948500  1.0  -0.1265
  C  C196  1  0.527100  0.851700  0.967600  1.0  -0.1266
  C  C197  1  0.617200  0.923100  0.953300  1.0  -0.1245
  C  C198  1  0.643700  0.921500  0.901500  1.0  -0.1215
  C  C199  1  0.736400  0.844200  0.893400  1.0  -0.1993
  C  C200  1  0.758300  0.835900  0.841500  1.0  0.12
  C  C201  1  0.859200  0.878100  0.824100  1.0  -0.2205
  C  C202  1  0.877400  0.865600  0.777400  1.0  0.1586
  C  C203  1  0.698000  0.776400  0.763600  1.0  0.1577
  C  C204  1  0.674600  0.784000  0.810000  1.0  -0.2169
  C  C205  1  0.032800  0.657200  0.688600  1.0  0.1638
  C  C206  1  0.106000  0.578500  0.701700  1.0  -0.2452
  C  C207  1  0.050400  0.507000  0.724600  1.0  0.0942
  C  C208  1  0.918200  0.518800  0.732000  1.0  -0.2132
  C  C209  1  0.856700  0.598400  0.717300  1.0  0.1575
  C  C210  1  0.129400  0.421800  0.739600  1.0  -0.2033
  C  C211  1  0.178400  0.374400  0.698100  1.0  -0.1082
  C  C212  1  0.257800  0.288800  0.710800  1.0  -0.1126
  C  C213  1  0.304700  0.248300  0.666300  1.0  -0.1215
  C  C214  1  0.392100  0.164000  0.674700  1.0  -0.082
  C  C215  1  0.432200  0.127000  0.628800  1.0  -0.2137
  C  C216  1  0.526700  0.045500  0.638300  1.0  0.1119
  C  C217  1  0.484100  0.956400  0.640800  1.0  -0.2161
  C  C218  1  0.573000  0.886100  0.651800  1.0  0.1693
  C  C219  1  0.740600  0.988800  0.659000  1.0  0.1635
  C  C220  1  0.658600  0.062200  0.647200  1.0  -0.2253
  C  C221  1  0.769700  0.686400  0.589900  1.0  0.1699
  C  C222  1  0.762700  0.666300  0.541600  1.0  -0.2473
  C  C223  1  0.804900  0.730500  0.511100  1.0  0.1391
  C  C224  1  0.850600  0.817300  0.531400  1.0  -0.1918
  C  C225  1  0.850800  0.828700  0.578800  1.0  0.1683
  C  C226  1  0.800700  0.711300  0.458700  1.0  -0.2221
  C  C227  1  0.888100  0.633300  0.448500  1.0  -0.1287
  C  C228  1  0.027100  0.648300  0.467600  1.0  -0.1274
  C  C229  1  0.117200  0.576900  0.453300  1.0  -0.1248
  C  C230  1  0.143700  0.578500  0.401500  1.0  -0.1211
  C  C231  1  0.236400  0.655800  0.393400  1.0  -0.1986
  C  C232  1  0.258300  0.664100  0.341500  1.0  0.1199
  C  C233  1  0.359200  0.621900  0.324100  1.0  -0.2197
  C  C234  1  0.377400  0.634400  0.277400  1.0  0.1588
  C  C235  1  0.198000  0.723600  0.263600  1.0  0.1576
  C  C236  1  0.174600  0.716000  0.310000  1.0  -0.2179
  C  C237  1  0.967200  0.342800  0.311400  1.0  0.1666
  C  C238  1  0.894000  0.421500  0.298300  1.0  -0.2459
  C  C239  1  0.949600  0.493000  0.275400  1.0  0.0947
  C  C240  1  0.081800  0.481200  0.268000  1.0  -0.2112
  C  C241  1  0.143300  0.401600  0.282700  1.0  0.1563
  C  C242  1  0.870600  0.578200  0.260400  1.0  -0.2047
  C  C243  1  0.821600  0.625600  0.301900  1.0  -0.1102
  C  C244  1  0.742200  0.711200  0.289200  1.0  -0.1134
  C  C245  1  0.695300  0.751700  0.333700  1.0  -0.1229
  C  C246  1  0.607900  0.836000  0.325300  1.0  -0.0825
  C  C247  1  0.567800  0.873000  0.371200  1.0  -0.2158
  C  C248  1  0.473300  0.954500  0.361700  1.0  0.1152
  C  C249  1  0.515900  0.043600  0.359200  1.0  -0.2146
  C  C250  1  0.427000  0.113900  0.348200  1.0  0.168
  C  C251  1  0.259400  0.011200  0.341000  1.0  0.164
  C  C252  1  0.341400  0.937800  0.352800  1.0  -0.2241
  C  C253  1  0.230300  0.313600  0.410100  1.0  0.1671
  C  C254  1  0.237300  0.333700  0.458400  1.0  -0.246
  C  C255  1  0.195100  0.269500  0.488900  1.0  0.1399
  C  C256  1  0.149400  0.182700  0.468600  1.0  -0.194
  C  C257  1  0.149200  0.171300  0.421200  1.0  0.1687
  C  C258  1  0.199300  0.288700  0.541300  1.0  -0.2243
  C  C259  1  0.111900  0.366700  0.551500  1.0  -0.1293
  C  C260  1  0.972900  0.351700  0.532400  1.0  -0.127
  C  C261  1  0.882800  0.423100  0.546700  1.0  -0.1232
  C  C262  1  0.856300  0.421500  0.598500  1.0  -0.1237
  C  C263  1  0.763600  0.344200  0.606600  1.0  -0.1974
  C  C264  1  0.741700  0.335900  0.658500  1.0  0.1166
  C  C265  1  0.640800  0.378100  0.675900  1.0  -0.2216
  C  C266  1  0.622600  0.365600  0.722600  1.0  0.1606
  C  C267  1  0.802000  0.276400  0.736400  1.0  0.1579
  C  C268  1  0.825400  0.284000  0.690000  1.0  -0.2171
  C  C269  1  0.467200  0.157200  0.811400  1.0  0.1659
  C  C270  1  0.394000  0.078500  0.798300  1.0  -0.2457
  C  C271  1  0.449600  0.007000  0.775400  1.0  0.0942
  C  C272  1  0.581800  0.018800  0.768000  1.0  -0.212
  C  C273  1  0.643300  0.098400  0.782700  1.0  0.1569
  C  C274  1  0.370600  0.921800  0.760400  1.0  -0.2044
  C  C275  1  0.321600  0.874400  0.801900  1.0  -0.1095
  C  C276  1  0.242200  0.788800  0.789200  1.0  -0.1129
  C  C277  1  0.195300  0.748300  0.833700  1.0  -0.1225
  C  C278  1  0.107900  0.664000  0.825300  1.0  -0.0828
  C  C279  1  0.067800  0.627000  0.871200  1.0  -0.2126
  C  C280  1  0.973300  0.545500  0.861700  1.0  0.1161
  C  C281  1  0.015900  0.456400  0.859200  1.0  -0.2171
  C  C282  1  0.927000  0.386100  0.848200  1.0  0.1685
  C  C283  1  0.759400  0.488800  0.841000  1.0  0.1638
  C  C284  1  0.841400  0.562200  0.852800  1.0  -0.2236
  C  C285  1  0.730300  0.186400  0.910100  1.0  0.1674
  C  C286  1  0.737300  0.166300  0.958400  1.0  -0.2466
  C  C287  1  0.695100  0.230500  0.988900  1.0  0.14
  C  C288  1  0.649400  0.317300  0.968600  1.0  -0.1932
  C  C289  1  0.649200  0.328700  0.921200  1.0  0.168
  C  C290  1  0.699300  0.211300  0.041300  1.0  -0.2245
  C  C291  1  0.611900  0.133300  0.051500  1.0  -0.1301
  C  C292  1  0.472900  0.148300  0.032400  1.0  -0.1265
  C  C293  1  0.382800  0.076900  0.046700  1.0  -0.1214
  C  C294  1  0.356300  0.078500  0.098500  1.0  -0.1221
  C  C295  1  0.263600  0.155800  0.106600  1.0  -0.1973
  C  C296  1  0.241700  0.164100  0.158500  1.0  0.1166
  C  C297  1  0.140800  0.121900  0.175900  1.0  -0.2206
  C  C298  1  0.122600  0.134400  0.222600  1.0  0.1612
  C  C299  1  0.302000  0.223600  0.236400  1.0  0.1579
  C  C300  1  0.325400  0.216000  0.190000  1.0  -0.2174
  N  N301  1  0.410600  0.830000  0.195940  1.0  -0.3312
  N  N302  1  0.200000  0.599200  0.161430  1.0  -0.3076
  N  N303  1  0.314800  0.733800  0.109300  1.0  -0.3038
  N  N304  1  0.799800  0.813500  0.746690  1.0  -0.3294
  N  N305  1  0.910600  0.670000  0.695940  1.0  -0.3313
  N  N306  1  0.700000  0.900800  0.661430  1.0  -0.3074
  N  N307  1  0.814800  0.766200  0.609300  1.0  -0.304
  N  N308  1  0.299800  0.686500  0.246690  1.0  -0.3291
  N  N309  1  0.089400  0.330000  0.304060  1.0  -0.3313
  N  N310  1  0.300000  0.099200  0.338570  1.0  -0.3102
  N  N311  1  0.185200  0.233800  0.390700  1.0  -0.3047
  N  N312  1  0.700200  0.313500  0.753310  1.0  -0.3271
  N  N313  1  0.589400  0.170000  0.804060  1.0  -0.3318
  N  N314  1  0.800000  0.400800  0.838570  1.0  -0.3103
  N  N315  1  0.685200  0.266200  0.890700  1.0  -0.3048
  N  N316  1  0.200200  0.186500  0.253310  1.0  -0.3277
  N  N317  1  0.986300  0.883100  0.180360  1.0  0.8132
  N  N318  1  0.493600  0.411300  0.099200  1.0  0.8168
  N  N319  1  0.513700  0.383100  0.319640  1.0  0.8122
  N  N320  1  0.006400  0.911300  0.400800  1.0  0.817
  N  N321  1  0.013700  0.116900  0.819640  1.0  0.8128
  N  N322  1  0.506400  0.588700  0.900800  1.0  0.8166
  N  N323  1  0.486300  0.616900  0.680360  1.0  0.8136
  N  N324  1  0.993600  0.088700  0.599200  1.0  0.8158
  O  O325  1  0.508300  0.628600  0.180930  1.0  -0.7532
  O  O326  1  0.008300  0.871400  0.680930  1.0  -0.7553
  O  O327  1  0.991700  0.128600  0.319070  1.0  -0.7523
  O  O328  1  0.491700  0.371400  0.819070  1.0  -0.754
  O  O329  1  0.074000  0.848600  0.161900  1.0  -0.5481
  O  O330  1  0.951700  0.845200  0.215100  1.0  -0.4561
  O  O331  1  0.925200  0.950600  0.163700  1.0  -0.4555
  O  O332  1  0.606800  0.437300  0.111400  1.0  -0.5373
  O  O333  1  0.431300  0.448300  0.063800  1.0  -0.4845
  O  O334  1  0.445900  0.348800  0.120000  1.0  -0.5189
  O  O335  1  0.426000  0.348600  0.338100  1.0  -0.5475
  O  O336  1  0.548300  0.345200  0.284900  1.0  -0.4568
  O  O337  1  0.574800  0.450600  0.336300  1.0  -0.4548
  O  O338  1  0.893200  0.937300  0.388600  1.0  -0.5365
  O  O339  1  0.068700  0.948300  0.436200  1.0  -0.4848
  O  O340  1  0.054100  0.848800  0.380000  1.0  -0.5193
  O  O341  1  0.926000  0.151400  0.838100  1.0  -0.5485
  O  O342  1  0.048300  0.154800  0.784900  1.0  -0.4565
  O  O343  1  0.074800  0.049400  0.836300  1.0  -0.4563
  O  O344  1  0.393200  0.562700  0.888600  1.0  -0.5331
  O  O345  1  0.568700  0.551700  0.936200  1.0  -0.4854
  O  O346  1  0.554100  0.651200  0.880000  1.0  -0.5191
  O  O347  1  0.574000  0.651400  0.661900  1.0  -0.5486
  O  O348  1  0.451700  0.654800  0.715100  1.0  -0.4562
  O  O349  1  0.425200  0.549400  0.663700  1.0  -0.4567
  O  O350  1  0.106800  0.062700  0.611400  1.0  -0.5341
  O  O351  1  0.931300  0.051700  0.563800  1.0  -0.4847
  O  O352  1  0.945900  0.151200  0.620000  1.0  -0.5201
