# generated using pymatgen
data_NdH4C5O8
_symmetry_space_group_name_H-M   'P 1'
_cell_length_a   6.10920000
_cell_length_b   7.68660000
_cell_length_c   22.69870000
_cell_angle_alpha   90.00000000
_cell_angle_beta   91.65700000
_cell_angle_gamma   90.00000000
_symmetry_Int_Tables_number   1
_chemical_formula_structural   NdH4C5O8
_chemical_formula_sum   'Nd4 H16 C20 O32'
_cell_volume   1065.46200798
_cell_formula_units_Z   4
loop_
 _symmetry_equiv_pos_site_id
 _symmetry_equiv_pos_as_xyz
  1  'x, y, z'
loop_
 _atom_site_type_symbol
 _atom_site_label
 _atom_site_symmetry_multiplicity
 _atom_site_fract_x
 _atom_site_fract_y
 _atom_site_fract_z
 _atom_site_occupancy
 _atom_site_charge
  Nd  Nd1  1  0.455270  0.503200  0.854020  1.0  2.2403
  Nd  Nd2  1  0.544730  0.003200  0.645980  1.0  2.2392
  Nd  Nd3  1  0.544730  0.496800  0.145980  1.0  2.239
  Nd  Nd4  1  0.455270  0.996800  0.354020  1.0  2.2401
  H  H5  1  0.302000  0.723000  0.761000  1.0  0.3799
  H  H6  1  0.423000  0.633000  0.612000  1.0  0.4036
  H  H7  1  0.043100  0.478400  0.717500  1.0  0.1221
  H  H8  1  0.122500  0.569100  0.624400  1.0  0.1191
  H  H9  1  0.698000  0.223000  0.739000  1.0  0.379
  H  H10  1  0.577000  0.133000  0.888000  1.0  0.4039
  H  H11  1  0.956900  0.978400  0.782500  1.0  0.122
  H  H12  1  0.877500  0.069100  0.875600  1.0  0.1194
  H  H13  1  0.698000  0.277000  0.239000  1.0  0.3799
  H  H14  1  0.577000  0.367000  0.388000  1.0  0.4103
  H  H15  1  0.956900  0.521600  0.282500  1.0  0.1222
  H  H16  1  0.877500  0.430900  0.375600  1.0  0.1189
  H  H17  1  0.302000  0.777000  0.261000  1.0  0.3826
  H  H18  1  0.423000  0.867000  0.112000  1.0  0.4097
  H  H19  1  0.043100  0.021600  0.217500  1.0  0.1222
  H  H20  1  0.122500  0.930900  0.124400  1.0  0.1193
  C  C21  1  0.366300  0.394800  0.711100  1.0  0.6736
  C  C22  1  0.184900  0.537100  0.714700  1.0  0.0813
  C  C23  1  0.183800  0.642300  0.656200  1.0  0.0431
  C  C24  1  0.046700  0.811500  0.659500  1.0  0.6763
  C  C25  1  0.583700  0.575900  0.998800  1.0  0.5677
  C  C26  1  0.633700  0.894800  0.788900  1.0  0.6736
  C  C27  1  0.815100  0.037100  0.785300  1.0  0.082
  C  C28  1  0.816200  0.142300  0.843800  1.0  0.0411
  C  C29  1  0.953300  0.311500  0.840500  1.0  0.678
  C  C30  1  0.416300  0.075900  0.501200  1.0  0.5673
  C  C31  1  0.633700  0.605200  0.288900  1.0  0.6728
  C  C32  1  0.815100  0.462900  0.285300  1.0  0.0823
  C  C33  1  0.816200  0.357700  0.343800  1.0  0.0414
  C  C34  1  0.953300  0.188500  0.340500  1.0  0.6797
  C  C35  1  0.416300  0.424100  0.001200  1.0  0.5676
  C  C36  1  0.366300  0.105200  0.211100  1.0  0.6734
  C  C37  1  0.184900  0.962900  0.214700  1.0  0.0812
  C  C38  1  0.183800  0.857700  0.156200  1.0  0.0424
  C  C39  1  0.046700  0.688500  0.159500  1.0  0.6775
  C  C40  1  0.583700  0.924100  0.498800  1.0  0.5679
  O  O41  1  0.515100  0.401100  0.751600  1.0  -0.6823
  O  O42  1  0.357900  0.285800  0.670400  1.0  -0.6783
  O  O43  1  0.218900  0.640800  0.766800  1.0  -0.62
  O  O44  1  0.405000  0.691400  0.641700  1.0  -0.6337
  O  O45  1  0.148800  0.953200  0.653900  1.0  -0.6831
  O  O46  1  0.845300  0.795600  0.666200  1.0  -0.6815
  O  O47  1  0.623400  0.632600  0.947200  1.0  -0.6711
  O  O48  1  0.664400  0.631100  0.047100  1.0  -0.661
  O  O49  1  0.484900  0.901100  0.748400  1.0  -0.685
  O  O50  1  0.642100  0.785800  0.829600  1.0  -0.6776
  O  O51  1  0.781100  0.140800  0.733200  1.0  -0.6164
  O  O52  1  0.595000  0.191400  0.858300  1.0  -0.6353
  O  O53  1  0.851200  0.453200  0.846100  1.0  -0.6821
  O  O54  1  0.154700  0.295600  0.833800  1.0  -0.6827
  O  O55  1  0.376600  0.132600  0.552800  1.0  -0.6702
  O  O56  1  0.335600  0.131100  0.452900  1.0  -0.6613
  O  O57  1  0.484900  0.598900  0.248400  1.0  -0.6851
  O  O58  1  0.642100  0.714200  0.329600  1.0  -0.6786
  O  O59  1  0.781100  0.359200  0.233200  1.0  -0.619
  O  O60  1  0.595000  0.308600  0.358300  1.0  -0.6349
  O  O61  1  0.851200  0.046800  0.346100  1.0  -0.6825
  O  O62  1  0.154700  0.204400  0.333800  1.0  -0.6829
  O  O63  1  0.376600  0.367400  0.052800  1.0  -0.6694
  O  O64  1  0.335600  0.368900  0.952900  1.0  -0.6597
  O  O65  1  0.515100  0.098900  0.251600  1.0  -0.6822
  O  O66  1  0.357900  0.214200  0.170400  1.0  -0.6784
  O  O67  1  0.218900  0.859200  0.266800  1.0  -0.6213
  O  O68  1  0.405000  0.808600  0.141700  1.0  -0.6331
  O  O69  1  0.148800  0.546800  0.153900  1.0  -0.6839
  O  O70  1  0.845300  0.704400  0.166200  1.0  -0.6811
  O  O71  1  0.623400  0.867400  0.447200  1.0  -0.6701
  O  O72  1  0.664400  0.868900  0.547100  1.0  -0.6594
