# generated using pymatgen
data_LiIn2P4(HO4)4
_symmetry_space_group_name_H-M   'P 1'
_cell_length_a   9.46920000
_cell_length_b   9.16220000
_cell_length_c   9.70630000
_cell_angle_alpha   90.00000000
_cell_angle_beta   117.56200000
_cell_angle_gamma   90.00000000
_symmetry_Int_Tables_number   1
_chemical_formula_structural   LiIn2P4(HO4)4
_chemical_formula_sum   'Li2 In4 P8 H8 O32'
_cell_volume   746.53595041
_cell_formula_units_Z   2
loop_
 _symmetry_equiv_pos_site_id
 _symmetry_equiv_pos_as_xyz
  1  'x, y, z'
loop_
 _atom_site_type_symbol
 _atom_site_label
 _atom_site_symmetry_multiplicity
 _atom_site_fract_x
 _atom_site_fract_y
 _atom_site_fract_z
 _atom_site_occupancy
 _atom_site_charge
  Li  Li1  1  0.250000  0.871200  0.750000  1.0  0.9835
  Li  Li2  1  0.750000  0.128800  0.250000  1.0  0.982
  In  In3  1  0.250000  0.882230  0.250000  1.0  1.6667
  In  In4  1  0.750000  0.117770  0.750000  1.0  1.6662
  In  In5  1  0.750000  0.609440  0.250000  1.0  1.657
  In  In6  1  0.250000  0.390560  0.750000  1.0  1.6534
  P  P7  1  0.145040  0.656060  0.472930  1.0  1.7226
  P  P8  1  0.669570  0.897800  0.436830  1.0  1.764
  P  P9  1  0.354960  0.656060  0.027070  1.0  1.7218
  P  P10  1  0.830430  0.897800  0.063170  1.0  1.7628
  P  P11  1  0.854960  0.343940  0.527070  1.0  1.7242
  P  P12  1  0.330430  0.102200  0.563170  1.0  1.7631
  P  P13  1  0.645040  0.343940  0.972930  1.0  1.7242
  P  P14  1  0.169570  0.102200  0.936830  1.0  1.7644
  H  H15  1  0.157100  0.837600  0.594400  1.0  0.2246
  H  H16  1  0.861200  0.810200  0.440900  1.0  0.4085
  H  H17  1  0.342900  0.837600  0.905600  1.0  0.2249
  H  H18  1  0.638800  0.810200  0.059100  1.0  0.4084
  H  H19  1  0.842900  0.162400  0.405600  1.0  0.2258
  H  H20  1  0.138800  0.189800  0.559100  1.0  0.4084
  H  H21  1  0.657100  0.162400  0.094400  1.0  0.2241
  H  H22  1  0.361200  0.189800  0.940900  1.0  0.4086
  O  O23  1  0.248500  0.729900  0.412500  1.0  -0.8284
  O  O24  1  0.997400  0.586500  0.346600  1.0  -0.7908
  O  O25  1  0.088800  0.774100  0.556400  1.0  -0.6634
  O  O26  1  0.252300  0.548500  0.595200  1.0  -0.8311
  O  O27  1  0.501400  0.847300  0.386400  1.0  -0.8386
  O  O28  1  0.655800  0.034300  0.333400  1.0  -0.8938
  O  O29  1  0.755300  0.939900  0.608400  1.0  -0.8173
  O  O30  1  0.770600  0.779300  0.412500  1.0  -0.6104
  O  O31  1  0.251500  0.729900  0.087500  1.0  -0.8264
  O  O32  1  0.502600  0.586500  0.153400  1.0  -0.7906
  O  O33  1  0.411200  0.774100  0.943600  1.0  -0.6631
  O  O34  1  0.247700  0.548500  0.904800  1.0  -0.8314
  O  O35  1  0.998600  0.847300  0.113600  1.0  -0.8402
  O  O36  1  0.844200  0.034300  0.166600  1.0  -0.8978
  O  O37  1  0.744700  0.939900  0.891600  1.0  -0.814
  O  O38  1  0.729400  0.779300  0.087500  1.0  -0.6069
  O  O39  1  0.751500  0.270100  0.587500  1.0  -0.8265
  O  O40  1  0.002600  0.413500  0.653400  1.0  -0.7911
  O  O41  1  0.911200  0.225900  0.443600  1.0  -0.6642
  O  O42  1  0.747700  0.451500  0.404800  1.0  -0.832
  O  O43  1  0.498600  0.152700  0.613600  1.0  -0.8399
  O  O44  1  0.344200  0.965700  0.666667  1.0  -0.8994
  O  O45  1  0.244700  0.060100  0.391600  1.0  -0.8145
  O  O46  1  0.229400  0.220700  0.587500  1.0  -0.6059
  O  O47  1  0.748500  0.270100  0.912500  1.0  -0.8283
  O  O48  1  0.497400  0.413500  0.846600  1.0  -0.7904
  O  O49  1  0.588800  0.225900  0.056400  1.0  -0.6639
  O  O50  1  0.752300  0.451500  0.095200  1.0  -0.8313
  O  O51  1  0.001400  0.152700  0.886400  1.0  -0.8382
  O  O52  1  0.155800  0.965700  0.833400  1.0  -0.8929
  O  O53  1  0.255300  0.060100  0.108400  1.0  -0.8181
  O  O54  1  0.270600  0.220700  0.912500  1.0  -0.6084
