# generated using pymatgen
data_H4PdC8N4(OF)2
_symmetry_space_group_name_H-M   'P 1'
_cell_length_a   16.31130000
_cell_length_b   16.31130000
_cell_length_c   16.31130000
_cell_angle_alpha   90.00000000
_cell_angle_beta   90.00000000
_cell_angle_gamma   90.00000000
_symmetry_Int_Tables_number   1
_chemical_formula_structural   H4PdC8N4(OF)2
_chemical_formula_sum   'H48 Pd12 C96 N48 O24 F24'
_cell_volume   4339.76013648
_cell_formula_units_Z   12
loop_
 _symmetry_equiv_pos_site_id
 _symmetry_equiv_pos_as_xyz
  1  'x, y, z'
loop_
 _atom_site_type_symbol
 _atom_site_label
 _atom_site_symmetry_multiplicity
 _atom_site_fract_x
 _atom_site_fract_y
 _atom_site_fract_z
 _atom_site_occupancy
 _atom_site_charge
  H  H1  1  0.909060  0.078160  0.249170  1.0  0.0908
  H  H2  1  0.590940  0.421840  0.249170  1.0  0.0917
  H  H3  1  0.590940  0.078160  0.250830  1.0  0.0923
  H  H4  1  0.909060  0.421840  0.250830  1.0  0.091
  H  H5  1  0.249170  0.909060  0.078160  1.0  0.0911
  H  H6  1  0.249170  0.590940  0.421840  1.0  0.091
  H  H7  1  0.250830  0.590940  0.078160  1.0  0.0913
  H  H8  1  0.250830  0.909060  0.421840  1.0  0.0909
  H  H9  1  0.078160  0.249170  0.909060  1.0  0.0919
  H  H10  1  0.421840  0.249170  0.590940  1.0  0.0913
  H  H11  1  0.078160  0.250830  0.590940  1.0  0.0915
  H  H12  1  0.421840  0.250830  0.909060  1.0  0.0914
  H  H13  1  0.578160  0.409060  0.750830  1.0  0.0924
  H  H14  1  0.921840  0.090940  0.750830  1.0  0.0924
  H  H15  1  0.578160  0.090940  0.749170  1.0  0.0919
  H  H16  1  0.921840  0.409060  0.749170  1.0  0.0917
  H  H17  1  0.409060  0.749170  0.921840  1.0  0.0899
  H  H18  1  0.090940  0.749170  0.578160  1.0  0.091
  H  H19  1  0.090940  0.750830  0.921840  1.0  0.0908
  H  H20  1  0.409060  0.750830  0.578160  1.0  0.0903
  H  H21  1  0.749170  0.578160  0.090940  1.0  0.0911
  H  H22  1  0.749170  0.921840  0.409060  1.0  0.0914
  H  H23  1  0.750830  0.578160  0.409060  1.0  0.0915
  H  H24  1  0.750830  0.921840  0.090940  1.0  0.0915
  H  H25  1  0.090940  0.921840  0.750830  1.0  0.0921
  H  H26  1  0.409060  0.578160  0.750830  1.0  0.0912
  H  H27  1  0.409060  0.921840  0.749170  1.0  0.091
  H  H28  1  0.090940  0.578160  0.749170  1.0  0.0916
  H  H29  1  0.750830  0.090940  0.921840  1.0  0.091
  H  H30  1  0.750830  0.409060  0.578160  1.0  0.0913
  H  H31  1  0.749170  0.409060  0.921840  1.0  0.0909
  H  H32  1  0.749170  0.090940  0.578160  1.0  0.0911
  H  H33  1  0.921840  0.750830  0.090940  1.0  0.0911
  H  H34  1  0.578160  0.750830  0.409060  1.0  0.0917
  H  H35  1  0.921840  0.749170  0.409060  1.0  0.0915
  H  H36  1  0.578160  0.749170  0.090940  1.0  0.0915
  H  H37  1  0.421840  0.590940  0.249170  1.0  0.0918
  H  H38  1  0.078160  0.909060  0.249170  1.0  0.092
  H  H39  1  0.421840  0.909060  0.250830  1.0  0.0922
  H  H40  1  0.078160  0.590940  0.250830  1.0  0.0925
  H  H41  1  0.590940  0.250830  0.078160  1.0  0.0911
  H  H42  1  0.909060  0.250830  0.421840  1.0  0.0896
  H  H43  1  0.909060  0.249170  0.078160  1.0  0.0902
  H  H44  1  0.590940  0.249170  0.421840  1.0  0.0911
  H  H45  1  0.250830  0.421840  0.909060  1.0  0.0914
  H  H46  1  0.250830  0.078160  0.590940  1.0  0.0914
  H  H47  1  0.249170  0.421840  0.590940  1.0  0.0912
  H  H48  1  0.249170  0.078160  0.909060  1.0  0.0916
  Pd  Pd49  1  0.750000  0.250000  0.500000  1.0  0.5279
  Pd  Pd50  1  0.750000  0.250000  0.000000  1.0  0.5279
  Pd  Pd51  1  0.500000  0.750000  0.250000  1.0  0.5279
  Pd  Pd52  1  0.000000  0.750000  0.250000  1.0  0.5279
  Pd  Pd53  1  0.250000  0.500000  0.750000  1.0  0.5279
  Pd  Pd54  1  0.250000  0.000000  0.750000  1.0  0.5279
  Pd  Pd55  1  0.250000  0.750000  0.500000  1.0  0.5279
  Pd  Pd56  1  0.250000  0.750000  0.000000  1.0  0.5279
  Pd  Pd57  1  0.500000  0.250000  0.750000  1.0  0.5279
  Pd  Pd58  1  0.000000  0.250000  0.750000  1.0  0.5279
  Pd  Pd59  1  0.750000  0.500000  0.250000  1.0  0.5279
  Pd  Pd60  1  0.750000  0.000000  0.250000  1.0  0.5279
  C  C61  1  0.707860  0.381820  0.606470  1.0  0.1261
  C  C62  1  0.792140  0.118180  0.606470  1.0  0.1262
  C  C63  1  0.792140  0.381820  0.893530  1.0  0.1248
  C  C64  1  0.707860  0.118180  0.893530  1.0  0.1261
  C  C65  1  0.606470  0.707860  0.381820  1.0  0.1254
  C  C66  1  0.606470  0.792140  0.118180  1.0  0.1274
  C  C67  1  0.893530  0.792140  0.381820  1.0  0.1274
  C  C68  1  0.893530  0.707860  0.118180  1.0  0.1275
  C  C69  1  0.381820  0.606470  0.707860  1.0  0.1286
  C  C70  1  0.118180  0.606470  0.792140  1.0  0.1281
  C  C71  1  0.381820  0.893530  0.792140  1.0  0.1291
  C  C72  1  0.118180  0.893530  0.707860  1.0  0.1274
  C  C73  1  0.881820  0.207860  0.393530  1.0  0.1279
  C  C74  1  0.618180  0.292140  0.393530  1.0  0.1269
  C  C75  1  0.881820  0.292140  0.106470  1.0  0.1274
  C  C76  1  0.618180  0.207860  0.106470  1.0  0.1264
  C  C77  1  0.207860  0.106470  0.618180  1.0  0.1289
  C  C78  1  0.292140  0.106470  0.881820  1.0  0.1274
  C  C79  1  0.292140  0.393530  0.618180  1.0  0.1286
  C  C80  1  0.207860  0.393530  0.881820  1.0  0.1288
  C  C81  1  0.106470  0.881820  0.292140  1.0  0.1254
  C  C82  1  0.106470  0.618180  0.207860  1.0  0.1258
  C  C83  1  0.393530  0.881820  0.207860  1.0  0.1247
  C  C84  1  0.393530  0.618180  0.292140  1.0  0.1259
  C  C85  1  0.292140  0.618180  0.393530  1.0  0.1259
  C  C86  1  0.207860  0.881820  0.393530  1.0  0.1248
  C  C87  1  0.207860  0.618180  0.106470  1.0  0.1249
  C  C88  1  0.292140  0.881820  0.106470  1.0  0.1246
  C  C89  1  0.393530  0.292140  0.618180  1.0  0.1271
  C  C90  1  0.393530  0.207860  0.881820  1.0  0.1267
  C  C91  1  0.106470  0.207860  0.618180  1.0  0.1266
  C  C92  1  0.106470  0.292140  0.881820  1.0  0.125
  C  C93  1  0.618180  0.393530  0.292140  1.0  0.1274
  C  C94  1  0.881820  0.393530  0.207860  1.0  0.1278
  C  C95  1  0.618180  0.106470  0.207860  1.0  0.127
  C  C96  1  0.881820  0.106470  0.292140  1.0  0.1281
  C  C97  1  0.118180  0.792140  0.606470  1.0  0.1262
  C  C98  1  0.381820  0.707860  0.606470  1.0  0.1268
  C  C99  1  0.118180  0.707860  0.893530  1.0  0.1256
  C  C100  1  0.381820  0.792140  0.893530  1.0  0.1275
  C  C101  1  0.792140  0.893530  0.381820  1.0  0.1262
  C  C102  1  0.707860  0.893530  0.118180  1.0  0.1281
  C  C103  1  0.707860  0.606470  0.381820  1.0  0.1278
  C  C104  1  0.792140  0.606470  0.118180  1.0  0.1284
  C  C105  1  0.893530  0.118180  0.707860  1.0  0.1249
  C  C106  1  0.893530  0.381820  0.792140  1.0  0.1255
  C  C107  1  0.606470  0.118180  0.792140  1.0  0.1253
  C  C108  1  0.606470  0.381820  0.707860  1.0  0.1232
  C  C109  1  0.625990  0.265770  0.625990  1.0  0.6556
  C  C110  1  0.667560  0.420510  0.667560  1.0  0.1665
  C  C111  1  0.874010  0.234230  0.625990  1.0  0.657
  C  C112  1  0.832440  0.079490  0.667560  1.0  0.1681
  C  C113  1  0.874010  0.265770  0.874010  1.0  0.6563
  C  C114  1  0.832440  0.420510  0.832440  1.0  0.1671
  C  C115  1  0.625990  0.234230  0.874010  1.0  0.6549
  C  C116  1  0.667560  0.079490  0.832440  1.0  0.1678
  C  C117  1  0.625990  0.625990  0.265770  1.0  0.6581
  C  C118  1  0.667560  0.667560  0.420510  1.0  0.1668
  C  C119  1  0.625990  0.874010  0.234230  1.0  0.6565
  C  C120  1  0.667560  0.832440  0.079490  1.0  0.1677
  C  C121  1  0.874010  0.874010  0.265770  1.0  0.6598
  C  C122  1  0.832440  0.832440  0.420510  1.0  0.1674
  C  C123  1  0.874010  0.625990  0.234230  1.0  0.6574
  C  C124  1  0.832440  0.667560  0.079490  1.0  0.1686
  C  C125  1  0.265770  0.625990  0.625990  1.0  0.6562
  C  C126  1  0.420510  0.667560  0.667560  1.0  0.1554
  C  C127  1  0.234230  0.625990  0.874010  1.0  0.6563
  C  C128  1  0.079490  0.667560  0.832440  1.0  0.1561
  C  C129  1  0.265770  0.874010  0.874010  1.0  0.6557
  C  C130  1  0.420510  0.832440  0.832440  1.0  0.1552
  C  C131  1  0.234230  0.874010  0.625990  1.0  0.6571
  C  C132  1  0.079490  0.832440  0.667560  1.0  0.1565
  C  C133  1  0.765770  0.125990  0.374010  1.0  0.6556
  C  C134  1  0.920510  0.167560  0.332440  1.0  0.1552
  C  C135  1  0.734230  0.374010  0.374010  1.0  0.6564
  C  C136  1  0.579490  0.332440  0.332440  1.0  0.1561
  C  C137  1  0.765770  0.374010  0.125990  1.0  0.6566
  C  C138  1  0.920510  0.332440  0.167560  1.0  0.1554
  C  C139  1  0.734230  0.125990  0.125990  1.0  0.6567
  C  C140  1  0.579490  0.167560  0.167560  1.0  0.1565
  C  C141  1  0.125990  0.125990  0.734230  1.0  0.6566
  C  C142  1  0.167560  0.167560  0.579490  1.0  0.1678
  C  C143  1  0.374010  0.125990  0.765770  1.0  0.6592
  C  C144  1  0.332440  0.167560  0.920510  1.0  0.167
  C  C145  1  0.374010  0.374010  0.734230  1.0  0.6573
  C  C146  1  0.332440  0.332440  0.579490  1.0  0.1685
  C  C147  1  0.125990  0.374010  0.765770  1.0  0.6588
  C  C148  1  0.167560  0.332440  0.920510  1.0  0.1671
  C  C149  1  0.125990  0.765770  0.374010  1.0  0.655
  C  C150  1  0.167560  0.920510  0.332440  1.0  0.1666
  C  C151  1  0.125990  0.734230  0.125990  1.0  0.6558
  C  C152  1  0.167560  0.579490  0.167560  1.0  0.1675
  C  C153  1  0.374010  0.765770  0.125990  1.0  0.6569
  C  C154  1  0.332440  0.920510  0.167560  1.0  0.167
  C  C155  1  0.374010  0.734230  0.374010  1.0  0.6562
  C  C156  1  0.332440  0.579490  0.332440  1.0  0.1684
  N  N157  1  0.687070  0.304460  0.585720  1.0  -0.3776
  N  N158  1  0.812930  0.195540  0.585720  1.0  -0.3774
  N  N159  1  0.812930  0.304460  0.914280  1.0  -0.3767
  N  N160  1  0.687070  0.195540  0.914280  1.0  -0.3765
  N  N161  1  0.585720  0.687070  0.304460  1.0  -0.3755
  N  N162  1  0.585720  0.812930  0.195540  1.0  -0.376
  N  N163  1  0.914280  0.812930  0.304460  1.0  -0.3764
  N  N164  1  0.914280  0.687070  0.195540  1.0  -0.3757
  N  N165  1  0.304460  0.585720  0.687070  1.0  -0.3751
  N  N166  1  0.195540  0.585720  0.812930  1.0  -0.3751
  N  N167  1  0.304460  0.914280  0.812930  1.0  -0.3758
  N  N168  1  0.195540  0.914280  0.687070  1.0  -0.375
  N  N169  1  0.804460  0.187070  0.414280  1.0  -0.3746
  N  N170  1  0.695540  0.312930  0.414280  1.0  -0.3748
  N  N171  1  0.804460  0.312930  0.085720  1.0  -0.3758
  N  N172  1  0.695540  0.187070  0.085720  1.0  -0.3753
  N  N173  1  0.187070  0.085720  0.695540  1.0  -0.3769
  N  N174  1  0.312930  0.085720  0.804460  1.0  -0.377
  N  N175  1  0.312930  0.414280  0.695540  1.0  -0.3769
  N  N176  1  0.187070  0.414280  0.804460  1.0  -0.3769
  N  N177  1  0.085720  0.804460  0.312930  1.0  -0.3761
  N  N178  1  0.085720  0.695540  0.187070  1.0  -0.3755
  N  N179  1  0.414280  0.804460  0.187070  1.0  -0.3765
  N  N180  1  0.414280  0.695540  0.312930  1.0  -0.3766
  N  N181  1  0.312930  0.695540  0.414280  1.0  -0.3766
  N  N182  1  0.187070  0.804460  0.414280  1.0  -0.3769
  N  N183  1  0.187070  0.695540  0.085720  1.0  -0.3772
  N  N184  1  0.312930  0.804460  0.085720  1.0  -0.3775
  N  N185  1  0.414280  0.312930  0.695540  1.0  -0.3765
  N  N186  1  0.414280  0.187070  0.804460  1.0  -0.376
  N  N187  1  0.085720  0.187070  0.695540  1.0  -0.3753
  N  N188  1  0.085720  0.312930  0.804460  1.0  -0.3757
  N  N189  1  0.695540  0.414280  0.312930  1.0  -0.3753
  N  N190  1  0.804460  0.414280  0.187070  1.0  -0.3752
  N  N191  1  0.695540  0.085720  0.187070  1.0  -0.3747
  N  N192  1  0.804460  0.085720  0.312930  1.0  -0.3756
  N  N193  1  0.195540  0.812930  0.585720  1.0  -0.3758
  N  N194  1  0.304460  0.687070  0.585720  1.0  -0.3754
  N  N195  1  0.195540  0.687070  0.914280  1.0  -0.3741
  N  N196  1  0.304460  0.812930  0.914280  1.0  -0.3751
  N  N197  1  0.812930  0.914280  0.304460  1.0  -0.3772
  N  N198  1  0.687070  0.914280  0.195540  1.0  -0.377
  N  N199  1  0.687070  0.585720  0.304460  1.0  -0.3767
  N  N200  1  0.812930  0.585720  0.195540  1.0  -0.3767
  N  N201  1  0.914280  0.195540  0.687070  1.0  -0.3761
  N  N202  1  0.914280  0.304460  0.812930  1.0  -0.3767
  N  N203  1  0.585720  0.195540  0.812930  1.0  -0.3761
  N  N204  1  0.585720  0.304460  0.687070  1.0  -0.3759
  O  O205  1  0.606750  0.194140  0.606750  1.0  -0.6253
  O  O206  1  0.893250  0.305860  0.606750  1.0  -0.625
  O  O207  1  0.893250  0.194140  0.893250  1.0  -0.6247
  O  O208  1  0.606750  0.305860  0.893250  1.0  -0.6257
  O  O209  1  0.606750  0.606750  0.194140  1.0  -0.6312
  O  O210  1  0.606750  0.893250  0.305860  1.0  -0.6321
  O  O211  1  0.893250  0.893250  0.194140  1.0  -0.6316
  O  O212  1  0.893250  0.606750  0.305860  1.0  -0.631
  O  O213  1  0.194140  0.606750  0.606750  1.0  -0.6307
  O  O214  1  0.305860  0.606750  0.893250  1.0  -0.6317
  O  O215  1  0.194140  0.893250  0.893250  1.0  -0.6299
  O  O216  1  0.305860  0.893250  0.606750  1.0  -0.6302
  O  O217  1  0.694140  0.106750  0.393250  1.0  -0.63
  O  O218  1  0.805860  0.393250  0.393250  1.0  -0.6312
  O  O219  1  0.694140  0.393250  0.106750  1.0  -0.6299
  O  O220  1  0.805860  0.106750  0.106750  1.0  -0.631
  O  O221  1  0.106750  0.106750  0.805860  1.0  -0.6312
  O  O222  1  0.393250  0.106750  0.694140  1.0  -0.632
  O  O223  1  0.393250  0.393250  0.805860  1.0  -0.6313
  O  O224  1  0.106750  0.393250  0.694140  1.0  -0.6311
  O  O225  1  0.106750  0.694140  0.393250  1.0  -0.6235
  O  O226  1  0.106750  0.805860  0.106750  1.0  -0.6255
  O  O227  1  0.393250  0.694140  0.106750  1.0  -0.6261
  O  O228  1  0.393250  0.805860  0.393250  1.0  -0.6253
  F  F229  1  0.688350  0.497870  0.688350  1.0  -0.139
  F  F230  1  0.811650  0.002130  0.688350  1.0  -0.1357
  F  F231  1  0.811650  0.497870  0.811650  1.0  -0.1388
  F  F232  1  0.688350  0.002130  0.811650  1.0  -0.1355
  F  F233  1  0.688350  0.688350  0.497870  1.0  -0.1416
  F  F234  1  0.688350  0.811650  0.002130  1.0  -0.1421
  F  F235  1  0.811650  0.811650  0.497870  1.0  -0.1419
  F  F236  1  0.811650  0.688350  0.002130  1.0  -0.142
  F  F237  1  0.497870  0.688350  0.688350  1.0  -0.1394
  F  F238  1  0.002130  0.688350  0.811650  1.0  -0.1371
  F  F239  1  0.497870  0.811650  0.811650  1.0  -0.1389
  F  F240  1  0.002130  0.811650  0.688350  1.0  -0.1378
  F  F241  1  0.997870  0.188350  0.311650  1.0  -0.1388
  F  F242  1  0.502130  0.311650  0.311650  1.0  -0.1374
  F  F243  1  0.997870  0.311650  0.188350  1.0  -0.1395
  F  F244  1  0.502130  0.188350  0.188350  1.0  -0.1374
  F  F245  1  0.188350  0.188350  0.502130  1.0  -0.1423
  F  F246  1  0.311650  0.188350  0.997870  1.0  -0.1419
  F  F247  1  0.311650  0.311650  0.502130  1.0  -0.1416
  F  F248  1  0.188350  0.311650  0.997870  1.0  -0.1415
  F  F249  1  0.188350  0.997870  0.311650  1.0  -0.1387
  F  F250  1  0.188350  0.502130  0.188350  1.0  -0.1354
  F  F251  1  0.311650  0.997870  0.188350  1.0  -0.1393
  F  F252  1  0.311650  0.502130  0.311650  1.0  -0.1357
