# generated using pymatgen
data_CuH8C14O5
_symmetry_space_group_name_H-M   'P 1'
_cell_length_a   18.64010000
_cell_length_b   18.64010000
_cell_length_c   39.74800000
_cell_angle_alpha   90.00000000
_cell_angle_beta   90.00000000
_cell_angle_gamma   120.00000000
_symmetry_Int_Tables_number   1
_chemical_formula_structural   CuH8C14O5
_chemical_formula_sum   'Cu18 H144 C252 O90'
_cell_volume   11960.30868846
_cell_formula_units_Z   18
loop_
 _symmetry_equiv_pos_site_id
 _symmetry_equiv_pos_as_xyz
  1  'x, y, z'
loop_
 _atom_site_type_symbol
 _atom_site_label
 _atom_site_symmetry_multiplicity
 _atom_site_fract_x
 _atom_site_fract_y
 _atom_site_fract_z
 _atom_site_occupancy
 _atom_site_charge
  Cu  Cu1  1  0.476440  0.952870  0.027390  1.0  0.903
  Cu  Cu2  1  0.143100  0.286200  0.360720  1.0  0.9008
  Cu  Cu3  1  0.809770  0.619540  0.694050  1.0  0.903
  Cu  Cu4  1  0.047130  0.523560  0.027390  1.0  0.9021
  Cu  Cu5  1  0.713800  0.856900  0.360720  1.0  0.9006
  Cu  Cu6  1  0.380460  0.190230  0.694050  1.0  0.9021
  Cu  Cu7  1  0.476440  0.523560  0.027390  1.0  0.8902
  Cu  Cu8  1  0.143100  0.856900  0.360720  1.0  0.9039
  Cu  Cu9  1  0.809770  0.190230  0.694050  1.0  0.89
  Cu  Cu10  1  0.952870  0.476440  0.972610  1.0  0.9022
  Cu  Cu11  1  0.619540  0.809770  0.305950  1.0  0.9022
  Cu  Cu12  1  0.286200  0.143100  0.639280  1.0  0.9
  Cu  Cu13  1  0.523560  0.047130  0.972610  1.0  0.9023
  Cu  Cu14  1  0.190230  0.380460  0.305950  1.0  0.9023
  Cu  Cu15  1  0.856900  0.713800  0.639280  1.0  0.9002
  Cu  Cu16  1  0.523560  0.476440  0.972610  1.0  0.8892
  Cu  Cu17  1  0.190230  0.809770  0.305950  1.0  0.889
  Cu  Cu18  1  0.856900  0.143100  0.639280  1.0  0.9023
  H  H19  1  0.631900  0.923300  0.917400  1.0  0.1147
  H  H20  1  0.901800  0.908800  0.907700  1.0  0.0493
  H  H21  1  0.298570  0.256630  0.250730  1.0  0.1147
  H  H22  1  0.568470  0.242130  0.241030  1.0  0.0493
  H  H23  1  0.965230  0.589970  0.584070  1.0  0.1156
  H  H24  1  0.235130  0.575470  0.574370  1.0  0.0493
  H  H25  1  0.076700  0.708600  0.917400  1.0  0.1154
  H  H26  1  0.091200  0.993000  0.907700  1.0  0.0535
  H  H27  1  0.743370  0.041930  0.250730  1.0  0.1154
  H  H28  1  0.757870  0.326330  0.241030  1.0  0.0535
  H  H29  1  0.410030  0.375270  0.584070  1.0  0.1165
  H  H30  1  0.424530  0.659670  0.574370  1.0  0.0535
  H  H31  1  0.291400  0.368100  0.917400  1.0  0.1161
  H  H32  1  0.007000  0.098200  0.907700  1.0  0.0529
  H  H33  1  0.958070  0.701430  0.250730  1.0  0.1162
  H  H34  1  0.673670  0.431530  0.241030  1.0  0.0529
  H  H35  1  0.624730  0.034770  0.584070  1.0  0.1151
  H  H36  1  0.340330  0.764870  0.574370  1.0  0.0529
  H  H37  1  0.923300  0.631900  0.082600  1.0  0.1155
  H  H38  1  0.908800  0.901800  0.092300  1.0  0.0527
  H  H39  1  0.589970  0.965230  0.415930  1.0  0.1156
  H  H40  1  0.575470  0.235130  0.425630  1.0  0.0527
  H  H41  1  0.256630  0.298570  0.749270  1.0  0.1155
  H  H42  1  0.242130  0.568470  0.758970  1.0  0.0527
  H  H43  1  0.708600  0.076700  0.082600  1.0  0.1167
  H  H44  1  0.993000  0.091200  0.092300  1.0  0.0515
  H  H45  1  0.375270  0.410030  0.415930  1.0  0.1176
  H  H46  1  0.659670  0.424530  0.425630  1.0  0.0515
  H  H47  1  0.041930  0.743370  0.749270  1.0  0.1167
  H  H48  1  0.326330  0.757870  0.758970  1.0  0.0515
  H  H49  1  0.368100  0.291400  0.082600  1.0  0.1173
  H  H50  1  0.098200  0.007000  0.092300  1.0  0.0531
  H  H51  1  0.034770  0.624730  0.415930  1.0  0.1157
  H  H52  1  0.764870  0.340330  0.425630  1.0  0.0531
  H  H53  1  0.701430  0.958070  0.749270  1.0  0.1173
  H  H54  1  0.431530  0.673670  0.758970  1.0  0.0531
  H  H55  1  0.368100  0.076700  0.082600  1.0  0.1165
  H  H56  1  0.098200  0.091200  0.092300  1.0  0.0528
  H  H57  1  0.034770  0.410030  0.415930  1.0  0.1167
  H  H58  1  0.764870  0.424530  0.425630  1.0  0.0528
  H  H59  1  0.701430  0.743370  0.749270  1.0  0.1165
  H  H60  1  0.431530  0.757870  0.758970  1.0  0.0528
  H  H61  1  0.923300  0.291400  0.082600  1.0  0.1157
  H  H62  1  0.908800  0.007000  0.092300  1.0  0.0518
  H  H63  1  0.589970  0.624730  0.415930  1.0  0.1164
  H  H64  1  0.575470  0.340330  0.425630  1.0  0.0518
  H  H65  1  0.256630  0.958070  0.749270  1.0  0.1157
  H  H66  1  0.242130  0.673670  0.758970  1.0  0.0518
  H  H67  1  0.708600  0.631900  0.082600  1.0  0.1166
  H  H68  1  0.993000  0.901800  0.092300  1.0  0.0482
  H  H69  1  0.375270  0.965230  0.415930  1.0  0.1153
  H  H70  1  0.659670  0.235130  0.425630  1.0  0.0482
  H  H71  1  0.041930  0.298570  0.749270  1.0  0.1166
  H  H72  1  0.326330  0.568470  0.758970  1.0  0.0482
  H  H73  1  0.076700  0.368100  0.917400  1.0  0.1146
  H  H74  1  0.091200  0.098200  0.907700  1.0  0.0487
  H  H75  1  0.743370  0.701430  0.250730  1.0  0.1146
  H  H76  1  0.757870  0.431530  0.241030  1.0  0.0487
  H  H77  1  0.410030  0.034770  0.584070  1.0  0.1149
  H  H78  1  0.424530  0.764870  0.574370  1.0  0.0487
  H  H79  1  0.291400  0.923300  0.917400  1.0  0.1154
  H  H80  1  0.007000  0.908800  0.907700  1.0  0.0513
  H  H81  1  0.958070  0.256630  0.250730  1.0  0.1154
  H  H82  1  0.673670  0.242130  0.241030  1.0  0.0513
  H  H83  1  0.624730  0.589970  0.584070  1.0  0.1161
  H  H84  1  0.340330  0.575470  0.574370  1.0  0.0513
  H  H85  1  0.631900  0.708600  0.917400  1.0  0.1168
  H  H86  1  0.901800  0.993000  0.907700  1.0  0.054
  H  H87  1  0.298570  0.041930  0.250730  1.0  0.1168
  H  H88  1  0.568470  0.326330  0.241030  1.0  0.054
  H  H89  1  0.965230  0.375270  0.584070  1.0  0.1156
  H  H90  1  0.235130  0.659670  0.574370  1.0  0.054
  H  H91  1  0.528900  0.764450  0.994500  1.0  0.1177
  H  H92  1  0.526200  0.763100  0.866500  1.0  0.1124
  H  H93  1  0.873100  0.936550  0.849700  1.0  0.1094
  H  H94  1  0.884300  0.942150  0.941100  1.0  0.1898
  H  H95  1  0.195570  0.097780  0.327830  1.0  0.1177
  H  H96  1  0.192870  0.096430  0.199830  1.0  0.1124
  H  H97  1  0.539770  0.269880  0.183030  1.0  0.1094
  H  H98  1  0.550970  0.275480  0.274430  1.0  0.1898
  H  H99  1  0.862230  0.431120  0.661170  1.0  0.1177
  H  H100  1  0.859530  0.429770  0.533170  1.0  0.1122
  H  H101  1  0.206430  0.603220  0.516370  1.0  0.1072
  H  H102  1  0.217630  0.608820  0.607770  1.0  0.1898
  H  H103  1  0.235550  0.764450  0.994500  1.0  0.1169
  H  H104  1  0.236900  0.763100  0.866500  1.0  0.1104
  H  H105  1  0.063450  0.936550  0.849700  1.0  0.1069
  H  H106  1  0.057850  0.942150  0.941100  1.0  0.1896
  H  H107  1  0.902220  0.097780  0.327830  1.0  0.1165
  H  H108  1  0.903570  0.096430  0.199830  1.0  0.1104
  H  H109  1  0.730120  0.269880  0.183030  1.0  0.1069
  H  H110  1  0.724520  0.275480  0.274430  1.0  0.1896
  H  H111  1  0.568880  0.431120  0.661170  1.0  0.1169
  H  H112  1  0.570230  0.429770  0.533170  1.0  0.112
  H  H113  1  0.396780  0.603220  0.516370  1.0  0.1093
  H  H114  1  0.391180  0.608820  0.607770  1.0  0.1896
  H  H115  1  0.235550  0.471100  0.994500  1.0  0.118
  H  H116  1  0.236900  0.473800  0.866500  1.0  0.1122
  H  H117  1  0.063450  0.126900  0.849700  1.0  0.1083
  H  H118  1  0.057850  0.115700  0.941100  1.0  0.1895
  H  H119  1  0.902220  0.804430  0.327830  1.0  0.118
  H  H120  1  0.903570  0.807130  0.199830  1.0  0.1122
  H  H121  1  0.730120  0.460230  0.183030  1.0  0.1083
  H  H122  1  0.724520  0.449030  0.274430  1.0  0.1895
  H  H123  1  0.568880  0.137770  0.661170  1.0  0.118
  H  H124  1  0.570230  0.140470  0.533170  1.0  0.1121
  H  H125  1  0.396780  0.793570  0.516370  1.0  0.1064
  H  H126  1  0.391180  0.782370  0.607770  1.0  0.1895
  H  H127  1  0.764450  0.528900  0.005500  1.0  0.118
  H  H128  1  0.763100  0.526200  0.133500  1.0  0.1115
  H  H129  1  0.936550  0.873100  0.150300  1.0  0.1097
  H  H130  1  0.942150  0.884300  0.058900  1.0  0.1892
  H  H131  1  0.431120  0.862230  0.338830  1.0  0.118
  H  H132  1  0.429770  0.859530  0.466830  1.0  0.1117
  H  H133  1  0.603220  0.206430  0.483630  1.0  0.1076
  H  H134  1  0.608820  0.217630  0.392230  1.0  0.1892
  H  H135  1  0.097780  0.195570  0.672170  1.0  0.118
  H  H136  1  0.096430  0.192870  0.800170  1.0  0.1115
  H  H137  1  0.269880  0.539770  0.816970  1.0  0.1097
  H  H138  1  0.275480  0.550970  0.725570  1.0  0.1892
  H  H139  1  0.764450  0.235550  0.005500  1.0  0.1168
  H  H140  1  0.763100  0.236900  0.133500  1.0  0.1101
  H  H141  1  0.936550  0.063450  0.150300  1.0  0.1071
  H  H142  1  0.942150  0.057850  0.058900  1.0  0.1892
  H  H143  1  0.431120  0.568880  0.338830  1.0  0.1168
  H  H144  1  0.429770  0.570230  0.466830  1.0  0.1113
  H  H145  1  0.603220  0.396780  0.483630  1.0  0.1096
  H  H146  1  0.608820  0.391180  0.392230  1.0  0.1892
  H  H147  1  0.097780  0.902220  0.672170  1.0  0.1163
  H  H148  1  0.096430  0.903570  0.800170  1.0  0.1101
  H  H149  1  0.269880  0.730120  0.816970  1.0  0.1071
  H  H150  1  0.275480  0.724520  0.725570  1.0  0.1892
  H  H151  1  0.471100  0.235550  0.005500  1.0  0.1173
  H  H152  1  0.473800  0.236900  0.133500  1.0  0.112
  H  H153  1  0.126900  0.063450  0.150300  1.0  0.109
  H  H154  1  0.115700  0.057850  0.058900  1.0  0.1895
  H  H155  1  0.137770  0.568880  0.338830  1.0  0.1173
  H  H156  1  0.140470  0.570230  0.466830  1.0  0.1121
  H  H157  1  0.793570  0.396780  0.483630  1.0  0.1072
  H  H158  1  0.782370  0.391180  0.392230  1.0  0.1895
  H  H159  1  0.804430  0.902220  0.672170  1.0  0.1173
  H  H160  1  0.807130  0.903570  0.800170  1.0  0.112
  H  H161  1  0.460230  0.730120  0.816970  1.0  0.109
  H  H162  1  0.449030  0.724520  0.725570  1.0  0.1895
  C  C163  1  0.549070  0.908210  0.974180  1.0  0.6984
  C  C164  1  0.575600  0.852790  0.958320  1.0  -0.1574
  C  C165  1  0.618490  0.873440  0.927760  1.0  -0.0283
  C  C166  1  0.215740  0.241540  0.307510  1.0  0.6984
  C  C167  1  0.242270  0.186120  0.291650  1.0  -0.1574
  C  C168  1  0.285160  0.206770  0.261090  1.0  -0.0283
  C  C169  1  0.882400  0.574880  0.640850  1.0  0.6984
  C  C170  1  0.908930  0.519460  0.624990  1.0  -0.1574
  C  C171  1  0.951820  0.540110  0.594430  1.0  -0.0282
  C  C172  1  0.091790  0.640860  0.974180  1.0  0.6984
  C  C173  1  0.147210  0.722810  0.958320  1.0  -0.1568
  C  C174  1  0.126560  0.745050  0.927760  1.0  -0.0293
  C  C175  1  0.758460  0.974190  0.307510  1.0  0.6984
  C  C176  1  0.813880  0.056140  0.291650  1.0  -0.1568
  C  C177  1  0.793230  0.078380  0.261090  1.0  -0.0293
  C  C178  1  0.425120  0.307530  0.640850  1.0  0.6984
  C  C179  1  0.480540  0.389480  0.624990  1.0  -0.1568
  C  C180  1  0.459890  0.411720  0.594430  1.0  -0.0293
  C  C181  1  0.359140  0.450930  0.974180  1.0  0.6986
  C  C182  1  0.277190  0.424400  0.958320  1.0  -0.1585
  C  C183  1  0.254950  0.381510  0.927760  1.0  -0.029
  C  C184  1  0.025810  0.784260  0.307510  1.0  0.6986
  C  C185  1  0.943860  0.757730  0.291650  1.0  -0.1585
  C  C186  1  0.921620  0.714840  0.261090  1.0  -0.029
  C  C187  1  0.692470  0.117600  0.640850  1.0  0.6986
  C  C188  1  0.610520  0.091070  0.624990  1.0  -0.1585
  C  C189  1  0.588280  0.048180  0.594430  1.0  -0.029
  C  C190  1  0.908210  0.549070  0.025820  1.0  0.6984
  C  C191  1  0.852790  0.575600  0.041680  1.0  -0.1574
  C  C192  1  0.873440  0.618490  0.072240  1.0  -0.0288
  C  C193  1  0.574880  0.882400  0.359150  1.0  0.6984
  C  C194  1  0.519460  0.908930  0.375010  1.0  -0.1574
  C  C195  1  0.540110  0.951820  0.405570  1.0  -0.0288
  C  C196  1  0.241540  0.215740  0.692490  1.0  0.6984
  C  C197  1  0.186120  0.242270  0.708350  1.0  -0.1574
  C  C198  1  0.206770  0.285160  0.738910  1.0  -0.0288
  C  C199  1  0.640860  0.091790  0.025820  1.0  0.6983
  C  C200  1  0.722810  0.147210  0.041680  1.0  -0.1567
  C  C201  1  0.745050  0.126560  0.072240  1.0  -0.0283
  C  C202  1  0.307530  0.425120  0.359150  1.0  0.6983
  C  C203  1  0.389480  0.480540  0.375010  1.0  -0.1567
  C  C204  1  0.411720  0.459890  0.405570  1.0  -0.0283
  C  C205  1  0.974190  0.758460  0.692490  1.0  0.6983
  C  C206  1  0.056140  0.813880  0.708350  1.0  -0.1567
  C  C207  1  0.078380  0.793230  0.738910  1.0  -0.0283
  C  C208  1  0.450930  0.359140  0.025820  1.0  0.6982
  C  C209  1  0.424400  0.277190  0.041680  1.0  -0.1558
  C  C210  1  0.381510  0.254950  0.072240  1.0  -0.03
  C  C211  1  0.117600  0.692470  0.359150  1.0  0.6982
  C  C212  1  0.091070  0.610520  0.375010  1.0  -0.1558
  C  C213  1  0.048180  0.588280  0.405570  1.0  -0.03
  C  C214  1  0.784260  0.025810  0.692490  1.0  0.6982
  C  C215  1  0.757730  0.943860  0.708350  1.0  -0.1558
  C  C216  1  0.714840  0.921620  0.738910  1.0  -0.03
  C  C217  1  0.450930  0.091790  0.025820  1.0  0.6981
  C  C218  1  0.424400  0.147210  0.041680  1.0  -0.1572
  C  C219  1  0.381510  0.126560  0.072240  1.0  -0.0282
  C  C220  1  0.117600  0.425120  0.359150  1.0  0.6981
  C  C221  1  0.091070  0.480540  0.375010  1.0  -0.1571
  C  C222  1  0.048180  0.459890  0.405570  1.0  -0.0282
  C  C223  1  0.784260  0.758460  0.692490  1.0  0.6981
  C  C224  1  0.757730  0.813880  0.708350  1.0  -0.1572
  C  C225  1  0.714840  0.793230  0.738910  1.0  -0.0282
  C  C226  1  0.908210  0.359140  0.025820  1.0  0.6983
  C  C227  1  0.852790  0.277190  0.041680  1.0  -0.1555
  C  C228  1  0.873440  0.254950  0.072240  1.0  -0.0299
  C  C229  1  0.574880  0.692470  0.359150  1.0  0.6983
  C  C230  1  0.519460  0.610520  0.375010  1.0  -0.1555
  C  C231  1  0.540110  0.588280  0.405570  1.0  -0.0299
  C  C232  1  0.241540  0.025810  0.692490  1.0  0.6983
  C  C233  1  0.186120  0.943860  0.708350  1.0  -0.1555
  C  C234  1  0.206770  0.921620  0.738910  1.0  -0.0299
  C  C235  1  0.640860  0.549070  0.025820  1.0  0.699
  C  C236  1  0.722810  0.575600  0.041680  1.0  -0.1572
  C  C237  1  0.745050  0.618490  0.072240  1.0  -0.0305
  C  C238  1  0.307530  0.882400  0.359150  1.0  0.699
  C  C239  1  0.389480  0.908930  0.375010  1.0  -0.1572
  C  C240  1  0.411720  0.951820  0.405570  1.0  -0.0305
  C  C241  1  0.974190  0.215740  0.692490  1.0  0.699
  C  C242  1  0.056140  0.242270  0.708350  1.0  -0.1572
  C  C243  1  0.078380  0.285160  0.738910  1.0  -0.0305
  C  C244  1  0.091790  0.450930  0.974180  1.0  0.6992
  C  C245  1  0.147210  0.424400  0.958320  1.0  -0.158
  C  C246  1  0.126560  0.381510  0.927760  1.0  -0.03
  C  C247  1  0.758460  0.784260  0.307510  1.0  0.6992
  C  C248  1  0.813880  0.757730  0.291650  1.0  -0.158
  C  C249  1  0.793230  0.714840  0.261090  1.0  -0.03
  C  C250  1  0.425120  0.117600  0.640850  1.0  0.6992
  C  C251  1  0.480540  0.091070  0.624990  1.0  -0.158
  C  C252  1  0.459890  0.048180  0.594430  1.0  -0.03
  C  C253  1  0.359140  0.908210  0.974180  1.0  0.6984
  C  C254  1  0.277190  0.852790  0.958320  1.0  -0.1582
  C  C255  1  0.254950  0.873440  0.927760  1.0  -0.0279
  C  C256  1  0.025810  0.241540  0.307510  1.0  0.6984
  C  C257  1  0.943860  0.186120  0.291650  1.0  -0.1582
  C  C258  1  0.921620  0.206770  0.261090  1.0  -0.0279
  C  C259  1  0.692470  0.574880  0.640850  1.0  0.6984
  C  C260  1  0.610520  0.519460  0.624990  1.0  -0.1582
  C  C261  1  0.588280  0.540110  0.594430  1.0  -0.0279
  C  C262  1  0.549070  0.640860  0.974180  1.0  0.6985
  C  C263  1  0.575600  0.722810  0.958320  1.0  -0.1567
  C  C264  1  0.618490  0.745050  0.927760  1.0  -0.0296
  C  C265  1  0.215740  0.974190  0.307510  1.0  0.6985
  C  C266  1  0.242270  0.056140  0.291650  1.0  -0.1567
  C  C267  1  0.285160  0.078380  0.261090  1.0  -0.0296
  C  C268  1  0.882400  0.307530  0.640850  1.0  0.6985
  C  C269  1  0.908930  0.389480  0.624990  1.0  -0.1567
  C  C270  1  0.951820  0.411720  0.594430  1.0  -0.0296
  C  C271  1  0.555600  0.777800  0.973770  1.0  0.027
  C  C272  1  0.641300  0.820650  0.912670  1.0  0.0453
  C  C273  1  0.557100  0.778550  0.846760  1.0  -0.0989
  C  C274  1  0.645600  0.822800  0.848910  1.0  0.0348
  C  C275  1  0.686900  0.843450  0.879900  1.0  -0.0311
  C  C276  1  0.770600  0.885300  0.879730  1.0  0.255
  C  C277  1  0.815500  0.907750  0.849230  1.0  -0.2217
  C  C278  1  0.869200  0.934600  0.918300  1.0  -0.0048
  C  C279  1  0.222270  0.111130  0.307100  1.0  0.027
  C  C280  1  0.307970  0.153980  0.246000  1.0  0.0453
  C  C281  1  0.223770  0.111880  0.180090  1.0  -0.0989
  C  C282  1  0.312270  0.156130  0.182240  1.0  0.0348
  C  C283  1  0.353570  0.176780  0.213230  1.0  -0.0311
  C  C284  1  0.437270  0.218630  0.213060  1.0  0.255
  C  C285  1  0.482170  0.241080  0.182560  1.0  -0.2217
  C  C286  1  0.535870  0.267930  0.251630  1.0  -0.0048
  C  C287  1  0.888930  0.444470  0.640440  1.0  0.027
  C  C288  1  0.974630  0.487320  0.579340  1.0  0.0452
  C  C289  1  0.890430  0.445220  0.513430  1.0  -0.0903
  C  C290  1  0.978930  0.489470  0.515580  1.0  0.0348
  C  C291  1  0.020230  0.510120  0.546570  1.0  -0.031
  C  C292  1  0.103930  0.551970  0.546400  1.0  0.2546
  C  C293  1  0.148830  0.574420  0.515900  1.0  -0.2218
  C  C294  1  0.202530  0.601270  0.584970  1.0  -0.0048
  C  C295  1  0.222200  0.777800  0.973770  1.0  0.0277
  C  C296  1  0.179350  0.820650  0.912670  1.0  0.0457
  C  C297  1  0.221450  0.778550  0.846760  1.0  -0.0984
  C  C298  1  0.177200  0.822800  0.848910  1.0  0.0356
  C  C299  1  0.156550  0.843450  0.879900  1.0  -0.0312
  C  C300  1  0.114700  0.885300  0.879730  1.0  0.2558
  C  C301  1  0.092250  0.907750  0.849230  1.0  -0.2235
  C  C302  1  0.065400  0.934600  0.918300  1.0  -0.0043
  C  C303  1  0.888870  0.111130  0.307100  1.0  0.0277
  C  C304  1  0.846020  0.153980  0.246000  1.0  0.0457
  C  C305  1  0.888120  0.111880  0.180090  1.0  -0.0984
  C  C306  1  0.843870  0.156130  0.182240  1.0  0.0356
  C  C307  1  0.823220  0.176780  0.213230  1.0  -0.0312
  C  C308  1  0.781370  0.218630  0.213060  1.0  0.2558
  C  C309  1  0.758920  0.241080  0.182560  1.0  -0.2235
  C  C310  1  0.732070  0.267930  0.251630  1.0  -0.0043
  C  C311  1  0.555530  0.444470  0.640440  1.0  0.0277
  C  C312  1  0.512680  0.487320  0.579340  1.0  0.0456
  C  C313  1  0.554780  0.445220  0.513430  1.0  -0.098
  C  C314  1  0.510530  0.489470  0.515580  1.0  0.0357
  C  C315  1  0.489880  0.510120  0.546570  1.0  -0.0311
  C  C316  1  0.448030  0.551970  0.546400  1.0  0.2555
  C  C317  1  0.425580  0.574420  0.515900  1.0  -0.2203
  C  C318  1  0.398730  0.601270  0.584970  1.0  -0.0042
  C  C319  1  0.222200  0.444400  0.973770  1.0  0.0276
  C  C320  1  0.179350  0.358700  0.912670  1.0  0.0463
  C  C321  1  0.221450  0.442900  0.846760  1.0  -0.1039
  C  C322  1  0.177200  0.354400  0.848910  1.0  0.0349
  C  C323  1  0.156550  0.313100  0.879900  1.0  -0.0311
  C  C324  1  0.114700  0.229400  0.879730  1.0  0.2566
  C  C325  1  0.092250  0.184500  0.849230  1.0  -0.2231
  C  C326  1  0.065400  0.130800  0.918300  1.0  -0.0035
  C  C327  1  0.888870  0.777730  0.307100  1.0  0.0276
  C  C328  1  0.846020  0.692030  0.246000  1.0  0.0463
  C  C329  1  0.888120  0.776230  0.180090  1.0  -0.1039
  C  C330  1  0.843870  0.687730  0.182240  1.0  0.0349
  C  C331  1  0.823220  0.646430  0.213230  1.0  -0.0311
  C  C332  1  0.781370  0.562730  0.213060  1.0  0.2566
  C  C333  1  0.758920  0.517830  0.182560  1.0  -0.2231
  C  C334  1  0.732070  0.464130  0.251630  1.0  -0.0035
  C  C335  1  0.555530  0.111070  0.640440  1.0  0.0276
  C  C336  1  0.512680  0.025370  0.579340  1.0  0.0462
  C  C337  1  0.554780  0.109570  0.513430  1.0  -0.0941
  C  C338  1  0.510530  0.021070  0.515580  1.0  0.0349
  C  C339  1  0.489880  0.979770  0.546570  1.0  -0.031
  C  C340  1  0.448030  0.896070  0.546400  1.0  0.2563
  C  C341  1  0.425580  0.851170  0.515900  1.0  -0.224
  C  C342  1  0.398730  0.797470  0.584970  1.0  -0.0035
  C  C343  1  0.777800  0.555600  0.026230  1.0  0.0286
  C  C344  1  0.820650  0.641300  0.087330  1.0  0.0464
  C  C345  1  0.778550  0.557100  0.153240  1.0  -0.0994
  C  C346  1  0.822800  0.645600  0.151090  1.0  0.0354
  C  C347  1  0.843450  0.686900  0.120100  1.0  -0.031
  C  C348  1  0.885300  0.770600  0.120270  1.0  0.2569
  C  C349  1  0.907750  0.815500  0.150770  1.0  -0.2257
  C  C350  1  0.934600  0.869200  0.081700  1.0  -0.0028
  C  C351  1  0.444470  0.888930  0.359560  1.0  0.0286
  C  C352  1  0.487320  0.974630  0.420660  1.0  0.0463
  C  C353  1  0.445220  0.890430  0.486570  1.0  -0.0908
  C  C354  1  0.489470  0.978930  0.484420  1.0  0.0354
  C  C355  1  0.510120  0.020230  0.453430  1.0  -0.0309
  C  C356  1  0.551970  0.103930  0.453600  1.0  0.2565
  C  C357  1  0.574420  0.148830  0.484100  1.0  -0.2261
  C  C358  1  0.601270  0.202530  0.415030  1.0  -0.0028
  C  C359  1  0.111130  0.222270  0.692900  1.0  0.0286
  C  C360  1  0.153980  0.307970  0.754000  1.0  0.0464
  C  C361  1  0.111880  0.223770  0.819910  1.0  -0.0994
  C  C362  1  0.156130  0.312270  0.817760  1.0  0.0354
  C  C363  1  0.176780  0.353570  0.786770  1.0  -0.031
  C  C364  1  0.218630  0.437270  0.786940  1.0  0.2569
  C  C365  1  0.241080  0.482170  0.817440  1.0  -0.2257
  C  C366  1  0.267930  0.535870  0.748370  1.0  -0.0028
  C  C367  1  0.777800  0.222200  0.026230  1.0  0.028
  C  C368  1  0.820650  0.179350  0.087330  1.0  0.0453
  C  C369  1  0.778550  0.221450  0.153240  1.0  -0.0976
  C  C370  1  0.822800  0.177200  0.151090  1.0  0.0349
  C  C371  1  0.843450  0.156550  0.120100  1.0  -0.0309
  C  C372  1  0.885300  0.114700  0.120270  1.0  0.2552
  C  C373  1  0.907750  0.092250  0.150770  1.0  -0.2232
  C  C374  1  0.934600  0.065400  0.081700  1.0  -0.0043
  C  C375  1  0.444470  0.555530  0.359560  1.0  0.028
  C  C376  1  0.487320  0.512680  0.420660  1.0  0.0453
  C  C377  1  0.445220  0.554780  0.486570  1.0  -0.0976
  C  C378  1  0.489470  0.510530  0.484420  1.0  0.0352
  C  C379  1  0.510120  0.489880  0.453430  1.0  -0.0309
  C  C380  1  0.551970  0.448030  0.453600  1.0  0.2548
  C  C381  1  0.574420  0.425580  0.484100  1.0  -0.2205
  C  C382  1  0.601270  0.398730  0.415030  1.0  -0.0042
  C  C383  1  0.111130  0.888870  0.692900  1.0  0.028
  C  C384  1  0.153980  0.846020  0.754000  1.0  0.0453
  C  C385  1  0.111880  0.888120  0.819910  1.0  -0.0976
  C  C386  1  0.156130  0.843870  0.817760  1.0  0.0349
  C  C387  1  0.176780  0.823220  0.786770  1.0  -0.0309
  C  C388  1  0.218630  0.781370  0.786940  1.0  0.2552
  C  C389  1  0.241080  0.758920  0.817440  1.0  -0.2232
  C  C390  1  0.267930  0.732070  0.748370  1.0  -0.0043
  C  C391  1  0.444400  0.222200  0.026230  1.0  0.0274
  C  C392  1  0.358700  0.179350  0.087330  1.0  0.0458
  C  C393  1  0.442900  0.221450  0.153240  1.0  -0.0972
  C  C394  1  0.354400  0.177200  0.151090  1.0  0.0357
  C  C395  1  0.313100  0.156550  0.120100  1.0  -0.031
  C  C396  1  0.229400  0.114700  0.120270  1.0  0.2557
  C  C397  1  0.184500  0.092250  0.150770  1.0  -0.2253
  C  C398  1  0.130800  0.065400  0.081700  1.0  -0.0042
  C  C399  1  0.111070  0.555530  0.359560  1.0  0.0274
  C  C400  1  0.025370  0.512680  0.420660  1.0  0.0457
  C  C401  1  0.109570  0.554780  0.486570  1.0  -0.089
  C  C402  1  0.021070  0.510530  0.484420  1.0  0.0356
  C  C403  1  0.979770  0.489880  0.453430  1.0  -0.031
  C  C404  1  0.896070  0.448030  0.453600  1.0  0.2553
  C  C405  1  0.851170  0.425580  0.484100  1.0  -0.2249
  C  C406  1  0.797470  0.398730  0.415030  1.0  -0.0042
  C  C407  1  0.777730  0.888870  0.692900  1.0  0.0274
  C  C408  1  0.692030  0.846020  0.754000  1.0  0.0458
  C  C409  1  0.776230  0.888120  0.819910  1.0  -0.0972
  C  C410  1  0.687730  0.843870  0.817760  1.0  0.0357
  C  C411  1  0.646430  0.823220  0.786770  1.0  -0.031
  C  C412  1  0.562730  0.781370  0.786940  1.0  0.2557
  C  C413  1  0.517830  0.758920  0.817440  1.0  -0.2253
  C  C414  1  0.464130  0.732070  0.748370  1.0  -0.0042
  O  O415  1  0.518560  0.890210  0.003010  1.0  -0.5741
  O  O416  1  0.559190  0.969670  0.957060  1.0  -0.5726
  O  O417  1  0.185230  0.223540  0.336340  1.0  -0.5741
  O  O418  1  0.225860  0.303000  0.290390  1.0  -0.5726
  O  O419  1  0.851890  0.556880  0.669680  1.0  -0.574
  O  O420  1  0.892520  0.636340  0.623730  1.0  -0.5725
  O  O421  1  0.109790  0.628350  0.003010  1.0  -0.5729
  O  O422  1  0.030330  0.589520  0.957060  1.0  -0.5727
  O  O423  1  0.776460  0.961680  0.336340  1.0  -0.5729
  O  O424  1  0.697000  0.922850  0.290390  1.0  -0.5727
  O  O425  1  0.443120  0.295020  0.669680  1.0  -0.5728
  O  O426  1  0.363660  0.256190  0.623730  1.0  -0.5727
  O  O427  1  0.371650  0.481440  0.003010  1.0  -0.5732
  O  O428  1  0.410480  0.440810  0.957060  1.0  -0.5727
  O  O429  1  0.038320  0.814770  0.336340  1.0  -0.5733
  O  O430  1  0.077150  0.774140  0.290390  1.0  -0.5727
  O  O431  1  0.704980  0.148110  0.669680  1.0  -0.5731
  O  O432  1  0.743810  0.107480  0.623730  1.0  -0.5727
  O  O433  1  0.890210  0.518560  0.996990  1.0  -0.5735
  O  O434  1  0.969670  0.559190  0.042940  1.0  -0.5727
  O  O435  1  0.556880  0.851890  0.330320  1.0  -0.5734
  O  O436  1  0.636340  0.892520  0.376270  1.0  -0.5727
  O  O437  1  0.223540  0.185230  0.663660  1.0  -0.5735
  O  O438  1  0.303000  0.225860  0.709610  1.0  -0.5727
  O  O439  1  0.628350  0.109790  0.996990  1.0  -0.5742
  O  O440  1  0.589520  0.030330  0.042940  1.0  -0.5726
  O  O441  1  0.295020  0.443120  0.330320  1.0  -0.5741
  O  O442  1  0.256190  0.363660  0.376270  1.0  -0.5727
  O  O443  1  0.961680  0.776460  0.663660  1.0  -0.5742
  O  O444  1  0.922850  0.697000  0.709610  1.0  -0.5727
  O  O445  1  0.481440  0.371650  0.996990  1.0  -0.5735
  O  O446  1  0.440810  0.410480  0.042940  1.0  -0.5721
  O  O447  1  0.148110  0.704980  0.330320  1.0  -0.5734
  O  O448  1  0.107480  0.743810  0.376270  1.0  -0.5721
  O  O449  1  0.814770  0.038320  0.663660  1.0  -0.5735
  O  O450  1  0.774140  0.077150  0.709610  1.0  -0.5721
  O  O451  1  0.481440  0.109790  0.996990  1.0  -0.5741
  O  O452  1  0.440810  0.030330  0.042940  1.0  -0.5728
  O  O453  1  0.148110  0.443120  0.330320  1.0  -0.5741
  O  O454  1  0.107480  0.363660  0.376270  1.0  -0.5728
  O  O455  1  0.814770  0.776460  0.663660  1.0  -0.5741
  O  O456  1  0.774140  0.697000  0.709610  1.0  -0.5728
  O  O457  1  0.890210  0.371650  0.996990  1.0  -0.5735
  O  O458  1  0.969670  0.410480  0.042940  1.0  -0.5723
  O  O459  1  0.556880  0.704980  0.330320  1.0  -0.5734
  O  O460  1  0.636340  0.743810  0.376270  1.0  -0.5724
  O  O461  1  0.223540  0.038320  0.663660  1.0  -0.5735
  O  O462  1  0.303000  0.077150  0.709610  1.0  -0.5724
  O  O463  1  0.628350  0.518560  0.996990  1.0  -0.5735
  O  O464  1  0.589520  0.559190  0.042940  1.0  -0.5721
  O  O465  1  0.295020  0.851890  0.330320  1.0  -0.5734
  O  O466  1  0.256190  0.892520  0.376270  1.0  -0.5721
  O  O467  1  0.961680  0.185230  0.663660  1.0  -0.5735
  O  O468  1  0.922850  0.225860  0.709610  1.0  -0.5721
  O  O469  1  0.109790  0.481440  0.003010  1.0  -0.5731
  O  O470  1  0.030330  0.440810  0.957060  1.0  -0.5727
  O  O471  1  0.776460  0.814770  0.336340  1.0  -0.5731
  O  O472  1  0.697000  0.774140  0.290390  1.0  -0.5727
  O  O473  1  0.443120  0.148110  0.669680  1.0  -0.5731
  O  O474  1  0.363660  0.107480  0.623730  1.0  -0.5727
  O  O475  1  0.371650  0.890210  0.003010  1.0  -0.5743
  O  O476  1  0.410480  0.969670  0.957060  1.0  -0.5727
  O  O477  1  0.038320  0.223540  0.336340  1.0  -0.5743
  O  O478  1  0.077150  0.303000  0.290390  1.0  -0.5728
  O  O479  1  0.704980  0.556880  0.669680  1.0  -0.5742
  O  O480  1  0.743810  0.636340  0.623730  1.0  -0.5728
  O  O481  1  0.518560  0.628350  0.003010  1.0  -0.5732
  O  O482  1  0.559190  0.589520  0.957060  1.0  -0.5725
  O  O483  1  0.185230  0.961680  0.336340  1.0  -0.5733
  O  O484  1  0.225860  0.922850  0.290390  1.0  -0.5726
  O  O485  1  0.851890  0.295020  0.669680  1.0  -0.5731
  O  O486  1  0.892520  0.256190  0.623730  1.0  -0.5726
  O  O487  1  0.809000  0.904500  0.910000  1.0  -0.5044
  O  O488  1  0.475670  0.237830  0.243330  1.0  -0.5044
  O  O489  1  0.142330  0.571170  0.576670  1.0  -0.5044
  O  O490  1  0.095500  0.904500  0.910000  1.0  -0.504
  O  O491  1  0.762170  0.237830  0.243330  1.0  -0.504
  O  O492  1  0.428830  0.571170  0.576670  1.0  -0.504
  O  O493  1  0.095500  0.191000  0.910000  1.0  -0.5001
  O  O494  1  0.762170  0.524330  0.243330  1.0  -0.5001
  O  O495  1  0.428830  0.857670  0.576670  1.0  -0.5001
  O  O496  1  0.904500  0.809000  0.090000  1.0  -0.4993
  O  O497  1  0.571170  0.142330  0.423330  1.0  -0.4993
  O  O498  1  0.237830  0.475670  0.756670  1.0  -0.4993
  O  O499  1  0.904500  0.095500  0.090000  1.0  -0.5022
  O  O500  1  0.571170  0.428830  0.423330  1.0  -0.5022
  O  O501  1  0.237830  0.762170  0.756670  1.0  -0.5022
  O  O502  1  0.191000  0.095500  0.090000  1.0  -0.5016
  O  O503  1  0.857670  0.428830  0.423330  1.0  -0.5016
  O  O504  1  0.524330  0.762170  0.756670  1.0  -0.5016
