# generated using pymatgen
data_Sm2Zn3H24(C4O5)6
_symmetry_space_group_name_H-M   'P 1'
_cell_length_a   14.81270000
_cell_length_b   14.81270000
_cell_length_c   15.61300000
_cell_angle_alpha   90.00000000
_cell_angle_beta   90.00000000
_cell_angle_gamma   120.00000000
_symmetry_Int_Tables_number   1
_chemical_formula_structural   Sm2Zn3H24(C4O5)6
_chemical_formula_sum   'Sm4 Zn6 H48 C48 O60'
_cell_volume   2966.78070488
_cell_formula_units_Z   2
loop_
 _symmetry_equiv_pos_site_id
 _symmetry_equiv_pos_as_xyz
  1  'x, y, z'
loop_
 _atom_site_type_symbol
 _atom_site_label
 _atom_site_symmetry_multiplicity
 _atom_site_fract_x
 _atom_site_fract_y
 _atom_site_fract_z
 _atom_site_occupancy
 _atom_site_charge
  Sm  Sm1  1  0.666667  0.333333  0.750000  1.0  2.2157
  Sm  Sm2  1  0.333333  0.666667  0.750000  1.0  2.2157
  Sm  Sm3  1  0.333333  0.666667  0.250000  1.0  2.2157
  Sm  Sm4  1  0.666667  0.333333  0.250000  1.0  2.2157
  Zn  Zn5  1  0.500000  0.500000  0.000000  1.0  1.191
  Zn  Zn6  1  0.000000  0.500000  0.000000  1.0  1.191
  Zn  Zn7  1  0.500000  0.000000  0.000000  1.0  1.191
  Zn  Zn8  1  0.000000  0.500000  0.500000  1.0  1.191
  Zn  Zn9  1  0.500000  0.500000  0.500000  1.0  1.191
  Zn  Zn10  1  0.500000  0.000000  0.500000  1.0  1.191
  H  H11  1  0.719500  0.630000  0.769700  1.0  0.0808
  H  H12  1  0.797300  0.632400  0.839100  1.0  0.1001
  H  H13  1  0.910500  0.280500  0.769700  1.0  0.0808
  H  H14  1  0.835100  0.202700  0.839100  1.0  0.0989
  H  H15  1  0.370000  0.089500  0.769700  1.0  0.0814
  H  H16  1  0.367600  0.164900  0.839100  1.0  0.0977
  H  H17  1  0.280500  0.370000  0.769700  1.0  0.0801
  H  H18  1  0.202700  0.367600  0.839100  1.0  0.0997
  H  H19  1  0.089500  0.719500  0.769700  1.0  0.0809
  H  H20  1  0.164900  0.797300  0.839100  1.0  0.0988
  H  H21  1  0.630000  0.910500  0.769700  1.0  0.0803
  H  H22  1  0.632400  0.835100  0.839100  1.0  0.0978
  H  H23  1  0.089500  0.370000  0.730300  1.0  0.0808
  H  H24  1  0.164900  0.367600  0.660900  1.0  0.1
  H  H25  1  0.630000  0.719500  0.730300  1.0  0.0812
  H  H26  1  0.632400  0.797300  0.660900  1.0  0.0994
  H  H27  1  0.280500  0.910500  0.730300  1.0  0.0806
  H  H28  1  0.202700  0.835100  0.660900  1.0  0.0977
  H  H29  1  0.910500  0.630000  0.730300  1.0  0.0805
  H  H30  1  0.835100  0.632400  0.660900  1.0  0.1003
  H  H31  1  0.370000  0.280500  0.730300  1.0  0.0817
  H  H32  1  0.367600  0.202700  0.660900  1.0  0.0983
  H  H33  1  0.719500  0.089500  0.730300  1.0  0.0806
  H  H34  1  0.797300  0.164900  0.660900  1.0  0.0987
  H  H35  1  0.280500  0.370000  0.230300  1.0  0.0807
  H  H36  1  0.202700  0.367600  0.160900  1.0  0.0994
  H  H37  1  0.089500  0.719500  0.230300  1.0  0.0813
  H  H38  1  0.164900  0.797300  0.160900  1.0  0.0993
  H  H39  1  0.630000  0.910500  0.230300  1.0  0.08
  H  H40  1  0.632400  0.835100  0.160900  1.0  0.0986
  H  H41  1  0.719500  0.630000  0.230300  1.0  0.0809
  H  H42  1  0.797300  0.632400  0.160900  1.0  0.1007
  H  H43  1  0.910500  0.280500  0.230300  1.0  0.0815
  H  H44  1  0.835100  0.202700  0.160900  1.0  0.099
  H  H45  1  0.370000  0.089500  0.230300  1.0  0.0809
  H  H46  1  0.367600  0.164900  0.160900  1.0  0.0978
  H  H47  1  0.910500  0.630000  0.269700  1.0  0.0803
  H  H48  1  0.835100  0.632400  0.339100  1.0  0.0997
  H  H49  1  0.370000  0.280500  0.269700  1.0  0.0811
  H  H50  1  0.367600  0.202700  0.339100  1.0  0.0994
  H  H51  1  0.719500  0.089500  0.269700  1.0  0.0801
  H  H52  1  0.797300  0.164900  0.339100  1.0  0.0981
  H  H53  1  0.089500  0.370000  0.269700  1.0  0.0804
  H  H54  1  0.164900  0.367600  0.339100  1.0  0.1005
  H  H55  1  0.630000  0.719500  0.269700  1.0  0.0805
  H  H56  1  0.632400  0.797300  0.339100  1.0  0.0985
  H  H57  1  0.280500  0.910500  0.269700  1.0  0.0808
  H  H58  1  0.202700  0.835100  0.339100  1.0  0.0976
  C  C59  1  0.648400  0.517100  0.859700  1.0  0.7332
  C  C60  1  0.737900  0.586800  0.803800  1.0  -0.0552
  C  C61  1  0.868700  0.351600  0.859700  1.0  0.7323
  C  C62  1  0.848900  0.262100  0.803800  1.0  -0.0542
  C  C63  1  0.482900  0.131300  0.859700  1.0  0.7323
  C  C64  1  0.413200  0.151100  0.803800  1.0  -0.0524
  C  C65  1  0.351600  0.482900  0.859700  1.0  0.7333
  C  C66  1  0.262100  0.413200  0.803800  1.0  -0.0546
  C  C67  1  0.131300  0.648400  0.859700  1.0  0.7311
  C  C68  1  0.151100  0.737900  0.803800  1.0  -0.0536
  C  C69  1  0.517100  0.868700  0.859700  1.0  0.7329
  C  C70  1  0.586800  0.848900  0.803800  1.0  -0.0548
  C  C71  1  0.131300  0.482900  0.640300  1.0  0.7343
  C  C72  1  0.151100  0.413200  0.696200  1.0  -0.0537
  C  C73  1  0.517100  0.648400  0.640300  1.0  0.7324
  C  C74  1  0.586800  0.737900  0.696200  1.0  -0.0544
  C  C75  1  0.351600  0.868700  0.640300  1.0  0.7338
  C  C76  1  0.262100  0.848900  0.696200  1.0  -0.0532
  C  C77  1  0.868700  0.517100  0.640300  1.0  0.7322
  C  C78  1  0.848900  0.586800  0.696200  1.0  -0.0546
  C  C79  1  0.482900  0.351600  0.640300  1.0  0.7323
  C  C80  1  0.413200  0.262100  0.696200  1.0  -0.0521
  C  C81  1  0.648400  0.131300  0.640300  1.0  0.7334
  C  C82  1  0.737900  0.151100  0.696200  1.0  -0.0533
  C  C83  1  0.351600  0.482900  0.140300  1.0  0.7331
  C  C84  1  0.262100  0.413200  0.196200  1.0  -0.054
  C  C85  1  0.131300  0.648400  0.140300  1.0  0.7316
  C  C86  1  0.151100  0.737900  0.196200  1.0  -0.0527
  C  C87  1  0.517100  0.868700  0.140300  1.0  0.7336
  C  C88  1  0.586800  0.848900  0.196200  1.0  -0.0545
  C  C89  1  0.648400  0.517100  0.140300  1.0  0.7338
  C  C90  1  0.737900  0.586800  0.196200  1.0  -0.0547
  C  C91  1  0.868700  0.351600  0.140300  1.0  0.7325
  C  C92  1  0.848900  0.262100  0.196200  1.0  -0.0539
  C  C93  1  0.482900  0.131300  0.140300  1.0  0.7337
  C  C94  1  0.413200  0.151100  0.196200  1.0  -0.0516
  C  C95  1  0.868700  0.517100  0.359700  1.0  0.7325
  C  C96  1  0.848900  0.586800  0.303800  1.0  -0.0551
  C  C97  1  0.482900  0.351600  0.359700  1.0  0.7315
  C  C98  1  0.413200  0.262100  0.303800  1.0  -0.0536
  C  C99  1  0.648400  0.131300  0.359700  1.0  0.7329
  C  C100  1  0.737900  0.151100  0.303800  1.0  -0.0534
  C  C101  1  0.131300  0.482900  0.359700  1.0  0.7337
  C  C102  1  0.151100  0.413200  0.303800  1.0  -0.0549
  C  C103  1  0.517100  0.648400  0.359700  1.0  0.7326
  C  C104  1  0.586800  0.737900  0.303800  1.0  -0.0558
  C  C105  1  0.351600  0.868700  0.359700  1.0  0.7323
  C  C106  1  0.262100  0.848900  0.303800  1.0  -0.0541
  O  O107  1  0.615000  0.420200  0.855400  1.0  -0.7116
  O  O108  1  0.614700  0.560300  0.907600  1.0  -0.6424
  O  O109  1  0.805200  0.385000  0.855400  1.0  -0.7102
  O  O110  1  0.945600  0.385300  0.907600  1.0  -0.642
  O  O111  1  0.579800  0.194800  0.855400  1.0  -0.7098
  O  O112  1  0.439700  0.054400  0.907600  1.0  -0.6435
  O  O113  1  0.385000  0.579800  0.855400  1.0  -0.7116
  O  O114  1  0.385300  0.439700  0.907600  1.0  -0.6412
  O  O115  1  0.194800  0.615000  0.855400  1.0  -0.7106
  O  O116  1  0.054400  0.614700  0.907600  1.0  -0.6429
  O  O117  1  0.420200  0.805200  0.855400  1.0  -0.7103
  O  O118  1  0.560300  0.945600  0.907600  1.0  -0.6431
  O  O119  1  0.194800  0.579800  0.644600  1.0  -0.7108
  O  O120  1  0.054400  0.439700  0.592400  1.0  -0.6422
  O  O121  1  0.420200  0.615000  0.644600  1.0  -0.7097
  O  O122  1  0.560300  0.614700  0.592400  1.0  -0.643
  O  O123  1  0.385000  0.805200  0.644600  1.0  -0.7101
  O  O124  1  0.385300  0.945600  0.592400  1.0  -0.6429
  O  O125  1  0.805200  0.420200  0.644600  1.0  -0.7112
  O  O126  1  0.945600  0.560300  0.592400  1.0  -0.6432
  O  O127  1  0.579800  0.385000  0.644600  1.0  -0.7102
  O  O128  1  0.439700  0.385300  0.592400  1.0  -0.6408
  O  O129  1  0.615000  0.194800  0.644600  1.0  -0.7089
  O  O130  1  0.614700  0.054400  0.592400  1.0  -0.6431
  O  O131  1  0.385000  0.579800  0.144600  1.0  -0.711
  O  O132  1  0.385300  0.439700  0.092400  1.0  -0.6418
  O  O133  1  0.194800  0.615000  0.144600  1.0  -0.7102
  O  O134  1  0.054400  0.614700  0.092400  1.0  -0.6423
  O  O135  1  0.420200  0.805200  0.144600  1.0  -0.7098
  O  O136  1  0.560300  0.945600  0.092400  1.0  -0.6437
  O  O137  1  0.615000  0.420200  0.144600  1.0  -0.711
  O  O138  1  0.614700  0.560300  0.092400  1.0  -0.6427
  O  O139  1  0.805200  0.385000  0.144600  1.0  -0.7095
  O  O140  1  0.945600  0.385300  0.092400  1.0  -0.6415
  O  O141  1  0.579800  0.194800  0.144600  1.0  -0.7095
  O  O142  1  0.439700  0.054400  0.092400  1.0  -0.6424
  O  O143  1  0.805200  0.420200  0.355400  1.0  -0.7115
  O  O144  1  0.945600  0.560300  0.407600  1.0  -0.6427
  O  O145  1  0.579800  0.385000  0.355400  1.0  -0.7104
  O  O146  1  0.439700  0.385300  0.407600  1.0  -0.6418
  O  O147  1  0.615000  0.194800  0.355400  1.0  -0.7099
  O  O148  1  0.614700  0.054400  0.407600  1.0  -0.6429
  O  O149  1  0.194800  0.579800  0.355400  1.0  -0.7118
  O  O150  1  0.054400  0.439700  0.407600  1.0  -0.6422
  O  O151  1  0.420200  0.615000  0.355400  1.0  -0.7105
  O  O152  1  0.560300  0.614700  0.407600  1.0  -0.6426
  O  O153  1  0.385000  0.805200  0.355400  1.0  -0.7101
  O  O154  1  0.385300  0.945600  0.407600  1.0  -0.644
  O  O155  1  0.764600  0.529200  0.750000  1.0  -0.3455
  O  O156  1  0.764600  0.235400  0.750000  1.0  -0.3438
  O  O157  1  0.470800  0.235400  0.750000  1.0  -0.3462
  O  O158  1  0.235400  0.470800  0.750000  1.0  -0.3455
  O  O159  1  0.235400  0.764600  0.750000  1.0  -0.3459
  O  O160  1  0.529200  0.764600  0.750000  1.0  -0.3453
  O  O161  1  0.235400  0.470800  0.250000  1.0  -0.3455
  O  O162  1  0.235400  0.764600  0.250000  1.0  -0.3459
  O  O163  1  0.529200  0.764600  0.250000  1.0  -0.3453
  O  O164  1  0.764600  0.529200  0.250000  1.0  -0.3455
  O  O165  1  0.764600  0.235400  0.250000  1.0  -0.3441
  O  O166  1  0.470800  0.235400  0.250000  1.0  -0.3458
