# generated using pymatgen
data_Zn2H10C18N5O8
_symmetry_space_group_name_H-M   'P 1'
_cell_length_a   17.72400000
_cell_length_b   19.70500000
_cell_length_c   13.13900000
_cell_angle_alpha   90.00000000
_cell_angle_beta   127.49600000
_cell_angle_gamma   90.00000000
_symmetry_Int_Tables_number   1
_chemical_formula_structural   Zn2H10C18N5O8
_chemical_formula_sum   'Zn8 H40 C72 N20 O32'
_cell_volume   3640.74625182
_cell_formula_units_Z   4
loop_
 _symmetry_equiv_pos_site_id
 _symmetry_equiv_pos_as_xyz
  1  'x, y, z'
loop_
 _atom_site_type_symbol
 _atom_site_label
 _atom_site_symmetry_multiplicity
 _atom_site_fract_x
 _atom_site_fract_y
 _atom_site_fract_z
 _atom_site_occupancy
 _atom_site_charge
  Zn  Zn1  1  0.404370  0.500000  0.368620  1.0  0.9298
  Zn  Zn2  1  0.904370  0.000000  0.368620  1.0  0.9298
  Zn  Zn3  1  0.595630  0.500000  0.631380  1.0  0.9306
  Zn  Zn4  1  0.095630  0.000000  0.631380  1.0  0.9306
  Zn  Zn5  1  0.000000  0.408520  0.000000  1.0  0.9851
  Zn  Zn6  1  0.500000  0.908520  0.000000  1.0  0.9851
  Zn  Zn7  1  0.000000  0.591480  0.000000  1.0  0.9855
  Zn  Zn8  1  0.500000  0.091480  0.000000  1.0  0.9855
  H  H9  1  0.195300  0.347900  0.153100  1.0  0.3538
  H  H10  1  0.295900  0.371300  0.242100  1.0  0.3579
  H  H11  1  0.703100  0.343800  0.545300  1.0  0.0997
  H  H12  1  0.660400  0.187400  0.322500  1.0  0.1031
  H  H13  1  0.449400  0.319300  0.202200  1.0  0.1074
  H  H14  1  0.695300  0.847900  0.153100  1.0  0.3538
  H  H15  1  0.795900  0.871300  0.242100  1.0  0.3579
  H  H16  1  0.203100  0.843800  0.545300  1.0  0.0997
  H  H17  1  0.160400  0.687400  0.322500  1.0  0.1031
  H  H18  1  0.949400  0.819300  0.202200  1.0  0.1074
  H  H19  1  0.804700  0.347900  0.846900  1.0  0.3545
  H  H20  1  0.704100  0.371300  0.757900  1.0  0.356
  H  H21  1  0.296900  0.343800  0.454700  1.0  0.0997
  H  H22  1  0.339600  0.187400  0.677500  1.0  0.103
  H  H23  1  0.550600  0.319300  0.797800  1.0  0.1068
  H  H24  1  0.304700  0.847900  0.846900  1.0  0.3545
  H  H25  1  0.204100  0.871300  0.757900  1.0  0.356
  H  H26  1  0.796900  0.843800  0.454700  1.0  0.0997
  H  H27  1  0.839600  0.687400  0.677500  1.0  0.103
  H  H28  1  0.050600  0.819300  0.797800  1.0  0.1068
  H  H29  1  0.804700  0.652100  0.846900  1.0  0.3541
  H  H30  1  0.704100  0.628700  0.757900  1.0  0.3559
  H  H31  1  0.296900  0.656200  0.454700  1.0  0.1008
  H  H32  1  0.339600  0.812600  0.677500  1.0  0.1044
  H  H33  1  0.550600  0.680700  0.797800  1.0  0.1069
  H  H34  1  0.304700  0.152100  0.846900  1.0  0.3541
  H  H35  1  0.204100  0.128700  0.757900  1.0  0.3559
  H  H36  1  0.796900  0.156200  0.454700  1.0  0.1008
  H  H37  1  0.839600  0.312600  0.677500  1.0  0.1044
  H  H38  1  0.050600  0.180700  0.797800  1.0  0.1069
  H  H39  1  0.195300  0.652100  0.153100  1.0  0.3545
  H  H40  1  0.295900  0.628700  0.242100  1.0  0.358
  H  H41  1  0.703100  0.656200  0.545300  1.0  0.101
  H  H42  1  0.660400  0.812600  0.322500  1.0  0.1044
  H  H43  1  0.449400  0.680700  0.202200  1.0  0.1075
  H  H44  1  0.695300  0.152100  0.153100  1.0  0.3545
  H  H45  1  0.795900  0.128700  0.242100  1.0  0.358
  H  H46  1  0.203100  0.156200  0.545300  1.0  0.101
  H  H47  1  0.160400  0.312600  0.322500  1.0  0.1044
  H  H48  1  0.949400  0.180700  0.202200  1.0  0.1075
  C  C49  1  0.537400  0.402730  0.406400  1.0  0.7263
  C  C50  1  0.570900  0.340510  0.377800  1.0  -0.1482
  C  C51  1  0.664100  0.319130  0.469700  1.0  -0.0462
  C  C52  1  0.700300  0.261600  0.451100  1.0  0.0075
  C  C53  1  0.638400  0.226200  0.337200  1.0  -0.0694
  C  C54  1  0.545300  0.246100  0.245000  1.0  -0.1591
  C  C55  1  0.511300  0.304600  0.264500  1.0  0.0174
  C  C56  1  0.484200  0.203400  0.126200  1.0  0.6842
  C  C57  1  0.206200  0.446160  0.163300  1.0  0.5945
  C  C58  1  0.037400  0.902730  0.406400  1.0  0.7263
  C  C59  1  0.070900  0.840510  0.377800  1.0  -0.1482
  C  C60  1  0.164100  0.819130  0.469700  1.0  -0.0462
  C  C61  1  0.200300  0.761600  0.451100  1.0  0.0075
  C  C62  1  0.138400  0.726200  0.337200  1.0  -0.0694
  C  C63  1  0.045300  0.746100  0.245000  1.0  -0.1591
  C  C64  1  0.011300  0.804600  0.264500  1.0  0.0174
  C  C65  1  0.984200  0.703400  0.126200  1.0  0.6842
  C  C66  1  0.706200  0.946160  0.163300  1.0  0.5945
  C  C67  1  0.462600  0.402730  0.593600  1.0  0.7269
  C  C68  1  0.429100  0.340510  0.622200  1.0  -0.1491
  C  C69  1  0.335900  0.319130  0.530300  1.0  -0.0453
  C  C70  1  0.299700  0.261600  0.548900  1.0  0.0069
  C  C71  1  0.361600  0.226200  0.662800  1.0  -0.0684
  C  C72  1  0.454700  0.246100  0.755000  1.0  -0.1581
  C  C73  1  0.488700  0.304600  0.735500  1.0  0.019
  C  C74  1  0.515800  0.203400  0.873800  1.0  0.6849
  C  C75  1  0.793800  0.446160  0.836700  1.0  0.5942
  C  C76  1  0.962600  0.902730  0.593600  1.0  0.7269
  C  C77  1  0.929100  0.840510  0.622200  1.0  -0.1491
  C  C78  1  0.835900  0.819130  0.530300  1.0  -0.0453
  C  C79  1  0.799700  0.761600  0.548900  1.0  0.0069
  C  C80  1  0.861600  0.726200  0.662800  1.0  -0.0684
  C  C81  1  0.954700  0.746100  0.755000  1.0  -0.1581
  C  C82  1  0.988700  0.804600  0.735500  1.0  0.019
  C  C83  1  0.015800  0.703400  0.873800  1.0  0.6849
  C  C84  1  0.293800  0.946160  0.836700  1.0  0.5942
  C  C85  1  0.462600  0.597270  0.593600  1.0  0.7269
  C  C86  1  0.429100  0.659490  0.622200  1.0  -0.1486
  C  C87  1  0.335900  0.680870  0.530300  1.0  -0.0463
  C  C88  1  0.299700  0.738400  0.548900  1.0  0.0068
  C  C89  1  0.361600  0.773800  0.662800  1.0  -0.0705
  C  C90  1  0.454700  0.753900  0.755000  1.0  -0.1581
  C  C91  1  0.488700  0.695400  0.735500  1.0  0.0191
  C  C92  1  0.515800  0.796600  0.873800  1.0  0.685
  C  C93  1  0.793800  0.553840  0.836700  1.0  0.5947
  C  C94  1  0.962600  0.097270  0.593600  1.0  0.7269
  C  C95  1  0.929100  0.159490  0.622200  1.0  -0.1486
  C  C96  1  0.835900  0.180870  0.530300  1.0  -0.0463
  C  C97  1  0.799700  0.238400  0.548900  1.0  0.0068
  C  C98  1  0.861600  0.273800  0.662800  1.0  -0.0705
  C  C99  1  0.954700  0.253900  0.755000  1.0  -0.1581
  C  C100  1  0.988700  0.195400  0.735500  1.0  0.0191
  C  C101  1  0.015800  0.296600  0.873800  1.0  0.685
  C  C102  1  0.293800  0.053840  0.836700  1.0  0.5947
  C  C103  1  0.537400  0.597270  0.406400  1.0  0.7269
  C  C104  1  0.570900  0.659490  0.377800  1.0  -0.1484
  C  C105  1  0.664100  0.680870  0.469700  1.0  -0.0471
  C  C106  1  0.700300  0.738400  0.451100  1.0  0.0074
  C  C107  1  0.638400  0.773800  0.337200  1.0  -0.0709
  C  C108  1  0.545300  0.753900  0.245000  1.0  -0.1589
  C  C109  1  0.511300  0.695400  0.264500  1.0  0.0172
  C  C110  1  0.484200  0.796600  0.126200  1.0  0.6841
  C  C111  1  0.206200  0.553840  0.163300  1.0  0.595
  C  C112  1  0.037400  0.097270  0.406400  1.0  0.7269
  C  C113  1  0.070900  0.159490  0.377800  1.0  -0.1484
  C  C114  1  0.164100  0.180870  0.469700  1.0  -0.0471
  C  C115  1  0.200300  0.238400  0.451100  1.0  0.0074
  C  C116  1  0.138400  0.273800  0.337200  1.0  -0.0709
  C  C117  1  0.045300  0.253900  0.245000  1.0  -0.1589
  C  C118  1  0.011300  0.195400  0.264500  1.0  0.0172
  C  C119  1  0.984200  0.296600  0.126200  1.0  0.6841
  C  C120  1  0.706200  0.053840  0.163300  1.0  0.595
  N  N121  1  0.116090  0.464380  0.083800  1.0  -0.2709
  N  N122  1  0.236200  0.380320  0.189400  1.0  -0.7429
  N  N123  1  0.616090  0.964380  0.083800  1.0  -0.2709
  N  N124  1  0.736200  0.880320  0.189400  1.0  -0.7429
  N  N125  1  0.883910  0.464380  0.916200  1.0  -0.2721
  N  N126  1  0.763800  0.380320  0.810600  1.0  -0.7427
  N  N127  1  0.383910  0.964380  0.916200  1.0  -0.2721
  N  N128  1  0.263800  0.880320  0.810600  1.0  -0.7427
  N  N129  1  0.883910  0.535620  0.916200  1.0  -0.272
  N  N130  1  0.763800  0.619680  0.810600  1.0  -0.7434
  N  N131  1  0.383910  0.035620  0.916200  1.0  -0.272
  N  N132  1  0.263800  0.119680  0.810600  1.0  -0.7434
  N  N133  1  0.116090  0.535620  0.083800  1.0  -0.2705
  N  N134  1  0.236200  0.619680  0.189400  1.0  -0.7431
  N  N135  1  0.616090  0.035620  0.083800  1.0  -0.2705
  N  N136  1  0.736200  0.119680  0.189400  1.0  -0.7431
  N  N137  1  0.265600  0.500000  0.217300  1.0  -0.4071
  N  N138  1  0.765600  0.000000  0.217300  1.0  -0.4044
  N  N139  1  0.734400  0.500000  0.782700  1.0  -0.4082
  N  N140  1  0.234400  0.000000  0.782700  1.0  -0.4052
  O  O141  1  0.454550  0.423530  0.321200  1.0  -0.5871
  O  O142  1  0.594190  0.428480  0.514800  1.0  -0.6182
  O  O143  1  0.404900  0.222060  0.033500  1.0  -0.5302
  O  O144  1  0.521200  0.146700  0.135600  1.0  -0.6344
  O  O145  1  0.954550  0.923530  0.321200  1.0  -0.5871
  O  O146  1  0.094190  0.928480  0.514800  1.0  -0.6182
  O  O147  1  0.904900  0.722060  0.033500  1.0  -0.5302
  O  O148  1  0.021200  0.646700  0.135600  1.0  -0.6344
  O  O149  1  0.545450  0.423530  0.678800  1.0  -0.5867
  O  O150  1  0.405810  0.428480  0.485200  1.0  -0.6169
  O  O151  1  0.595100  0.222060  0.966500  1.0  -0.5327
  O  O152  1  0.478800  0.146700  0.864400  1.0  -0.6347
  O  O153  1  0.045450  0.923530  0.678800  1.0  -0.5867
  O  O154  1  0.905810  0.928480  0.485200  1.0  -0.6169
  O  O155  1  0.095100  0.722060  0.966500  1.0  -0.5327
  O  O156  1  0.978800  0.646700  0.864400  1.0  -0.6347
  O  O157  1  0.545450  0.576470  0.678800  1.0  -0.5871
  O  O158  1  0.405810  0.571520  0.485200  1.0  -0.6173
  O  O159  1  0.595100  0.777940  0.966500  1.0  -0.533
  O  O160  1  0.478800  0.853300  0.864400  1.0  -0.635
  O  O161  1  0.045450  0.076470  0.678800  1.0  -0.5871
  O  O162  1  0.905810  0.071520  0.485200  1.0  -0.6173
  O  O163  1  0.095100  0.277940  0.966500  1.0  -0.533
  O  O164  1  0.978800  0.353300  0.864400  1.0  -0.635
  O  O165  1  0.454550  0.576470  0.321200  1.0  -0.5867
  O  O166  1  0.594190  0.571520  0.514800  1.0  -0.6182
  O  O167  1  0.404900  0.777940  0.033500  1.0  -0.5298
  O  O168  1  0.521200  0.853300  0.135600  1.0  -0.6344
  O  O169  1  0.954550  0.076470  0.321200  1.0  -0.5867
  O  O170  1  0.094190  0.071520  0.514800  1.0  -0.6182
  O  O171  1  0.904900  0.277940  0.033500  1.0  -0.5298
  O  O172  1  0.021200  0.353300  0.135600  1.0  -0.6344
