# generated using pymatgen
data_Cd2SiH36C37N2O11
_symmetry_space_group_name_H-M   'P 1'
_cell_length_a   13.98170000
_cell_length_b   14.18170000
_cell_length_c   14.27000000
_cell_angle_alpha   115.92200000
_cell_angle_beta   113.19600000
_cell_angle_gamma   97.14400000
_symmetry_Int_Tables_number   1
_chemical_formula_structural   Cd2SiH36C37N2O11
_chemical_formula_sum   'Cd4 Si2 H72 C74 N4 O22'
_cell_volume   2183.44459143
_cell_formula_units_Z   2
loop_
 _symmetry_equiv_pos_site_id
 _symmetry_equiv_pos_as_xyz
  1  'x, y, z'
loop_
 _atom_site_type_symbol
 _atom_site_label
 _atom_site_symmetry_multiplicity
 _atom_site_fract_x
 _atom_site_fract_y
 _atom_site_fract_z
 _atom_site_occupancy
 _atom_site_charge
  Cd  Cd1  1  0.495110  0.615730  0.814710  1.0  1.0381
  Cd  Cd2  1  0.504890  0.384270  0.185290  1.0  1.0374
  Cd  Cd3  1  0.500000  0.500000  0.000000  1.0  1.1268
  Cd  Cd4  1  0.000000  0.500000  0.500000  1.0  0.8088
  Si  Si5  1  0.236120  0.856020  0.321300  1.0  0.9565
  Si  Si6  1  0.763880  0.143980  0.678700  1.0  0.9583
  H  H7  1  0.315600  0.259000  0.466900  1.0  0.11
  H  H8  1  0.240800  0.067800  0.319700  1.0  0.1141
  H  H9  1  0.449900  0.917900  0.134700  1.0  0.1172
  H  H10  1  0.867900  0.568700  0.098300  1.0  0.1084
  H  H11  1  0.433100  0.800200  0.417400  1.0  0.0947
  H  H12  1  0.860500  0.857900  0.110200  1.0  0.1183
  H  H13  1  0.380200  0.976200  0.266700  1.0  0.1011
  H  H14  1  0.216300  0.701300  0.562200  1.0  0.114
  H  H15  1  0.429400  0.187500  0.727000  1.0  0.1096
  H  H16  1  0.357700  0.997300  0.580600  1.0  0.0998
  H  H17  1  0.053900  0.937600  0.230900  1.0  0.1003
  H  H18  1  0.502800  0.741400  0.550900  1.0  0.1062
  H  H19  1  0.296600  0.593100  0.011500  1.0  0.11
  H  H20  1  0.220300  0.650700  0.136600  1.0  0.0961
  H  H21  1  0.147400  0.761300  0.429900  1.0  0.0905
  H  H22  1  0.061400  0.642900  0.203700  1.0  0.1009
  H  H23  1  0.684400  0.741000  0.533100  1.0  0.1104
  H  H24  1  0.759200  0.932200  0.680300  1.0  0.1126
  H  H25  1  0.550100  0.082100  0.865300  1.0  0.1172
  H  H26  1  0.132100  0.431300  0.901700  1.0  0.1084
  H  H27  1  0.566900  0.199800  0.582600  1.0  0.0947
  H  H28  1  0.139500  0.142100  0.889800  1.0  0.1186
  H  H29  1  0.619800  0.023800  0.733300  1.0  0.1012
  H  H30  1  0.783700  0.298700  0.437800  1.0  0.1138
  H  H31  1  0.570600  0.812500  0.273000  1.0  0.1099
  H  H32  1  0.642300  0.002700  0.419400  1.0  0.0986
  H  H33  1  0.946100  0.062400  0.769100  1.0  0.101
  H  H34  1  0.497200  0.258600  0.449100  1.0  0.1052
  H  H35  1  0.703400  0.406900  0.988500  1.0  0.1103
  H  H36  1  0.779700  0.349300  0.863400  1.0  0.0956
  H  H37  1  0.852600  0.238700  0.570100  1.0  0.0911
  H  H38  1  0.938600  0.357100  0.796300  1.0  0.1017
  H  H39  1  0.698800  0.566500  0.535300  1.0  0.0997
  H  H40  1  0.634600  0.509800  0.579600  1.0  0.1068
  H  H41  1  0.685700  0.643700  0.648100  1.0  0.0958
  H  H42  1  0.172700  0.478000  0.728400  1.0  0.1269
  H  H43  1  0.206700  0.379600  0.743300  1.0  0.1003
  H  H44  1  0.236000  0.415400  0.663100  1.0  0.1185
  H  H45  1  0.992600  0.496500  0.742100  1.0  0.1036
  H  H46  1  0.046700  0.630400  0.806000  1.0  0.0963
  H  H47  1  0.915900  0.165900  0.378100  1.0  0.1006
  H  H48  1  0.967700  0.069900  0.369100  1.0  0.1165
  H  H49  1  0.895700  0.095100  0.434700  1.0  0.1088
  H  H50  1  0.187000  0.224500  0.667300  1.0  0.116
  H  H51  1  0.078600  0.121100  0.611800  1.0  0.102
  H  H52  1  0.142500  0.113700  0.538700  1.0  0.099
  H  H53  1  0.985700  0.657000  0.933900  1.0  0.0976
  H  H54  1  0.932100  0.523500  0.870400  1.0  0.0783
  H  H55  1  0.820700  0.662700  0.853100  1.0  0.0963
  H  H56  1  0.767000  0.528900  0.789100  1.0  0.0948
  H  H57  1  0.161000  0.702000  0.731000  1.0  0.3141
  H  H58  1  0.226800  0.645000  0.691000  1.0  0.2676
  H  H59  1  0.301200  0.433500  0.464700  1.0  0.0985
  H  H60  1  0.365400  0.490200  0.420400  1.0  0.1072
  H  H61  1  0.314300  0.356300  0.351900  1.0  0.097
  H  H62  1  0.827300  0.522000  0.271600  1.0  0.1266
  H  H63  1  0.793300  0.620400  0.256700  1.0  0.0997
  H  H64  1  0.764000  0.584600  0.336900  1.0  0.1192
  H  H65  1  0.007400  0.503500  0.257900  1.0  0.1032
  H  H66  1  0.953300  0.369600  0.194000  1.0  0.0962
  H  H67  1  0.084100  0.834100  0.621900  1.0  0.1016
  H  H68  1  0.032300  0.930100  0.630900  1.0  0.1185
  H  H69  1  0.104300  0.904900  0.565300  1.0  0.1079
  H  H70  1  0.813000  0.775500  0.332700  1.0  0.1151
  H  H71  1  0.921400  0.878900  0.388200  1.0  0.1019
  H  H72  1  0.857500  0.886300  0.461300  1.0  0.0995
  H  H73  1  0.014300  0.343000  0.066100  1.0  0.0993
  H  H74  1  0.067900  0.476500  0.129600  1.0  0.0783
  H  H75  1  0.179300  0.337300  0.146900  1.0  0.0969
  H  H76  1  0.233000  0.471100  0.210900  1.0  0.0945
  H  H77  1  0.839000  0.298000  0.269000  1.0  0.3177
  H  H78  1  0.773200  0.355000  0.309000  1.0  0.2679
  C  C79  1  0.293100  0.819800  0.216300  1.0  -0.3135
  C  C80  1  0.079500  0.799100  0.231200  1.0  -0.3104
  C  C81  1  0.413600  0.680100  0.658300  1.0  0.6467
  C  C82  1  0.381800  0.750000  0.062500  1.0  -0.0935
  C  C83  1  0.282700  0.788400  0.409800  1.0  -0.3213
  C  C84  1  0.380400  0.241900  0.611600  1.0  -0.1554
  C  C85  1  0.433400  0.712800  0.984400  1.0  0.6674
  C  C86  1  0.324000  0.205700  0.490000  1.0  -0.0704
  C  C87  1  0.279800  0.091600  0.402300  1.0  -0.0496
  C  C88  1  0.404900  0.863800  0.136800  1.0  -0.0664
  C  C89  1  0.291800  0.011100  0.433600  1.0  -0.3085
  C  C90  1  0.905500  0.643000  0.123000  1.0  -0.094
  C  C91  1  0.388900  0.780900  0.447100  1.0  -0.0336
  C  C92  1  0.901100  0.815000  0.132000  1.0  -0.0679
  C  C93  1  0.362100  0.898300  0.214400  1.0  -0.0331
  C  C94  1  0.260900  0.722100  0.533600  1.0  -0.0708
  C  C95  1  0.718700  0.656000  0.021700  1.0  0.7221
  C  C96  1  0.391800  0.163400  0.644200  1.0  -0.0289
  C  C97  1  0.430000  0.364500  0.709400  1.0  0.685
  C  C98  1  0.844400  0.706000  0.093800  1.0  -0.1053
  C  C99  1  0.348600  0.049900  0.556700  1.0  -0.0252
  C  C100  1  0.016800  0.861800  0.202200  1.0  -0.038
  C  C101  1  0.367400  0.716900  0.571300  1.0  -0.1282
  C  C102  1  0.430600  0.745800  0.526700  1.0  -0.0313
  C  C103  1  0.313100  0.670800  0.062700  1.0  -0.0501
  C  C104  1  0.268500  0.705500  0.138100  1.0  -0.0138
  C  C105  1  0.219900  0.757700  0.454500  1.0  -0.0702
  C  C106  1  0.020900  0.688300  0.188000  1.0  -0.0792
  C  C107  1  0.706900  0.180200  0.783700  1.0  -0.314
  C  C108  1  0.920500  0.200900  0.768800  1.0  -0.3081
  C  C109  1  0.586400  0.319900  0.341700  1.0  0.6476
  C  C110  1  0.618200  0.250000  0.937500  1.0  -0.0938
  C  C111  1  0.717300  0.211600  0.590200  1.0  -0.3222
  C  C112  1  0.619600  0.758100  0.388400  1.0  -0.1565
  C  C113  1  0.566600  0.287200  0.015600  1.0  0.6661
  C  C114  1  0.676000  0.794300  0.510000  1.0  -0.0706
  C  C115  1  0.720200  0.908400  0.597700  1.0  -0.0516
  C  C116  1  0.595100  0.136200  0.863200  1.0  -0.0719
  C  C117  1  0.708200  0.988900  0.566400  1.0  -0.3097
  C  C118  1  0.094500  0.357000  0.877000  1.0  -0.0943
  C  C119  1  0.611100  0.219100  0.552900  1.0  -0.0326
  C  C120  1  0.098900  0.185000  0.868000  1.0  -0.0689
  C  C121  1  0.637900  0.101700  0.785600  1.0  -0.0318
  C  C122  1  0.739100  0.277900  0.466400  1.0  -0.0722
  C  C123  1  0.281300  0.344000  0.978300  1.0  0.7222
  C  C124  1  0.608200  0.836600  0.355800  1.0  -0.028
  C  C125  1  0.570000  0.635500  0.290600  1.0  0.6841
  C  C126  1  0.155600  0.294000  0.906200  1.0  -0.1037
  C  C127  1  0.651400  0.950100  0.443300  1.0  -0.0242
  C  C128  1  0.983200  0.138200  0.797800  1.0  -0.0397
  C  C129  1  0.632600  0.283100  0.428700  1.0  -0.1295
  C  C130  1  0.569400  0.254200  0.473300  1.0  -0.0297
  C  C131  1  0.686900  0.329200  0.937300  1.0  -0.0522
  C  C132  1  0.731500  0.294500  0.861900  1.0  -0.0161
  C  C133  1  0.780100  0.242300  0.545500  1.0  -0.0705
  C  C134  1  0.979100  0.311700  0.812000  1.0  -0.0791
  C  C135  1  0.071100  0.321300  0.579000  1.0  0.5811
  C  C136  1  0.883700  0.561800  0.664200  1.0  0.5442
  C  C137  1  0.696500  0.573600  0.605800  1.0  -0.1391
  C  C138  1  0.181100  0.405900  0.687900  1.0  -0.3652
  C  C139  1  0.977600  0.567400  0.768600  1.0  -0.2451
  C  C140  1  0.949000  0.128800  0.419600  1.0  -0.164
  C  C141  1  0.120300  0.163700  0.592800  1.0  -0.1461
  C  C142  1  0.935300  0.585600  0.855900  1.0  -0.1557
  C  C143  1  0.822900  0.589600  0.801000  1.0  0.0007
  C  C144  1  0.928900  0.678700  0.421000  1.0  0.5796
  C  C145  1  0.116300  0.438200  0.335800  1.0  0.5422
  C  C146  1  0.303500  0.426400  0.394200  1.0  -0.1403
  C  C147  1  0.818900  0.594100  0.312100  1.0  -0.3656
  C  C148  1  0.022400  0.432600  0.231400  1.0  -0.247
  C  C149  1  0.051000  0.871200  0.580400  1.0  -0.1615
  C  C150  1  0.879700  0.836300  0.407200  1.0  -0.1459
  C  C151  1  0.064700  0.414400  0.144100  1.0  -0.1533
  C  C152  1  0.177100  0.410400  0.199000  1.0  0.0014
  N  N153  1  0.800300  0.574500  0.686000  1.0  -0.0924
  N  N154  1  0.050200  0.211200  0.534100  1.0  -0.1112
  N  N155  1  0.199700  0.425500  0.314000  1.0  -0.0937
  N  N156  1  0.949800  0.788800  0.465900  1.0  -0.1119
  O  O157  1  0.421750  0.608280  0.930780  1.0  -0.6603
  O  O158  1  0.483300  0.780970  0.971600  1.0  -0.615
  O  O159  1  0.435000  0.434830  0.678600  1.0  -0.5773
  O  O160  1  0.671850  0.597000  0.046400  1.0  -0.645
  O  O161  1  0.351840  0.647900  0.691800  1.0  -0.6849
  O  O162  1  0.673770  0.679100  0.942900  1.0  -0.5888
  O  O163  1  0.511910  0.681600  0.695800  1.0  -0.5768
  O  O164  1  0.461400  0.386200  0.813600  1.0  -0.639
  O  O165  1  0.578250  0.391720  0.069220  1.0  -0.6589
  O  O166  1  0.516700  0.219030  0.028400  1.0  -0.6158
  O  O167  1  0.565000  0.565170  0.321400  1.0  -0.5758
  O  O168  1  0.328150  0.403000  0.953600  1.0  -0.6454
  O  O169  1  0.648160  0.352100  0.308200  1.0  -0.687
  O  O170  1  0.326230  0.320900  0.057100  1.0  -0.5884
  O  O171  1  0.488090  0.318400  0.304200  1.0  -0.5801
  O  O172  1  0.538600  0.613800  0.186400  1.0  -0.6381
  O  O173  1  0.153450  0.626300  0.680400  1.0  -0.7491
  O  O174  1  0.998900  0.352600  0.528000  1.0  -0.6102
  O  O175  1  0.884600  0.552200  0.573500  1.0  -0.61
  O  O176  1  0.846550  0.373700  0.319600  1.0  -0.75
  O  O177  1  0.001100  0.647400  0.472000  1.0  -0.609
  O  O178  1  0.115400  0.447800  0.426500  1.0  -0.6121
