# generated using pymatgen
data_Zn2SiH16(C7O2)4
_symmetry_space_group_name_H-M   'P 1'
_cell_length_a   12.70600000
_cell_length_b   12.70600000
_cell_length_c   23.81700000
_cell_angle_alpha   90.00000000
_cell_angle_beta   90.00000000
_cell_angle_gamma   90.00000000
_symmetry_Int_Tables_number   1
_chemical_formula_structural   Zn2SiH16(C7O2)4
_chemical_formula_sum   'Zn4 Si2 H32 C56 O16'
_cell_volume   3845.07449821
_cell_formula_units_Z   2
loop_
 _symmetry_equiv_pos_site_id
 _symmetry_equiv_pos_as_xyz
  1  'x, y, z'
loop_
 _atom_site_type_symbol
 _atom_site_label
 _atom_site_symmetry_multiplicity
 _atom_site_fract_x
 _atom_site_fract_y
 _atom_site_fract_z
 _atom_site_occupancy
 _atom_site_charge
  Zn  Zn1  1  0.617580  0.000000  0.000000  1.0  1.1544
  Zn  Zn2  1  0.382420  0.000000  0.000000  1.0  1.1543
  Zn  Zn3  1  0.000000  0.617580  0.500000  1.0  1.1528
  Zn  Zn4  1  0.000000  0.382420  0.500000  1.0  1.1516
  Si  Si5  1  0.500000  0.500000  0.750000  1.0  0.888
  Si  Si6  1  0.500000  0.500000  0.250000  1.0  0.888
  H  H7  1  0.659100  0.633600  0.804400  1.0  0.0903
  H  H8  1  0.657600  0.764500  0.871400  1.0  0.1053
  H  H9  1  0.340900  0.366400  0.804400  1.0  0.0901
  H  H10  1  0.342400  0.235500  0.871400  1.0  0.1051
  H  H11  1  0.366400  0.659100  0.304400  1.0  0.0908
  H  H12  1  0.235500  0.657600  0.371400  1.0  0.1052
  H  H13  1  0.633600  0.340900  0.304400  1.0  0.0901
  H  H14  1  0.764500  0.342400  0.371400  1.0  0.1053
  H  H15  1  0.340900  0.633600  0.195600  1.0  0.0898
  H  H16  1  0.342400  0.764500  0.128600  1.0  0.1053
  H  H17  1  0.659100  0.366400  0.195600  1.0  0.09
  H  H18  1  0.657600  0.235500  0.128600  1.0  0.1055
  H  H19  1  0.633600  0.659100  0.695600  1.0  0.0905
  H  H20  1  0.764500  0.657600  0.628600  1.0  0.1056
  H  H21  1  0.366400  0.340900  0.695600  1.0  0.0904
  H  H22  1  0.235500  0.342400  0.628600  1.0  0.1054
  H  H23  1  0.340900  0.366400  0.195600  1.0  0.0899
  H  H24  1  0.342400  0.235500  0.128600  1.0  0.1051
  H  H25  1  0.659100  0.633600  0.195600  1.0  0.09
  H  H26  1  0.657600  0.764500  0.128600  1.0  0.1059
  H  H27  1  0.633600  0.340900  0.695600  1.0  0.09
  H  H28  1  0.764500  0.342400  0.628600  1.0  0.1056
  H  H29  1  0.366400  0.659100  0.695600  1.0  0.0907
  H  H30  1  0.235500  0.657600  0.628600  1.0  0.1055
  H  H31  1  0.659100  0.366400  0.804400  1.0  0.0902
  H  H32  1  0.657600  0.235500  0.871400  1.0  0.1052
  H  H33  1  0.340900  0.633600  0.804400  1.0  0.0899
  H  H34  1  0.342400  0.764500  0.871400  1.0  0.1049
  H  H35  1  0.366400  0.340900  0.304400  1.0  0.0903
  H  H36  1  0.235500  0.342400  0.371400  1.0  0.1052
  H  H37  1  0.633600  0.659100  0.304400  1.0  0.0908
  H  H38  1  0.764500  0.657600  0.371400  1.0  0.1053
  C  C39  1  0.593690  0.659270  0.818070  1.0  -0.0154
  C  C40  1  0.592770  0.736920  0.858120  1.0  -0.0576
  C  C41  1  0.406310  0.340730  0.818070  1.0  -0.0148
  C  C42  1  0.407230  0.263080  0.858120  1.0  -0.0563
  C  C43  1  0.340730  0.593690  0.318070  1.0  -0.0164
  C  C44  1  0.263080  0.592770  0.358120  1.0  -0.0581
  C  C45  1  0.659270  0.406310  0.318070  1.0  -0.0155
  C  C46  1  0.736920  0.407230  0.358120  1.0  -0.0588
  C  C47  1  0.406310  0.659270  0.181930  1.0  -0.0153
  C  C48  1  0.407230  0.736920  0.141880  1.0  -0.0566
  C  C49  1  0.593690  0.340730  0.181930  1.0  -0.0144
  C  C50  1  0.592770  0.263080  0.141880  1.0  -0.058
  C  C51  1  0.659270  0.593690  0.681930  1.0  -0.0168
  C  C52  1  0.736920  0.592770  0.641880  1.0  -0.0581
  C  C53  1  0.340730  0.406310  0.681930  1.0  -0.015
  C  C54  1  0.263080  0.407230  0.641880  1.0  -0.0585
  C  C55  1  0.406310  0.340730  0.181930  1.0  -0.0148
  C  C56  1  0.407230  0.263080  0.141880  1.0  -0.0567
  C  C57  1  0.593690  0.659270  0.181930  1.0  -0.0147
  C  C58  1  0.592770  0.736920  0.141880  1.0  -0.0581
  C  C59  1  0.659270  0.406310  0.681930  1.0  -0.0159
  C  C60  1  0.736920  0.407230  0.641880  1.0  -0.0591
  C  C61  1  0.340730  0.593690  0.681930  1.0  -0.0166
  C  C62  1  0.263080  0.592770  0.641880  1.0  -0.0581
  C  C63  1  0.593690  0.340730  0.818070  1.0  -0.0148
  C  C64  1  0.592770  0.263080  0.858120  1.0  -0.0572
  C  C65  1  0.406310  0.659270  0.818070  1.0  -0.0152
  C  C66  1  0.407230  0.736920  0.858120  1.0  -0.0566
  C  C67  1  0.340730  0.406310  0.318070  1.0  -0.0148
  C  C68  1  0.263080  0.407230  0.358120  1.0  -0.0581
  C  C69  1  0.659270  0.593690  0.318070  1.0  -0.0162
  C  C70  1  0.736920  0.592770  0.358120  1.0  -0.0579
  C  C71  1  0.500000  0.617430  0.797110  1.0  -0.3492
  C  C72  1  0.500000  0.775500  0.879390  1.0  -0.1237
  C  C73  1  0.500000  0.858800  0.923640  1.0  0.7214
  C  C74  1  0.500000  0.382570  0.797110  1.0  -0.3494
  C  C75  1  0.500000  0.224500  0.879390  1.0  -0.1235
  C  C76  1  0.500000  0.141200  0.923640  1.0  0.7209
  C  C77  1  0.382570  0.500000  0.297110  1.0  -0.3477
  C  C78  1  0.224500  0.500000  0.379390  1.0  -0.1259
  C  C79  1  0.141200  0.500000  0.423640  1.0  0.7216
  C  C80  1  0.617430  0.500000  0.297110  1.0  -0.3492
  C  C81  1  0.775500  0.500000  0.379390  1.0  -0.1259
  C  C82  1  0.858800  0.500000  0.423640  1.0  0.7215
  C  C83  1  0.500000  0.617430  0.202890  1.0  -0.3485
  C  C84  1  0.500000  0.775500  0.120610  1.0  -0.1238
  C  C85  1  0.500000  0.858800  0.076360  1.0  0.7206
  C  C86  1  0.500000  0.382570  0.202890  1.0  -0.3489
  C  C87  1  0.500000  0.224500  0.120610  1.0  -0.1246
  C  C88  1  0.500000  0.141200  0.076360  1.0  0.7201
  C  C89  1  0.617430  0.500000  0.702890  1.0  -0.349
  C  C90  1  0.775500  0.500000  0.620610  1.0  -0.1262
  C  C91  1  0.858800  0.500000  0.576360  1.0  0.7208
  C  C92  1  0.382570  0.500000  0.702890  1.0  -0.3472
  C  C93  1  0.224500  0.500000  0.620610  1.0  -0.1263
  C  C94  1  0.141200  0.500000  0.576360  1.0  0.721
  O  O95  1  0.588490  0.889560  0.941400  1.0  -0.645
  O  O96  1  0.411510  0.110440  0.941400  1.0  -0.6453
  O  O97  1  0.110440  0.588490  0.441400  1.0  -0.6459
  O  O98  1  0.889560  0.411510  0.441400  1.0  -0.6446
  O  O99  1  0.411510  0.889560  0.058600  1.0  -0.6455
  O  O100  1  0.588490  0.110440  0.058600  1.0  -0.6453
  O  O101  1  0.889560  0.588490  0.558600  1.0  -0.6457
  O  O102  1  0.110440  0.411510  0.558600  1.0  -0.646
  O  O103  1  0.411510  0.110440  0.058600  1.0  -0.6452
  O  O104  1  0.588490  0.889560  0.058600  1.0  -0.645
  O  O105  1  0.889560  0.411510  0.558600  1.0  -0.6448
  O  O106  1  0.110440  0.588490  0.558600  1.0  -0.6459
  O  O107  1  0.588490  0.110440  0.941400  1.0  -0.6451
  O  O108  1  0.411510  0.889560  0.941400  1.0  -0.6456
  O  O109  1  0.110440  0.411510  0.441400  1.0  -0.6457
  O  O110  1  0.889560  0.588490  0.441400  1.0  -0.6457
