# generated using pymatgen
data_Cd3Si2H32(C7O2)8
_symmetry_space_group_name_H-M   'P 1'
_cell_length_a   13.87500000
_cell_length_b   14.07200000
_cell_length_c   14.20800000
_cell_angle_alpha   116.30000000
_cell_angle_beta   109.72400000
_cell_angle_gamma   101.42800000
_symmetry_Int_Tables_number   1
_chemical_formula_structural   Cd3Si2H32(C7O2)8
_chemical_formula_sum   'Cd3 Si2 H32 C56 O16'
_cell_volume   2133.12653709
_cell_formula_units_Z   1
loop_
 _symmetry_equiv_pos_site_id
 _symmetry_equiv_pos_as_xyz
  1  'x, y, z'
loop_
 _atom_site_type_symbol
 _atom_site_label
 _atom_site_symmetry_multiplicity
 _atom_site_fract_x
 _atom_site_fract_y
 _atom_site_fract_z
 _atom_site_occupancy
 _atom_site_charge
  Cd  Cd1  1  0.705310  0.873760  0.886120  1.0  1.088
  Cd  Cd2  1  0.294690  0.126240  0.113880  1.0  1.0878
  Cd  Cd3  1  0.000000  0.000000  0.000000  1.0  1.124
  Si  Si4  1  0.989880  0.653960  0.389090  1.0  0.9192
  Si  Si5  1  0.010120  0.346040  0.610910  1.0  0.9206
  H  H6  1  0.769000  0.456900  0.189700  1.0  0.1075
  H  H7  1  0.305700  0.739900  0.745400  1.0  0.1102
  H  H8  1  0.815900  0.526300  0.420200  1.0  0.0993
  H  H9  1  0.705100  0.255900  0.065300  1.0  0.12
  H  H10  1  0.005900  0.866700  0.576300  1.0  0.1096
  H  H11  1  0.743400  0.579600  0.552600  1.0  0.1181
  H  H12  1  0.935800  0.919200  0.710100  1.0  0.1115
  H  H13  1  0.120800  0.698100  0.623800  1.0  0.0956
  H  H14  1  0.086300  0.484000  0.340800  1.0  0.0984
  H  H15  1  0.775500  0.804300  0.187200  1.0  0.1192
  H  H16  1  0.826900  0.742100  0.315200  1.0  0.0994
  H  H17  1  0.207500  0.721100  0.389100  1.0  0.101
  H  H18  1  0.078400  0.704500  0.246100  1.0  0.122
  H  H19  1  0.034500  0.779200  0.128400  1.0  0.1209
  H  H20  1  0.022700  0.283700  0.212000  1.0  0.1061
  H  H21  1  0.394200  0.769600  0.514300  1.0  0.1212
  H  H22  1  0.231000  0.543100  0.810300  1.0  0.1073
  H  H23  1  0.694300  0.260100  0.254600  1.0  0.1102
  H  H24  1  0.184100  0.473700  0.579800  1.0  0.0994
  H  H25  1  0.294900  0.744100  0.934700  1.0  0.1194
  H  H26  1  0.994100  0.133300  0.423700  1.0  0.1096
  H  H27  1  0.256600  0.420400  0.447400  1.0  0.1185
  H  H28  1  0.064200  0.080800  0.289900  1.0  0.1116
  H  H29  1  0.879200  0.301900  0.376200  1.0  0.0959
  H  H30  1  0.913700  0.516000  0.659200  1.0  0.0987
  H  H31  1  0.224500  0.195700  0.812800  1.0  0.1204
  H  H32  1  0.173100  0.257900  0.684800  1.0  0.1004
  H  H33  1  0.792500  0.278900  0.610900  1.0  0.1013
  H  H34  1  0.921600  0.295500  0.753900  1.0  0.1222
  H  H35  1  0.965500  0.220800  0.871600  1.0  0.121
  H  H36  1  0.977300  0.716300  0.788000  1.0  0.1055
  H  H37  1  0.605800  0.230400  0.485700  1.0  0.1204
  C  C38  1  0.820900  0.422100  0.196300  1.0  -0.0226
  C  C39  1  0.919800  0.689900  0.484500  1.0  -0.3467
  C  C40  1  0.961400  0.721500  0.300600  1.0  -0.1414
  C  C41  1  0.143100  0.705500  0.492700  1.0  -0.2707
  C  C42  1  0.833900  0.755300  0.645500  1.0  -0.1237
  C  C43  1  0.489600  0.797200  0.726500  1.0  0.7054
  C  C44  1  0.791000  0.788500  0.734300  1.0  0.684
  C  C45  1  0.286500  0.738000  0.673600  1.0  -0.021
  C  C46  1  0.368300  0.761100  0.643100  1.0  -0.1188
  C  C47  1  0.934800  0.492600  0.281200  1.0  -0.3152
  C  C48  1  0.866100  0.834700  0.058700  1.0  0.7243
  C  C49  1  0.901300  0.800400  0.147000  1.0  -0.135
  C  C50  1  0.840800  0.606300  0.479000  1.0  -0.0266
  C  C51  1  0.782700  0.302200  0.121400  1.0  -0.061
  C  C52  1  0.953500  0.807900  0.571900  1.0  -0.0387
  C  C53  1  0.797600  0.637900  0.558000  1.0  -0.0441
  C  C54  1  0.911300  0.839300  0.651200  1.0  -0.0076
  C  C55  1  0.175600  0.711900  0.600000  1.0  -0.0322
  C  C56  1  0.008500  0.438300  0.285000  1.0  -0.0185
  C  C57  1  0.839900  0.787200  0.201500  1.0  -0.0786
  C  C58  1  0.870600  0.749200  0.277600  1.0  -0.0419
  C  C59  1  0.226900  0.726400  0.462600  1.0  -0.0128
  C  C60  1  0.018600  0.728900  0.238400  1.0  -0.0318
  C  C61  1  0.990900  0.770900  0.165500  1.0  -0.066
  C  C62  1  0.857600  0.249600  0.128400  1.0  -0.1494
  C  C63  1  0.970500  0.318400  0.208700  1.0  -0.0222
  C  C64  1  0.338800  0.754800  0.536900  1.0  -0.0749
  C  C65  1  0.819500  0.119400  0.055400  1.0  0.7188
  C  C66  1  0.179100  0.577900  0.803700  1.0  -0.0227
  C  C67  1  0.080200  0.310100  0.515500  1.0  -0.3459
  C  C68  1  0.038600  0.278500  0.699400  1.0  -0.1416
  C  C69  1  0.856900  0.294500  0.507300  1.0  -0.2668
  C  C70  1  0.166100  0.244700  0.354500  1.0  -0.1246
  C  C71  1  0.510400  0.202800  0.273500  1.0  0.7049
  C  C72  1  0.209000  0.211500  0.265700  1.0  0.6832
  C  C73  1  0.713500  0.262000  0.326400  1.0  -0.0211
  C  C74  1  0.631700  0.238900  0.356900  1.0  -0.1185
  C  C75  1  0.065200  0.507400  0.718800  1.0  -0.3157
  C  C76  1  0.133900  0.165300  0.941300  1.0  0.724
  C  C77  1  0.098700  0.199600  0.853000  1.0  -0.1358
  C  C78  1  0.159200  0.393700  0.521000  1.0  -0.0283
  C  C79  1  0.217300  0.697800  0.878600  1.0  -0.0605
  C  C80  1  0.046500  0.192100  0.428100  1.0  -0.0371
  C  C81  1  0.202400  0.362100  0.442000  1.0  -0.0445
  C  C82  1  0.088700  0.160700  0.348800  1.0  -0.0083
  C  C83  1  0.824400  0.288100  0.400000  1.0  -0.0335
  C  C84  1  0.991500  0.561700  0.715000  1.0  -0.0187
  C  C85  1  0.160100  0.212800  0.798500  1.0  -0.0781
  C  C86  1  0.129400  0.250800  0.722400  1.0  -0.0416
  C  C87  1  0.773100  0.273600  0.537400  1.0  -0.0144
  C  C88  1  0.981400  0.271100  0.761600  1.0  -0.033
  C  C89  1  0.009100  0.229100  0.834500  1.0  -0.0661
  C  C90  1  0.142400  0.750400  0.871600  1.0  -0.1493
  C  C91  1  0.029500  0.681600  0.791300  1.0  -0.0231
  C  C92  1  0.661200  0.245200  0.463100  1.0  -0.0751
  C  C93  1  0.180500  0.880600  0.944600  1.0  0.7181
  O  O94  1  0.716800  0.712900  0.724900  1.0  -0.6031
  O  O95  1  0.833500  0.896900  0.818000  1.0  -0.6628
  O  O96  1  0.563100  0.845300  0.711000  1.0  -0.5754
  O  O97  1  0.512500  0.779600  0.809700  1.0  -0.6029
  O  O98  1  0.767700  0.829400  0.019200  1.0  -0.5921
  O  O99  1  0.716300  0.056500  0.988200  1.0  -0.5896
  O  O100  1  0.937500  0.863100  0.029400  1.0  -0.6631
  O  O101  1  0.893000  0.080100  0.067400  1.0  -0.6716
  O  O102  1  0.283200  0.287100  0.275100  1.0  -0.6048
  O  O103  1  0.166500  0.103100  0.182000  1.0  -0.6641
  O  O104  1  0.436900  0.154700  0.289000  1.0  -0.5736
  O  O105  1  0.487500  0.220400  0.190300  1.0  -0.602
  O  O106  1  0.232300  0.170600  0.980800  1.0  -0.5921
  O  O107  1  0.283700  0.943500  0.011800  1.0  -0.5911
  O  O108  1  0.062500  0.136900  0.970600  1.0  -0.661
  O  O109  1  0.107000  0.919900  0.932600  1.0  -0.6693
