# generated using pymatgen
data_Zn5Si2H34(C28O9)2
_symmetry_space_group_name_H-M   'P 1'
_cell_length_a   13.93500000
_cell_length_b   14.19600000
_cell_length_c   14.67080000
_cell_angle_alpha   107.98800000
_cell_angle_beta   113.73500000
_cell_angle_gamma   100.29800000
_symmetry_Int_Tables_number   1
_chemical_formula_structural   Zn5Si2H34(C28O9)2
_chemical_formula_sum   'Zn5 Si2 H34 C56 O18'
_cell_volume   2368.83841245
_cell_formula_units_Z   1
loop_
 _symmetry_equiv_pos_site_id
 _symmetry_equiv_pos_as_xyz
  1  'x, y, z'
loop_
 _atom_site_type_symbol
 _atom_site_label
 _atom_site_symmetry_multiplicity
 _atom_site_fract_x
 _atom_site_fract_y
 _atom_site_fract_z
 _atom_site_occupancy
 _atom_site_charge
  Zn  Zn1  1  0.471250  0.796710  0.556550  1.0  1.067
  Zn  Zn2  1  0.696700  0.004160  0.735800  1.0  1.1292
  Zn  Zn3  1  0.528750  0.203290  0.443450  1.0  1.0671
  Zn  Zn4  1  0.303300  0.995840  0.264200  1.0  1.1278
  Zn  Zn5  1  0.500000  0.000000  0.500000  1.0  1.164
  Si  Si6  1  0.763830  0.634310  0.120000  1.0  0.8802
  Si  Si7  1  0.236170  0.365690  0.880000  1.0  0.8805
  H  H8  1  0.114300  0.758800  0.458500  1.0  0.1134
  H  H9  1  0.920800  0.691500  0.346000  1.0  0.0999
  H  H10  1  0.960200  0.707700  0.091100  1.0  0.1069
  H  H11  1  0.151700  0.781400  0.204600  1.0  0.0905
  H  H12  1  0.526700  0.616400  0.755700  1.0  0.11
  H  H13  1  0.589100  0.550700  0.887300  1.0  0.0793
  H  H14  1  0.833800  0.832800  0.103800  1.0  0.0975
  H  H15  1  0.782200  0.895200  0.969000  1.0  0.1123
  H  H16  1  0.521500  0.258100  0.917800  1.0  0.0952
  H  H17  1  0.561700  0.439300  0.011200  1.0  0.096
  H  H18  1  0.883600  0.497000  0.079300  1.0  0.0948
  H  H19  1  0.840900  0.317800  0.978100  1.0  0.1021
  H  H20  1  0.570900  0.614700  0.336900  1.0  0.1088
  H  H21  1  0.642100  0.544500  0.222100  1.0  0.0945
  H  H22  1  0.745400  0.831100  0.223900  1.0  0.0967
  H  H23  1  0.677400  0.900200  0.338800  1.0  0.1091
  H  H24  1  0.519000  0.987000  0.683000  1.0  0.4171
  H  H25  1  0.885700  0.241200  0.541500  1.0  0.113
  H  H26  1  0.079200  0.308500  0.654000  1.0  0.0999
  H  H27  1  0.039800  0.292300  0.908900  1.0  0.1063
  H  H28  1  0.848300  0.218600  0.795400  1.0  0.0911
  H  H29  1  0.473300  0.383600  0.244300  1.0  0.1102
  H  H30  1  0.410900  0.449300  0.112700  1.0  0.0787
  H  H31  1  0.166200  0.167200  0.896200  1.0  0.0978
  H  H32  1  0.217800  0.104800  0.031000  1.0  0.1119
  H  H33  1  0.478500  0.741900  0.082200  1.0  0.0951
  H  H34  1  0.438300  0.560700  0.988800  1.0  0.0952
  H  H35  1  0.116400  0.503000  0.920700  1.0  0.0945
  H  H36  1  0.159100  0.682200  0.021900  1.0  0.1015
  H  H37  1  0.429100  0.385300  0.663100  1.0  0.1083
  H  H38  1  0.357900  0.455500  0.777900  1.0  0.0952
  H  H39  1  0.254600  0.168900  0.776100  1.0  0.0956
  H  H40  1  0.322600  0.099800  0.661200  1.0  0.1084
  H  H41  1  0.481000  0.013000  0.317000  1.0  0.4161
  C  C42  1  0.277500  0.815700  0.412800  1.0  0.7085
  C  C43  1  0.154000  0.775800  0.342800  1.0  -0.1154
  C  C44  1  0.083200  0.749500  0.384200  1.0  -0.089
  C  C45  1  0.967500  0.709800  0.317000  1.0  -0.0122
  C  C46  1  0.919400  0.696400  0.208800  1.0  -0.3459
  C  C47  1  0.991200  0.720400  0.166300  1.0  -0.0335
  C  C48  1  0.105100  0.761800  0.233200  1.0  -0.0596
  C  C49  1  0.616100  0.806200  0.764500  1.0  0.7363
  C  C50  1  0.648900  0.763000  0.850300  1.0  -0.1381
  C  C51  1  0.590500  0.659800  0.825700  1.0  -0.089
  C  C52  1  0.626900  0.621800  0.905000  1.0  -0.0194
  C  C53  1  0.717900  0.685000  0.010700  1.0  -0.3547
  C  C54  1  0.772800  0.787700  0.032500  1.0  -0.0294
  C  C55  1  0.741000  0.825800  0.953100  1.0  -0.0494
  C  C56  1  0.648200  0.157600  0.864700  1.0  0.6752
  C  C57  1  0.676500  0.270500  0.934400  1.0  -0.141
  C  C58  1  0.594300  0.306700  0.947700  1.0  -0.0794
  C  C59  1  0.619100  0.415000  0.005300  1.0  -0.0188
  C  C60  1  0.727500  0.488300  0.054500  1.0  -0.3418
  C  C61  1  0.809100  0.449600  0.044600  1.0  -0.0113
  C  C62  1  0.783700  0.342100  0.984600  1.0  -0.044
  C  C63  1  0.570700  0.812000  0.421200  1.0  0.7086
  C  C64  1  0.617200  0.765000  0.349000  1.0  -0.1321
  C  C65  1  0.606600  0.658600  0.314000  1.0  -0.0607
  C  C66  1  0.648800  0.616800  0.245000  1.0  -0.0209
  C  C67  1  0.700500  0.679300  0.209100  1.0  -0.3405
  C  C68  1  0.710100  0.786500  0.246500  1.0  -0.0191
  C  C69  1  0.669500  0.827600  0.314700  1.0  -0.0379
  C  C70  1  0.722500  0.184300  0.587200  1.0  0.7083
  C  C71  1  0.846000  0.224200  0.657200  1.0  -0.1153
  C  C72  1  0.916800  0.250500  0.615800  1.0  -0.0888
  C  C73  1  0.032500  0.290200  0.683000  1.0  -0.0108
  C  C74  1  0.080600  0.303600  0.791200  1.0  -0.3466
  C  C75  1  0.008800  0.279600  0.833700  1.0  -0.0312
  C  C76  1  0.894900  0.238200  0.766800  1.0  -0.0616
  C  C77  1  0.383900  0.193800  0.235500  1.0  0.7373
  C  C78  1  0.351100  0.237000  0.149700  1.0  -0.1386
  C  C79  1  0.409500  0.340200  0.174300  1.0  -0.0906
  C  C80  1  0.373100  0.378200  0.095000  1.0  -0.0202
  C  C81  1  0.282100  0.315000  0.989300  1.0  -0.3551
  C  C82  1  0.227200  0.212300  0.967500  1.0  -0.0257
  C  C83  1  0.259000  0.174200  0.046900  1.0  -0.0494
  C  C84  1  0.351800  0.842400  0.135300  1.0  0.6749
  C  C85  1  0.323500  0.729500  0.065600  1.0  -0.1411
  C  C86  1  0.405700  0.693300  0.052300  1.0  -0.0782
  C  C87  1  0.380900  0.585000  0.994700  1.0  -0.0195
  C  C88  1  0.272500  0.511700  0.945500  1.0  -0.3414
  C  C89  1  0.190900  0.550400  0.955400  1.0  -0.0139
  C  C90  1  0.216300  0.657900  0.015400  1.0  -0.0465
  C  C91  1  0.429300  0.188000  0.578800  1.0  0.7076
  C  C92  1  0.382800  0.235000  0.651000  1.0  -0.1312
  C  C93  1  0.393400  0.341400  0.686000  1.0  -0.0612
  C  C94  1  0.351200  0.383200  0.755000  1.0  -0.0194
  C  C95  1  0.299500  0.320700  0.790900  1.0  -0.3399
  C  C96  1  0.289900  0.213500  0.753500  1.0  -0.0167
  C  C97  1  0.330500  0.172400  0.685300  1.0  -0.0388
  O  O98  1  0.314300  0.780500  0.486600  1.0  -0.6217
  O  O99  1  0.336200  0.877300  0.395000  1.0  -0.6231
  O  O100  1  0.687700  0.889500  0.786100  1.0  -0.6492
  O  O101  1  0.524900  0.755700  0.678900  1.0  -0.5927
  O  O102  1  0.729600  0.135800  0.851200  1.0  -0.6448
  O  O103  1  0.552300  0.092800  0.822200  1.0  -0.5559
  O  O104  1  0.534900  0.756600  0.460500  1.0  -0.6275
  O  O105  1  0.573000  0.904900  0.437400  1.0  -0.6123
  O  O106  1  0.535800  0.955100  0.625600  1.0  -0.9996
  O  O107  1  0.685700  0.219500  0.513400  1.0  -0.6214
  O  O108  1  0.663800  0.122700  0.605000  1.0  -0.6222
  O  O109  1  0.312300  0.110500  0.213900  1.0  -0.6428
  O  O110  1  0.475100  0.244300  0.321100  1.0  -0.5934
  O  O111  1  0.270400  0.864200  0.148800  1.0  -0.6462
  O  O112  1  0.447700  0.907200  0.177800  1.0  -0.5558
  O  O113  1  0.465100  0.243400  0.539500  1.0  -0.6299
  O  O114  1  0.427000  0.095100  0.562600  1.0  -0.6129
  O  O115  1  0.464200  0.044900  0.374400  1.0  -0.9989
