# generated using pymatgen
data_Zn3Si2H34(C7O2)8
_symmetry_space_group_name_H-M   'P 1'
_cell_length_a   13.84430000
_cell_length_b   14.56150000
_cell_length_c   23.96590000
_cell_angle_alpha   79.22990000
_cell_angle_beta   73.21190000
_cell_angle_gamma   61.61640000
_symmetry_Int_Tables_number   1
_chemical_formula_structural   Zn3Si2H34(C7O2)8
_chemical_formula_sum   'Zn6 Si4 H68 C112 O32'
_cell_volume   4062.35731519
_cell_formula_units_Z   2
loop_
 _symmetry_equiv_pos_site_id
 _symmetry_equiv_pos_as_xyz
  1  'x, y, z'
loop_
 _atom_site_type_symbol
 _atom_site_label
 _atom_site_symmetry_multiplicity
 _atom_site_fract_x
 _atom_site_fract_y
 _atom_site_fract_z
 _atom_site_occupancy
 _atom_site_charge
  Zn  Zn1  1  0.269780  0.085020  0.954880  1.0  0.959
  Zn  Zn2  1  0.309680  0.414980  0.545120  1.0  0.9596
  Zn  Zn3  1  0.730220  0.914980  0.045120  1.0  0.9602
  Zn  Zn4  1  0.690320  0.585020  0.454880  1.0  0.9596
  Zn  Zn5  1  0.500000  0.000000  0.000000  1.0  1.1199
  Zn  Zn6  1  0.500000  0.500000  0.500000  1.0  1.1199
  Si  Si7  1  0.647020  0.447780  0.834800  1.0  0.8829
  Si  Si8  1  0.929600  0.052220  0.665200  1.0  0.8831
  Si  Si9  1  0.352980  0.552220  0.165200  1.0  0.8835
  Si  Si10  1  0.070400  0.947780  0.334800  1.0  0.8833
  H  H11  1  0.262600  0.170200  0.864200  1.0  0.3885
  H  H12  1  0.470500  0.830500  0.827100  1.0  0.1102
  H  H13  1  0.554500  0.667900  0.788900  1.0  0.0862
  H  H14  1  0.593500  0.529000  0.947800  1.0  0.0914
  H  H15  1  0.515400  0.693300  0.985300  1.0  0.0911
  H  H16  1  0.552100  0.156000  0.883000  1.0  0.0926
  H  H17  1  0.414900  0.507700  0.910500  1.0  0.0948
  H  H18  1  0.300200  0.425800  0.946600  1.0  0.1094
  H  H19  1  0.804600  0.453700  0.719300  1.0  0.0903
  H  H20  1  0.789000  0.490600  0.622800  1.0  0.1063
  H  H21  1  0.468700  0.527400  0.673400  1.0  0.1164
  H  H22  1  0.485700  0.487800  0.770000  1.0  0.0915
  H  H23  1  0.770300  0.252400  0.900200  1.0  0.0826
  H  H24  1  0.947900  0.158800  0.921000  1.0  0.1313
  H  H25  1  0.037100  0.374300  0.816900  1.0  0.1165
  H  H26  1  0.857900  0.464600  0.797800  1.0  0.1
  H  H27  1  0.668200  0.236900  0.843100  1.0  0.0896
  H  H28  1  0.297000  0.329800  0.635800  1.0  0.3933
  H  H29  1  0.128100  0.669500  0.672900  1.0  0.1103
  H  H30  1  0.011300  0.832100  0.711100  1.0  0.0877
  H  H31  1  0.070300  0.971000  0.552200  1.0  0.0911
  H  H32  1  0.194000  0.806700  0.514700  1.0  0.0923
  H  H33  1  0.591100  0.344000  0.617000  1.0  0.0927
  H  H34  1  0.833100  0.992300  0.589500  1.0  0.094
  H  H35  1  0.672600  0.074200  0.553400  1.0  0.1077
  H  H36  1  0.977600  0.046300  0.780700  1.0  0.0907
  H  H37  1  0.902400  0.009400  0.877200  1.0  0.1065
  H  H38  1  0.669500  0.972600  0.826600  1.0  0.117
  H  H39  1  0.743500  0.012200  0.730000  1.0  0.092
  H  H40  1  0.922900  0.247600  0.599800  1.0  0.0826
  H  H41  1  0.027700  0.341200  0.579000  1.0  0.1313
  H  H42  1  0.228300  0.125700  0.683100  1.0  0.1159
  H  H43  1  0.120300  0.035400  0.702200  1.0  0.1005
  H  H44  1  0.748200  0.263100  0.656900  1.0  0.0897
  H  H45  1  0.737400  0.829800  0.135800  1.0  0.389
  H  H46  1  0.529500  0.169500  0.172900  1.0  0.1102
  H  H47  1  0.445500  0.332100  0.211100  1.0  0.0875
  H  H48  1  0.406500  0.471000  0.052200  1.0  0.0907
  H  H49  1  0.484600  0.306700  0.014700  1.0  0.0919
  H  H50  1  0.447900  0.844000  0.117000  1.0  0.0926
  H  H51  1  0.585100  0.492300  0.089500  1.0  0.0936
  H  H52  1  0.699800  0.574200  0.053400  1.0  0.109
  H  H53  1  0.195400  0.546300  0.280700  1.0  0.0886
  H  H54  1  0.211000  0.509400  0.377200  1.0  0.1057
  H  H55  1  0.531300  0.472600  0.326600  1.0  0.1168
  H  H56  1  0.514300  0.512200  0.230000  1.0  0.0913
  H  H57  1  0.229700  0.747600  0.099800  1.0  0.0823
  H  H58  1  0.052100  0.841200  0.079000  1.0  0.1309
  H  H59  1  0.962900  0.625700  0.183100  1.0  0.117
  H  H60  1  0.142100  0.535400  0.202200  1.0  0.1013
  H  H61  1  0.331800  0.763100  0.156900  1.0  0.0897
  H  H62  1  0.703000  0.670200  0.364200  1.0  0.3976
  H  H63  1  0.871900  0.330500  0.327100  1.0  0.1108
  H  H64  1  0.988700  0.167900  0.288900  1.0  0.0868
  H  H65  1  0.929700  0.029000  0.447800  1.0  0.0916
  H  H66  1  0.806000  0.193300  0.485300  1.0  0.0919
  H  H67  1  0.408900  0.656000  0.383000  1.0  0.0924
  H  H68  1  0.166900  0.007700  0.410500  1.0  0.0933
  H  H69  1  0.327400  0.925800  0.446600  1.0  0.1083
  H  H70  1  0.022400  0.953700  0.219300  1.0  0.0902
  H  H71  1  0.097600  0.990600  0.122800  1.0  0.1065
  H  H72  1  0.330500  0.027400  0.173400  1.0  0.1164
  H  H73  1  0.256500  0.987800  0.270000  1.0  0.0931
  H  H74  1  0.077100  0.752400  0.400200  1.0  0.0814
  H  H75  1  0.972300  0.658800  0.421000  1.0  0.1316
  H  H76  1  0.771700  0.874300  0.316900  1.0  0.116
  H  H77  1  0.879700  0.964600  0.297800  1.0  0.0998
  H  H78  1  0.251800  0.736900  0.343100  1.0  0.0892
  C  C79  1  0.437380  0.881500  0.934340  1.0  0.7108
  C  C80  1  0.489290  0.776470  0.909550  1.0  -0.0783
  C  C81  1  0.497960  0.768830  0.851650  1.0  -0.0892
  C  C82  1  0.546530  0.671870  0.829270  1.0  -0.0078
  C  C83  1  0.583610  0.580670  0.863910  1.0  -0.3405
  C  C84  1  0.570300  0.590300  0.922500  1.0  -0.016
  C  C85  1  0.523300  0.688500  0.945100  1.0  -0.0633
  C  C86  1  0.416830  0.281930  0.921210  1.0  -0.1046
  C  C87  1  0.524610  0.227700  0.888880  1.0  -0.0467
  C  C88  1  0.555730  0.381620  0.871520  1.0  -0.3534
  C  C89  1  0.443750  0.435950  0.904150  1.0  -0.0218
  C  C90  1  0.376400  0.386630  0.926770  1.0  -0.0682
  C  C91  1  0.342260  0.228870  0.947010  1.0  0.6433
  C  C92  1  0.735900  0.468470  0.710330  1.0  -0.0161
  C  C93  1  0.726510  0.490690  0.652690  1.0  -0.0639
  C  C94  1  0.628350  0.512620  0.638280  1.0  -0.1087
  C  C95  1  0.537270  0.512120  0.682540  1.0  -0.072
  C  C96  1  0.547640  0.488990  0.740130  1.0  -0.0209
  C  C97  1  0.646720  0.467550  0.754810  1.0  -0.3458
  C  C98  1  0.793130  0.368530  0.847010  1.0  -0.3225
  C  C99  1  0.009380  0.258540  0.870500  1.0  -0.1416
  C  C100  1  0.124720  0.199830  0.883130  1.0  0.6698
  C  C101  1  0.824980  0.277540  0.883100  1.0  -0.0154
  C  C102  1  0.930500  0.220600  0.896000  1.0  -0.0776
  C  C103  1  0.982490  0.349180  0.834040  1.0  -0.0805
  C  C104  1  0.875410  0.402810  0.822770  1.0  -0.0113
  C  C105  1  0.616780  0.534570  0.576270  1.0  0.692
  C  C106  1  0.593590  0.276300  0.864720  1.0  -0.0337
  C  C107  1  0.253220  0.618500  0.565660  1.0  0.71
  C  C108  1  0.175310  0.723530  0.590450  1.0  -0.0805
  C  C109  1  0.118440  0.731170  0.648350  1.0  -0.0924
  C  C110  1  0.047670  0.828130  0.670730  1.0  -0.0083
  C  C111  1  0.028190  0.919330  0.636090  1.0  -0.334
  C  C112  1  0.083100  0.909700  0.577500  1.0  -0.0144
  C  C113  1  0.156900  0.811500  0.554900  1.0  -0.0636
  C  C114  1  0.619970  0.218070  0.578790  1.0  -0.1058
  C  C115  1  0.641190  0.272300  0.611120  1.0  -0.0486
  C  C116  1  0.808870  0.118380  0.628480  1.0  -0.3518
  C  C117  1  0.783850  0.064050  0.595850  1.0  -0.0263
  C  C118  1  0.689800  0.113370  0.573230  1.0  -0.0682
  C  C119  1  0.518140  0.271130  0.552990  1.0  0.6445
  C  C120  1  0.914700  0.031530  0.789670  1.0  -0.0168
  C  C121  1  0.869890  0.009310  0.847310  1.0  -0.0615
  C  C122  1  0.779250  0.987380  0.861720  1.0  -0.1093
  C  C123  1  0.731930  0.987880  0.817460  1.0  -0.0721
  C  C124  1  0.776760  0.011010  0.759870  1.0  -0.0222
  C  C125  1  0.869080  0.032450  0.745190  1.0  -0.3458
  C  C126  1  0.008670  0.131470  0.652990  1.0  -0.3215
  C  C127  1  0.138420  0.241460  0.629500  1.0  -0.1419
  C  C128  1  0.207680  0.300170  0.616870  1.0  0.6704
  C  C129  1  0.985620  0.222460  0.616900  1.0  -0.0127
  C  C130  1  0.047100  0.279400  0.604000  1.0  -0.0772
  C  C131  1  0.165710  0.150820  0.665960  1.0  -0.0796
  C  C132  1  0.100990  0.097190  0.677230  1.0  -0.0105
  C  C133  1  0.727620  0.965430  0.923730  1.0  0.6947
  C  C134  1  0.734610  0.223700  0.635280  1.0  -0.0348
  C  C135  1  0.562620  0.118500  0.065660  1.0  0.7103
  C  C136  1  0.510710  0.223530  0.090450  1.0  -0.0797
  C  C137  1  0.502040  0.231170  0.148350  1.0  -0.0901
  C  C138  1  0.453470  0.328130  0.170730  1.0  -0.0072
  C  C139  1  0.416390  0.419330  0.136090  1.0  -0.336
  C  C140  1  0.429700  0.409700  0.077500  1.0  -0.0126
  C  C141  1  0.476700  0.311500  0.054900  1.0  -0.0662
  C  C142  1  0.583170  0.718070  0.078790  1.0  -0.1032
  C  C143  1  0.475390  0.772300  0.111120  1.0  -0.0497
  C  C144  1  0.444270  0.618380  0.128480  1.0  -0.3525
  C  C145  1  0.556250  0.564050  0.095850  1.0  -0.0272
  C  C146  1  0.623600  0.613370  0.073230  1.0  -0.0681
  C  C147  1  0.657740  0.771130  0.052990  1.0  0.6438
  C  C148  1  0.264100  0.531530  0.289670  1.0  -0.0158
  C  C149  1  0.273490  0.509310  0.347310  1.0  -0.0641
  C  C150  1  0.371650  0.487380  0.361720  1.0  -0.1105
  C  C151  1  0.462730  0.487880  0.317460  1.0  -0.0716
  C  C152  1  0.452360  0.511010  0.259870  1.0  -0.0216
  C  C153  1  0.353280  0.532450  0.245190  1.0  -0.3458
  C  C154  1  0.206870  0.631470  0.152990  1.0  -0.3189
  C  C155  1  0.990620  0.741460  0.129500  1.0  -0.1411
  C  C156  1  0.875280  0.800170  0.116870  1.0  0.6714
  C  C157  1  0.175020  0.722460  0.116900  1.0  -0.0143
  C  C158  1  0.069500  0.779400  0.104000  1.0  -0.0775
  C  C159  1  0.017510  0.650820  0.165960  1.0  -0.0816
  C  C160  1  0.124590  0.597190  0.177230  1.0  -0.0097
  C  C161  1  0.383220  0.465430  0.423730  1.0  0.692
  C  C162  1  0.406410  0.723700  0.135280  1.0  -0.0334
  C  C163  1  0.746780  0.381500  0.434340  1.0  0.7117
  C  C164  1  0.824690  0.276470  0.409550  1.0  -0.0796
  C  C165  1  0.881560  0.268830  0.351650  1.0  -0.0904
  C  C166  1  0.952330  0.171870  0.329270  1.0  -0.0101
  C  C167  1  0.971810  0.080670  0.363910  1.0  -0.3423
  C  C168  1  0.916900  0.090300  0.422500  1.0  -0.016
  C  C169  1  0.843100  0.188500  0.445100  1.0  -0.067
  C  C170  1  0.380030  0.781930  0.421210  1.0  -0.1047
  C  C171  1  0.358810  0.727700  0.388880  1.0  -0.0561
  C  C172  1  0.191130  0.881620  0.371520  1.0  -0.3535
  C  C173  1  0.216150  0.935950  0.404150  1.0  -0.022
  C  C174  1  0.310200  0.886630  0.426770  1.0  -0.0673
  C  C175  1  0.481860  0.728870  0.447010  1.0  0.6439
  C  C176  1  0.085300  0.968470  0.210330  1.0  -0.0192
  C  C177  1  0.130110  0.990690  0.152690  1.0  -0.0629
  C  C178  1  0.220750  0.012620  0.138280  1.0  -0.1087
  C  C179  1  0.268070  0.012120  0.182540  1.0  -0.0724
  C  C180  1  0.223240  0.988990  0.240130  1.0  -0.0235
  C  C181  1  0.130920  0.967550  0.254810  1.0  -0.3467
  C  C182  1  0.991330  0.868530  0.347010  1.0  -0.3186
  C  C183  1  0.861580  0.758540  0.370500  1.0  -0.141
  C  C184  1  0.792320  0.699830  0.383130  1.0  0.6707
  C  C185  1  0.014380  0.777540  0.383100  1.0  -0.012
  C  C186  1  0.952900  0.720600  0.396000  1.0  -0.0781
  C  C187  1  0.834290  0.849180  0.334040  1.0  -0.0801
  C  C188  1  0.899010  0.902810  0.322770  1.0  -0.0115
  C  C189  1  0.272380  0.034570  0.076270  1.0  0.6947
  C  C190  1  0.265390  0.776300  0.364720  1.0  -0.0356
  O  O191  1  0.358570  0.954750  0.913010  1.0  -0.6159
  O  O192  1  0.473280  0.888160  0.974880  1.0  -0.5982
  O  O193  1  0.694170  0.548600  0.538060  1.0  -0.5959
  O  O194  1  0.531090  0.536560  0.567220  1.0  -0.6084
  O  O195  1  0.242070  0.277900  0.969960  1.0  -0.5436
  O  O196  1  0.389970  0.127760  0.942320  1.0  -0.6824
  O  O197  1  0.127700  0.153450  0.932350  1.0  -0.5264
  O  O198  1  0.205100  0.208030  0.850770  1.0  -0.4419
  O  O199  1  0.226330  0.545250  0.586990  1.0  -0.6113
  O  O200  1  0.336320  0.611840  0.525120  1.0  -0.5976
  O  O201  1  0.780830  0.951400  0.961940  1.0  -0.5961
  O  O202  1  0.634870  0.963440  0.932780  1.0  -0.608
  O  O203  1  0.489930  0.222100  0.530040  1.0  -0.5428
  O  O204  1  0.460050  0.372240  0.557680  1.0  -0.6819
  O  O205  1  0.213500  0.346550  0.567650  1.0  -0.5186
  O  O206  1  0.263900  0.291970  0.649230  1.0  -0.4418
  O  O207  1  0.641430  0.045250  0.086990  1.0  -0.6133
  O  O208  1  0.526720  0.111840  0.025120  1.0  -0.5982
  O  O209  1  0.305830  0.451400  0.461940  1.0  -0.5962
  O  O210  1  0.468910  0.463440  0.432780  1.0  -0.6088
  O  O211  1  0.757930  0.722100  0.030040  1.0  -0.5448
  O  O212  1  0.610030  0.872240  0.057680  1.0  -0.6816
  O  O213  1  0.872300  0.846550  0.067650  1.0  -0.5259
  O  O214  1  0.794900  0.791970  0.149230  1.0  -0.4422
  O  O215  1  0.773670  0.454750  0.413010  1.0  -0.6177
  O  O216  1  0.663680  0.388160  0.474880  1.0  -0.5983
  O  O217  1  0.219170  0.048600  0.038060  1.0  -0.5957
  O  O218  1  0.365130  0.036560  0.067220  1.0  -0.6083
  O  O219  1  0.510070  0.777900  0.469960  1.0  -0.5464
  O  O220  1  0.539950  0.627760  0.442320  1.0  -0.6852
  O  O221  1  0.786500  0.653450  0.432350  1.0  -0.5206
  O  O222  1  0.736100  0.708030  0.350770  1.0  -0.4428
