# generated using pymatgen
data_MnH6C12O5
_symmetry_space_group_name_H-M   'P 1'
_cell_length_a   7.51200000
_cell_length_b   16.53000000
_cell_length_c   14.15400000
_cell_angle_alpha   90.00000000
_cell_angle_beta   90.71000000
_cell_angle_gamma   90.00000000
_symmetry_Int_Tables_number   1
_chemical_formula_structural   MnH6C12O5
_chemical_formula_sum   'Mn4 H24 C48 O20'
_cell_volume   1757.41479657
_cell_formula_units_Z   4
loop_
 _symmetry_equiv_pos_site_id
 _symmetry_equiv_pos_as_xyz
  1  'x, y, z'
loop_
 _atom_site_type_symbol
 _atom_site_label
 _atom_site_symmetry_multiplicity
 _atom_site_fract_x
 _atom_site_fract_y
 _atom_site_fract_z
 _atom_site_occupancy
 _atom_site_charge
  Mn  Mn1  1  0.000000  0.500000  0.500000  1.0  1.2093
  Mn  Mn2  1  0.500000  0.000000  0.000000  1.0  1.2093
  Mn  Mn3  1  0.500000  0.500000  0.500000  1.0  1.2253
  Mn  Mn4  1  0.000000  0.000000  0.000000  1.0  1.2253
  H  H5  1  0.382400  0.366100  0.782900  1.0  0.131
  H  H6  1  0.382200  0.261600  0.891500  1.0  0.1196
  H  H7  1  0.144100  0.043600  0.727800  1.0  0.1294
  H  H8  1  0.051400  0.022500  0.574800  1.0  0.1187
  H  H9  1  0.034500  0.129800  0.469100  1.0  0.1258
  H  H10  1  0.122700  0.255700  0.513300  1.0  0.1259
  H  H11  1  0.117600  0.866100  0.717100  1.0  0.1311
  H  H12  1  0.117800  0.761600  0.608500  1.0  0.1197
  H  H13  1  0.355900  0.543600  0.772200  1.0  0.1297
  H  H14  1  0.448600  0.522500  0.925200  1.0  0.1183
  H  H15  1  0.465500  0.629800  0.030900  1.0  0.1261
  H  H16  1  0.377300  0.755700  0.986700  1.0  0.1259
  H  H17  1  0.617600  0.633900  0.217100  1.0  0.1306
  H  H18  1  0.617800  0.738400  0.108500  1.0  0.1198
  H  H19  1  0.855900  0.956400  0.272200  1.0  0.13
  H  H20  1  0.948600  0.977500  0.425200  1.0  0.1189
  H  H21  1  0.965500  0.870200  0.530900  1.0  0.1261
  H  H22  1  0.877300  0.744300  0.486700  1.0  0.1257
  H  H23  1  0.882400  0.133900  0.282900  1.0  0.1305
  H  H24  1  0.882200  0.238400  0.391500  1.0  0.1199
  H  H25  1  0.644100  0.456400  0.227800  1.0  0.1295
  H  H26  1  0.551400  0.477500  0.074800  1.0  0.1197
  H  H27  1  0.534500  0.370200  0.969100  1.0  0.1258
  H  H28  1  0.622700  0.244300  0.013300  1.0  0.1253
  C  C29  1  0.335300  0.316100  0.765600  1.0  -0.0843
  C  C30  1  0.335600  0.252800  0.831200  1.0  -0.08
  C  C31  1  0.268600  0.178100  0.808500  1.0  -0.0858
  C  C32  1  0.200700  0.163500  0.714900  1.0  0.0662
  C  C33  1  0.143000  0.086400  0.685200  1.0  -0.0919
  C  C34  1  0.085300  0.074100  0.594200  1.0  -0.0766
  C  C35  1  0.077100  0.138600  0.530300  1.0  -0.1039
  C  C36  1  0.130300  0.213400  0.556500  1.0  -0.0856
  C  C37  1  0.197300  0.228500  0.648700  1.0  0.0692
  C  C38  1  0.266500  0.305500  0.675900  1.0  -0.0802
  C  C39  1  0.267000  0.375300  0.608500  1.0  0.7552
  C  C40  1  0.266100  0.114500  0.883600  1.0  0.7588
  C  C41  1  0.164700  0.816100  0.734400  1.0  -0.0846
  C  C42  1  0.164400  0.752800  0.668800  1.0  -0.0792
  C  C43  1  0.231400  0.678100  0.691500  1.0  -0.086
  C  C44  1  0.299300  0.663500  0.785100  1.0  0.0661
  C  C45  1  0.357000  0.586400  0.814800  1.0  -0.0922
  C  C46  1  0.414700  0.574100  0.905800  1.0  -0.0759
  C  C47  1  0.422900  0.638600  0.969700  1.0  -0.1026
  C  C48  1  0.369700  0.713400  0.943500  1.0  -0.0879
  C  C49  1  0.302700  0.728500  0.851300  1.0  0.0691
  C  C50  1  0.233500  0.805500  0.824100  1.0  -0.0803
  C  C51  1  0.233000  0.875300  0.891500  1.0  0.7556
  C  C52  1  0.233900  0.614500  0.616400  1.0  0.759
  C  C53  1  0.664700  0.683900  0.234400  1.0  -0.0842
  C  C54  1  0.664400  0.747200  0.168800  1.0  -0.0796
  C  C55  1  0.731400  0.821900  0.191500  1.0  -0.0855
  C  C56  1  0.799300  0.836500  0.285100  1.0  0.0657
  C  C57  1  0.857000  0.913600  0.314800  1.0  -0.0923
  C  C58  1  0.914700  0.925900  0.405800  1.0  -0.0759
  C  C59  1  0.922900  0.861400  0.469700  1.0  -0.1027
  C  C60  1  0.869700  0.786600  0.443500  1.0  -0.0885
  C  C61  1  0.802700  0.771500  0.351300  1.0  0.0691
  C  C62  1  0.733500  0.694500  0.324100  1.0  -0.0793
  C  C63  1  0.733000  0.624700  0.391500  1.0  0.7555
  C  C64  1  0.733900  0.885500  0.116400  1.0  0.7593
  C  C65  1  0.835300  0.183900  0.265600  1.0  -0.0833
  C  C66  1  0.835600  0.247200  0.331200  1.0  -0.0807
  C  C67  1  0.768600  0.321900  0.308500  1.0  -0.0851
  C  C68  1  0.700700  0.336500  0.214900  1.0  0.0658
  C  C69  1  0.643000  0.413600  0.185200  1.0  -0.0922
  C  C70  1  0.585300  0.425900  0.094200  1.0  -0.0756
  C  C71  1  0.577100  0.361400  0.030300  1.0  -0.1035
  C  C72  1  0.630300  0.286600  0.056500  1.0  -0.0857
  C  C73  1  0.697300  0.271500  0.148700  1.0  0.0691
  C  C74  1  0.766500  0.194500  0.175900  1.0  -0.0794
  C  C75  1  0.767000  0.124700  0.108500  1.0  0.7547
  C  C76  1  0.766100  0.385500  0.383600  1.0  0.7591
  O  O77  1  0.410900  0.392640  0.569800  1.0  -0.5727
  O  O78  1  0.122700  0.412910  0.596800  1.0  -0.6149
  O  O79  1  0.121600  0.077610  0.898300  1.0  -0.6374
  O  O80  1  0.408900  0.102480  0.928200  1.0  -0.5923
  O  O81  1  0.249300  0.506230  0.403400  1.0  -0.5138
  O  O82  1  0.089100  0.892640  0.930200  1.0  -0.573
  O  O83  1  0.377300  0.912910  0.903200  1.0  -0.6142
  O  O84  1  0.378400  0.577610  0.601700  1.0  -0.6363
  O  O85  1  0.091100  0.602480  0.571800  1.0  -0.5916
  O  O86  1  0.250700  0.006230  0.096600  1.0  -0.513
  O  O87  1  0.589100  0.607360  0.430200  1.0  -0.5735
  O  O88  1  0.877300  0.587090  0.403200  1.0  -0.6142
  O  O89  1  0.878400  0.922390  0.101700  1.0  -0.6362
  O  O90  1  0.591100  0.897520  0.071800  1.0  -0.5915
  O  O91  1  0.750700  0.493770  0.596600  1.0  -0.513
  O  O92  1  0.910900  0.107360  0.069800  1.0  -0.5726
  O  O93  1  0.622700  0.087090  0.096800  1.0  -0.6152
  O  O94  1  0.621600  0.422390  0.398300  1.0  -0.6374
  O  O95  1  0.908900  0.397520  0.428200  1.0  -0.5922
  O  O96  1  0.749300  0.993770  0.903400  1.0  -0.5137
