# generated using pymatgen
data_CdH3(C3O2)3
_symmetry_space_group_name_H-M   'P 1'
_cell_length_a   7.93160000
_cell_length_b   15.75470000
_cell_length_c   15.75470000
_cell_angle_alpha   120.00000000
_cell_angle_beta   90.00000000
_cell_angle_gamma   90.00000000
_symmetry_Int_Tables_number   1
_chemical_formula_structural   CdH3(C3O2)3
_chemical_formula_sum   'Cd6 H18 C54 O36'
_cell_volume   1704.95025174
_cell_formula_units_Z   6
loop_
 _symmetry_equiv_pos_site_id
 _symmetry_equiv_pos_as_xyz
  1  'x, y, z'
loop_
 _atom_site_type_symbol
 _atom_site_label
 _atom_site_symmetry_multiplicity
 _atom_site_fract_x
 _atom_site_fract_y
 _atom_site_fract_z
 _atom_site_occupancy
 _atom_site_charge
  Cd  Cd1  1  0.987820  0.625940  0.941400  1.0  1.0863
  Cd  Cd2  1  0.987820  0.315460  0.374060  1.0  1.0868
  Cd  Cd3  1  0.987820  0.058600  0.684540  1.0  1.0866
  Cd  Cd4  1  0.487820  0.684540  0.058600  1.0  1.0869
  Cd  Cd5  1  0.487820  0.941400  0.625940  1.0  1.0865
  Cd  Cd6  1  0.487820  0.374060  0.315460  1.0  1.0864
  H  H7  1  0.694000  0.551600  0.634800  1.0  0.114
  H  H8  1  0.696000  0.732700  0.526200  1.0  0.1134
  H  H9  1  0.922000  0.813700  0.782200  1.0  0.1189
  H  H10  1  0.694000  0.083200  0.448400  1.0  0.1132
  H  H11  1  0.696000  0.793500  0.267300  1.0  0.1144
  H  H12  1  0.922000  0.968500  0.186300  1.0  0.1193
  H  H13  1  0.694000  0.365200  0.916800  1.0  0.1147
  H  H14  1  0.696000  0.473800  0.206500  1.0  0.1134
  H  H15  1  0.922000  0.217800  0.031500  1.0  0.1194
  H  H16  1  0.194000  0.916800  0.365200  1.0  0.1137
  H  H17  1  0.196000  0.206500  0.473800  1.0  0.1142
  H  H18  1  0.422000  0.031500  0.217800  1.0  0.1194
  H  H19  1  0.194000  0.634800  0.551600  1.0  0.1146
  H  H20  1  0.196000  0.526200  0.732700  1.0  0.114
  H  H21  1  0.422000  0.782200  0.813700  1.0  0.1192
  H  H22  1  0.194000  0.448400  0.083200  1.0  0.1137
  H  H23  1  0.196000  0.267300  0.793500  1.0  0.1132
  H  H24  1  0.422000  0.186300  0.968500  1.0  0.1193
  C  C25  1  0.813800  0.679900  0.723100  1.0  -0.1446
  C  C26  1  0.725500  0.610800  0.639800  1.0  0.0256
  C  C27  1  0.684600  0.629100  0.565600  1.0  -0.1392
  C  C28  1  0.862200  0.661500  0.803600  1.0  0.6036
  C  C29  1  0.872500  0.882100  0.663400  1.0  0.6987
  C  C30  1  0.600800  0.553200  0.474300  1.0  0.6298
  C  C31  1  0.727800  0.718800  0.574800  1.0  0.0183
  C  C32  1  0.818600  0.788500  0.656200  1.0  -0.1291
  C  C33  1  0.860700  0.767900  0.728300  1.0  0.0276
  C  C34  1  0.813800  0.043200  0.320100  1.0  -0.1451
  C  C35  1  0.725500  0.029000  0.389200  1.0  0.0251
  C  C36  1  0.684600  0.936500  0.370900  1.0  -0.1354
  C  C37  1  0.862200  0.142100  0.338500  1.0  0.606
  C  C38  1  0.872500  0.781300  0.117900  1.0  0.7003
  C  C39  1  0.600800  0.921100  0.446800  1.0  0.63
  C  C40  1  0.727800  0.856000  0.281200  1.0  0.0137
  C  C41  1  0.818600  0.867700  0.211500  1.0  -0.1318
  C  C42  1  0.860700  0.960400  0.232100  1.0  0.0323
  C  C43  1  0.813800  0.276900  0.956800  1.0  -0.1463
  C  C44  1  0.725500  0.360200  0.971000  1.0  0.0303
  C  C45  1  0.684600  0.434400  0.063500  1.0  -0.1367
  C  C46  1  0.862200  0.196400  0.857900  1.0  0.6038
  C  C47  1  0.872500  0.336600  0.218700  1.0  0.7014
  C  C48  1  0.600800  0.525700  0.078900  1.0  0.6295
  C  C49  1  0.727800  0.425200  0.144000  1.0  0.0122
  C  C50  1  0.818600  0.343800  0.132300  1.0  -0.13
  C  C51  1  0.860700  0.271700  0.039600  1.0  0.0264
  C  C52  1  0.313800  0.956800  0.276900  1.0  -0.1466
  C  C53  1  0.225500  0.971000  0.360200  1.0  0.0256
  C  C54  1  0.184600  0.063500  0.434400  1.0  -0.1356
  C  C55  1  0.362200  0.857900  0.196400  1.0  0.6046
  C  C56  1  0.372500  0.218700  0.336600  1.0  0.7006
  C  C57  1  0.100800  0.078900  0.525700  1.0  0.6292
  C  C58  1  0.227800  0.144000  0.425200  1.0  0.0134
  C  C59  1  0.318600  0.132300  0.343800  1.0  -0.1313
  C  C60  1  0.360700  0.039600  0.271700  1.0  0.0322
  C  C61  1  0.313800  0.723100  0.679900  1.0  -0.1456
  C  C62  1  0.225500  0.639800  0.610800  1.0  0.0312
  C  C63  1  0.184600  0.565600  0.629100  1.0  -0.1384
  C  C64  1  0.362200  0.803600  0.661500  1.0  0.6052
  C  C65  1  0.372500  0.663400  0.882100  1.0  0.7012
  C  C66  1  0.100800  0.474300  0.553200  1.0  0.6304
  C  C67  1  0.227800  0.574800  0.718800  1.0  0.013
  C  C68  1  0.318600  0.656200  0.788500  1.0  -0.1299
  C  C69  1  0.360700  0.728300  0.767900  1.0  0.0254
  C  C70  1  0.313800  0.320100  0.043200  1.0  -0.1445
  C  C71  1  0.225500  0.389200  0.029000  1.0  0.0241
  C  C72  1  0.184600  0.370900  0.936500  1.0  -0.1377
  C  C73  1  0.362200  0.338500  0.142100  1.0  0.6036
  C  C74  1  0.372500  0.117900  0.781300  1.0  0.6992
  C  C75  1  0.100800  0.446800  0.921100  1.0  0.6297
  C  C76  1  0.227800  0.281200  0.856000  1.0  0.0186
  C  C77  1  0.318600  0.211500  0.867700  1.0  -0.1305
  C  C78  1  0.360700  0.232100  0.960400  1.0  0.028
  O  O79  1  0.925900  0.730800  0.880100  1.0  -0.4746
  O  O80  1  0.844400  0.577100  0.793000  1.0  -0.5173
  O  O81  1  0.774900  0.929300  0.637300  1.0  -0.6189
  O  O82  1  0.016800  0.913300  0.694600  1.0  -0.4797
  O  O83  1  0.548600  0.474800  0.471300  1.0  -0.4949
  O  O84  1  0.583700  0.565100  0.402000  1.0  -0.4398
  O  O85  1  0.925900  0.149300  0.269200  1.0  -0.47
  O  O86  1  0.844400  0.215900  0.422900  1.0  -0.5267
  O  O87  1  0.774900  0.708000  0.070700  1.0  -0.6213
  O  O88  1  0.016800  0.781300  0.086700  1.0  -0.4799
  O  O89  1  0.548600  0.996500  0.525200  1.0  -0.4944
  O  O90  1  0.583700  0.836900  0.434900  1.0  -0.4479
  O  O91  1  0.925900  0.119900  0.850700  1.0  -0.4707
  O  O92  1  0.844400  0.207000  0.784100  1.0  -0.5075
  O  O93  1  0.774900  0.362700  0.292000  1.0  -0.6163
  O  O94  1  0.016800  0.305400  0.218700  1.0  -0.4793
  O  O95  1  0.548600  0.528700  0.003500  1.0  -0.4921
  O  O96  1  0.583700  0.598000  0.163100  1.0  -0.4471
  O  O97  1  0.425900  0.850700  0.119900  1.0  -0.4702
  O  O98  1  0.344400  0.784100  0.207000  1.0  -0.5154
  O  O99  1  0.274900  0.292000  0.362700  1.0  -0.6184
  O  O100  1  0.516800  0.218700  0.305400  1.0  -0.48
  O  O101  1  0.048600  0.003500  0.528700  1.0  -0.4965
  O  O102  1  0.083700  0.163100  0.598000  1.0  -0.4467
  O  O103  1  0.425900  0.880100  0.730800  1.0  -0.4749
  O  O104  1  0.344400  0.793000  0.577100  1.0  -0.5078
  O  O105  1  0.274900  0.637300  0.929300  1.0  -0.616
  O  O106  1  0.516800  0.694600  0.913300  1.0  -0.4802
  O  O107  1  0.048600  0.471300  0.474800  1.0  -0.4921
  O  O108  1  0.083700  0.402000  0.565100  1.0  -0.4469
  O  O109  1  0.425900  0.269200  0.149300  1.0  -0.4702
  O  O110  1  0.344400  0.422900  0.215900  1.0  -0.5249
  O  O111  1  0.274900  0.070700  0.708000  1.0  -0.6199
  O  O112  1  0.516800  0.086700  0.781300  1.0  -0.4789
  O  O113  1  0.048600  0.525200  0.996500  1.0  -0.4962
  O  O114  1  0.083700  0.434900  0.836900  1.0  -0.4392
