# generated using pymatgen
data_Zn5H32(C28O9)2
_symmetry_space_group_name_H-M   'P 1'
_cell_length_a   12.82900000
_cell_length_b   18.52800000
_cell_length_c   21.32370000
_cell_angle_alpha   95.90250000
_cell_angle_beta   107.50700000
_cell_angle_gamma   70.00990000
_symmetry_Int_Tables_number   1
_chemical_formula_structural   Zn5H32(C28O9)2
_chemical_formula_sum   'Zn10 H64 C112 O36'
_cell_volume   4542.55088884
_cell_formula_units_Z   2
loop_
 _symmetry_equiv_pos_site_id
 _symmetry_equiv_pos_as_xyz
  1  'x, y, z'
loop_
 _atom_site_type_symbol
 _atom_site_label
 _atom_site_symmetry_multiplicity
 _atom_site_fract_x
 _atom_site_fract_y
 _atom_site_fract_z
 _atom_site_occupancy
 _atom_site_charge
  Zn  Zn1  1  0.828380  0.093770  0.808180  1.0  1.1482
  Zn  Zn2  1  0.952520  0.103600  0.697060  1.0  1.0519
  Zn  Zn3  1  0.979800  0.406230  0.808180  1.0  1.1532
  Zn  Zn4  1  0.744540  0.396400  0.697060  1.0  1.0477
  Zn  Zn5  1  0.171620  0.906230  0.191820  1.0  1.1509
  Zn  Zn6  1  0.047480  0.896400  0.302940  1.0  1.0527
  Zn  Zn7  1  0.020200  0.593770  0.191820  1.0  1.1505
  Zn  Zn8  1  0.255460  0.603600  0.302940  1.0  1.0489
  Zn  Zn9  1  0.097210  0.750000  0.194420  1.0  1.0654
  Zn  Zn10  1  0.902790  0.250000  0.805580  1.0  1.0658
  H  H11  1  0.160400  0.987700  0.945400  1.0  0.1074
  H  H12  1  0.342700  0.924500  0.013800  1.0  0.1149
  H  H13  1  0.467400  0.877300  0.855800  1.0  0.1127
  H  H14  1  0.291100  0.947400  0.789200  1.0  0.1191
  H  H15  1  0.551200  0.938800  0.056200  1.0  0.116
  H  H16  1  0.736200  0.881400  0.115000  1.0  0.0927
  H  H17  1  0.761900  0.693900  0.003400  1.0  0.0969
  H  H18  1  0.580500  0.753800  0.933800  1.0  0.11
  H  H19  1  0.699800  0.920100  0.693800  1.0  0.1041
  H  H20  1  0.607700  0.841700  0.622000  1.0  0.1118
  H  H21  1  0.656100  0.921900  0.474200  1.0  0.1027
  H  H22  1  0.772700  0.980500  0.546200  1.0  0.0896
  H  H23  1  0.633600  0.727500  0.554000  1.0  0.0983
  H  H24  1  0.540300  0.648600  0.481200  1.0  0.116
  H  H25  1  0.381800  0.822000  0.352800  1.0  0.1104
  H  H26  1  0.475000  0.900200  0.430200  1.0  0.0914
  H  H27  1  0.785000  0.512300  0.945400  1.0  0.1066
  H  H28  1  0.671100  0.575500  0.013800  1.0  0.1127
  H  H29  1  0.388400  0.622700  0.855800  1.0  0.1136
  H  H30  1  0.498100  0.552600  0.789200  1.0  0.118
  H  H31  1  0.505000  0.561200  0.056200  1.0  0.1162
  H  H32  1  0.378800  0.618600  0.115000  1.0  0.0932
  H  H33  1  0.241500  0.806100  0.003400  1.0  0.0975
  H  H34  1  0.353300  0.746200  0.933800  1.0  0.1115
  H  H35  1  0.994000  0.579900  0.693800  1.0  0.1038
  H  H36  1  0.014300  0.658300  0.622000  1.0  0.111
  H  H37  1  0.818100  0.578100  0.474200  1.0  0.1012
  H  H38  1  0.773500  0.519500  0.546200  1.0  0.0898
  H  H39  1  0.920400  0.772500  0.554000  1.0  0.0976
  H  H40  1  0.940900  0.851400  0.481200  1.0  0.1156
  H  H41  1  0.971000  0.678000  0.352800  1.0  0.1106
  H  H42  1  0.955200  0.599800  0.430200  1.0  0.0912
  H  H43  1  0.839600  0.012300  0.054600  1.0  0.1078
  H  H44  1  0.657300  0.075500  0.986200  1.0  0.1145
  H  H45  1  0.532600  0.122700  0.144200  1.0  0.1131
  H  H46  1  0.708900  0.052600  0.210800  1.0  0.1191
  H  H47  1  0.448800  0.061200  0.943800  1.0  0.116
  H  H48  1  0.263800  0.118600  0.885000  1.0  0.0927
  H  H49  1  0.238100  0.306100  0.996600  1.0  0.097
  H  H50  1  0.419500  0.246200  0.066200  1.0  0.1105
  H  H51  1  0.300200  0.079900  0.306200  1.0  0.1043
  H  H52  1  0.392300  0.158300  0.378000  1.0  0.1122
  H  H53  1  0.343900  0.078100  0.525800  1.0  0.1023
  H  H54  1  0.227300  0.019500  0.453800  1.0  0.0894
  H  H55  1  0.366400  0.272500  0.446000  1.0  0.0982
  H  H56  1  0.459700  0.351400  0.518800  1.0  0.1162
  H  H57  1  0.618200  0.178000  0.647200  1.0  0.1104
  H  H58  1  0.525000  0.099800  0.569800  1.0  0.0905
  H  H59  1  0.215000  0.487700  0.054600  1.0  0.1069
  H  H60  1  0.328900  0.424500  0.986200  1.0  0.1128
  H  H61  1  0.611600  0.377300  0.144200  1.0  0.1129
  H  H62  1  0.501900  0.447400  0.210800  1.0  0.1185
  H  H63  1  0.495000  0.438800  0.943800  1.0  0.1162
  H  H64  1  0.621200  0.381400  0.885000  1.0  0.093
  H  H65  1  0.758500  0.193900  0.996600  1.0  0.0973
  H  H66  1  0.646700  0.253800  0.066200  1.0  0.1107
  H  H67  1  0.006000  0.420100  0.306200  1.0  0.1041
  H  H68  1  0.985700  0.341700  0.378000  1.0  0.1118
  H  H69  1  0.181900  0.421900  0.525800  1.0  0.1005
  H  H70  1  0.226500  0.480500  0.453800  1.0  0.0894
  H  H71  1  0.079600  0.227500  0.446000  1.0  0.0977
  H  H72  1  0.059100  0.148600  0.518800  1.0  0.1154
  H  H73  1  0.029000  0.322000  0.647200  1.0  0.1102
  H  H74  1  0.044800  0.400200  0.569800  1.0  0.0908
  C  C75  1  0.092000  0.022700  0.818200  1.0  0.7147
  C  C76  1  0.206260  0.976400  0.860720  1.0  -0.1622
  C  C77  1  0.222800  0.967200  0.928000  1.0  -0.0233
  C  C78  1  0.331520  0.927700  0.968840  1.0  -0.1348
  C  C79  1  0.424200  0.892900  0.942000  1.0  0.0607
  C  C80  1  0.406200  0.900700  0.873800  1.0  -0.1399
  C  C81  1  0.300850  0.942000  0.833700  1.0  -0.0276
  C  C82  1  0.542880  0.853800  0.985360  1.0  0.0514
  C  C83  1  0.593580  0.890800  0.043560  1.0  -0.1489
  C  C84  1  0.702530  0.855400  0.079460  1.0  -0.0177
  C  C85  1  0.768430  0.780000  0.065460  1.0  -0.1449
  C  C86  1  0.720480  0.743800  0.012560  1.0  -0.0347
  C  C87  1  0.610070  0.779400  0.971140  1.0  -0.1471
  C  C88  1  0.888160  0.743500  0.109920  1.0  0.72
  C  C89  1  0.806900  0.010400  0.670200  1.0  0.7432
  C  C90  1  0.749940  0.961300  0.626680  1.0  -0.1507
  C  C91  1  0.696870  0.918200  0.649540  1.0  -0.0683
  C  C92  1  0.638580  0.871600  0.605360  1.0  -0.1771
  C  C93  1  0.626640  0.869500  0.539080  1.0  0.0983
  C  C94  1  0.670020  0.915800  0.519040  1.0  -0.1536
  C  C95  1  0.735620  0.955600  0.563440  1.0  -0.0061
  C  C96  1  0.565010  0.823500  0.499220  1.0  0.0761
  C  C97  1  0.581890  0.747900  0.513980  1.0  -0.1348
  C  C98  1  0.523260  0.699600  0.470520  1.0  -0.0484
  C  C99  1  0.443950  0.730200  0.414700  1.0  -0.1276
  C  C100  1  0.428500  0.803300  0.394200  1.0  -0.0543
  C  C101  1  0.489800  0.849700  0.441400  1.0  -0.1389
  C  C102  1  0.381670  0.682600  0.368540  1.0  0.6625
  C  C103  1  0.726200  0.477300  0.818200  1.0  0.716
  C  C104  1  0.654460  0.523600  0.860720  1.0  -0.1602
  C  C105  1  0.705200  0.532800  0.928000  1.0  -0.0192
  C  C106  1  0.637320  0.572300  0.968840  1.0  -0.1381
  C  C107  1  0.517800  0.607100  0.942000  1.0  0.0602
  C  C108  1  0.467600  0.599300  0.873800  1.0  -0.1387
  C  C109  1  0.532850  0.558000  0.833700  1.0  -0.0323
  C  C110  1  0.442480  0.646200  0.985360  1.0  0.0515
  C  C111  1  0.449980  0.609200  0.043560  1.0  -0.1523
  C  C112  1  0.376930  0.644600  0.079460  1.0  -0.0187
  C  C113  1  0.297030  0.720000  0.065460  1.0  -0.1455
  C  C114  1  0.292080  0.756200  0.012560  1.0  -0.0333
  C  C115  1  0.361070  0.720600  0.971140  1.0  -0.1454
  C  C116  1  0.221760  0.756500  0.109920  1.0  0.7216
  C  C117  1  0.863300  0.489600  0.670200  1.0  0.7468
  C  C118  1  0.876740  0.538700  0.626680  1.0  -0.1493
  C  C119  1  0.952670  0.581800  0.649540  1.0  -0.0695
  C  C120  1  0.966780  0.628400  0.605360  1.0  -0.1776
  C  C121  1  0.912440  0.630500  0.539080  1.0  0.0979
  C  C122  1  0.849020  0.584200  0.519040  1.0  -0.1565
  C  C123  1  0.827820  0.544400  0.563440  1.0  -0.0067
  C  C124  1  0.934210  0.676500  0.499220  1.0  0.0759
  C  C125  1  0.932090  0.752100  0.513980  1.0  -0.132
  C  C126  1  0.947260  0.800400  0.470520  1.0  -0.0471
  C  C127  1  0.970750  0.769800  0.414700  1.0  -0.1274
  C  C128  1  0.965700  0.696700  0.394200  1.0  -0.0517
  C  C129  1  0.951600  0.650300  0.441400  1.0  -0.1376
  C  C130  1  0.986870  0.817400  0.368540  1.0  0.6645
  C  C131  1  0.908000  0.977300  0.181800  1.0  0.7153
  C  C132  1  0.793740  0.023600  0.139280  1.0  -0.162
  C  C133  1  0.777200  0.032800  0.072000  1.0  -0.0236
  C  C134  1  0.668480  0.072300  0.031160  1.0  -0.133
  C  C135  1  0.575800  0.107100  0.058000  1.0  0.0614
  C  C136  1  0.593800  0.099300  0.126200  1.0  -0.1432
  C  C137  1  0.699150  0.058000  0.166300  1.0  -0.0288
  C  C138  1  0.457120  0.146200  0.014640  1.0  0.0514
  C  C139  1  0.406420  0.109200  0.956440  1.0  -0.1506
  C  C140  1  0.297470  0.144600  0.920540  1.0  -0.0178
  C  C141  1  0.231570  0.220000  0.934540  1.0  -0.1448
  C  C142  1  0.279520  0.256200  0.987440  1.0  -0.0356
  C  C143  1  0.389930  0.220600  0.028860  1.0  -0.1478
  C  C144  1  0.111840  0.256500  0.890080  1.0  0.7209
  C  C145  1  0.193100  0.989600  0.329800  1.0  0.7444
  C  C146  1  0.250060  0.038700  0.373320  1.0  -0.1496
  C  C147  1  0.303130  0.081800  0.350460  1.0  -0.0585
  C  C148  1  0.361420  0.128400  0.394640  1.0  -0.1787
  C  C149  1  0.373360  0.130500  0.460920  1.0  0.0994
  C  C150  1  0.329980  0.084200  0.480960  1.0  -0.1513
  C  C151  1  0.264380  0.044400  0.436560  1.0  -0.0052
  C  C152  1  0.434990  0.176500  0.500780  1.0  0.0759
  C  C153  1  0.418110  0.252100  0.486020  1.0  -0.1342
  C  C154  1  0.476740  0.300400  0.529480  1.0  -0.0485
  C  C155  1  0.556050  0.269800  0.585300  1.0  -0.1268
  C  C156  1  0.571500  0.196700  0.605800  1.0  -0.0544
  C  C157  1  0.510200  0.150300  0.558600  1.0  -0.1374
  C  C158  1  0.618330  0.317400  0.631460  1.0  0.6633
  C  C159  1  0.273800  0.522700  0.181800  1.0  0.7151
  C  C160  1  0.345540  0.476400  0.139280  1.0  -0.1605
  C  C161  1  0.294800  0.467200  0.072000  1.0  -0.02
  C  C162  1  0.362680  0.427700  0.031160  1.0  -0.1389
  C  C163  1  0.482200  0.392900  0.058000  1.0  0.0613
  C  C164  1  0.532400  0.400700  0.126200  1.0  -0.1356
  C  C165  1  0.467150  0.442000  0.166300  1.0  -0.034
  C  C166  1  0.557520  0.353800  0.014640  1.0  0.0516
  C  C167  1  0.550020  0.390800  0.956440  1.0  -0.1524
  C  C168  1  0.623070  0.355400  0.920540  1.0  -0.0193
  C  C169  1  0.702970  0.280000  0.934540  1.0  -0.1465
  C  C170  1  0.707920  0.243800  0.987440  1.0  -0.0334
  C  C171  1  0.638930  0.279400  0.028860  1.0  -0.145
  C  C172  1  0.778240  0.243500  0.890080  1.0  0.7203
  C  C173  1  0.136700  0.510400  0.329800  1.0  0.7475
  C  C174  1  0.123260  0.461300  0.373320  1.0  -0.1499
  C  C175  1  0.047330  0.418200  0.350460  1.0  -0.0657
  C  C176  1  0.033220  0.371600  0.394640  1.0  -0.1788
  C  C177  1  0.087560  0.369500  0.460920  1.0  0.0969
  C  C178  1  0.150980  0.415800  0.480960  1.0  -0.1564
  C  C179  1  0.172180  0.455600  0.436560  1.0  -0.0056
  C  C180  1  0.065790  0.323500  0.500780  1.0  0.076
  C  C181  1  0.067910  0.247900  0.486020  1.0  -0.1344
  C  C182  1  0.052740  0.199600  0.529480  1.0  -0.047
  C  C183  1  0.029250  0.230200  0.585300  1.0  -0.1279
  C  C184  1  0.034300  0.303300  0.605800  1.0  -0.0494
  C  C185  1  0.048400  0.349700  0.558600  1.0  -0.1372
  C  C186  1  0.013130  0.182600  0.631460  1.0  0.6652
  O  O187  1  0.007240  0.043000  0.843680  1.0  -0.6364
  O  O188  1  0.087580  0.036770  0.761160  1.0  -0.5763
  O  O189  1  0.808540  0.015500  0.729480  1.0  -0.669
  O  O190  1  0.858640  0.040780  0.645080  1.0  -0.5827
  O  O191  1  0.936700  0.790680  0.143000  1.0  -0.5837
  O  O192  1  0.931150  0.673230  0.110900  1.0  -0.6287
  O  O193  1  0.390290  0.620300  0.381980  1.0  -0.5159
  O  O194  1  0.320360  0.706400  0.312920  1.0  -0.5173
  O  O195  1  0.098440  0.668750  0.249080  1.0  -0.8123
  O  O196  1  0.836440  0.457000  0.843680  1.0  -0.6355
  O  O197  1  0.673580  0.463230  0.761160  1.0  -0.5755
  O  O198  1  0.920940  0.484500  0.729480  1.0  -0.6682
  O  O199  1  0.786440  0.459220  0.645080  1.0  -0.5848
  O  O200  1  0.206300  0.709320  0.143000  1.0  -0.5833
  O  O201  1  0.179750  0.826770  0.110900  1.0  -0.6277
  O  O202  1  0.991690  0.879700  0.381980  1.0  -0.5142
  O  O203  1  0.992560  0.793600  0.312920  1.0  -0.5163
  O  O204  1  0.150640  0.831250  0.249080  1.0  -0.8139
  O  O205  1  0.992760  0.957000  0.156320  1.0  -0.636
  O  O206  1  0.912420  0.963230  0.238840  1.0  -0.5743
  O  O207  1  0.191460  0.984500  0.270520  1.0  -0.6688
  O  O208  1  0.141360  0.959220  0.354920  1.0  -0.5826
  O  O209  1  0.063300  0.209320  0.857000  1.0  -0.5833
  O  O210  1  0.068850  0.326770  0.889100  1.0  -0.6282
  O  O211  1  0.609710  0.379700  0.618020  1.0  -0.5183
  O  O212  1  0.679640  0.293600  0.687080  1.0  -0.5162
  O  O213  1  0.901560  0.331250  0.750920  1.0  -0.8129
  O  O214  1  0.163560  0.543000  0.156320  1.0  -0.6362
  O  O215  1  0.326420  0.536770  0.238840  1.0  -0.5751
  O  O216  1  0.079060  0.515500  0.270520  1.0  -0.6677
  O  O217  1  0.213560  0.540780  0.354920  1.0  -0.5848
  O  O218  1  0.793700  0.290680  0.857000  1.0  -0.5834
  O  O219  1  0.820250  0.173230  0.889100  1.0  -0.6271
  O  O220  1  0.008310  0.120300  0.618020  1.0  -0.5132
  O  O221  1  0.007440  0.206400  0.687080  1.0  -0.5165
  O  O222  1  0.849360  0.168750  0.750920  1.0  -0.8131
