# generated using pymatgen
data_HfH4(C2O)4
_symmetry_space_group_name_H-M   'P 1'
_cell_length_a   16.84160000
_cell_length_b   16.84160000
_cell_length_c   16.84160000
_cell_angle_alpha   96.28120000
_cell_angle_beta   113.55800000
_cell_angle_gamma   119.40100000
_symmetry_Int_Tables_number   1
_chemical_formula_structural   HfH4(C2O)4
_chemical_formula_sum   'Hf6 H24 C48 O24'
_cell_volume   3524.44128257
_cell_formula_units_Z   6
loop_
 _symmetry_equiv_pos_site_id
 _symmetry_equiv_pos_as_xyz
  1  'x, y, z'
loop_
 _atom_site_type_symbol
 _atom_site_label
 _atom_site_symmetry_multiplicity
 _atom_site_fract_x
 _atom_site_fract_y
 _atom_site_fract_z
 _atom_site_occupancy
 _atom_site_charge
  Hf  Hf1  1  0.500000  0.609320  0.109320  1.0  2.5339
  Hf  Hf2  1  0.500000  0.390680  0.890680  1.0  2.5392
  Hf  Hf3  1  0.508600  0.603520  0.905080  1.0  2.448
  Hf  Hf4  1  0.491400  0.396480  0.094920  1.0  2.4487
  Hf  Hf5  1  0.301560  0.396480  0.905080  1.0  2.4498
  Hf  Hf6  1  0.698440  0.603520  0.094920  1.0  2.4526
  H  H7  1  0.491200  0.868600  0.141800  1.0  0.1027
  H  H8  1  0.516100  0.872200  0.916100  1.0  0.1059
  H  H9  1  0.515700  0.997900  0.851000  1.0  0.1138
  H  H10  1  0.508800  0.650600  0.377400  1.0  0.1022
  H  H11  1  0.483900  0.400000  0.356100  1.0  0.1046
  H  H12  1  0.484300  0.335300  0.482200  1.0  0.1152
  H  H13  1  0.273200  0.131400  0.622600  1.0  0.1028
  H  H14  1  0.043900  0.127800  0.643900  1.0  0.1076
  H  H15  1  0.853100  0.002100  0.517800  1.0  0.1156
  H  H16  1  0.726800  0.349400  0.858200  1.0  0.1033
  H  H17  1  0.956100  0.600000  0.083900  1.0  0.1058
  H  H18  1  0.146900  0.664700  0.149000  1.0  0.1137
  H  H19  1  0.508800  0.131400  0.858200  1.0  0.1027
  H  H20  1  0.483900  0.127800  0.083900  1.0  0.1062
  H  H21  1  0.484300  0.002100  0.149000  1.0  0.1136
  H  H22  1  0.491200  0.349400  0.622600  1.0  0.1019
  H  H23  1  0.516100  0.600000  0.643900  1.0  0.1056
  H  H24  1  0.515700  0.664700  0.517800  1.0  0.1152
  H  H25  1  0.726800  0.868600  0.377400  1.0  0.1031
  H  H26  1  0.956100  0.872200  0.356100  1.0  0.1071
  H  H27  1  0.146900  0.997900  0.482200  1.0  0.1162
  H  H28  1  0.273200  0.650600  0.141800  1.0  0.1036
  H  H29  1  0.043900  0.400000  0.916100  1.0  0.1056
  H  H30  1  0.853100  0.335300  0.851000  1.0  0.1139
  C  C31  1  0.507100  0.768800  0.023700  1.0  0.8028
  C  C32  1  0.503400  0.856800  0.027800  1.0  -0.1623
  C  C33  1  0.494400  0.896300  0.097300  1.0  -0.0441
  C  C34  1  0.509500  0.898500  0.962600  1.0  -0.0685
  C  C35  1  0.505800  0.980300  0.965300  1.0  0.044
  C  C36  1  0.510000  0.023700  0.898500  1.0  -0.1429
  C  C37  1  0.492900  0.516600  0.261700  1.0  0.8089
  C  C38  1  0.496600  0.524400  0.353400  1.0  -0.165
  C  C39  1  0.505600  0.602900  0.401900  1.0  -0.0413
  C  C40  1  0.490500  0.453100  0.389000  1.0  -0.0601
  C  C41  1  0.494200  0.459500  0.474500  1.0  0.0416
  C  C42  1  0.490000  0.388500  0.513700  1.0  -0.1419
  C  C43  1  0.254900  0.231200  0.738300  1.0  0.8095
  C  C44  1  0.171000  0.143200  0.646600  1.0  -0.1606
  C  C45  1  0.201000  0.103700  0.598100  1.0  -0.0428
  C  C46  1  0.064100  0.101500  0.611000  1.0  -0.0659
  C  C47  1  0.985000  0.019700  0.525500  1.0  0.0454
  C  C48  1  0.874800  0.976300  0.486300  1.0  -0.1404
  C  C49  1  0.745100  0.483400  0.976300  1.0  0.8104
  C  C50  1  0.829000  0.475600  0.972200  1.0  -0.1642
  C  C51  1  0.799000  0.397100  0.902700  1.0  -0.0415
  C  C52  1  0.935900  0.546900  0.037400  1.0  -0.0621
  C  C53  1  0.015000  0.540500  0.034700  1.0  0.0429
  C  C54  1  0.125200  0.611500  0.101500  1.0  -0.142
  C  C55  1  0.492900  0.231200  0.976300  1.0  0.8033
  C  C56  1  0.496600  0.143200  0.972200  1.0  -0.1637
  C  C57  1  0.505600  0.103700  0.902700  1.0  -0.0447
  C  C58  1  0.490500  0.101500  0.037400  1.0  -0.0661
  C  C59  1  0.494200  0.019700  0.034700  1.0  0.0453
  C  C60  1  0.490000  0.976300  0.101500  1.0  -0.1476
  C  C61  1  0.507100  0.483400  0.738300  1.0  0.8093
  C  C62  1  0.503400  0.475600  0.646600  1.0  -0.1667
  C  C63  1  0.494400  0.397100  0.598100  1.0  -0.0409
  C  C64  1  0.509500  0.546900  0.611000  1.0  -0.0585
  C  C65  1  0.505800  0.540500  0.525500  1.0  0.0417
  C  C66  1  0.510000  0.611500  0.486300  1.0  -0.1482
  C  C67  1  0.745100  0.768800  0.261700  1.0  0.8096
  C  C68  1  0.829000  0.856800  0.353400  1.0  -0.1627
  C  C69  1  0.799000  0.896300  0.401900  1.0  -0.0433
  C  C70  1  0.935900  0.898500  0.389000  1.0  -0.0617
  C  C71  1  0.015000  0.980300  0.474500  1.0  0.0455
  C  C72  1  0.125200  0.023700  0.513700  1.0  -0.1452
  C  C73  1  0.254900  0.516600  0.023700  1.0  0.8101
  C  C74  1  0.171000  0.524400  0.027800  1.0  -0.1651
  C  C75  1  0.201000  0.602900  0.097300  1.0  -0.041
  C  C76  1  0.064100  0.453100  0.962600  1.0  -0.0565
  C  C77  1  0.985000  0.459500  0.965300  1.0  0.0422
  C  C78  1  0.874800  0.388500  0.898500  1.0  -0.1486
  O  O79  1  0.513200  0.735900  0.956500  1.0  -0.7519
  O  O80  1  0.505600  0.738200  0.086600  1.0  -0.628
  O  O81  1  0.486800  0.443300  0.222700  1.0  -0.7486
  O  O82  1  0.494400  0.581000  0.232600  1.0  -0.6279
  O  O83  1  0.220600  0.264100  0.777300  1.0  -0.7459
  O  O84  1  0.348400  0.261800  0.767400  1.0  -0.6288
  O  O85  1  0.779400  0.556700  0.043500  1.0  -0.7465
  O  O86  1  0.651600  0.419000  0.913400  1.0  -0.6252
  O  O87  1  0.486800  0.264100  0.043500  1.0  -0.7511
  O  O88  1  0.494400  0.261800  0.913400  1.0  -0.6267
  O  O89  1  0.513200  0.556700  0.777300  1.0  -0.7488
  O  O90  1  0.505600  0.419000  0.767400  1.0  -0.6287
  O  O91  1  0.779400  0.735900  0.222700  1.0  -0.7503
  O  O92  1  0.651600  0.738200  0.232600  1.0  -0.627
  O  O93  1  0.220600  0.443300  0.956500  1.0  -0.7487
  O  O94  1  0.348400  0.581000  0.086600  1.0  -0.6255
  O  O95  1  0.602400  0.656100  0.053700  1.0  -1.2409
  O  O96  1  0.397600  0.451300  0.053700  1.0  -1.2429
  O  O97  1  0.397600  0.343900  0.946300  1.0  -1.2426
  O  O98  1  0.602400  0.548700  0.946300  1.0  -1.243
  O  O99  1  0.595000  0.552900  0.147900  1.0  -1.2459
  O  O100  1  0.405000  0.552900  0.957900  1.0  -1.2475
  O  O101  1  0.595000  0.447100  0.042100  1.0  -1.2477
  O  O102  1  0.405000  0.447100  0.852100  1.0  -1.2467
