# generated using pymatgen
data_HfH4(C2O)4
_symmetry_space_group_name_H-M   'P 1'
_cell_length_a   16.80980000
_cell_length_b   16.80980000
_cell_length_c   16.80980000
_cell_angle_alpha   63.13510000
_cell_angle_beta   84.47830000
_cell_angle_gamma   116.86500000
_symmetry_Int_Tables_number   1
_chemical_formula_structural   HfH4(C2O)4
_chemical_formula_sum   'Hf6 H24 C48 O24'
_cell_volume   3500.27203253
_cell_formula_units_Z   6
loop_
 _symmetry_equiv_pos_site_id
 _symmetry_equiv_pos_as_xyz
  1  'x, y, z'
loop_
 _atom_site_type_symbol
 _atom_site_label
 _atom_site_symmetry_multiplicity
 _atom_site_fract_x
 _atom_site_fract_y
 _atom_site_fract_z
 _atom_site_occupancy
 _atom_site_charge
  Hf  Hf1  1  0.608270  0.000000  0.391730  1.0  2.5484
  Hf  Hf2  1  0.391730  0.000000  0.608270  1.0  2.5469
  Hf  Hf3  1  0.400240  0.000000  0.400230  1.0  2.4586
  Hf  Hf4  1  0.599760  0.000000  0.599770  1.0  2.4601
  Hf  Hf5  1  0.400240  0.800480  0.599760  1.0  2.4419
  Hf  Hf6  1  0.599760  0.199520  0.400240  1.0  2.4467
  H  H7  1  0.644200  0.000000  0.127400  1.0  0.1015
  H  H8  1  0.655900  0.000000  0.990300  1.0  0.1212
  H  H9  1  0.406400  0.000000  0.133200  1.0  0.112
  H  H10  1  0.872600  0.000000  0.355800  1.0  0.1017
  H  H11  1  0.009700  0.000000  0.344100  1.0  0.1199
  H  H12  1  0.866800  0.000000  0.593600  1.0  0.112
  H  H13  1  0.644200  0.771600  0.355800  1.0  0.1036
  H  H14  1  0.655900  0.646200  0.344100  1.0  0.1207
  H  H15  1  0.406400  0.539600  0.593600  1.0  0.1117
  H  H16  1  0.872600  0.228400  0.127400  1.0  0.1022
  H  H17  1  0.009700  0.353800  0.990300  1.0  0.1212
  H  H18  1  0.866800  0.460400  0.133200  1.0  0.1113
  H  H19  1  0.127400  0.771600  0.872600  1.0  0.1022
  H  H20  1  0.990300  0.646200  0.009700  1.0  0.1205
  H  H21  1  0.133200  0.539600  0.866800  1.0  0.1108
  H  H22  1  0.355800  0.228400  0.644200  1.0  0.1033
  H  H23  1  0.344100  0.353800  0.655900  1.0  0.1199
  H  H24  1  0.593600  0.460400  0.406400  1.0  0.1118
  H  H25  1  0.127400  0.000000  0.644200  1.0  0.1022
  H  H26  1  0.990300  0.000000  0.655900  1.0  0.1197
  H  H27  1  0.133200  0.000000  0.406400  1.0  0.1125
  H  H28  1  0.355800  0.000000  0.872600  1.0  0.1018
  H  H29  1  0.344100  0.000000  0.009700  1.0  0.1214
  H  H30  1  0.593600  0.000000  0.866800  1.0  0.112
  C  C31  1  0.519900  0.000000  0.235100  1.0  0.8064
  C  C32  1  0.524600  0.000000  0.145600  1.0  -0.171
  C  C33  1  0.598100  0.000000  0.100900  1.0  -0.0352
  C  C34  1  0.605500  0.000000  0.018300  1.0  -0.1467
  C  C35  1  0.537500  0.000000  0.976900  1.0  0.0479
  C  C36  1  0.456600  0.000000  0.104600  1.0  -0.0632
  C  C37  1  0.764900  0.000000  0.480100  1.0  0.8062
  C  C38  1  0.854400  0.000000  0.475400  1.0  -0.1682
  C  C39  1  0.899100  0.000000  0.401900  1.0  -0.0402
  C  C40  1  0.981700  0.000000  0.394500  1.0  -0.1527
  C  C41  1  0.023100  0.000000  0.462500  1.0  0.0497
  C  C42  1  0.895400  0.000000  0.543400  1.0  -0.0656
  C  C43  1  0.519900  0.755000  0.480100  1.0  0.8054
  C  C44  1  0.524600  0.670200  0.475400  1.0  -0.1673
  C  C45  1  0.598100  0.699000  0.401900  1.0  -0.0392
  C  C46  1  0.605500  0.623800  0.394500  1.0  -0.1503
  C  C47  1  0.537500  0.514400  0.462500  1.0  0.0513
  C  C48  1  0.456600  0.561200  0.543400  1.0  -0.0693
  C  C49  1  0.764900  0.245000  0.235100  1.0  0.8069
  C  C50  1  0.854400  0.329800  0.145600  1.0  -0.1681
  C  C51  1  0.899100  0.301000  0.100900  1.0  -0.0379
  C  C52  1  0.981700  0.376200  0.018300  1.0  -0.153
  C  C53  1  0.023100  0.485600  0.976900  1.0  0.0462
  C  C54  1  0.895400  0.438800  0.104600  1.0  -0.0643
  C  C55  1  0.235100  0.755000  0.764900  1.0  0.806
  C  C56  1  0.145600  0.670200  0.854400  1.0  -0.1675
  C  C57  1  0.100900  0.699000  0.899100  1.0  -0.0384
  C  C58  1  0.018300  0.623800  0.981700  1.0  -0.1542
  C  C59  1  0.976900  0.514400  0.023100  1.0  0.0449
  C  C60  1  0.104600  0.561200  0.895400  1.0  -0.0677
  C  C61  1  0.480100  0.245000  0.519900  1.0  0.8053
  C  C62  1  0.475400  0.329800  0.524600  1.0  -0.1672
  C  C63  1  0.401900  0.301000  0.598100  1.0  -0.0386
  C  C64  1  0.394500  0.376200  0.605500  1.0  -0.1545
  C  C65  1  0.462500  0.485600  0.537500  1.0  0.0506
  C  C66  1  0.543400  0.438800  0.456600  1.0  -0.0725
  C  C67  1  0.235100  0.000000  0.519900  1.0  0.8054
  C  C68  1  0.145600  0.000000  0.524600  1.0  -0.1689
  C  C69  1  0.100900  0.000000  0.598100  1.0  -0.0405
  C  C70  1  0.018300  0.000000  0.605500  1.0  -0.1538
  C  C71  1  0.976900  0.000000  0.537500  1.0  0.0505
  C  C72  1  0.104600  0.000000  0.456600  1.0  -0.0686
  C  C73  1  0.480100  0.000000  0.764900  1.0  0.8079
  C  C74  1  0.475400  0.000000  0.854400  1.0  -0.1702
  C  C75  1  0.401900  0.000000  0.899100  1.0  -0.0365
  C  C76  1  0.394500  0.000000  0.981700  1.0  -0.1528
  C  C77  1  0.462500  0.000000  0.023100  1.0  0.0482
  C  C78  1  0.543400  0.000000  0.895400  1.0  -0.0664
  O  O79  1  0.582300  0.000000  0.267100  1.0  -0.6185
  O  O80  1  0.449600  0.000000  0.272400  1.0  -0.7652
  O  O81  1  0.732900  0.000000  0.417700  1.0  -0.6192
  O  O82  1  0.727600  0.000000  0.550400  1.0  -0.7661
  O  O83  1  0.582300  0.849400  0.417700  1.0  -0.6164
  O  O84  1  0.449600  0.722000  0.550400  1.0  -0.7643
  O  O85  1  0.732900  0.150600  0.267100  1.0  -0.625
  O  O86  1  0.727600  0.278000  0.272400  1.0  -0.7607
  O  O87  1  0.267100  0.849400  0.732900  1.0  -0.6252
  O  O88  1  0.272400  0.722000  0.727600  1.0  -0.7591
  O  O89  1  0.417700  0.150600  0.582300  1.0  -0.6159
  O  O90  1  0.550400  0.278000  0.449600  1.0  -0.7646
  O  O91  1  0.267100  0.000000  0.582300  1.0  -0.6187
  O  O92  1  0.272400  0.000000  0.449600  1.0  -0.7676
  O  O93  1  0.417700  0.000000  0.732900  1.0  -0.6181
  O  O94  1  0.550400  0.000000  0.727600  1.0  -0.7648
  O  O95  1  0.452000  0.899600  0.447600  1.0  -1.2424
  O  O96  1  0.652800  0.100400  0.447600  1.0  -1.2328
  O  O97  1  0.552400  0.899600  0.548000  1.0  -1.2435
  O  O98  1  0.552400  0.100400  0.347200  1.0  -1.2507
  O  O99  1  0.347200  0.899600  0.552400  1.0  -1.2336
  O  O100  1  0.548000  0.100400  0.552400  1.0  -1.2411
  O  O101  1  0.447600  0.100400  0.452000  1.0  -1.2426
  O  O102  1  0.447600  0.899600  0.652800  1.0  -1.2516
