# generated using pymatgen
data_CdH8C12(NO2)2
_symmetry_space_group_name_H-M   'P 1'
_cell_length_a   15.12300000
_cell_length_b   17.48140000
_cell_length_c   17.48140000
_cell_angle_alpha   79.21670000
_cell_angle_beta   64.37080000
_cell_angle_gamma   64.37080000
_symmetry_Int_Tables_number   1
_chemical_formula_structural   CdH8C12(NO2)2
_chemical_formula_sum   'Cd8 H64 C96 N16 O32'
_cell_volume   3756.90258895
_cell_formula_units_Z   8
loop_
 _symmetry_equiv_pos_site_id
 _symmetry_equiv_pos_as_xyz
  1  'x, y, z'
loop_
 _atom_site_type_symbol
 _atom_site_label
 _atom_site_symmetry_multiplicity
 _atom_site_fract_x
 _atom_site_fract_y
 _atom_site_fract_z
 _atom_site_occupancy
 _atom_site_charge
  Cd  Cd1  1  0.127910  0.411840  0.933680  1.0  1.0585
  Cd  Cd2  1  0.973430  0.088160  0.566320  1.0  1.0586
  Cd  Cd3  1  0.061590  0.066320  0.911840  1.0  1.0586
  Cd  Cd4  1  0.539750  0.433680  0.588160  1.0  1.0587
  Cd  Cd5  1  0.872090  0.588160  0.066320  1.0  1.0584
  Cd  Cd6  1  0.026570  0.911840  0.433680  1.0  1.0594
  Cd  Cd7  1  0.938410  0.933680  0.088160  1.0  1.0591
  Cd  Cd8  1  0.460250  0.566320  0.411840  1.0  1.0583
  H  H9  1  0.787800  0.407300  0.018100  1.0  0.4342
  H  H10  1  0.281800  0.079000  0.926600  1.0  0.0938
  H  H11  1  0.461100  0.011600  0.840000  1.0  0.1199
  H  H12  1  0.434200  0.206200  0.675800  1.0  0.1119
  H  H13  1  0.255000  0.273600  0.762200  1.0  0.0891
  H  H14  1  0.610400  0.018200  0.719200  1.0  0.1315
  H  H15  1  0.584500  0.065200  0.641000  1.0  0.1158
  H  H16  1  0.602200  0.111700  0.698300  1.0  0.1295
  H  H17  1  0.713200  0.092700  0.481900  1.0  0.4345
  H  H18  1  0.787400  0.421000  0.573400  1.0  0.0939
  H  H19  1  0.812700  0.488400  0.660000  1.0  0.1202
  H  H20  1  0.816200  0.293800  0.824200  1.0  0.114
  H  H21  1  0.790800  0.226400  0.737800  1.0  0.0896
  H  H22  1  0.847800  0.481800  0.780800  1.0  0.1336
  H  H23  1  0.790700  0.434800  0.859000  1.0  0.1202
  H  H24  1  0.912200  0.388300  0.801700  1.0  0.1288
  H  H25  1  0.805900  0.981900  0.907300  1.0  0.4325
  H  H26  1  0.208400  0.073400  0.579000  1.0  0.0912
  H  H27  1  0.301100  0.160000  0.511600  1.0  0.1189
  H  H28  1  0.110000  0.324200  0.706200  1.0  0.1125
  H  H29  1  0.017200  0.237800  0.773600  1.0  0.0887
  H  H30  1  0.329600  0.280800  0.518200  1.0  0.1326
  H  H31  1  0.225500  0.359000  0.565200  1.0  0.1204
  H  H32  1  0.300500  0.301700  0.611700  1.0  0.13
  H  H33  1  0.195100  0.518100  0.592700  1.0  0.4339
  H  H34  1  0.360800  0.426600  0.921000  1.0  0.0937
  H  H35  1  0.472700  0.340000  0.988400  1.0  0.1188
  H  H36  1  0.640400  0.175800  0.793800  1.0  0.1125
  H  H37  1  0.528600  0.262200  0.726400  1.0  0.089
  H  H38  1  0.628600  0.219200  0.981800  1.0  0.1331
  H  H39  1  0.649700  0.141000  0.934800  1.0  0.1208
  H  H40  1  0.713900  0.198300  0.888300  1.0  0.1301
  H  H41  1  0.212200  0.592700  0.981900  1.0  0.4322
  H  H42  1  0.718200  0.921000  0.073400  1.0  0.0939
  H  H43  1  0.538900  0.988400  0.160000  1.0  0.1194
  H  H44  1  0.565800  0.793800  0.324200  1.0  0.1124
  H  H45  1  0.745000  0.726400  0.237800  1.0  0.0893
  H  H46  1  0.389600  0.981800  0.280800  1.0  0.1338
  H  H47  1  0.415500  0.934800  0.359000  1.0  0.1179
  H  H48  1  0.397800  0.888300  0.301700  1.0  0.1289
  H  H49  1  0.286800  0.907300  0.518100  1.0  0.4337
  H  H50  1  0.212600  0.579000  0.426600  1.0  0.0939
  H  H51  1  0.187300  0.511600  0.340000  1.0  0.1201
  H  H52  1  0.183800  0.706200  0.175800  1.0  0.1142
  H  H53  1  0.209200  0.773600  0.262200  1.0  0.0893
  H  H54  1  0.152200  0.518200  0.219200  1.0  0.1311
  H  H55  1  0.209300  0.565200  0.141000  1.0  0.1179
  H  H56  1  0.087800  0.611700  0.198300  1.0  0.1281
  H  H57  1  0.194100  0.018100  0.092700  1.0  0.4317
  H  H58  1  0.791600  0.926600  0.421000  1.0  0.0923
  H  H59  1  0.698900  0.840000  0.488400  1.0  0.1189
  H  H60  1  0.890000  0.675800  0.293800  1.0  0.1126
  H  H61  1  0.982800  0.762200  0.226400  1.0  0.0882
  H  H62  1  0.670400  0.719200  0.481800  1.0  0.1328
  H  H63  1  0.774500  0.641000  0.434800  1.0  0.12
  H  H64  1  0.699500  0.698300  0.388300  1.0  0.128
  H  H65  1  0.804900  0.481900  0.407300  1.0  0.4324
  H  H66  1  0.639200  0.573400  0.079000  1.0  0.0932
  H  H67  1  0.527300  0.660000  0.011600  1.0  0.1186
  H  H68  1  0.359600  0.824200  0.206200  1.0  0.1124
  H  H69  1  0.471400  0.737800  0.273600  1.0  0.0899
  H  H70  1  0.371400  0.780800  0.018200  1.0  0.1334
  H  H71  1  0.350300  0.859000  0.065200  1.0  0.1204
  H  H72  1  0.286100  0.801700  0.111700  1.0  0.1305
  C  C73  1  0.902500  0.405100  0.015700  1.0  0.6892
  C  C74  1  0.974400  0.322500  0.978300  1.0  -0.0629
  C  C75  1  0.960500  0.251000  0.973000  1.0  0.0662
  C  C76  1  0.860300  0.235900  0.999700  1.0  0.6231
  C  C77  1  0.128700  0.222700  0.911100  1.0  0.4127
  C  C78  1  0.250600  0.183000  0.853000  1.0  -0.1142
  C  C79  1  0.312400  0.104500  0.876300  1.0  -0.0682
  C  C80  1  0.419800  0.064100  0.824500  1.0  -0.1726
  C  C81  1  0.465400  0.102200  0.749400  1.0  0.175
  C  C82  1  0.403700  0.180700  0.726100  1.0  -0.1655
  C  C83  1  0.296300  0.221100  0.777900  1.0  -0.065
  C  C84  1  0.574000  0.072000  0.698000  1.0  -0.3877
  C  C85  1  0.823300  0.094900  0.484300  1.0  0.6865
  C  C86  1  0.775200  0.177500  0.521700  1.0  -0.0645
  C  C87  1  0.684500  0.249000  0.527000  1.0  0.0673
  C  C88  1  0.595900  0.264100  0.500300  1.0  0.6201
  C  C89  1  0.762500  0.277300  0.588900  1.0  0.4113
  C  C90  1  0.786600  0.317000  0.647000  1.0  -0.1107
  C  C91  1  0.793200  0.395500  0.623700  1.0  -0.0683
  C  C92  1  0.808400  0.435900  0.675500  1.0  -0.1726
  C  C93  1  0.817000  0.397800  0.750600  1.0  0.1749
  C  C94  1  0.810500  0.319300  0.773900  1.0  -0.1663
  C  C95  1  0.795300  0.278900  0.722100  1.0  -0.0624
  C  C96  1  0.844000  0.428000  0.802000  1.0  -0.3881
  C  C97  1  0.918200  0.984300  0.905100  1.0  0.6918
  C  C98  1  0.952700  0.021700  0.822500  1.0  -0.0647
  C  C99  1  0.933500  0.027000  0.751000  1.0  0.0658
  C  C100  1  0.860000  0.000300  0.735900  1.0  0.6286
  C  C101  1  0.039800  0.088900  0.722700  1.0  0.4119
  C  C102  1  0.103600  0.147000  0.683000  1.0  -0.113
  C  C103  1  0.188700  0.123700  0.604500  1.0  -0.0694
  C  C104  1  0.244300  0.175500  0.564100  1.0  -0.1727
  C  C105  1  0.214800  0.250600  0.602200  1.0  0.1752
  C  C106  1  0.129800  0.273900  0.680700  1.0  -0.1629
  C  C107  1  0.074200  0.222100  0.721100  1.0  -0.0618
  C  C108  1  0.272000  0.302000  0.572000  1.0  -0.3901
  C  C109  1  0.307600  0.515700  0.594900  1.0  0.6879
  C  C110  1  0.296900  0.478300  0.677500  1.0  -0.0639
  C  C111  1  0.211500  0.473000  0.749000  1.0  0.0654
  C  C112  1  0.096200  0.499700  0.764100  1.0  0.6188
  C  C113  1  0.351400  0.411100  0.777300  1.0  0.4102
  C  C114  1  0.433600  0.353000  0.817000  1.0  -0.112
  C  C115  1  0.416900  0.376300  0.895500  1.0  -0.0711
  C  C116  1  0.483900  0.324500  0.935900  1.0  -0.1719
  C  C117  1  0.567600  0.249400  0.897800  1.0  0.1749
  C  C118  1  0.584400  0.226100  0.819300  1.0  -0.1661
  C  C119  1  0.517400  0.277900  0.778900  1.0  -0.0607
  C  C120  1  0.646000  0.198000  0.928000  1.0  -0.3865
  C  C121  1  0.097500  0.594900  0.984300  1.0  0.6888
  C  C122  1  0.025600  0.677500  0.021700  1.0  -0.0639
  C  C123  1  0.039500  0.749000  0.027000  1.0  0.0664
  C  C124  1  0.139700  0.764100  0.000300  1.0  0.6189
  C  C125  1  0.871300  0.777300  0.088900  1.0  0.4119
  C  C126  1  0.749400  0.817000  0.147000  1.0  -0.1118
  C  C127  1  0.687600  0.895500  0.123700  1.0  -0.0702
  C  C128  1  0.580200  0.935900  0.175500  1.0  -0.172
  C  C129  1  0.534600  0.897800  0.250600  1.0  0.1731
  C  C130  1  0.596300  0.819300  0.273900  1.0  -0.1649
  C  C131  1  0.703700  0.778900  0.222100  1.0  -0.0633
  C  C132  1  0.426000  0.928000  0.302000  1.0  -0.3878
  C  C133  1  0.176700  0.905100  0.515700  1.0  0.6865
  C  C134  1  0.224800  0.822500  0.478300  1.0  -0.063
  C  C135  1  0.315500  0.751000  0.473000  1.0  0.0676
  C  C136  1  0.404100  0.735900  0.499700  1.0  0.6307
  C  C137  1  0.237500  0.722700  0.411100  1.0  0.4133
  C  C138  1  0.213400  0.683000  0.353000  1.0  -0.1111
  C  C139  1  0.206800  0.604500  0.376300  1.0  -0.0671
  C  C140  1  0.191600  0.564100  0.324500  1.0  -0.1736
  C  C141  1  0.183000  0.602200  0.249400  1.0  0.1741
  C  C142  1  0.189500  0.680700  0.226100  1.0  -0.1666
  C  C143  1  0.204700  0.721100  0.277900  1.0  -0.0643
  C  C144  1  0.156000  0.572000  0.198000  1.0  -0.3885
  C  C145  1  0.081800  0.015700  0.094900  1.0  0.6928
  C  C146  1  0.047300  0.978300  0.177500  1.0  -0.0634
  C  C147  1  0.066500  0.973000  0.249000  1.0  0.0666
  C  C148  1  0.140000  0.999700  0.264100  1.0  0.6175
  C  C149  1  0.960200  0.911100  0.277300  1.0  0.4106
  C  C150  1  0.896400  0.853000  0.317000  1.0  -0.1128
  C  C151  1  0.811300  0.876300  0.395500  1.0  -0.0697
  C  C152  1  0.755700  0.824500  0.435900  1.0  -0.175
  C  C153  1  0.785200  0.749400  0.397800  1.0  0.1768
  C  C154  1  0.870200  0.726100  0.319300  1.0  -0.1639
  C  C155  1  0.925800  0.777900  0.278900  1.0  -0.062
  C  C156  1  0.728000  0.698000  0.428000  1.0  -0.3889
  C  C157  1  0.692400  0.484300  0.405100  1.0  0.6879
  C  C158  1  0.703100  0.521700  0.322500  1.0  -0.0634
  C  C159  1  0.788500  0.527000  0.251000  1.0  0.0669
  C  C160  1  0.903800  0.500300  0.235900  1.0  0.6187
  C  C161  1  0.648600  0.588900  0.222700  1.0  0.4109
  C  C162  1  0.566400  0.647000  0.183000  1.0  -0.1129
  C  C163  1  0.583100  0.623700  0.104500  1.0  -0.0715
  C  C164  1  0.516100  0.675500  0.064100  1.0  -0.1731
  C  C165  1  0.432400  0.750600  0.102200  1.0  0.1729
  C  C166  1  0.415600  0.773900  0.180700  1.0  -0.1663
  C  C167  1  0.482600  0.722100  0.221100  1.0  -0.061
  C  C168  1  0.354000  0.802000  0.072000  1.0  -0.3881
  N  N169  1  0.081700  0.305200  0.937000  1.0  -0.4622
  N  N170  1  0.057400  0.189000  0.928000  1.0  -0.4664
  N  N171  1  0.823900  0.194800  0.563000  1.0  -0.4629
  N  N172  1  0.674400  0.311000  0.572000  1.0  -0.4681
  N  N173  1  0.018700  0.063000  0.805200  1.0  -0.464
  N  N174  1  0.985400  0.072000  0.689000  1.0  -0.4681
  N  N175  1  0.386900  0.437000  0.694800  1.0  -0.4643
  N  N176  1  0.246400  0.428000  0.811000  1.0  -0.4665
  N  N177  1  0.918300  0.694800  0.063000  1.0  -0.4634
  N  N178  1  0.942600  0.811000  0.072000  1.0  -0.4689
  N  N179  1  0.176100  0.805200  0.437000  1.0  -0.4594
  N  N180  1  0.325600  0.689000  0.428000  1.0  -0.4678
  N  N181  1  0.981300  0.937000  0.194800  1.0  -0.4637
  N  N182  1  0.014600  0.928000  0.311000  1.0  -0.4684
  N  N183  1  0.613100  0.563000  0.305200  1.0  -0.4631
  N  N184  1  0.753600  0.572000  0.189000  1.0  -0.4681
  O  O185  1  0.940700  0.453000  0.018800  1.0  -0.5654
  O  O186  1  0.805200  0.421800  0.049600  1.0  -0.4782
  O  O187  1  0.772500  0.297400  0.038400  1.0  -0.6457
  O  O188  1  0.870400  0.166600  0.985600  1.0  -0.6009
  O  O189  1  0.912500  0.047000  0.481200  1.0  -0.5654
  O  O190  1  0.776600  0.078200  0.450400  1.0  -0.4785
  O  O191  1  0.608300  0.202600  0.461600  1.0  -0.6395
  O  O192  1  0.522600  0.333400  0.514400  1.0  -0.599
  O  O193  1  0.959500  0.981200  0.953000  1.0  -0.5669
  O  O194  1  0.854800  0.950400  0.921800  1.0  -0.4776
  O  O195  1  0.810900  0.961600  0.797400  1.0  -0.6439
  O  O196  1  0.856000  0.014400  0.666667  1.0  -0.5958
  O  O197  1  0.393700  0.518800  0.547000  1.0  -0.5644
  O  O198  1  0.227000  0.549600  0.578200  1.0  -0.4797
  O  O199  1  0.069900  0.538400  0.702600  1.0  -0.6449
  O  O200  1  0.037000  0.485600  0.833400  1.0  -0.5996
  O  O201  1  0.059300  0.547000  0.981200  1.0  -0.5633
  O  O202  1  0.194800  0.578200  0.950400  1.0  -0.479
  O  O203  1  0.227500  0.702600  0.961600  1.0  -0.6448
  O  O204  1  0.129600  0.833400  0.014400  1.0  -0.6007
  O  O205  1  0.087500  0.953000  0.518800  1.0  -0.5658
  O  O206  1  0.223400  0.921800  0.549600  1.0  -0.4801
  O  O207  1  0.391700  0.797400  0.538400  1.0  -0.6406
  O  O208  1  0.477400  0.666667  0.485600  1.0  -0.5976
  O  O209  1  0.040500  0.018800  0.047000  1.0  -0.5631
  O  O210  1  0.145200  0.049600  0.078200  1.0  -0.4797
  O  O211  1  0.189100  0.038400  0.202600  1.0  -0.6441
  O  O212  1  0.144000  0.985600  0.333400  1.0  -0.5978
  O  O213  1  0.606300  0.481200  0.453000  1.0  -0.5649
  O  O214  1  0.773000  0.450400  0.421800  1.0  -0.4799
  O  O215  1  0.930100  0.461600  0.297400  1.0  -0.6415
  O  O216  1  0.963000  0.514400  0.166600  1.0  -0.6004
