# generated using pymatgen
data_ZnH4(C2N)4
_symmetry_space_group_name_H-M   'P 1'
_cell_length_a   14.75100000
_cell_length_b   14.75100000
_cell_length_c   14.75100000
_cell_angle_alpha   109.47100000
_cell_angle_beta   109.47100000
_cell_angle_gamma   109.47100000
_symmetry_Int_Tables_number   1
_chemical_formula_structural   ZnH4(C2N)4
_chemical_formula_sum   'Zn6 H24 C48 N24'
_cell_volume   2470.84809274
_cell_formula_units_Z   6
loop_
 _symmetry_equiv_pos_site_id
 _symmetry_equiv_pos_as_xyz
  1  'x, y, z'
loop_
 _atom_site_type_symbol
 _atom_site_label
 _atom_site_symmetry_multiplicity
 _atom_site_fract_x
 _atom_site_fract_y
 _atom_site_fract_z
 _atom_site_occupancy
 _atom_site_charge
  Zn  Zn1  1  0.250000  0.500000  0.750000  1.0  0.7519
  Zn  Zn2  1  0.500000  0.750000  0.250000  1.0  0.7517
  Zn  Zn3  1  0.750000  0.250000  0.500000  1.0  0.7519
  Zn  Zn4  1  0.500000  0.250000  0.750000  1.0  0.7519
  Zn  Zn5  1  0.250000  0.750000  0.500000  1.0  0.7519
  Zn  Zn6  1  0.750000  0.500000  0.250000  1.0  0.7518
  H  H7  1  0.656400  0.236800  0.136000  1.0  0.0842
  H  H8  1  0.419600  0.899200  0.763200  1.0  0.0859
  H  H9  1  0.343600  0.479600  0.580400  1.0  0.0854
  H  H10  1  0.656400  0.136000  0.236800  1.0  0.0858
  H  H11  1  0.236800  0.656400  0.136000  1.0  0.0836
  H  H12  1  0.419600  0.763200  0.899200  1.0  0.0848
  H  H13  1  0.864000  0.100800  0.520400  1.0  0.085
  H  H14  1  0.580400  0.343600  0.479600  1.0  0.0841
  H  H15  1  0.899200  0.419600  0.763200  1.0  0.086
  H  H16  1  0.136000  0.656400  0.236800  1.0  0.0856
  H  H17  1  0.899200  0.763200  0.419600  1.0  0.085
  H  H18  1  0.236800  0.136000  0.656400  1.0  0.0834
  H  H19  1  0.100800  0.520400  0.864000  1.0  0.0855
  H  H20  1  0.864000  0.520400  0.100800  1.0  0.0856
  H  H21  1  0.580400  0.479600  0.343600  1.0  0.0854
  H  H22  1  0.763200  0.419600  0.899200  1.0  0.0846
  H  H23  1  0.100800  0.864000  0.520400  1.0  0.0838
  H  H24  1  0.136000  0.236800  0.656400  1.0  0.0839
  H  H25  1  0.520400  0.100800  0.864000  1.0  0.0845
  H  H26  1  0.479600  0.343600  0.580400  1.0  0.0867
  H  H27  1  0.343600  0.580400  0.479600  1.0  0.0839
  H  H28  1  0.520400  0.864000  0.100800  1.0  0.087
  H  H29  1  0.763200  0.899200  0.419600  1.0  0.0855
  H  H30  1  0.479600  0.580400  0.343600  1.0  0.0844
  C  C31  1  0.414850  0.944300  0.732350  1.0  -0.0399
  C  C32  1  0.944300  0.414850  0.732350  1.0  -0.0402
  C  C33  1  0.317500  0.529450  0.585150  1.0  -0.0354
  C  C34  1  0.383540  0.754080  0.383540  1.0  0.3899
  C  C35  1  0.370540  0.616460  0.000000  1.0  0.3968
  C  C36  1  0.414850  0.732350  0.944300  1.0  -0.0404
  C  C37  1  0.680400  0.680400  0.189400  1.0  -0.0861
  C  C38  1  0.585150  0.529450  0.317500  1.0  -0.0366
  C  C39  1  0.055700  0.470550  0.788050  1.0  -0.0414
  C  C40  1  0.629460  0.629460  0.245920  1.0  0.3933
  C  C41  1  0.000000  0.509000  0.319600  1.0  -0.0777
  C  C42  1  0.319600  0.000000  0.509000  1.0  -0.0827
  C  C43  1  0.509000  0.000000  0.319600  1.0  -0.0716
  C  C44  1  0.629460  0.245920  0.629460  1.0  0.3909
  C  C45  1  0.491000  0.491000  0.810600  1.0  -0.0854
  C  C46  1  0.189400  0.680400  0.680400  1.0  -0.0801
  C  C47  1  0.732350  0.944300  0.414850  1.0  -0.0392
  C  C48  1  0.682500  0.267650  0.211950  1.0  -0.0366
  C  C49  1  0.944300  0.732350  0.414850  1.0  -0.0396
  C  C50  1  0.585150  0.317500  0.529450  1.0  -0.0357
  C  C51  1  0.245920  0.629460  0.629460  1.0  0.3907
  C  C52  1  0.317500  0.585150  0.529450  1.0  -0.0354
  C  C53  1  0.788050  0.055700  0.470550  1.0  -0.0395
  C  C54  1  0.267650  0.211950  0.682500  1.0  -0.0375
  C  C55  1  0.470550  0.055700  0.788050  1.0  -0.0405
  C  C56  1  0.529450  0.585150  0.317500  1.0  -0.0379
  C  C57  1  0.682500  0.211950  0.267650  1.0  -0.0376
  C  C58  1  0.754080  0.383540  0.383540  1.0  0.3927
  C  C59  1  0.000000  0.616460  0.370540  1.0  0.3943
  C  C60  1  0.055700  0.788050  0.470550  1.0  -0.0401
  C  C61  1  0.491000  0.810600  0.491000  1.0  -0.0875
  C  C62  1  0.000000  0.319600  0.509000  1.0  -0.0818
  C  C63  1  0.211950  0.267650  0.682500  1.0  -0.0356
  C  C64  1  0.616460  0.370540  0.000000  1.0  0.3929
  C  C65  1  0.509000  0.319600  0.000000  1.0  -0.0767
  C  C66  1  0.370540  0.000000  0.616460  1.0  0.3961
  C  C67  1  0.211950  0.682500  0.267650  1.0  -0.0366
  C  C68  1  0.319600  0.509000  0.000000  1.0  -0.0805
  C  C69  1  0.267650  0.682500  0.211950  1.0  -0.0358
  C  C70  1  0.470550  0.788050  0.055700  1.0  -0.0404
  C  C71  1  0.000000  0.370540  0.616460  1.0  0.395
  C  C72  1  0.732350  0.414850  0.944300  1.0  -0.039
  C  C73  1  0.616460  0.000000  0.370540  1.0  0.3904
  C  C74  1  0.383540  0.383540  0.754080  1.0  0.3902
  C  C75  1  0.529450  0.317500  0.585150  1.0  -0.0364
  C  C76  1  0.810600  0.491000  0.491000  1.0  -0.0905
  C  C77  1  0.680400  0.189400  0.680400  1.0  -0.0825
  C  C78  1  0.788050  0.470550  0.055700  1.0  -0.0391
  N  N79  1  0.272450  0.650590  0.558220  1.0  -0.3905
  N  N80  1  0.349410  0.621860  0.907630  1.0  -0.3903
  N  N81  1  0.441780  0.092370  0.714230  1.0  -0.3907
  N  N82  1  0.441780  0.714230  0.092370  1.0  -0.3882
  N  N83  1  0.650590  0.272450  0.558220  1.0  -0.3908
  N  N84  1  0.558220  0.650590  0.272450  1.0  -0.391
  N  N85  1  0.558220  0.272450  0.650590  1.0  -0.3895
  N  N86  1  0.378140  0.285770  0.727550  1.0  -0.3894
  N  N87  1  0.092370  0.714230  0.441780  1.0  -0.3886
  N  N88  1  0.907630  0.349410  0.621860  1.0  -0.3903
  N  N89  1  0.621860  0.349410  0.907630  1.0  -0.3901
  N  N90  1  0.621860  0.907630  0.349410  1.0  -0.3914
  N  N91  1  0.727550  0.285770  0.378140  1.0  -0.3889
  N  N92  1  0.378140  0.727550  0.285770  1.0  -0.3908
  N  N93  1  0.285770  0.378140  0.727550  1.0  -0.391
  N  N94  1  0.349410  0.907630  0.621860  1.0  -0.3912
  N  N95  1  0.092370  0.441780  0.714230  1.0  -0.3902
  N  N96  1  0.650590  0.558220  0.272450  1.0  -0.3909
  N  N97  1  0.727550  0.378140  0.285770  1.0  -0.391
  N  N98  1  0.714230  0.441780  0.092370  1.0  -0.3887
  N  N99  1  0.272450  0.558220  0.650590  1.0  -0.3894
  N  N100  1  0.907630  0.621860  0.349410  1.0  -0.3907
  N  N101  1  0.285770  0.727550  0.378140  1.0  -0.3896
  N  N102  1  0.714230  0.092370  0.441780  1.0  -0.3912
