# generated using pymatgen
data_Zn6H59(C2N)24
_symmetry_space_group_name_H-M   'P 1'
_cell_length_a   14.72690000
_cell_length_b   14.72690000
_cell_length_c   14.72690000
_cell_angle_alpha   109.47100000
_cell_angle_beta   109.47100000
_cell_angle_gamma   109.47100000
_symmetry_Int_Tables_number   1
_chemical_formula_structural   Zn6H59(C2N)24
_chemical_formula_sum   'Zn6 H59 C48 N24'
_cell_volume   2458.75734550
_cell_formula_units_Z   1
loop_
 _symmetry_equiv_pos_site_id
 _symmetry_equiv_pos_as_xyz
  1  'x, y, z'
loop_
 _atom_site_type_symbol
 _atom_site_label
 _atom_site_symmetry_multiplicity
 _atom_site_fract_x
 _atom_site_fract_y
 _atom_site_fract_z
 _atom_site_occupancy
 _atom_site_charge
  Zn  Zn1  1  0.750000  0.500000  0.250000  1.0  0.7764
  Zn  Zn2  1  0.250000  0.500000  0.750000  1.0  0.7543
  Zn  Zn3  1  0.250000  0.750000  0.500000  1.0  0.7671
  Zn  Zn4  1  0.750000  0.250000  0.500000  1.0  0.755
  Zn  Zn5  1  0.500000  0.750000  0.250000  1.0  0.7583
  Zn  Zn6  1  0.500000  0.250000  0.750000  1.0  0.7566
  H  H7  1  0.639560  0.522940  0.419010  1.0  0.1051
  H  H8  1  0.103930  0.220550  0.580990  1.0  0.1077
  H  H9  1  0.896070  0.477060  0.116620  1.0  0.1017
  H  H10  1  0.360440  0.779450  0.883380  1.0  0.1018
  H  H11  1  0.116620  0.896070  0.477060  1.0  0.1001
  H  H12  1  0.883380  0.360440  0.779450  1.0  0.1075
  H  H13  1  0.419010  0.639560  0.522940  1.0  0.1051
  H  H14  1  0.580990  0.103930  0.220550  1.0  0.1119
  H  H15  1  0.220550  0.580990  0.103930  1.0  0.1048
  H  H16  1  0.522940  0.419010  0.639560  1.0  0.1106
  H  H17  1  0.779450  0.883380  0.360440  1.0  0.1079
  H  H18  1  0.477060  0.116620  0.896070  1.0  0.1159
  H  H19  1  0.220550  0.103930  0.580990  1.0  0.108
  H  H20  1  0.522940  0.639560  0.419010  1.0  0.1044
  H  H21  1  0.779450  0.360440  0.883380  1.0  0.1031
  H  H22  1  0.477060  0.896070  0.116620  1.0  0.1078
  H  H23  1  0.639560  0.419010  0.522940  1.0  0.1004
  H  H24  1  0.103930  0.580990  0.220550  1.0  0.1051
  H  H25  1  0.896070  0.116620  0.477060  1.0  0.1053
  H  H26  1  0.360440  0.883380  0.779450  1.0  0.1086
  H  H27  1  0.116620  0.477060  0.896070  1.0  0.1067
  H  H28  1  0.883380  0.779450  0.360440  1.0  0.1072
  H  H29  1  0.419010  0.522940  0.639560  1.0  0.103
  H  H30  1  0.796700  0.322180  0.241440  1.0  0.1338
  H  H31  1  0.785750  0.235440  0.309020  1.0  0.1392
  H  H32  1  0.909330  0.376720  0.383880  1.0  0.1327
  H  H33  1  0.913570  0.473400  0.662940  1.0  0.1345
  H  H34  1  0.023490  0.540460  0.633650  1.0  0.1369
  H  H35  1  0.062940  0.543570  0.769070  1.0  0.1387
  H  H36  1  0.911060  0.650950  0.473690  1.0  0.1416
  H  H37  1  0.052170  0.770730  0.537170  1.0  0.1339
  H  H38  1  0.036770  0.643980  0.546570  1.0  0.1285
  H  H39  1  0.214250  0.449690  0.523280  1.0  0.1376
  H  H40  1  0.203300  0.525480  0.444740  1.0  0.1367
  H  H41  1  0.090670  0.467400  0.474550  1.0  0.1322
  H  H42  1  0.538880  0.020150  0.631330  1.0  0.1322
  H  H43  1  0.473500  0.914510  0.665970  1.0  0.1383
  H  H44  1  0.545040  0.065340  0.768360  1.0  0.1371
  H  H45  1  0.476240  0.090960  0.465780  1.0  0.1365
  H  H46  1  0.522610  0.216640  0.450960  1.0  0.1366
  H  H47  1  0.443720  0.200630  0.525830  1.0  0.1391
  H  H48  1  0.229280  0.762220  0.274040  1.0  0.1332
  H  H49  1  0.356070  0.830510  0.266690  1.0  0.1367
  H  H50  1  0.348990  0.899040  0.393610  1.0  0.1429
  H  H51  1  0.762020  0.077140  0.552700  1.0  0.1364
  H  H52  1  0.683890  0.922320  0.475400  1.0  0.1389
  H  H53  1  0.619750  0.000540  0.529330  1.0  0.132
  H  H54  1  0.477390  0.694030  0.928350  1.0  0.1389
  H  H55  1  0.523760  0.614720  0.989550  1.0  0.1345
  H  H56  1  0.556270  0.756910  0.082100  1.0  0.1422
  H  H57  1  0.316110  0.238430  0.791510  1.0  0.1394
  H  H58  1  0.237980  0.315120  0.790690  1.0  0.1382
  H  H59  1  0.380250  0.380790  0.909580  1.0  0.1338
  H  H60  1  0.526500  0.441000  0.192470  1.0  0.1418
  H  H61  1  0.461120  0.481270  0.092450  1.0  0.132
  H  H62  1  0.454950  0.520290  0.223310  1.0  0.1412
  H  H63  1  0.643930  0.474440  0.910620  1.0  0.1378
  H  H64  1  0.770720  0.532940  0.044770  1.0  0.1308
  H  H65  1  0.651010  0.550040  0.044620  1.0  0.1438
  C  C66  1  0.677990  0.467150  0.410620  1.0  -0.0679
  C  C67  1  0.056530  0.267370  0.589380  1.0  -0.0605
  C  C68  1  0.943470  0.532850  0.210840  1.0  -0.0736
  C  C69  1  0.322010  0.732630  0.789160  1.0  -0.0652
  C  C70  1  0.210840  0.943470  0.532850  1.0  -0.0725
  C  C71  1  0.789160  0.322010  0.732630  1.0  -0.0436
  C  C72  1  0.410620  0.677990  0.467150  1.0  -0.0592
  C  C73  1  0.589380  0.056530  0.267370  1.0  -0.0664
  C  C74  1  0.267370  0.589380  0.056530  1.0  -0.0628
  C  C75  1  0.467150  0.410620  0.677990  1.0  -0.0576
  C  C76  1  0.732630  0.789160  0.322010  1.0  -0.0684
  C  C77  1  0.532850  0.210840  0.943470  1.0  -0.065
  C  C78  1  0.267370  0.056530  0.589380  1.0  -0.0717
  C  C79  1  0.467150  0.677990  0.410620  1.0  -0.0717
  C  C80  1  0.732630  0.322010  0.789160  1.0  -0.054
  C  C81  1  0.532850  0.943470  0.210840  1.0  -0.0627
  C  C82  1  0.677990  0.410620  0.467150  1.0  -0.0714
  C  C83  1  0.056530  0.589380  0.267370  1.0  -0.0739
  C  C84  1  0.943470  0.210840  0.532850  1.0  -0.065
  C  C85  1  0.322010  0.789160  0.732630  1.0  -0.0513
  C  C86  1  0.210840  0.532850  0.943470  1.0  -0.0552
  C  C87  1  0.789160  0.732630  0.322010  1.0  -0.0595
  C  C88  1  0.410620  0.467150  0.677990  1.0  -0.0667
  C  C89  1  0.589380  0.267370  0.056530  1.0  0.0351
  C  C90  1  0.815800  0.323800  0.323800  1.0  -0.4729
  C  C91  1  0.757660  0.372360  0.372360  1.0  0.4354
  C  C92  1  0.000000  0.492000  0.676200  1.0  -0.4719
  C  C93  1  0.000000  0.385300  0.627640  1.0  0.4483
  C  C94  1  0.000000  0.676200  0.492000  1.0  -0.4726
  C  C95  1  0.000000  0.627640  0.385300  1.0  0.4484
  C  C96  1  0.184200  0.508000  0.508000  1.0  -0.47
  C  C97  1  0.242340  0.614700  0.614700  1.0  0.4445
  C  C98  1  0.492000  0.000000  0.676200  1.0  -0.4743
  C  C99  1  0.385300  0.000000  0.627640  1.0  0.4448
  C  C100  1  0.508000  0.184200  0.508000  1.0  -0.4788
  C  C101  1  0.614700  0.242340  0.614700  1.0  0.4442
  C  C102  1  0.323800  0.815800  0.323800  1.0  -0.4733
  C  C103  1  0.372360  0.757660  0.372360  1.0  0.4433
  C  C104  1  0.676200  0.000000  0.492000  1.0  -0.4787
  C  C105  1  0.627640  0.000000  0.385300  1.0  0.4357
  C  C106  1  0.492000  0.676200  0.000000  1.0  -0.477
  C  C107  1  0.385300  0.627640  0.000000  1.0  0.4421
  C  C108  1  0.323800  0.323800  0.815800  1.0  -0.479
  C  C109  1  0.372360  0.372360  0.757660  1.0  0.4347
  C  C110  1  0.508000  0.508000  0.184200  1.0  -0.4739
  C  C111  1  0.614700  0.614700  0.242340  1.0  0.4471
  C  C112  1  0.676200  0.492000  0.000000  1.0  -0.4734
  C  C113  1  0.627640  0.385300  0.000000  1.0  0.4456
  N  N114  1  0.728540  0.442960  0.350380  1.0  -0.432
  N  N115  1  0.092580  0.378160  0.649620  1.0  -0.419
  N  N116  1  0.907420  0.557040  0.285580  1.0  -0.4232
  N  N117  1  0.271460  0.621840  0.714420  1.0  -0.4244
  N  N118  1  0.285580  0.907420  0.557040  1.0  -0.4245
  N  N119  1  0.714420  0.271460  0.621840  1.0  -0.4223
  N  N120  1  0.350380  0.728540  0.442960  1.0  -0.423
  N  N121  1  0.649620  0.092580  0.378160  1.0  -0.4108
  N  N122  1  0.378160  0.649620  0.092580  1.0  -0.426
  N  N123  1  0.442960  0.350380  0.728540  1.0  -0.4207
  N  N124  1  0.621840  0.714420  0.271460  1.0  -0.4209
  N  N125  1  0.557040  0.285580  0.907420  1.0  -0.4053
  N  N126  1  0.378160  0.092580  0.649620  1.0  -0.4205
  N  N127  1  0.442960  0.728540  0.350380  1.0  -0.4104
  N  N128  1  0.621840  0.271460  0.714420  1.0  -0.4246
  N  N129  1  0.557040  0.907420  0.285580  1.0  -0.4191
  N  N130  1  0.728540  0.350380  0.442960  1.0  -0.4311
  N  N131  1  0.092580  0.649620  0.378160  1.0  -0.4192
  N  N132  1  0.907420  0.285580  0.557040  1.0  -0.4173
  N  N133  1  0.271460  0.714420  0.621840  1.0  -0.4288
  N  N134  1  0.285580  0.557040  0.907420  1.0  -0.4234
  N  N135  1  0.714420  0.621840  0.271460  1.0  -0.4254
  N  N136  1  0.350380  0.442960  0.728540  1.0  -0.4122
  N  N137  1  0.649620  0.378160  0.092580  1.0  -0.4317
