# generated using pymatgen
data_ZnH10(C2N)4
_symmetry_space_group_name_H-M   'P 1'
_cell_length_a   14.71380000
_cell_length_b   14.71380000
_cell_length_c   14.71380000
_cell_angle_alpha   109.47100000
_cell_angle_beta   109.47100000
_cell_angle_gamma   109.47100000
_symmetry_Int_Tables_number   1
_chemical_formula_structural   ZnH10(C2N)4
_chemical_formula_sum   'Zn6 H60 C48 N24'
_cell_volume   2452.20177476
_cell_formula_units_Z   6
loop_
 _symmetry_equiv_pos_site_id
 _symmetry_equiv_pos_as_xyz
  1  'x, y, z'
loop_
 _atom_site_type_symbol
 _atom_site_label
 _atom_site_symmetry_multiplicity
 _atom_site_fract_x
 _atom_site_fract_y
 _atom_site_fract_z
 _atom_site_occupancy
 _atom_site_charge
  Zn  Zn1  1  0.250000  0.750000  0.500000  1.0  0.7364
  Zn  Zn2  1  0.750000  0.250000  0.500000  1.0  0.7361
  Zn  Zn3  1  0.500000  0.750000  0.250000  1.0  0.7364
  Zn  Zn4  1  0.500000  0.250000  0.750000  1.0  0.7374
  Zn  Zn5  1  0.750000  0.500000  0.250000  1.0  0.736
  Zn  Zn6  1  0.250000  0.500000  0.750000  1.0  0.7373
  H  H7  1  0.422400  0.656400  0.536600  1.0  0.0626
  H  H8  1  0.310400  0.794100  0.244300  1.0  0.0911
  H  H9  1  0.119800  0.885800  0.463400  1.0  0.0616
  H  H10  1  0.549800  0.066100  0.755700  1.0  0.0878
  H  H11  1  0.880200  0.343600  0.766000  1.0  0.0617
  H  H12  1  0.450200  0.205900  0.516300  1.0  0.0828
  H  H13  1  0.577600  0.114200  0.234000  1.0  0.0619
  H  H14  1  0.689600  0.933900  0.483700  1.0  0.0895
  H  H15  1  0.766000  0.880200  0.343600  1.0  0.0597
  H  H16  1  0.516300  0.450200  0.205900  1.0  0.09
  H  H17  1  0.234000  0.577600  0.114200  1.0  0.0619
  H  H18  1  0.483700  0.689600  0.933900  1.0  0.0906
  H  H19  1  0.536600  0.422400  0.656400  1.0  0.0653
  H  H20  1  0.244300  0.310400  0.794100  1.0  0.0838
  H  H21  1  0.463400  0.119800  0.885800  1.0  0.0647
  H  H22  1  0.755700  0.549800  0.066100  1.0  0.0878
  H  H23  1  0.885800  0.463400  0.119800  1.0  0.059
  H  H24  1  0.066100  0.755700  0.549800  1.0  0.0891
  H  H25  1  0.656400  0.536600  0.422400  1.0  0.0645
  H  H26  1  0.794100  0.244300  0.310400  1.0  0.0905
  H  H27  1  0.114200  0.234000  0.577600  1.0  0.0635
  H  H28  1  0.933900  0.483700  0.689600  1.0  0.0863
  H  H29  1  0.343600  0.766000  0.880200  1.0  0.0605
  H  H30  1  0.205900  0.516300  0.450200  1.0  0.0905
  H  H31  1  0.885800  0.119800  0.463400  1.0  0.0578
  H  H32  1  0.066100  0.549800  0.755700  1.0  0.0883
  H  H33  1  0.656400  0.422400  0.536600  1.0  0.0615
  H  H34  1  0.794100  0.310400  0.244300  1.0  0.0917
  H  H35  1  0.114200  0.577600  0.234000  1.0  0.0625
  H  H36  1  0.933900  0.689600  0.483700  1.0  0.0817
  H  H37  1  0.343600  0.880200  0.766000  1.0  0.0627
  H  H38  1  0.205900  0.450200  0.516300  1.0  0.0881
  H  H39  1  0.422400  0.536600  0.656400  1.0  0.0591
  H  H40  1  0.310400  0.244300  0.794100  1.0  0.0906
  H  H41  1  0.119800  0.463400  0.885800  1.0  0.0604
  H  H42  1  0.549800  0.755700  0.066100  1.0  0.0885
  H  H43  1  0.880200  0.766000  0.343600  1.0  0.0602
  H  H44  1  0.450200  0.516300  0.205900  1.0  0.0871
  H  H45  1  0.577600  0.234000  0.114200  1.0  0.06
  H  H46  1  0.689600  0.483700  0.933900  1.0  0.0905
  H  H47  1  0.766000  0.343600  0.880200  1.0  0.0579
  H  H48  1  0.516300  0.205900  0.450200  1.0  0.0893
  H  H49  1  0.234000  0.114200  0.577600  1.0  0.0602
  H  H50  1  0.483700  0.933900  0.689600  1.0  0.0897
  H  H51  1  0.536600  0.656400  0.422400  1.0  0.0615
  H  H52  1  0.244300  0.794100  0.310400  1.0  0.0818
  H  H53  1  0.463400  0.885800  0.119800  1.0  0.0587
  H  H54  1  0.755700  0.066100  0.549800  1.0  0.0878
  H  H55  1  0.370100  0.881800  0.370100  1.0  0.148
  H  H56  1  0.511700  0.000000  0.629900  1.0  0.148
  H  H57  1  0.488300  0.118200  0.488300  1.0  0.1466
  H  H58  1  0.629900  0.000000  0.511700  1.0  0.1449
  H  H59  1  0.488300  0.488300  0.118200  1.0  0.1484
  H  H60  1  0.511700  0.629900  0.000000  1.0  0.1475
  H  H61  1  0.370100  0.370100  0.881800  1.0  0.1473
  H  H62  1  0.629900  0.511700  0.000000  1.0  0.138
  H  H63  1  0.000000  0.629900  0.511700  1.0  0.1449
  H  H64  1  0.881800  0.370100  0.370100  1.0  0.1497
  H  H65  1  0.000000  0.511700  0.629900  1.0  0.148
  H  H66  1  0.118200  0.488300  0.488300  1.0  0.137
  C  C67  1  0.414560  0.683560  0.472800  1.0  0.0839
  C  C68  1  0.210760  0.941760  0.527200  1.0  0.0795
  C  C69  1  0.789240  0.316440  0.731000  1.0  0.0806
  C  C70  1  0.585440  0.058240  0.269000  1.0  0.0854
  C  C71  1  0.731000  0.789240  0.316440  1.0  0.0817
  C  C72  1  0.269000  0.585440  0.058240  1.0  0.0881
  C  C73  1  0.472800  0.414560  0.683560  1.0  0.0807
  C  C74  1  0.527200  0.210760  0.941760  1.0  0.0787
  C  C75  1  0.941760  0.527200  0.210760  1.0  0.0793
  C  C76  1  0.683560  0.472800  0.414560  1.0  0.0773
  C  C77  1  0.058240  0.269000  0.585440  1.0  0.0862
  C  C78  1  0.316440  0.731000  0.789240  1.0  0.0785
  C  C79  1  0.941760  0.210760  0.527200  1.0  0.0807
  C  C80  1  0.683560  0.414560  0.472800  1.0  0.0809
  C  C81  1  0.058240  0.585440  0.269000  1.0  0.0862
  C  C82  1  0.316440  0.789240  0.731000  1.0  0.0787
  C  C83  1  0.414560  0.472800  0.683560  1.0  0.0786
  C  C84  1  0.210760  0.527200  0.941760  1.0  0.078
  C  C85  1  0.789240  0.731000  0.316440  1.0  0.0791
  C  C86  1  0.585440  0.269000  0.058240  1.0  0.0849
  C  C87  1  0.731000  0.316440  0.789240  1.0  0.0827
  C  C88  1  0.269000  0.058240  0.585440  1.0  0.0842
  C  C89  1  0.472800  0.683560  0.414560  1.0  0.0816
  C  C90  1  0.527200  0.941760  0.210760  1.0  0.0819
  C  C91  1  0.373000  0.756800  0.373000  1.0  0.338
  C  C92  1  0.319500  0.805800  0.319500  1.0  -0.3607
  C  C93  1  0.383800  0.000000  0.627000  1.0  0.3392
  C  C94  1  0.486300  0.000000  0.680500  1.0  -0.3699
  C  C95  1  0.616200  0.243200  0.616200  1.0  0.3378
  C  C96  1  0.513700  0.194200  0.513700  1.0  -0.3609
  C  C97  1  0.627000  0.000000  0.383800  1.0  0.3391
  C  C98  1  0.680500  0.000000  0.486300  1.0  -0.3707
  C  C99  1  0.616200  0.616200  0.243200  1.0  0.3386
  C  C100  1  0.513700  0.513700  0.194200  1.0  -0.36
  C  C101  1  0.383800  0.627000  0.000000  1.0  0.3398
  C  C102  1  0.486300  0.680500  0.000000  1.0  -0.3665
  C  C103  1  0.373000  0.373000  0.756800  1.0  0.3392
  C  C104  1  0.319500  0.319500  0.805800  1.0  -0.3628
  C  C105  1  0.627000  0.383800  0.000000  1.0  0.3397
  C  C106  1  0.680500  0.486300  0.000000  1.0  -0.3669
  C  C107  1  0.000000  0.627000  0.383800  1.0  0.3403
  C  C108  1  0.000000  0.680500  0.486300  1.0  -0.3687
  C  C109  1  0.756800  0.373000  0.373000  1.0  0.3388
  C  C110  1  0.805800  0.319500  0.319500  1.0  -0.3619
  C  C111  1  0.000000  0.383800  0.627000  1.0  0.34
  C  C112  1  0.000000  0.486300  0.680500  1.0  -0.3675
  C  C113  1  0.243200  0.616200  0.616200  1.0  0.3378
  C  C114  1  0.194200  0.513700  0.513700  1.0  -0.3616
  N  N115  1  0.351450  0.727980  0.445330  1.0  -0.477
  N  N116  1  0.282650  0.906120  0.554670  1.0  -0.4738
  N  N117  1  0.717350  0.272020  0.623470  1.0  -0.4729
  N  N118  1  0.648550  0.093880  0.376530  1.0  -0.474
  N  N119  1  0.623470  0.717350  0.272020  1.0  -0.4785
  N  N120  1  0.376530  0.648550  0.093880  1.0  -0.4755
  N  N121  1  0.445330  0.351450  0.727980  1.0  -0.4754
  N  N122  1  0.554670  0.282650  0.906120  1.0  -0.4739
  N  N123  1  0.906120  0.554670  0.282650  1.0  -0.476
  N  N124  1  0.727980  0.445330  0.351450  1.0  -0.4724
  N  N125  1  0.093880  0.376530  0.648550  1.0  -0.4763
  N  N126  1  0.272020  0.623470  0.717350  1.0  -0.4748
  N  N127  1  0.906120  0.282650  0.554670  1.0  -0.4781
  N  N128  1  0.727980  0.351450  0.445330  1.0  -0.4748
  N  N129  1  0.093880  0.648550  0.376530  1.0  -0.4758
  N  N130  1  0.272020  0.717350  0.623470  1.0  -0.4737
  N  N131  1  0.351450  0.445330  0.727980  1.0  -0.4759
  N  N132  1  0.282650  0.554670  0.906120  1.0  -0.4724
  N  N133  1  0.717350  0.623470  0.272020  1.0  -0.4763
  N  N134  1  0.648550  0.376530  0.093880  1.0  -0.4743
  N  N135  1  0.623470  0.272020  0.717350  1.0  -0.4769
  N  N136  1  0.376530  0.093880  0.648550  1.0  -0.4747
  N  N137  1  0.445330  0.727980  0.351450  1.0  -0.4728
  N  N138  1  0.554670  0.906120  0.282650  1.0  -0.4734
