# generated using pymatgen
data_EuH3(C3O2)3
_symmetry_space_group_name_H-M   'P 1'
_cell_length_a   10.31750000
_cell_length_b   10.31750000
_cell_length_c   14.29000000
_cell_angle_alpha   90.00000000
_cell_angle_beta   90.00000000
_cell_angle_gamma   90.00000000
_symmetry_Int_Tables_number   1
_chemical_formula_structural   EuH3(C3O2)3
_chemical_formula_sum   'Eu4 H12 C36 O24'
_cell_volume   1521.18202131
_cell_formula_units_Z   4
loop_
 _symmetry_equiv_pos_site_id
 _symmetry_equiv_pos_as_xyz
  1  'x, y, z'
loop_
 _atom_site_type_symbol
 _atom_site_label
 _atom_site_symmetry_multiplicity
 _atom_site_fract_x
 _atom_site_fract_y
 _atom_site_fract_z
 _atom_site_occupancy
 _atom_site_charge
  Eu  Eu1  1  0.139600  0.860400  0.125000  1.0  2.2219
  Eu  Eu2  1  0.860400  0.139600  0.625000  1.0  2.2224
  Eu  Eu3  1  0.139600  0.139600  0.375000  1.0  2.2217
  Eu  Eu4  1  0.860400  0.860400  0.875000  1.0  2.2225
  H  H5  1  0.941100  0.447900  0.866100  1.0  0.1253
  H  H6  1  0.058900  0.552100  0.366100  1.0  0.1257
  H  H7  1  0.552100  0.941100  0.116100  1.0  0.1255
  H  H8  1  0.447900  0.058900  0.616100  1.0  0.1257
  H  H9  1  0.058900  0.447900  0.133900  1.0  0.1259
  H  H10  1  0.941100  0.552100  0.633900  1.0  0.126
  H  H11  1  0.447900  0.941100  0.883900  1.0  0.1261
  H  H12  1  0.552100  0.058900  0.383900  1.0  0.1258
  H  H13  1  0.000000  0.115200  0.000000  1.0  0.0389
  H  H14  1  0.000000  0.884800  0.500000  1.0  0.0371
  H  H15  1  0.884800  0.000000  0.250000  1.0  0.0367
  H  H16  1  0.115200  0.000000  0.750000  1.0  0.0393
  C  C17  1  0.964600  0.401400  0.921000  1.0  -0.0417
  C  C18  1  0.963600  0.265900  0.922200  1.0  -0.1144
  C  C19  1  0.924400  0.195200  0.834700  1.0  0.698
  C  C20  1  0.035400  0.598600  0.421000  1.0  -0.0437
  C  C21  1  0.036400  0.734100  0.422200  1.0  -0.1143
  C  C22  1  0.075600  0.804800  0.334700  1.0  0.6974
  C  C23  1  0.598600  0.964600  0.171000  1.0  -0.0414
  C  C24  1  0.734100  0.963600  0.172200  1.0  -0.1134
  C  C25  1  0.804800  0.924400  0.084700  1.0  0.6978
  C  C26  1  0.401400  0.035400  0.671000  1.0  -0.0424
  C  C27  1  0.265900  0.036400  0.672200  1.0  -0.1142
  C  C28  1  0.195200  0.075600  0.584700  1.0  0.6968
  C  C29  1  0.035400  0.401400  0.079000  1.0  -0.0447
  C  C30  1  0.036400  0.265900  0.077800  1.0  -0.1165
  C  C31  1  0.075600  0.195200  0.165300  1.0  0.6984
  C  C32  1  0.964600  0.598600  0.579000  1.0  -0.0447
  C  C33  1  0.963600  0.734100  0.577800  1.0  -0.116
  C  C34  1  0.924400  0.804800  0.665300  1.0  0.6979
  C  C35  1  0.401400  0.964600  0.829000  1.0  -0.0442
  C  C36  1  0.265900  0.963600  0.827800  1.0  -0.116
  C  C37  1  0.195200  0.924400  0.915300  1.0  0.6981
  C  C38  1  0.598600  0.035400  0.329000  1.0  -0.044
  C  C39  1  0.734100  0.036400  0.327800  1.0  -0.1148
  C  C40  1  0.804800  0.075600  0.415300  1.0  0.698
  C  C41  1  0.000000  0.619400  0.000000  1.0  0.798
  C  C42  1  0.000000  0.464600  0.000000  1.0  -0.1227
  C  C43  1  0.000000  0.207300  0.000000  1.0  -0.0169
  C  C44  1  0.000000  0.380600  0.500000  1.0  0.7969
  C  C45  1  0.000000  0.535400  0.500000  1.0  -0.1235
  C  C46  1  0.000000  0.792700  0.500000  1.0  -0.0169
  C  C47  1  0.380600  0.000000  0.250000  1.0  0.8014
  C  C48  1  0.535400  0.000000  0.250000  1.0  -0.1252
  C  C49  1  0.792700  0.000000  0.250000  1.0  -0.0157
  C  C50  1  0.619400  0.000000  0.750000  1.0  0.7993
  C  C51  1  0.464600  0.000000  0.750000  1.0  -0.1274
  C  C52  1  0.207300  0.000000  0.750000  1.0  -0.0182
  O  O53  1  0.065100  0.671000  0.060600  1.0  -0.6996
  O  O54  1  0.911300  0.255100  0.760500  1.0  -0.6584
  O  O55  1  0.903700  0.080900  0.836900  1.0  -0.7646
  O  O56  1  0.934900  0.329000  0.560600  1.0  -0.7
  O  O57  1  0.088700  0.744900  0.260500  1.0  -0.6576
  O  O58  1  0.096300  0.919100  0.336900  1.0  -0.7648
  O  O59  1  0.329000  0.065100  0.310600  1.0  -0.7023
  O  O60  1  0.744900  0.911300  0.010500  1.0  -0.6561
  O  O61  1  0.919100  0.903700  0.086900  1.0  -0.767
  O  O62  1  0.671000  0.934900  0.810600  1.0  -0.7021
  O  O63  1  0.255100  0.088700  0.510500  1.0  -0.655
  O  O64  1  0.080900  0.096300  0.586900  1.0  -0.7677
  O  O65  1  0.934900  0.671000  0.939400  1.0  -0.6992
  O  O66  1  0.088700  0.255100  0.239500  1.0  -0.6576
  O  O67  1  0.096300  0.080900  0.163100  1.0  -0.7637
  O  O68  1  0.065100  0.329000  0.439400  1.0  -0.6998
  O  O69  1  0.911300  0.744900  0.739500  1.0  -0.6583
  O  O70  1  0.903700  0.919100  0.663100  1.0  -0.7661
  O  O71  1  0.671000  0.065100  0.689400  1.0  -0.7028
  O  O72  1  0.255100  0.911300  0.989500  1.0  -0.6564
  O  O73  1  0.080900  0.903700  0.913100  1.0  -0.7675
  O  O74  1  0.329000  0.934900  0.189400  1.0  -0.7012
  O  O75  1  0.744900  0.088700  0.489500  1.0  -0.6558
  O  O76  1  0.919100  0.096300  0.413100  1.0  -0.7679
