# generated using pymatgen
data_Nd2Cu3H30C24(NO4)6
_symmetry_space_group_name_H-M   'P 1'
_cell_length_a   13.41400000
_cell_length_b   13.41400000
_cell_length_c   14.70600000
_cell_angle_alpha   90.00000000
_cell_angle_beta   90.00000000
_cell_angle_gamma   120.00000000
_symmetry_Int_Tables_number   1
_chemical_formula_structural   Nd2Cu3H30C24(NO4)6
_chemical_formula_sum   'Nd4 Cu6 H60 C48 N12 O48'
_cell_volume   2291.61574419
_cell_formula_units_Z   2
loop_
 _symmetry_equiv_pos_site_id
 _symmetry_equiv_pos_as_xyz
  1  'x, y, z'
loop_
 _atom_site_type_symbol
 _atom_site_label
 _atom_site_symmetry_multiplicity
 _atom_site_fract_x
 _atom_site_fract_y
 _atom_site_fract_z
 _atom_site_occupancy
 _atom_site_charge
  Nd  Nd1  1  0.666667  0.333333  0.669030  1.0  2.287
  Nd  Nd2  1  0.333333  0.666667  0.830970  1.0  2.2871
  Nd  Nd3  1  0.333333  0.666667  0.330970  1.0  2.2871
  Nd  Nd4  1  0.666667  0.333333  0.169030  1.0  2.287
  Cu  Cu5  1  0.500000  0.500000  0.000000  1.0  0.812
  Cu  Cu6  1  0.000000  0.500000  0.000000  1.0  0.812
  Cu  Cu7  1  0.500000  0.000000  0.000000  1.0  0.812
  Cu  Cu8  1  0.000000  0.500000  0.500000  1.0  0.812
  Cu  Cu9  1  0.500000  0.500000  0.500000  1.0  0.812
  Cu  Cu10  1  0.500000  0.000000  0.500000  1.0  0.812
  H  H11  1  0.325700  0.351100  0.922500  1.0  0.2328
  H  H12  1  0.458400  0.268300  0.872300  1.0  0.1174
  H  H13  1  0.398300  0.316400  0.808900  1.0  0.1223
  H  H14  1  0.292700  0.253100  0.047400  1.0  0.1194
  H  H15  1  0.320800  0.181900  0.977700  1.0  0.0992
  H  H16  1  0.025400  0.674300  0.922500  1.0  0.233
  H  H17  1  0.809900  0.541600  0.872300  1.0  0.121
  H  H18  1  0.918100  0.601700  0.808900  1.0  0.1223
  H  H19  1  0.960400  0.707300  0.047400  1.0  0.1183
  H  H20  1  0.861100  0.679200  0.977700  1.0  0.0987
  H  H21  1  0.648900  0.974600  0.922500  1.0  0.2335
  H  H22  1  0.731700  0.190100  0.872300  1.0  0.1186
  H  H23  1  0.683600  0.081900  0.808900  1.0  0.1225
  H  H24  1  0.746900  0.039600  0.047400  1.0  0.1187
  H  H25  1  0.818100  0.138900  0.977700  1.0  0.1
  H  H26  1  0.974600  0.648900  0.577500  1.0  0.2331
  H  H27  1  0.190100  0.731700  0.627700  1.0  0.1169
  H  H28  1  0.081900  0.683600  0.691100  1.0  0.1225
  H  H29  1  0.039600  0.746900  0.452600  1.0  0.1189
  H  H30  1  0.138900  0.818100  0.522300  1.0  0.0994
  H  H31  1  0.351100  0.325700  0.577500  1.0  0.2326
  H  H32  1  0.268300  0.458400  0.627700  1.0  0.1206
  H  H33  1  0.316400  0.398300  0.691100  1.0  0.1221
  H  H34  1  0.253100  0.292700  0.452600  1.0  0.1186
  H  H35  1  0.181900  0.320800  0.522300  1.0  0.0988
  H  H36  1  0.674300  0.025400  0.577500  1.0  0.233
  H  H37  1  0.541600  0.809900  0.627700  1.0  0.1181
  H  H38  1  0.601700  0.918100  0.691100  1.0  0.1218
  H  H39  1  0.707300  0.960400  0.452600  1.0  0.1185
  H  H40  1  0.679200  0.861100  0.522300  1.0  0.0998
  H  H41  1  0.674300  0.648900  0.077500  1.0  0.2331
  H  H42  1  0.541600  0.731700  0.127700  1.0  0.1179
  H  H43  1  0.601700  0.683600  0.191100  1.0  0.1221
  H  H44  1  0.707300  0.746900  0.952600  1.0  0.1166
  H  H45  1  0.679200  0.818100  0.022300  1.0  0.0991
  H  H46  1  0.974600  0.325700  0.077500  1.0  0.2328
  H  H47  1  0.190100  0.458400  0.127700  1.0  0.1217
  H  H48  1  0.081900  0.398300  0.191100  1.0  0.1219
  H  H49  1  0.039600  0.292700  0.952600  1.0  0.1167
  H  H50  1  0.138900  0.320800  0.022300  1.0  0.0992
  H  H51  1  0.351100  0.025400  0.077500  1.0  0.2332
  H  H52  1  0.268300  0.809900  0.127700  1.0  0.118
  H  H53  1  0.316400  0.918100  0.191100  1.0  0.1228
  H  H54  1  0.253100  0.960400  0.952600  1.0  0.117
  H  H55  1  0.181900  0.861100  0.022300  1.0  0.1
  H  H56  1  0.025400  0.351100  0.422500  1.0  0.2333
  H  H57  1  0.809900  0.268300  0.372300  1.0  0.1177
  H  H58  1  0.918100  0.316400  0.308900  1.0  0.1222
  H  H59  1  0.960400  0.253100  0.547400  1.0  0.1166
  H  H60  1  0.861100  0.181900  0.477700  1.0  0.0999
  H  H61  1  0.648900  0.674300  0.422500  1.0  0.2333
  H  H62  1  0.731700  0.541600  0.372300  1.0  0.1221
  H  H63  1  0.683600  0.601700  0.308900  1.0  0.1225
  H  H64  1  0.746900  0.707300  0.547400  1.0  0.1161
  H  H65  1  0.818100  0.679200  0.477700  1.0  0.0992
  H  H66  1  0.325700  0.974600  0.422500  1.0  0.2334
  H  H67  1  0.458400  0.190100  0.372300  1.0  0.1186
  H  H68  1  0.398300  0.081900  0.308900  1.0  0.1229
  H  H69  1  0.292700  0.039600  0.547400  1.0  0.1172
  H  H70  1  0.320800  0.138900  0.477700  1.0  0.0999
  C  C71  1  0.561400  0.437000  0.841900  1.0  0.7405
  C  C72  1  0.447500  0.333600  0.861800  1.0  -0.2294
  C  C73  1  0.352700  0.255100  0.009100  1.0  -0.1783
  C  C74  1  0.453200  0.271700  0.068700  1.0  0.7061
  C  C75  1  0.875600  0.438600  0.841900  1.0  0.7399
  C  C76  1  0.886100  0.552500  0.861800  1.0  -0.2287
  C  C77  1  0.902400  0.647300  0.009100  1.0  -0.1786
  C  C78  1  0.818500  0.546800  0.068700  1.0  0.7069
  C  C79  1  0.563000  0.124400  0.841900  1.0  0.7394
  C  C80  1  0.666400  0.113900  0.861800  1.0  -0.2287
  C  C81  1  0.744900  0.097600  0.009100  1.0  -0.1794
  C  C82  1  0.728300  0.181500  0.068700  1.0  0.707
  C  C83  1  0.124400  0.563000  0.658100  1.0  0.741
  C  C84  1  0.113900  0.666400  0.638200  1.0  -0.2293
  C  C85  1  0.097600  0.744900  0.490900  1.0  -0.1785
  C  C86  1  0.181500  0.728300  0.431300  1.0  0.705
  C  C87  1  0.437000  0.561400  0.658100  1.0  0.7416
  C  C88  1  0.333600  0.447500  0.638200  1.0  -0.2287
  C  C89  1  0.255100  0.352700  0.490900  1.0  -0.1794
  C  C90  1  0.271700  0.453200  0.431300  1.0  0.7063
  C  C91  1  0.438600  0.875600  0.658100  1.0  0.74
  C  C92  1  0.552500  0.886100  0.638200  1.0  -0.2286
  C  C93  1  0.647300  0.902400  0.490900  1.0  -0.1798
  C  C94  1  0.546800  0.818500  0.431300  1.0  0.7061
  C  C95  1  0.438600  0.563000  0.158100  1.0  0.7403
  C  C96  1  0.552500  0.666400  0.138200  1.0  -0.2289
  C  C97  1  0.647300  0.744900  0.990900  1.0  -0.1786
  C  C98  1  0.546800  0.728300  0.931300  1.0  0.7042
  C  C99  1  0.124400  0.561400  0.158100  1.0  0.741
  C  C100  1  0.113900  0.447500  0.138200  1.0  -0.2287
  C  C101  1  0.097600  0.352700  0.990900  1.0  -0.1799
  C  C102  1  0.181500  0.453200  0.931300  1.0  0.7057
  C  C103  1  0.437000  0.875600  0.158100  1.0  0.741
  C  C104  1  0.333600  0.886100  0.138200  1.0  -0.2289
  C  C105  1  0.255100  0.902400  0.990900  1.0  -0.1793
  C  C106  1  0.271700  0.818500  0.931300  1.0  0.7066
  C  C107  1  0.875600  0.437000  0.341900  1.0  0.7405
  C  C108  1  0.886100  0.333600  0.361800  1.0  -0.2291
  C  C109  1  0.902400  0.255100  0.509100  1.0  -0.178
  C  C110  1  0.818500  0.271700  0.568700  1.0  0.7045
  C  C111  1  0.563000  0.438600  0.341900  1.0  0.7396
  C  C112  1  0.666400  0.552500  0.361800  1.0  -0.2286
  C  C113  1  0.744900  0.647300  0.509100  1.0  -0.179
  C  C114  1  0.728300  0.546800  0.568700  1.0  0.7072
  C  C115  1  0.561400  0.124400  0.341900  1.0  0.7399
  C  C116  1  0.447500  0.113900  0.361800  1.0  -0.2288
  C  C117  1  0.352700  0.097600  0.509100  1.0  -0.1787
  C  C118  1  0.453200  0.181500  0.568700  1.0  0.7072
  N  N119  1  0.388800  0.348400  0.941800  1.0  -0.281
  N  N120  1  0.959600  0.611200  0.941800  1.0  -0.2815
  N  N121  1  0.651600  0.040400  0.941800  1.0  -0.2828
  N  N122  1  0.040400  0.651600  0.558200  1.0  -0.2809
  N  N123  1  0.348400  0.388800  0.558200  1.0  -0.2821
  N  N124  1  0.611200  0.959600  0.558200  1.0  -0.2822
  N  N125  1  0.611200  0.651600  0.058200  1.0  -0.2818
  N  N126  1  0.040400  0.388800  0.058200  1.0  -0.2822
  N  N127  1  0.348400  0.959600  0.058200  1.0  -0.2817
  N  N128  1  0.959600  0.348400  0.441800  1.0  -0.2816
  N  N129  1  0.651600  0.611200  0.441800  1.0  -0.2814
  N  N130  1  0.388800  0.040400  0.441800  1.0  -0.282
  O  O131  1  0.598300  0.523700  0.894600  1.0  -0.5827
  O  O132  1  0.615000  0.436100  0.775000  1.0  -0.6706
  O  O133  1  0.547500  0.362200  0.057100  1.0  -0.7215
  O  O134  1  0.439700  0.197900  0.123700  1.0  -0.6422
  O  O135  1  0.925400  0.401700  0.894600  1.0  -0.5823
  O  O136  1  0.821100  0.385000  0.775000  1.0  -0.672
  O  O137  1  0.814700  0.452500  0.057100  1.0  -0.7229
  O  O138  1  0.758200  0.560300  0.123700  1.0  -0.6402
  O  O139  1  0.476300  0.074600  0.894600  1.0  -0.5818
  O  O140  1  0.563900  0.178900  0.775000  1.0  -0.6703
  O  O141  1  0.637800  0.185300  0.057100  1.0  -0.7218
  O  O142  1  0.802100  0.241800  0.123700  1.0  -0.6407
  O  O143  1  0.074600  0.476300  0.605400  1.0  -0.5837
  O  O144  1  0.178900  0.563900  0.725000  1.0  -0.6706
  O  O145  1  0.185300  0.637800  0.442900  1.0  -0.7219
  O  O146  1  0.241800  0.802100  0.376300  1.0  -0.6417
  O  O147  1  0.523700  0.598300  0.605400  1.0  -0.5829
  O  O148  1  0.436100  0.615000  0.725000  1.0  -0.6733
  O  O149  1  0.362200  0.547500  0.442900  1.0  -0.724
  O  O150  1  0.197900  0.439700  0.376300  1.0  -0.6404
  O  O151  1  0.401700  0.925400  0.605400  1.0  -0.5815
  O  O152  1  0.385000  0.821100  0.725000  1.0  -0.6709
  O  O153  1  0.452500  0.814700  0.442900  1.0  -0.7225
  O  O154  1  0.560300  0.758200  0.376300  1.0  -0.6406
  O  O155  1  0.401700  0.476300  0.105400  1.0  -0.5832
  O  O156  1  0.385000  0.563900  0.225000  1.0  -0.67
  O  O157  1  0.452500  0.637800  0.942900  1.0  -0.7222
  O  O158  1  0.560300  0.802100  0.876300  1.0  -0.6412
  O  O159  1  0.074600  0.598300  0.105400  1.0  -0.5833
  O  O160  1  0.178900  0.615000  0.225000  1.0  -0.6738
  O  O161  1  0.185300  0.547500  0.942900  1.0  -0.7235
  O  O162  1  0.241800  0.439700  0.876300  1.0  -0.6402
  O  O163  1  0.523700  0.925400  0.105400  1.0  -0.5811
  O  O164  1  0.436100  0.821100  0.225000  1.0  -0.6706
  O  O165  1  0.362200  0.814700  0.942900  1.0  -0.7218
  O  O166  1  0.197900  0.758200  0.876300  1.0  -0.6403
  O  O167  1  0.925400  0.523700  0.394600  1.0  -0.5827
  O  O168  1  0.821100  0.436100  0.275000  1.0  -0.6701
  O  O169  1  0.814700  0.362200  0.557100  1.0  -0.7218
  O  O170  1  0.758200  0.197900  0.623700  1.0  -0.6415
  O  O171  1  0.476300  0.401700  0.394600  1.0  -0.5833
  O  O172  1  0.563900  0.385000  0.275000  1.0  -0.6726
  O  O173  1  0.637800  0.452500  0.557100  1.0  -0.7225
  O  O174  1  0.802100  0.560300  0.623700  1.0  -0.6398
  O  O175  1  0.598300  0.074600  0.394600  1.0  -0.5811
  O  O176  1  0.615000  0.178900  0.275000  1.0  -0.6699
  O  O177  1  0.547500  0.185300  0.557100  1.0  -0.7214
  O  O178  1  0.439700  0.241800  0.623700  1.0  -0.6408
