# generated using pymatgen
data_Gd2Cu3H30C24(NO4)6
_symmetry_space_group_name_H-M   'P 1'
_cell_length_a   13.34300000
_cell_length_b   13.34300000
_cell_length_c   14.51500000
_cell_angle_alpha   90.00000000
_cell_angle_beta   90.00000000
_cell_angle_gamma   120.00000000
_symmetry_Int_Tables_number   1
_chemical_formula_structural   Gd2Cu3H30C24(NO4)6
_chemical_formula_sum   'Gd4 Cu6 H60 C48 N12 O48'
_cell_volume   2237.97197571
_cell_formula_units_Z   2
loop_
 _symmetry_equiv_pos_site_id
 _symmetry_equiv_pos_as_xyz
  1  'x, y, z'
loop_
 _atom_site_type_symbol
 _atom_site_label
 _atom_site_symmetry_multiplicity
 _atom_site_fract_x
 _atom_site_fract_y
 _atom_site_fract_z
 _atom_site_occupancy
 _atom_site_charge
  Gd  Gd1  1  0.666667  0.333333  0.668000  1.0  2.1497
  Gd  Gd2  1  0.333333  0.666667  0.832000  1.0  2.1494
  Gd  Gd3  1  0.333333  0.666667  0.332000  1.0  2.1494
  Gd  Gd4  1  0.666667  0.333333  0.168000  1.0  2.1497
  Cu  Cu5  1  0.500000  0.500000  0.000000  1.0  0.8005
  Cu  Cu6  1  0.000000  0.500000  0.000000  1.0  0.8005
  Cu  Cu7  1  0.500000  0.000000  0.000000  1.0  0.8005
  Cu  Cu8  1  0.000000  0.500000  0.500000  1.0  0.8005
  Cu  Cu9  1  0.500000  0.500000  0.500000  1.0  0.8005
  Cu  Cu10  1  0.500000  0.000000  0.500000  1.0  0.8005
  H  H11  1  0.326000  0.350100  0.922100  1.0  0.2589
  H  H12  1  0.457800  0.266700  0.870900  1.0  0.1301
  H  H13  1  0.397400  0.316000  0.807500  1.0  0.1386
  H  H14  1  0.292700  0.253900  0.049900  1.0  0.124
  H  H15  1  0.317500  0.179600  0.979400  1.0  0.1084
  H  H16  1  0.024100  0.674000  0.922100  1.0  0.2583
  H  H17  1  0.808900  0.542200  0.870900  1.0  0.1342
  H  H18  1  0.918600  0.602600  0.807500  1.0  0.1384
  H  H19  1  0.961200  0.707300  0.049900  1.0  0.1236
  H  H20  1  0.862100  0.682500  0.979400  1.0  0.1078
  H  H21  1  0.649900  0.975900  0.922100  1.0  0.2588
  H  H22  1  0.733300  0.191100  0.870900  1.0  0.1307
  H  H23  1  0.684000  0.081400  0.807500  1.0  0.1391
  H  H24  1  0.746100  0.038800  0.049900  1.0  0.1233
  H  H25  1  0.820400  0.137900  0.979400  1.0  0.1089
  H  H26  1  0.975900  0.649900  0.577900  1.0  0.2594
  H  H27  1  0.191100  0.733300  0.629100  1.0  0.1289
  H  H28  1  0.081400  0.684000  0.692500  1.0  0.1382
  H  H29  1  0.038800  0.746100  0.450100  1.0  0.1237
  H  H30  1  0.137900  0.820400  0.520600  1.0  0.1087
  H  H31  1  0.350100  0.326000  0.577900  1.0  0.2583
  H  H32  1  0.266700  0.457800  0.629100  1.0  0.1333
  H  H33  1  0.316000  0.397400  0.692500  1.0  0.1381
  H  H34  1  0.253900  0.292700  0.450100  1.0  0.1237
  H  H35  1  0.179600  0.317500  0.520600  1.0  0.1081
  H  H36  1  0.674000  0.024100  0.577900  1.0  0.2587
  H  H37  1  0.542200  0.808900  0.629100  1.0  0.1296
  H  H38  1  0.602600  0.918600  0.692500  1.0  0.1384
  H  H39  1  0.707300  0.961200  0.450100  1.0  0.1233
  H  H40  1  0.682500  0.862100  0.520600  1.0  0.1088
  H  H41  1  0.674000  0.649900  0.077900  1.0  0.2587
  H  H42  1  0.542200  0.733300  0.129100  1.0  0.1303
  H  H43  1  0.602600  0.684000  0.192500  1.0  0.1388
  H  H44  1  0.707300  0.746100  0.950100  1.0  0.1228
  H  H45  1  0.682500  0.820400  0.020600  1.0  0.1083
  H  H46  1  0.975900  0.326000  0.077900  1.0  0.2584
  H  H47  1  0.191100  0.457800  0.129100  1.0  0.1345
  H  H48  1  0.081400  0.397400  0.192500  1.0  0.138
  H  H49  1  0.038800  0.292700  0.950100  1.0  0.123
  H  H50  1  0.137900  0.317500  0.020600  1.0  0.1084
  H  H51  1  0.350100  0.024100  0.077900  1.0  0.2591
  H  H52  1  0.266700  0.808900  0.129100  1.0  0.1297
  H  H53  1  0.316000  0.918600  0.192500  1.0  0.1388
  H  H54  1  0.253900  0.961200  0.950100  1.0  0.1229
  H  H55  1  0.179600  0.862100  0.020600  1.0  0.1094
  H  H56  1  0.024100  0.350100  0.422100  1.0  0.2587
  H  H57  1  0.808900  0.266700  0.370900  1.0  0.1305
  H  H58  1  0.918600  0.316000  0.307500  1.0  0.139
  H  H59  1  0.961200  0.253900  0.549900  1.0  0.1229
  H  H60  1  0.862100  0.179600  0.479400  1.0  0.1094
  H  H61  1  0.649900  0.674000  0.422100  1.0  0.2586
  H  H62  1  0.733300  0.542200  0.370900  1.0  0.1354
  H  H63  1  0.684000  0.602600  0.307500  1.0  0.1384
  H  H64  1  0.746100  0.707300  0.549900  1.0  0.1227
  H  H65  1  0.820400  0.682500  0.479400  1.0  0.1083
  H  H66  1  0.326000  0.975900  0.422100  1.0  0.2589
  H  H67  1  0.457800  0.191100  0.370900  1.0  0.1311
  H  H68  1  0.397400  0.081400  0.307500  1.0  0.139
  H  H69  1  0.292700  0.038800  0.549900  1.0  0.123
  H  H70  1  0.317500  0.137900  0.479400  1.0  0.1089
  C  C71  1  0.562000  0.436600  0.840800  1.0  0.7472
  C  C72  1  0.447100  0.332700  0.860800  1.0  -0.2271
  C  C73  1  0.351400  0.253800  0.010600  1.0  -0.1831
  C  C74  1  0.452900  0.270100  0.069000  1.0  0.6979
  C  C75  1  0.874600  0.438000  0.840800  1.0  0.7464
  C  C76  1  0.885600  0.552900  0.860800  1.0  -0.2271
  C  C77  1  0.902400  0.648600  0.010600  1.0  -0.1842
  C  C78  1  0.817200  0.547100  0.069000  1.0  0.699
  C  C79  1  0.563400  0.125400  0.840800  1.0  0.7455
  C  C80  1  0.667300  0.114400  0.860800  1.0  -0.2267
  C  C81  1  0.746200  0.097600  0.010600  1.0  -0.1846
  C  C82  1  0.729900  0.182800  0.069000  1.0  0.6993
  C  C83  1  0.125400  0.563400  0.659200  1.0  0.7477
  C  C84  1  0.114400  0.667300  0.639200  1.0  -0.2264
  C  C85  1  0.097600  0.746200  0.489400  1.0  -0.1831
  C  C86  1  0.182800  0.729900  0.431000  1.0  0.6975
  C  C87  1  0.436600  0.562000  0.659200  1.0  0.7477
  C  C88  1  0.332700  0.447100  0.639200  1.0  -0.2268
  C  C89  1  0.253800  0.351400  0.489400  1.0  -0.1838
  C  C90  1  0.270100  0.452900  0.431000  1.0  0.6994
  C  C91  1  0.438000  0.874600  0.659200  1.0  0.7457
  C  C92  1  0.552900  0.885600  0.639200  1.0  -0.226
  C  C93  1  0.648600  0.902400  0.489400  1.0  -0.1847
  C  C94  1  0.547100  0.817200  0.431000  1.0  0.6991
  C  C95  1  0.438000  0.563400  0.159200  1.0  0.7471
  C  C96  1  0.552900  0.667300  0.139200  1.0  -0.2258
  C  C97  1  0.648600  0.746200  0.989400  1.0  -0.1832
  C  C98  1  0.547100  0.729900  0.931000  1.0  0.6974
  C  C99  1  0.125400  0.562000  0.159200  1.0  0.7472
  C  C100  1  0.114400  0.447100  0.139200  1.0  -0.2257
  C  C101  1  0.097600  0.351400  0.989400  1.0  -0.1843
  C  C102  1  0.182800  0.452900  0.931000  1.0  0.6989
  C  C103  1  0.436600  0.874600  0.159200  1.0  0.7454
  C  C104  1  0.332700  0.885600  0.139200  1.0  -0.2269
  C  C105  1  0.253800  0.902400  0.989400  1.0  -0.1844
  C  C106  1  0.270100  0.817200  0.931000  1.0  0.699
  C  C107  1  0.874600  0.436600  0.340800  1.0  0.7474
  C  C108  1  0.885600  0.332700  0.360800  1.0  -0.2266
  C  C109  1  0.902400  0.253800  0.510600  1.0  -0.1831
  C  C110  1  0.817200  0.270100  0.569000  1.0  0.697
  C  C111  1  0.563400  0.438000  0.340800  1.0  0.7462
  C  C112  1  0.667300  0.552900  0.360800  1.0  -0.2264
  C  C113  1  0.746200  0.648600  0.510600  1.0  -0.1839
  C  C114  1  0.729900  0.547100  0.569000  1.0  0.6991
  C  C115  1  0.562000  0.125400  0.340800  1.0  0.745
  C  C116  1  0.447100  0.114400  0.360800  1.0  -0.227
  C  C117  1  0.351400  0.097600  0.510600  1.0  -0.1841
  C  C118  1  0.452900  0.182800  0.569000  1.0  0.6991
  N  N119  1  0.389200  0.347200  0.941800  1.0  -0.2658
  N  N120  1  0.958000  0.610800  0.941800  1.0  -0.2669
  N  N121  1  0.652800  0.042000  0.941800  1.0  -0.2683
  N  N122  1  0.042000  0.652800  0.558200  1.0  -0.2658
  N  N123  1  0.347200  0.389200  0.558200  1.0  -0.2671
  N  N124  1  0.610800  0.958000  0.558200  1.0  -0.2675
  N  N125  1  0.610800  0.652800  0.058200  1.0  -0.2662
  N  N126  1  0.042000  0.389200  0.058200  1.0  -0.2673
  N  N127  1  0.347200  0.958000  0.058200  1.0  -0.2668
  N  N128  1  0.958000  0.347200  0.441800  1.0  -0.2659
  N  N129  1  0.652800  0.610800  0.441800  1.0  -0.2668
  N  N130  1  0.389200  0.042000  0.441800  1.0  -0.2673
  O  O131  1  0.598800  0.524100  0.892400  1.0  -0.5605
  O  O132  1  0.617900  0.435200  0.771700  1.0  -0.7198
  O  O133  1  0.549300  0.362100  0.058400  1.0  -0.7236
  O  O134  1  0.439100  0.195200  0.126900  1.0  -0.6408
  O  O135  1  0.925300  0.401200  0.892400  1.0  -0.5608
  O  O136  1  0.817300  0.382100  0.771700  1.0  -0.7218
  O  O137  1  0.812800  0.450700  0.058400  1.0  -0.725
  O  O138  1  0.756100  0.560900  0.126900  1.0  -0.6387
  O  O139  1  0.475900  0.074700  0.892400  1.0  -0.5604
  O  O140  1  0.564800  0.182700  0.771700  1.0  -0.7198
  O  O141  1  0.637900  0.187200  0.058400  1.0  -0.7212
  O  O142  1  0.804800  0.243900  0.126900  1.0  -0.6398
  O  O143  1  0.074700  0.475900  0.607600  1.0  -0.5609
  O  O144  1  0.182700  0.564800  0.728300  1.0  -0.7211
  O  O145  1  0.187200  0.637900  0.441600  1.0  -0.7242
  O  O146  1  0.243900  0.804800  0.373100  1.0  -0.6404
  O  O147  1  0.524100  0.598800  0.607600  1.0  -0.5618
  O  O148  1  0.435200  0.617900  0.728300  1.0  -0.7227
  O  O149  1  0.362100  0.549300  0.441600  1.0  -0.7267
  O  O150  1  0.195200  0.439100  0.373100  1.0  -0.6386
  O  O151  1  0.401200  0.925300  0.607600  1.0  -0.5608
  O  O152  1  0.382100  0.817300  0.728300  1.0  -0.7207
  O  O153  1  0.450700  0.812800  0.441600  1.0  -0.7222
  O  O154  1  0.560900  0.756100  0.373100  1.0  -0.6395
  O  O155  1  0.401200  0.475900  0.107600  1.0  -0.5605
  O  O156  1  0.382100  0.564800  0.228300  1.0  -0.7201
  O  O157  1  0.450700  0.637900  0.941600  1.0  -0.7241
  O  O158  1  0.560900  0.804800  0.873100  1.0  -0.6405
  O  O159  1  0.074700  0.598800  0.107600  1.0  -0.5616
  O  O160  1  0.182700  0.617900  0.228300  1.0  -0.7238
  O  O161  1  0.187200  0.549300  0.941600  1.0  -0.7264
  O  O162  1  0.243900  0.439100  0.873100  1.0  -0.6385
  O  O163  1  0.524100  0.925300  0.107600  1.0  -0.5607
  O  O164  1  0.435200  0.817300  0.228300  1.0  -0.7212
  O  O165  1  0.362100  0.812800  0.941600  1.0  -0.722
  O  O166  1  0.195200  0.756100  0.873100  1.0  -0.6395
  O  O167  1  0.925300  0.524100  0.392400  1.0  -0.5603
  O  O168  1  0.817300  0.435200  0.271700  1.0  -0.7192
  O  O169  1  0.812800  0.362100  0.558400  1.0  -0.7235
  O  O170  1  0.756100  0.195200  0.626900  1.0  -0.6407
  O  O171  1  0.475900  0.401200  0.392400  1.0  -0.5611
  O  O172  1  0.564800  0.382100  0.271700  1.0  -0.7231
  O  O173  1  0.637900  0.450700  0.558400  1.0  -0.725
  O  O174  1  0.804800  0.560900  0.626900  1.0  -0.6385
  O  O175  1  0.598800  0.074700  0.392400  1.0  -0.5603
  O  O176  1  0.617900  0.182700  0.271700  1.0  -0.7197
  O  O177  1  0.549300  0.187200  0.558400  1.0  -0.7213
  O  O178  1  0.439100  0.243900  0.626900  1.0  -0.6404
