# generated using pymatgen
data_Sm2Cu3H30C24(NO4)6
_symmetry_space_group_name_H-M   'P 1'
_cell_length_a   13.45400000
_cell_length_b   13.45400000
_cell_length_c   14.85600000
_cell_angle_alpha   90.00000000
_cell_angle_beta   90.00000000
_cell_angle_gamma   120.00000000
_symmetry_Int_Tables_number   1
_chemical_formula_structural   Sm2Cu3H30C24(NO4)6
_chemical_formula_sum   'Sm4 Cu6 H60 C48 N12 O48'
_cell_volume   2328.81703430
_cell_formula_units_Z   2
loop_
 _symmetry_equiv_pos_site_id
 _symmetry_equiv_pos_as_xyz
  1  'x, y, z'
loop_
 _atom_site_type_symbol
 _atom_site_label
 _atom_site_symmetry_multiplicity
 _atom_site_fract_x
 _atom_site_fract_y
 _atom_site_fract_z
 _atom_site_occupancy
 _atom_site_charge
  Sm  Sm1  1  0.666667  0.333333  0.669250  1.0  2.288
  Sm  Sm2  1  0.333333  0.666667  0.830750  1.0  2.2881
  Sm  Sm3  1  0.333333  0.666667  0.330750  1.0  2.2881
  Sm  Sm4  1  0.666667  0.333333  0.169250  1.0  2.288
  Cu  Cu5  1  0.500000  0.500000  0.000000  1.0  0.8122
  Cu  Cu6  1  0.000000  0.500000  0.000000  1.0  0.8122
  Cu  Cu7  1  0.500000  0.000000  0.000000  1.0  0.8122
  Cu  Cu8  1  0.000000  0.500000  0.500000  1.0  0.8122
  Cu  Cu9  1  0.500000  0.500000  0.500000  1.0  0.8122
  Cu  Cu10  1  0.500000  0.000000  0.500000  1.0  0.8122
  H  H11  1  0.326000  0.351700  0.923500  1.0  0.2591
  H  H12  1  0.457100  0.268700  0.872000  1.0  0.1307
  H  H13  1  0.396600  0.317100  0.810300  1.0  0.1337
  H  H14  1  0.293200  0.254300  0.048000  1.0  0.1272
  H  H15  1  0.319300  0.181900  0.979000  1.0  0.1083
  H  H16  1  0.025700  0.674000  0.923500  1.0  0.2589
  H  H17  1  0.811600  0.542900  0.872000  1.0  0.1332
  H  H18  1  0.920500  0.603400  0.810300  1.0  0.1336
  H  H19  1  0.961100  0.706800  0.048000  1.0  0.1258
  H  H20  1  0.862600  0.680700  0.979000  1.0  0.1084
  H  H21  1  0.648300  0.974300  0.923500  1.0  0.2596
  H  H22  1  0.731300  0.188400  0.872000  1.0  0.1316
  H  H23  1  0.682900  0.079500  0.810300  1.0  0.134
  H  H24  1  0.745700  0.038900  0.048000  1.0  0.1262
  H  H25  1  0.818100  0.137400  0.979000  1.0  0.1095
  H  H26  1  0.974300  0.648300  0.576500  1.0  0.2596
  H  H27  1  0.188400  0.731300  0.628000  1.0  0.1298
  H  H28  1  0.079500  0.682900  0.689700  1.0  0.1339
  H  H29  1  0.038900  0.745700  0.452000  1.0  0.127
  H  H30  1  0.137400  0.818100  0.521000  1.0  0.1087
  H  H31  1  0.351700  0.326000  0.576500  1.0  0.2587
  H  H32  1  0.268700  0.457100  0.628000  1.0  0.1331
  H  H33  1  0.317100  0.396600  0.689700  1.0  0.1333
  H  H34  1  0.254300  0.293200  0.452000  1.0  0.1265
  H  H35  1  0.181900  0.319300  0.521000  1.0  0.1084
  H  H36  1  0.674000  0.025700  0.576500  1.0  0.259
  H  H37  1  0.542900  0.811600  0.628000  1.0  0.1307
  H  H38  1  0.603400  0.920500  0.689700  1.0  0.133
  H  H39  1  0.706800  0.961100  0.452000  1.0  0.1263
  H  H40  1  0.680700  0.862600  0.521000  1.0  0.1095
  H  H41  1  0.674000  0.648300  0.076500  1.0  0.2593
  H  H42  1  0.542900  0.731300  0.128000  1.0  0.1303
  H  H43  1  0.603400  0.682900  0.189700  1.0  0.1337
  H  H44  1  0.706800  0.745700  0.952000  1.0  0.1261
  H  H45  1  0.680700  0.818100  0.021000  1.0  0.1084
  H  H46  1  0.974300  0.326000  0.076500  1.0  0.2588
  H  H47  1  0.188400  0.457100  0.128000  1.0  0.1341
  H  H48  1  0.079500  0.396600  0.189700  1.0  0.1332
  H  H49  1  0.038900  0.293200  0.952000  1.0  0.1259
  H  H50  1  0.137400  0.319300  0.021000  1.0  0.109
  H  H51  1  0.351700  0.025700  0.076500  1.0  0.2595
  H  H52  1  0.268700  0.811600  0.128000  1.0  0.1309
  H  H53  1  0.317100  0.920500  0.189700  1.0  0.134
  H  H54  1  0.254300  0.961100  0.952000  1.0  0.1263
  H  H55  1  0.181900  0.862600  0.021000  1.0  0.1091
  H  H56  1  0.025700  0.351700  0.423500  1.0  0.2595
  H  H57  1  0.811600  0.268700  0.372000  1.0  0.1306
  H  H58  1  0.920500  0.317100  0.310300  1.0  0.1336
  H  H59  1  0.961100  0.254300  0.548000  1.0  0.1259
  H  H60  1  0.862600  0.181900  0.479000  1.0  0.1093
  H  H61  1  0.648300  0.674000  0.423500  1.0  0.2592
  H  H62  1  0.731300  0.542900  0.372000  1.0  0.1345
  H  H63  1  0.682900  0.603400  0.310300  1.0  0.1339
  H  H64  1  0.745700  0.706800  0.548000  1.0  0.1251
  H  H65  1  0.818100  0.680700  0.479000  1.0  0.1091
  H  H66  1  0.326000  0.974300  0.423500  1.0  0.2596
  H  H67  1  0.457100  0.188400  0.372000  1.0  0.1316
  H  H68  1  0.396600  0.079500  0.310300  1.0  0.1343
  H  H69  1  0.293200  0.038900  0.548000  1.0  0.1258
  H  H70  1  0.319300  0.137400  0.479000  1.0  0.1089
  C  C71  1  0.560500  0.438500  0.842800  1.0  0.7547
  C  C72  1  0.446100  0.333900  0.862300  1.0  -0.2223
  C  C73  1  0.352000  0.255300  0.009700  1.0  -0.1843
  C  C74  1  0.452000  0.271800  0.066800  1.0  0.704
  C  C75  1  0.878000  0.439500  0.842800  1.0  0.7537
  C  C76  1  0.887800  0.553900  0.862300  1.0  -0.2217
  C  C77  1  0.903300  0.648000  0.009700  1.0  -0.1844
  C  C78  1  0.819800  0.548000  0.066800  1.0  0.7045
  C  C79  1  0.561500  0.122000  0.842800  1.0  0.753
  C  C80  1  0.666100  0.112200  0.862300  1.0  -0.222
  C  C81  1  0.744700  0.096700  0.009700  1.0  -0.1862
  C  C82  1  0.728200  0.180200  0.066800  1.0  0.7049
  C  C83  1  0.122000  0.561500  0.657200  1.0  0.7542
  C  C84  1  0.112200  0.666100  0.637700  1.0  -0.2226
  C  C85  1  0.096700  0.744700  0.490300  1.0  -0.1845
  C  C86  1  0.180200  0.728200  0.433200  1.0  0.7039
  C  C87  1  0.438500  0.560500  0.657200  1.0  0.7548
  C  C88  1  0.333900  0.446100  0.637700  1.0  -0.2216
  C  C89  1  0.255300  0.352000  0.490300  1.0  -0.1849
  C  C90  1  0.271800  0.452000  0.433200  1.0  0.7054
  C  C91  1  0.439500  0.878000  0.657200  1.0  0.7527
  C  C92  1  0.553900  0.887800  0.637700  1.0  -0.2216
  C  C93  1  0.648000  0.903300  0.490300  1.0  -0.1864
  C  C94  1  0.548000  0.819800  0.433200  1.0  0.7054
  C  C95  1  0.439500  0.561500  0.157200  1.0  0.7541
  C  C96  1  0.553900  0.666100  0.137700  1.0  -0.2219
  C  C97  1  0.648000  0.744700  0.990300  1.0  -0.1848
  C  C98  1  0.548000  0.728200  0.933200  1.0  0.7036
  C  C99  1  0.122000  0.560500  0.157200  1.0  0.7544
  C  C100  1  0.112200  0.446100  0.137700  1.0  -0.2214
  C  C101  1  0.096700  0.352000  0.990300  1.0  -0.1857
  C  C102  1  0.180200  0.452000  0.933200  1.0  0.705
  C  C103  1  0.438500  0.878000  0.157200  1.0  0.7522
  C  C104  1  0.333900  0.887800  0.137700  1.0  -0.2221
  C  C105  1  0.255300  0.903300  0.990300  1.0  -0.1851
  C  C106  1  0.271800  0.819800  0.933200  1.0  0.7051
  C  C107  1  0.878000  0.438500  0.342800  1.0  0.755
  C  C108  1  0.887800  0.333900  0.362300  1.0  -0.2217
  C  C109  1  0.903300  0.255300  0.509700  1.0  -0.1843
  C  C110  1  0.819800  0.271800  0.566800  1.0  0.7031
  C  C111  1  0.561500  0.439500  0.342800  1.0  0.7538
  C  C112  1  0.666100  0.553900  0.362300  1.0  -0.2219
  C  C113  1  0.744700  0.648000  0.509700  1.0  -0.1849
  C  C114  1  0.728200  0.548000  0.566800  1.0  0.7048
  C  C115  1  0.560500  0.122000  0.342800  1.0  0.7521
  C  C116  1  0.446100  0.112200  0.362300  1.0  -0.2221
  C  C117  1  0.352000  0.096700  0.509700  1.0  -0.1848
  C  C118  1  0.452000  0.180200  0.566800  1.0  0.7048
  N  N119  1  0.388800  0.348600  0.942120  1.0  -0.28
  N  N120  1  0.959800  0.611200  0.942120  1.0  -0.2815
  N  N121  1  0.651400  0.040200  0.942120  1.0  -0.2823
  N  N122  1  0.040200  0.651400  0.557880  1.0  -0.2798
  N  N123  1  0.348600  0.388800  0.557880  1.0  -0.2814
  N  N124  1  0.611200  0.959800  0.557880  1.0  -0.2819
  N  N125  1  0.611200  0.651400  0.057880  1.0  -0.2806
  N  N126  1  0.040200  0.388800  0.057880  1.0  -0.2818
  N  N127  1  0.348600  0.959800  0.057880  1.0  -0.281
  N  N128  1  0.959800  0.348600  0.442120  1.0  -0.2808
  N  N129  1  0.651400  0.611200  0.442120  1.0  -0.2816
  N  N130  1  0.388800  0.040200  0.442120  1.0  -0.2812
  O  O131  1  0.597500  0.524000  0.895030  1.0  -0.5681
  O  O132  1  0.614700  0.436400  0.775100  1.0  -0.7383
  O  O133  1  0.547000  0.363100  0.056780  1.0  -0.722
  O  O134  1  0.438100  0.196300  0.123400  1.0  -0.6693
  O  O135  1  0.926500  0.402500  0.895030  1.0  -0.5685
  O  O136  1  0.821700  0.385300  0.775100  1.0  -0.7398
  O  O137  1  0.816100  0.453000  0.056780  1.0  -0.7233
  O  O138  1  0.758200  0.561900  0.123400  1.0  -0.6672
  O  O139  1  0.476000  0.073500  0.895030  1.0  -0.568
  O  O140  1  0.563600  0.178300  0.775100  1.0  -0.7389
  O  O141  1  0.636900  0.183900  0.056780  1.0  -0.7224
  O  O142  1  0.803700  0.241800  0.123400  1.0  -0.6674
  O  O143  1  0.073500  0.476000  0.604970  1.0  -0.5687
  O  O144  1  0.178300  0.563600  0.724900  1.0  -0.7385
  O  O145  1  0.183900  0.636900  0.443220  1.0  -0.7225
  O  O146  1  0.241800  0.803700  0.376600  1.0  -0.6693
  O  O147  1  0.524000  0.597500  0.604970  1.0  -0.5692
  O  O148  1  0.436400  0.614700  0.724900  1.0  -0.7414
  O  O149  1  0.363100  0.547000  0.443220  1.0  -0.7238
  O  O150  1  0.196300  0.438100  0.376600  1.0  -0.6679
  O  O151  1  0.402500  0.926500  0.604970  1.0  -0.568
  O  O152  1  0.385300  0.821700  0.724900  1.0  -0.7401
  O  O153  1  0.453000  0.816100  0.443220  1.0  -0.7229
  O  O154  1  0.561900  0.758200  0.376600  1.0  -0.6683
  O  O155  1  0.402500  0.476000  0.104970  1.0  -0.5684
  O  O156  1  0.385300  0.563600  0.224900  1.0  -0.7381
  O  O157  1  0.453000  0.636900  0.943220  1.0  -0.7226
  O  O158  1  0.561900  0.803700  0.876600  1.0  -0.6692
  O  O159  1  0.073500  0.597500  0.104970  1.0  -0.5689
  O  O160  1  0.178300  0.614700  0.224900  1.0  -0.7421
  O  O161  1  0.183900  0.547000  0.943220  1.0  -0.7232
  O  O162  1  0.241800  0.438100  0.876600  1.0  -0.6672
  O  O163  1  0.524000  0.926500  0.104970  1.0  -0.5679
  O  O164  1  0.436400  0.821700  0.224900  1.0  -0.7393
  O  O165  1  0.363100  0.816100  0.943220  1.0  -0.7233
  O  O166  1  0.196300  0.758200  0.876600  1.0  -0.6682
  O  O167  1  0.926500  0.524000  0.395030  1.0  -0.5681
  O  O168  1  0.821700  0.436400  0.275100  1.0  -0.7377
  O  O169  1  0.816100  0.363100  0.556780  1.0  -0.7223
  O  O170  1  0.758200  0.196300  0.623400  1.0  -0.6691
  O  O171  1  0.476000  0.402500  0.395030  1.0  -0.5686
  O  O172  1  0.563600  0.385300  0.275100  1.0  -0.7404
  O  O173  1  0.636900  0.453000  0.556780  1.0  -0.7227
  O  O174  1  0.803700  0.561900  0.623400  1.0  -0.6664
  O  O175  1  0.597500  0.073500  0.395030  1.0  -0.5678
  O  O176  1  0.614700  0.178300  0.275100  1.0  -0.7382
  O  O177  1  0.547000  0.183900  0.556780  1.0  -0.7231
  O  O178  1  0.438100  0.241800  0.623400  1.0  -0.6677
