# generated using pymatgen
data_Al3(PO4)4
_symmetry_space_group_name_H-M   'P 1'
_cell_length_a   16.79500000
_cell_length_b   16.79500000
_cell_length_c   16.79500000
_cell_angle_alpha   90.00000000
_cell_angle_beta   90.00000000
_cell_angle_gamma   90.00000000
_symmetry_Int_Tables_number   1
_chemical_formula_structural   Al3(PO4)4
_chemical_formula_sum   'Al18 P24 O96'
_cell_volume   4737.39965988
_cell_formula_units_Z   6
loop_
 _symmetry_equiv_pos_site_id
 _symmetry_equiv_pos_as_xyz
  1  'x, y, z'
loop_
 _atom_site_type_symbol
 _atom_site_label
 _atom_site_symmetry_multiplicity
 _atom_site_fract_x
 _atom_site_fract_y
 _atom_site_fract_z
 _atom_site_occupancy
 _atom_site_charge
  Al  Al1  1  0.000000  0.500000  0.250000  1.0  1.728
  Al  Al2  1  0.000000  0.500000  0.750000  1.0  1.728
  Al  Al3  1  0.500000  0.000000  0.250000  1.0  1.728
  Al  Al4  1  0.250000  0.000000  0.500000  1.0  1.728
  Al  Al5  1  0.750000  0.000000  0.500000  1.0  1.728
  Al  Al6  1  0.250000  0.500000  0.000000  1.0  1.728
  Al  Al7  1  0.500000  0.250000  0.000000  1.0  1.728
  Al  Al8  1  0.500000  0.750000  0.000000  1.0  1.728
  Al  Al9  1  0.000000  0.250000  0.500000  1.0  1.728
  Al  Al10  1  0.500000  0.000000  0.750000  1.0  1.728
  Al  Al11  1  0.000000  0.750000  0.500000  1.0  1.728
  Al  Al12  1  0.750000  0.500000  0.000000  1.0  1.728
  Al  Al13  1  0.000000  0.500000  0.000000  1.0  1.9281
  Al  Al14  1  0.500000  0.000000  0.500000  1.0  1.9281
  Al  Al15  1  0.000000  0.000000  0.500000  1.0  1.9281
  Al  Al16  1  0.500000  0.500000  0.000000  1.0  1.9281
  Al  Al17  1  0.500000  0.000000  0.000000  1.0  1.9281
  Al  Al18  1  0.000000  0.500000  0.500000  1.0  1.9281
  P  P19  1  0.122430  0.570890  0.122430  1.0  1.6931
  P  P20  1  0.622430  0.070890  0.622430  1.0  1.6931
  P  P21  1  0.877570  0.429110  0.122430  1.0  1.6925
  P  P22  1  0.377570  0.929110  0.622430  1.0  1.6925
  P  P23  1  0.877570  0.570890  0.877570  1.0  1.6917
  P  P24  1  0.377570  0.070890  0.377570  1.0  1.6917
  P  P25  1  0.122430  0.429110  0.877570  1.0  1.6931
  P  P26  1  0.622430  0.929110  0.377570  1.0  1.6931
  P  P27  1  0.122430  0.122430  0.570890  1.0  1.6917
  P  P28  1  0.622430  0.622430  0.070890  1.0  1.6917
  P  P29  1  0.122430  0.877570  0.429110  1.0  1.6921
  P  P30  1  0.622430  0.377570  0.929110  1.0  1.6921
  P  P31  1  0.877570  0.877570  0.570890  1.0  1.6918
  P  P32  1  0.377570  0.377570  0.070890  1.0  1.6918
  P  P33  1  0.877570  0.122430  0.429110  1.0  1.6906
  P  P34  1  0.377570  0.622430  0.929110  1.0  1.6906
  P  P35  1  0.570890  0.122430  0.122430  1.0  1.693
  P  P36  1  0.070890  0.622430  0.622430  1.0  1.693
  P  P37  1  0.429110  0.122430  0.877570  1.0  1.6914
  P  P38  1  0.929110  0.622430  0.377570  1.0  1.6914
  P  P39  1  0.570890  0.877570  0.877570  1.0  1.6935
  P  P40  1  0.070890  0.377570  0.377570  1.0  1.6935
  P  P41  1  0.429110  0.877570  0.122430  1.0  1.6923
  P  P42  1  0.929110  0.377570  0.622430  1.0  1.6923
  O  O43  1  0.094900  0.525300  0.195400  1.0  -0.7529
  O  O44  1  0.594900  0.025300  0.695400  1.0  -0.7529
  O  O45  1  0.905100  0.474700  0.195400  1.0  -0.7536
  O  O46  1  0.405100  0.974700  0.695400  1.0  -0.7536
  O  O47  1  0.905100  0.525300  0.804600  1.0  -0.7535
  O  O48  1  0.405100  0.025300  0.304600  1.0  -0.7535
  O  O49  1  0.094900  0.474700  0.804600  1.0  -0.7527
  O  O50  1  0.594900  0.974700  0.304600  1.0  -0.7527
  O  O51  1  0.195400  0.094900  0.525300  1.0  -0.7514
  O  O52  1  0.695400  0.594900  0.025300  1.0  -0.7514
  O  O53  1  0.195400  0.905100  0.474700  1.0  -0.7517
  O  O54  1  0.695400  0.405100  0.974700  1.0  -0.7517
  O  O55  1  0.804600  0.905100  0.525300  1.0  -0.7521
  O  O56  1  0.304600  0.405100  0.025300  1.0  -0.7521
  O  O57  1  0.804600  0.094900  0.474700  1.0  -0.7533
  O  O58  1  0.304600  0.594900  0.974700  1.0  -0.7533
  O  O59  1  0.525300  0.195400  0.094900  1.0  -0.7534
  O  O60  1  0.025300  0.695400  0.594900  1.0  -0.7534
  O  O61  1  0.474700  0.195400  0.905100  1.0  -0.7515
  O  O62  1  0.974700  0.695400  0.405100  1.0  -0.7515
  O  O63  1  0.525300  0.804600  0.905100  1.0  -0.7515
  O  O64  1  0.025300  0.304600  0.405100  1.0  -0.7515
  O  O65  1  0.474700  0.804600  0.094900  1.0  -0.7507
  O  O66  1  0.974700  0.304600  0.594900  1.0  -0.7507
  O  O67  1  0.525300  0.094900  0.195400  1.0  -0.7534
  O  O68  1  0.025300  0.594900  0.695400  1.0  -0.7534
  O  O69  1  0.474700  0.905100  0.195400  1.0  -0.7521
  O  O70  1  0.974700  0.405100  0.695400  1.0  -0.7521
  O  O71  1  0.525300  0.905100  0.804600  1.0  -0.753
  O  O72  1  0.025300  0.405100  0.304600  1.0  -0.753
  O  O73  1  0.474700  0.094900  0.804600  1.0  -0.7523
  O  O74  1  0.974700  0.594900  0.304600  1.0  -0.7523
  O  O75  1  0.094900  0.195400  0.525300  1.0  -0.7533
  O  O76  1  0.594900  0.695400  0.025300  1.0  -0.7533
  O  O77  1  0.905100  0.195400  0.474700  1.0  -0.7545
  O  O78  1  0.405100  0.695400  0.974700  1.0  -0.7545
  O  O79  1  0.905100  0.804600  0.525300  1.0  -0.7526
  O  O80  1  0.405100  0.304600  0.025300  1.0  -0.7526
  O  O81  1  0.094900  0.804600  0.474700  1.0  -0.7524
  O  O82  1  0.594900  0.304600  0.974700  1.0  -0.7524
  O  O83  1  0.195400  0.525300  0.094900  1.0  -0.7509
  O  O84  1  0.695400  0.025300  0.594900  1.0  -0.7509
  O  O85  1  0.195400  0.474700  0.905100  1.0  -0.7501
  O  O86  1  0.695400  0.974700  0.405100  1.0  -0.7501
  O  O87  1  0.804600  0.525300  0.905100  1.0  -0.7519
  O  O88  1  0.304600  0.025300  0.405100  1.0  -0.7519
  O  O89  1  0.804600  0.474700  0.094900  1.0  -0.7522
  O  O90  1  0.304600  0.974700  0.594900  1.0  -0.7522
  O  O91  1  0.141800  0.655400  0.141800  1.0  -0.5706
  O  O92  1  0.057600  0.566600  0.057600  1.0  -0.9682
  O  O93  1  0.641800  0.155400  0.641800  1.0  -0.5706
  O  O94  1  0.557600  0.066600  0.557600  1.0  -0.9682
  O  O95  1  0.858200  0.344600  0.141800  1.0  -0.5703
  O  O96  1  0.942400  0.433400  0.057600  1.0  -0.9658
  O  O97  1  0.358200  0.844600  0.641800  1.0  -0.5703
  O  O98  1  0.442400  0.933400  0.557600  1.0  -0.9658
  O  O99  1  0.858200  0.655400  0.858200  1.0  -0.5704
  O  O100  1  0.942400  0.566600  0.942400  1.0  -0.9671
  O  O101  1  0.358200  0.155400  0.358200  1.0  -0.5704
  O  O102  1  0.442400  0.066600  0.442400  1.0  -0.9671
  O  O103  1  0.141800  0.344600  0.858200  1.0  -0.569
  O  O104  1  0.057600  0.433400  0.942400  1.0  -0.9678
  O  O105  1  0.641800  0.844600  0.358200  1.0  -0.569
  O  O106  1  0.557600  0.933400  0.442400  1.0  -0.9678
  O  O107  1  0.141800  0.141800  0.655400  1.0  -0.5735
  O  O108  1  0.057600  0.057600  0.566600  1.0  -0.9619
  O  O109  1  0.641800  0.641800  0.155400  1.0  -0.5735
  O  O110  1  0.557600  0.557600  0.066600  1.0  -0.9619
  O  O111  1  0.141800  0.858200  0.344600  1.0  -0.5715
  O  O112  1  0.057600  0.942400  0.433400  1.0  -0.9591
  O  O113  1  0.641800  0.358200  0.844600  1.0  -0.5715
  O  O114  1  0.557600  0.442400  0.933400  1.0  -0.9591
  O  O115  1  0.858200  0.858200  0.655400  1.0  -0.5744
  O  O116  1  0.942400  0.942400  0.566600  1.0  -0.9608
  O  O117  1  0.358200  0.358200  0.155400  1.0  -0.5744
  O  O118  1  0.442400  0.442400  0.066600  1.0  -0.9608
  O  O119  1  0.858200  0.141800  0.344600  1.0  -0.5705
  O  O120  1  0.942400  0.057600  0.433400  1.0  -0.9587
  O  O121  1  0.358200  0.641800  0.844600  1.0  -0.5705
  O  O122  1  0.442400  0.557600  0.933400  1.0  -0.9587
  O  O123  1  0.655400  0.141800  0.141800  1.0  -0.5661
  O  O124  1  0.566600  0.057600  0.057600  1.0  -0.9663
  O  O125  1  0.155400  0.641800  0.641800  1.0  -0.5661
  O  O126  1  0.066600  0.557600  0.557600  1.0  -0.9663
  O  O127  1  0.344600  0.141800  0.858200  1.0  -0.5601
  O  O128  1  0.433400  0.057600  0.942400  1.0  -0.9676
  O  O129  1  0.844600  0.641800  0.358200  1.0  -0.5601
  O  O130  1  0.933400  0.557600  0.442400  1.0  -0.9676
  O  O131  1  0.655400  0.858200  0.858200  1.0  -0.5665
  O  O132  1  0.566600  0.942400  0.942400  1.0  -0.9671
  O  O133  1  0.155400  0.358200  0.358200  1.0  -0.5665
  O  O134  1  0.066600  0.442400  0.442400  1.0  -0.9671
  O  O135  1  0.344600  0.858200  0.141800  1.0  -0.5618
  O  O136  1  0.433400  0.942400  0.057600  1.0  -0.9671
  O  O137  1  0.844600  0.358200  0.641800  1.0  -0.5618
  O  O138  1  0.933400  0.442400  0.557600  1.0  -0.9671
