# generated using pymatgen
data_Al3(PO4)4
_symmetry_space_group_name_H-M   'P 1'
_cell_length_a   16.73720000
_cell_length_b   16.73720000
_cell_length_c   16.73720000
_cell_angle_alpha   90.00000000
_cell_angle_beta   90.00000000
_cell_angle_gamma   90.00000000
_symmetry_Int_Tables_number   1
_chemical_formula_structural   Al3(PO4)4
_chemical_formula_sum   'Al18 P24 O96'
_cell_volume   4688.65650586
_cell_formula_units_Z   6
loop_
 _symmetry_equiv_pos_site_id
 _symmetry_equiv_pos_as_xyz
  1  'x, y, z'
loop_
 _atom_site_type_symbol
 _atom_site_label
 _atom_site_symmetry_multiplicity
 _atom_site_fract_x
 _atom_site_fract_y
 _atom_site_fract_z
 _atom_site_occupancy
 _atom_site_charge
  Al  Al1  1  0.500000  0.000000  0.500000  1.0  1.9615
  Al  Al2  1  0.000000  0.500000  0.000000  1.0  1.9615
  Al  Al3  1  0.500000  0.500000  0.000000  1.0  1.9615
  Al  Al4  1  0.000000  0.000000  0.500000  1.0  1.9615
  Al  Al5  1  0.000000  0.500000  0.500000  1.0  1.9615
  Al  Al6  1  0.500000  0.000000  0.000000  1.0  1.9615
  Al  Al7  1  0.750000  0.000000  0.500000  1.0  1.8989
  Al  Al8  1  0.250000  0.000000  0.500000  1.0  1.8989
  Al  Al9  1  0.500000  0.750000  0.000000  1.0  1.8989
  Al  Al10  1  0.500000  0.250000  0.000000  1.0  1.8989
  Al  Al11  1  0.000000  0.500000  0.750000  1.0  1.8989
  Al  Al12  1  0.000000  0.500000  0.250000  1.0  1.8989
  Al  Al13  1  0.000000  0.750000  0.500000  1.0  1.8989
  Al  Al14  1  0.000000  0.250000  0.500000  1.0  1.8989
  Al  Al15  1  0.750000  0.500000  0.000000  1.0  1.8989
  Al  Al16  1  0.250000  0.500000  0.000000  1.0  1.8989
  Al  Al17  1  0.500000  0.000000  0.750000  1.0  1.8989
  Al  Al18  1  0.500000  0.000000  0.250000  1.0  1.8989
  P  P19  1  0.632540  0.932400  0.367460  1.0  1.4623
  P  P20  1  0.132540  0.432400  0.867460  1.0  1.4623
  P  P21  1  0.367460  0.067600  0.367460  1.0  1.4577
  P  P22  1  0.867460  0.567600  0.867460  1.0  1.4577
  P  P23  1  0.367460  0.932400  0.632540  1.0  1.4581
  P  P24  1  0.867460  0.432400  0.132540  1.0  1.4581
  P  P25  1  0.632540  0.067600  0.632540  1.0  1.4606
  P  P26  1  0.132540  0.567600  0.132540  1.0  1.4606
  P  P27  1  0.367460  0.632540  0.932400  1.0  1.4567
  P  P28  1  0.867460  0.132540  0.432400  1.0  1.4567
  P  P29  1  0.367460  0.367460  0.067600  1.0  1.4578
  P  P30  1  0.867460  0.867460  0.567600  1.0  1.4578
  P  P31  1  0.632540  0.367460  0.932400  1.0  1.4604
  P  P32  1  0.132540  0.867460  0.432400  1.0  1.4604
  P  P33  1  0.632540  0.632540  0.067600  1.0  1.4613
  P  P34  1  0.132540  0.132540  0.567600  1.0  1.4613
  P  P35  1  0.932400  0.367460  0.632540  1.0  1.4576
  P  P36  1  0.432400  0.867460  0.132540  1.0  1.4576
  P  P37  1  0.067600  0.367460  0.367460  1.0  1.4614
  P  P38  1  0.567600  0.867460  0.867460  1.0  1.4614
  P  P39  1  0.932400  0.632540  0.367460  1.0  1.4585
  P  P40  1  0.432400  0.132540  0.867460  1.0  1.4585
  P  P41  1  0.067600  0.632540  0.632540  1.0  1.4601
  P  P42  1  0.567600  0.132540  0.132540  1.0  1.4601
  O  O43  1  0.695000  0.978800  0.406800  1.0  -0.7774
  O  O44  1  0.195000  0.478800  0.906800  1.0  -0.7774
  O  O45  1  0.305000  0.021200  0.406800  1.0  -0.7781
  O  O46  1  0.805000  0.521200  0.906800  1.0  -0.7781
  O  O47  1  0.305000  0.978800  0.593200  1.0  -0.7784
  O  O48  1  0.805000  0.478800  0.093200  1.0  -0.7784
  O  O49  1  0.695000  0.021200  0.593200  1.0  -0.777
  O  O50  1  0.195000  0.521200  0.093200  1.0  -0.777
  O  O51  1  0.406800  0.695000  0.978800  1.0  -0.7801
  O  O52  1  0.906800  0.195000  0.478800  1.0  -0.7801
  O  O53  1  0.406800  0.305000  0.021200  1.0  -0.7795
  O  O54  1  0.906800  0.805000  0.521200  1.0  -0.7795
  O  O55  1  0.593200  0.305000  0.978800  1.0  -0.7796
  O  O56  1  0.093200  0.805000  0.478800  1.0  -0.7796
  O  O57  1  0.593200  0.695000  0.021200  1.0  -0.7811
  O  O58  1  0.093200  0.195000  0.521200  1.0  -0.7811
  O  O59  1  0.978800  0.406800  0.695000  1.0  -0.7781
  O  O60  1  0.478800  0.906800  0.195000  1.0  -0.7781
  O  O61  1  0.021200  0.406800  0.305000  1.0  -0.7779
  O  O62  1  0.521200  0.906800  0.805000  1.0  -0.7779
  O  O63  1  0.978800  0.593200  0.305000  1.0  -0.7767
  O  O64  1  0.478800  0.093200  0.805000  1.0  -0.7767
  O  O65  1  0.021200  0.593200  0.695000  1.0  -0.7793
  O  O66  1  0.521200  0.093200  0.195000  1.0  -0.7793
  O  O67  1  0.978800  0.695000  0.406800  1.0  -0.7767
  O  O68  1  0.478800  0.195000  0.906800  1.0  -0.7767
  O  O69  1  0.021200  0.305000  0.406800  1.0  -0.7766
  O  O70  1  0.521200  0.805000  0.906800  1.0  -0.7766
  O  O71  1  0.978800  0.305000  0.593200  1.0  -0.7758
  O  O72  1  0.478800  0.805000  0.093200  1.0  -0.7758
  O  O73  1  0.021200  0.695000  0.593200  1.0  -0.7777
  O  O74  1  0.521200  0.195000  0.093200  1.0  -0.7777
  O  O75  1  0.695000  0.406800  0.978800  1.0  -0.7769
  O  O76  1  0.195000  0.906800  0.478800  1.0  -0.7769
  O  O77  1  0.305000  0.406800  0.021200  1.0  -0.7787
  O  O78  1  0.805000  0.906800  0.521200  1.0  -0.7787
  O  O79  1  0.305000  0.593200  0.978800  1.0  -0.7785
  O  O80  1  0.805000  0.093200  0.478800  1.0  -0.7785
  O  O81  1  0.695000  0.593200  0.021200  1.0  -0.7772
  O  O82  1  0.195000  0.093200  0.521200  1.0  -0.7772
  O  O83  1  0.406800  0.978800  0.695000  1.0  -0.7804
  O  O84  1  0.906800  0.478800  0.195000  1.0  -0.7804
  O  O85  1  0.406800  0.021200  0.305000  1.0  -0.7789
  O  O86  1  0.906800  0.521200  0.805000  1.0  -0.7789
  O  O87  1  0.593200  0.978800  0.305000  1.0  -0.7788
  O  O88  1  0.093200  0.478800  0.805000  1.0  -0.7788
  O  O89  1  0.593200  0.021200  0.695000  1.0  -0.7799
  O  O90  1  0.093200  0.521200  0.195000  1.0  -0.7799
  O  O91  1  0.644400  0.846900  0.355600  1.0  -0.5063
  O  O92  1  0.558000  0.932700  0.442000  1.0  -0.8373
  O  O93  1  0.144400  0.346900  0.855600  1.0  -0.5063
  O  O94  1  0.058000  0.432700  0.942000  1.0  -0.8373
  O  O95  1  0.355600  0.153100  0.355600  1.0  -0.508
  O  O96  1  0.442000  0.067300  0.442000  1.0  -0.836
  O  O97  1  0.855600  0.653100  0.855600  1.0  -0.508
  O  O98  1  0.942000  0.567300  0.942000  1.0  -0.836
  O  O99  1  0.355600  0.846900  0.644400  1.0  -0.5069
  O  O100  1  0.442000  0.932700  0.558000  1.0  -0.8347
  O  O101  1  0.855600  0.346900  0.144400  1.0  -0.5069
  O  O102  1  0.942000  0.432700  0.058000  1.0  -0.8347
  O  O103  1  0.644400  0.153100  0.644400  1.0  -0.507
  O  O104  1  0.558000  0.067300  0.558000  1.0  -0.8373
  O  O105  1  0.144400  0.653100  0.144400  1.0  -0.507
  O  O106  1  0.058000  0.567300  0.058000  1.0  -0.8373
  O  O107  1  0.355600  0.644400  0.846900  1.0  -0.5108
  O  O108  1  0.442000  0.558000  0.932700  1.0  -0.8313
  O  O109  1  0.855600  0.144400  0.346900  1.0  -0.5108
  O  O110  1  0.942000  0.058000  0.432700  1.0  -0.8313
  O  O111  1  0.355600  0.355600  0.153100  1.0  -0.5134
  O  O112  1  0.442000  0.442000  0.067300  1.0  -0.8307
  O  O113  1  0.855600  0.855600  0.653100  1.0  -0.5134
  O  O114  1  0.942000  0.942000  0.567300  1.0  -0.8307
  O  O115  1  0.644400  0.355600  0.846900  1.0  -0.5112
  O  O116  1  0.558000  0.442000  0.932700  1.0  -0.831
  O  O117  1  0.144400  0.855600  0.346900  1.0  -0.5112
  O  O118  1  0.058000  0.942000  0.432700  1.0  -0.831
  O  O119  1  0.644400  0.644400  0.153100  1.0  -0.5131
  O  O120  1  0.558000  0.558000  0.067300  1.0  -0.8324
  O  O121  1  0.144400  0.144400  0.653100  1.0  -0.5131
  O  O122  1  0.058000  0.058000  0.567300  1.0  -0.8324
  O  O123  1  0.846900  0.355600  0.644400  1.0  -0.5031
  O  O124  1  0.932700  0.442000  0.558000  1.0  -0.8371
  O  O125  1  0.346900  0.855600  0.144400  1.0  -0.5031
  O  O126  1  0.432700  0.942000  0.058000  1.0  -0.8371
  O  O127  1  0.153100  0.355600  0.355600  1.0  -0.5055
  O  O128  1  0.067300  0.442000  0.442000  1.0  -0.8359
  O  O129  1  0.653100  0.855600  0.855600  1.0  -0.5055
  O  O130  1  0.567300  0.942000  0.942000  1.0  -0.8359
  O  O131  1  0.846900  0.644400  0.355600  1.0  -0.5029
  O  O132  1  0.932700  0.558000  0.442000  1.0  -0.8377
  O  O133  1  0.346900  0.144400  0.855600  1.0  -0.5029
  O  O134  1  0.432700  0.058000  0.942000  1.0  -0.8377
  O  O135  1  0.153100  0.644400  0.644400  1.0  -0.5057
  O  O136  1  0.067300  0.558000  0.558000  1.0  -0.836
  O  O137  1  0.653100  0.144400  0.144400  1.0  -0.5057
  O  O138  1  0.567300  0.058000  0.058000  1.0  -0.836
