# generated using pymatgen
data_Zn3P4H32C12(NO6)2
_symmetry_space_group_name_H-M   'P 1'
_cell_length_a   9.06550000
_cell_length_b   16.76790000
_cell_length_c   16.76790000
_cell_angle_alpha   90.00000000
_cell_angle_beta   90.00000000
_cell_angle_gamma   90.00000000
_symmetry_Int_Tables_number   1
_chemical_formula_structural   Zn3P4H32C12(NO6)2
_chemical_formula_sum   'Zn12 P16 H128 C48 N8 O48'
_cell_volume   2548.87837550
_cell_formula_units_Z   4
loop_
 _symmetry_equiv_pos_site_id
 _symmetry_equiv_pos_as_xyz
  1  'x, y, z'
loop_
 _atom_site_type_symbol
 _atom_site_label
 _atom_site_symmetry_multiplicity
 _atom_site_fract_x
 _atom_site_fract_y
 _atom_site_fract_z
 _atom_site_occupancy
 _atom_site_charge
  Zn  Zn1  1  0.832660  0.083250  0.213800  1.0  0.9869
  Zn  Zn2  1  0.832660  0.916750  0.786200  1.0  0.9879
  Zn  Zn3  1  0.832660  0.786200  0.083250  1.0  0.987
  Zn  Zn4  1  0.832660  0.213800  0.916750  1.0  0.9858
  Zn  Zn5  1  0.332660  0.083250  0.786200  1.0  0.9884
  Zn  Zn6  1  0.332660  0.916750  0.213800  1.0  0.9865
  Zn  Zn7  1  0.332660  0.786200  0.916750  1.0  0.9867
  Zn  Zn8  1  0.332660  0.213800  0.083250  1.0  0.9862
  Zn  Zn9  1  0.101060  0.000000  0.500000  1.0  0.9751
  Zn  Zn10  1  0.101060  0.500000  0.000000  1.0  0.9751
  Zn  Zn11  1  0.601060  0.000000  0.500000  1.0  0.9751
  Zn  Zn12  1  0.601060  0.500000  0.000000  1.0  0.9751
  P  P13  1  0.846300  0.096810  0.405120  1.0  1.4752
  P  P14  1  0.003740  0.928320  0.160380  1.0  1.3222
  P  P15  1  0.846300  0.903190  0.594880  1.0  1.4844
  P  P16  1  0.003740  0.071680  0.839620  1.0  1.3417
  P  P17  1  0.846300  0.594880  0.096810  1.0  1.4875
  P  P18  1  0.003740  0.839620  0.928320  1.0  1.3437
  P  P19  1  0.846300  0.405120  0.903190  1.0  1.4893
  P  P20  1  0.003740  0.160380  0.071680  1.0  1.3437
  P  P21  1  0.346300  0.096810  0.594880  1.0  1.4752
  P  P22  1  0.503740  0.928320  0.839620  1.0  1.3233
  P  P23  1  0.346300  0.903190  0.405120  1.0  1.4846
  P  P24  1  0.503740  0.071680  0.160380  1.0  1.3408
  P  P25  1  0.346300  0.594880  0.903190  1.0  1.4887
  P  P26  1  0.503740  0.839620  0.071680  1.0  1.3442
  P  P27  1  0.346300  0.405120  0.096810  1.0  1.4879
  P  P28  1  0.503740  0.160380  0.928320  1.0  1.3422
  H  H29  1  0.029000  0.961000  0.089000  1.0  -0.1079
  H  H30  1  0.800000  0.163000  0.436000  1.0  -0.131
  H  H31  1  0.029000  0.039000  0.911000  1.0  -0.1117
  H  H32  1  0.800000  0.837000  0.564000  1.0  -0.1301
  H  H33  1  0.029000  0.911000  0.961000  1.0  -0.1023
  H  H34  1  0.800000  0.564000  0.163000  1.0  -0.137
  H  H35  1  0.029000  0.089000  0.039000  1.0  -0.1022
  H  H36  1  0.800000  0.436000  0.837000  1.0  -0.1339
  H  H37  1  0.529000  0.961000  0.911000  1.0  -0.1119
  H  H38  1  0.300000  0.163000  0.564000  1.0  -0.1309
  H  H39  1  0.529000  0.039000  0.089000  1.0  -0.108
  H  H40  1  0.300000  0.837000  0.436000  1.0  -0.13
  H  H41  1  0.529000  0.911000  0.039000  1.0  -0.1014
  H  H42  1  0.300000  0.564000  0.837000  1.0  -0.1332
  H  H43  1  0.529000  0.089000  0.961000  1.0  -0.1024
  H  H44  1  0.300000  0.436000  0.163000  1.0  -0.1378
  H  H45  1  0.977700  0.321500  0.176100  1.0  0.0723
  H  H46  1  0.930300  0.398300  0.130500  1.0  0.086
  H  H47  1  0.728600  0.393400  0.161500  1.0  0.1215
  H  H48  1  0.608800  0.289400  0.123200  1.0  0.1856
  H  H49  1  0.709000  0.331100  0.070000  1.0  0.2085
  H  H50  1  0.752300  0.255300  0.104900  1.0  0.2155
  H  H51  1  0.669400  0.291700  0.274100  1.0  0.0693
  H  H52  1  0.580600  0.363800  0.239800  1.0  0.1077
  H  H53  1  0.070000  0.400200  0.255300  1.0  0.0767
  H  H54  1  0.973400  0.471400  0.225900  1.0  0.0865
  H  H55  1  0.896500  0.467600  0.344400  1.0  0.0846
  H  H56  1  0.935300  0.377500  0.355300  1.0  0.0791
  H  H57  1  0.710500  0.370900  0.366200  1.0  0.0767
  H  H58  1  0.682400  0.445800  0.313400  1.0  0.0855
  H  H59  1  0.977700  0.678500  0.823900  1.0  0.0718
  H  H60  1  0.930300  0.601700  0.869500  1.0  0.0848
  H  H61  1  0.728600  0.606600  0.838500  1.0  0.121
  H  H62  1  0.608800  0.710600  0.876800  1.0  0.1881
  H  H63  1  0.709000  0.668900  0.930000  1.0  0.208
  H  H64  1  0.752300  0.744700  0.895100  1.0  0.2144
  H  H65  1  0.669400  0.708300  0.725900  1.0  0.0688
  H  H66  1  0.580600  0.636200  0.760200  1.0  0.1074
  H  H67  1  0.070000  0.599800  0.744700  1.0  0.0759
  H  H68  1  0.973400  0.528600  0.774100  1.0  0.0847
  H  H69  1  0.896500  0.532400  0.655600  1.0  0.0847
  H  H70  1  0.935300  0.622500  0.644700  1.0  0.0793
  H  H71  1  0.710500  0.629100  0.633800  1.0  0.0772
  H  H72  1  0.682400  0.554200  0.686600  1.0  0.0853
  H  H73  1  0.977700  0.823900  0.321500  1.0  0.0728
  H  H74  1  0.930300  0.869500  0.398300  1.0  0.0853
  H  H75  1  0.728600  0.838500  0.393400  1.0  0.1184
  H  H76  1  0.608800  0.876800  0.289400  1.0  0.187
  H  H77  1  0.709000  0.930000  0.331100  1.0  0.2093
  H  H78  1  0.752300  0.895100  0.255300  1.0  0.2114
  H  H79  1  0.669400  0.725900  0.291700  1.0  0.0684
  H  H80  1  0.580600  0.760200  0.363800  1.0  0.1083
  H  H81  1  0.070000  0.744700  0.400200  1.0  0.0763
  H  H82  1  0.973400  0.774100  0.471400  1.0  0.0867
  H  H83  1  0.896500  0.655600  0.467600  1.0  0.086
  H  H84  1  0.935300  0.644700  0.377500  1.0  0.0778
  H  H85  1  0.710500  0.633800  0.370900  1.0  0.0829
  H  H86  1  0.682400  0.686600  0.445800  1.0  0.0829
  H  H87  1  0.977700  0.176100  0.678500  1.0  0.0726
  H  H88  1  0.930300  0.130500  0.601700  1.0  0.0851
  H  H89  1  0.728600  0.161500  0.606600  1.0  0.1241
  H  H90  1  0.608800  0.123200  0.710600  1.0  0.1869
  H  H91  1  0.709000  0.070000  0.668900  1.0  0.2072
  H  H92  1  0.752300  0.104900  0.744700  1.0  0.2125
  H  H93  1  0.669400  0.274100  0.708300  1.0  0.0687
  H  H94  1  0.580600  0.239800  0.636200  1.0  0.1071
  H  H95  1  0.070000  0.255300  0.599800  1.0  0.0763
  H  H96  1  0.973400  0.225900  0.528600  1.0  0.0896
  H  H97  1  0.896500  0.344400  0.532400  1.0  0.0871
  H  H98  1  0.935300  0.355300  0.622500  1.0  0.0778
  H  H99  1  0.710500  0.366200  0.629100  1.0  0.0791
  H  H100  1  0.682400  0.313400  0.554200  1.0  0.0836
  H  H101  1  0.477700  0.321500  0.823900  1.0  0.0726
  H  H102  1  0.430300  0.398300  0.869500  1.0  0.0849
  H  H103  1  0.228600  0.393400  0.838500  1.0  0.1209
  H  H104  1  0.108800  0.289400  0.876800  1.0  0.1867
  H  H105  1  0.209000  0.331100  0.930000  1.0  0.2098
  H  H106  1  0.252300  0.255300  0.895100  1.0  0.2165
  H  H107  1  0.169400  0.291700  0.725900  1.0  0.0693
  H  H108  1  0.080600  0.363800  0.760200  1.0  0.1078
  H  H109  1  0.570000  0.400200  0.744700  1.0  0.0766
  H  H110  1  0.473400  0.471400  0.774100  1.0  0.0866
  H  H111  1  0.396500  0.467600  0.655600  1.0  0.0858
  H  H112  1  0.435300  0.377500  0.644700  1.0  0.0795
  H  H113  1  0.210500  0.370900  0.633800  1.0  0.0785
  H  H114  1  0.182400  0.445800  0.686600  1.0  0.0866
  H  H115  1  0.477700  0.678500  0.176100  1.0  0.0725
  H  H116  1  0.430300  0.601700  0.130500  1.0  0.0854
  H  H117  1  0.228600  0.606600  0.161500  1.0  0.1215
  H  H118  1  0.108800  0.710600  0.123200  1.0  0.1873
  H  H119  1  0.209000  0.668900  0.070000  1.0  0.207
  H  H120  1  0.252300  0.744700  0.104900  1.0  0.2143
  H  H121  1  0.169400  0.708300  0.274100  1.0  0.0687
  H  H122  1  0.080600  0.636200  0.239800  1.0  0.1073
  H  H123  1  0.570000  0.599800  0.255300  1.0  0.076
  H  H124  1  0.473400  0.528600  0.225900  1.0  0.0852
  H  H125  1  0.396500  0.532400  0.344400  1.0  0.0845
  H  H126  1  0.435300  0.622500  0.355300  1.0  0.0785
  H  H127  1  0.210500  0.629100  0.366200  1.0  0.0788
  H  H128  1  0.182400  0.554200  0.313400  1.0  0.0856
  H  H129  1  0.477700  0.823900  0.678500  1.0  0.0726
  H  H130  1  0.430300  0.869500  0.601700  1.0  0.0861
  H  H131  1  0.228600  0.838500  0.606600  1.0  0.1233
  H  H132  1  0.108800  0.876800  0.710600  1.0  0.187
  H  H133  1  0.209000  0.930000  0.668900  1.0  0.2089
  H  H134  1  0.252300  0.895100  0.744700  1.0  0.2112
  H  H135  1  0.169400  0.725900  0.708300  1.0  0.0685
  H  H136  1  0.080600  0.760200  0.636200  1.0  0.1073
  H  H137  1  0.570000  0.744700  0.599800  1.0  0.0767
  H  H138  1  0.473400  0.774100  0.528600  1.0  0.0891
  H  H139  1  0.396500  0.655600  0.532400  1.0  0.0858
  H  H140  1  0.435300  0.644700  0.622500  1.0  0.0781
  H  H141  1  0.210500  0.633800  0.629100  1.0  0.0834
  H  H142  1  0.182400  0.686600  0.554200  1.0  0.0832
  H  H143  1  0.477700  0.176100  0.321500  1.0  0.0725
  H  H144  1  0.430300  0.130500  0.398300  1.0  0.0853
  H  H145  1  0.228600  0.161500  0.393400  1.0  0.1186
  H  H146  1  0.108800  0.123200  0.289400  1.0  0.1864
  H  H147  1  0.209000  0.070000  0.331100  1.0  0.2087
  H  H148  1  0.252300  0.104900  0.255300  1.0  0.2111
  H  H149  1  0.169400  0.274100  0.291700  1.0  0.0684
  H  H150  1  0.080600  0.239800  0.363800  1.0  0.108
  H  H151  1  0.570000  0.255300  0.400200  1.0  0.076
  H  H152  1  0.473400  0.225900  0.471400  1.0  0.086
  H  H153  1  0.396500  0.344400  0.467600  1.0  0.0864
  H  H154  1  0.435300  0.355300  0.377500  1.0  0.0786
  H  H155  1  0.210500  0.366200  0.370900  1.0  0.0814
  H  H156  1  0.182400  0.313400  0.445800  1.0  0.0833
  C  C157  1  0.915400  0.368400  0.179400  1.0  -0.1216
  C  C158  1  0.765500  0.341700  0.180000  1.0  0.1098
  C  C159  1  0.678900  0.345400  0.253200  1.0  -0.1199
  C  C160  1  0.969400  0.416600  0.244200  1.0  -0.1644
  C  C161  1  0.887700  0.415400  0.320000  1.0  -0.1768
  C  C162  1  0.736400  0.395900  0.315900  1.0  -0.1583
  C  C163  1  0.915400  0.631600  0.820600  1.0  -0.123
  C  C164  1  0.765500  0.658300  0.820000  1.0  0.1107
  C  C165  1  0.678900  0.654600  0.746800  1.0  -0.1184
  C  C166  1  0.969400  0.583400  0.755800  1.0  -0.1638
  C  C167  1  0.887700  0.584600  0.680000  1.0  -0.1747
  C  C168  1  0.736400  0.604100  0.684100  1.0  -0.1562
  C  C169  1  0.915400  0.820600  0.368400  1.0  -0.118
  C  C170  1  0.765500  0.820000  0.341700  1.0  0.1148
  C  C171  1  0.678900  0.746800  0.345400  1.0  -0.1207
  C  C172  1  0.969400  0.755800  0.416600  1.0  -0.1641
  C  C173  1  0.887700  0.680000  0.415400  1.0  -0.1728
  C  C174  1  0.736400  0.684100  0.395900  1.0  -0.1573
  C  C175  1  0.915400  0.179400  0.631600  1.0  -0.1211
  C  C176  1  0.765500  0.180000  0.658300  1.0  0.109
  C  C177  1  0.678900  0.253200  0.654600  1.0  -0.1236
  C  C178  1  0.969400  0.244200  0.583400  1.0  -0.1639
  C  C179  1  0.887700  0.320000  0.584600  1.0  -0.1752
  C  C180  1  0.736400  0.315900  0.604100  1.0  -0.1568
  C  C181  1  0.415400  0.368400  0.820600  1.0  -0.123
  C  C182  1  0.265500  0.341700  0.820000  1.0  0.111
  C  C183  1  0.178900  0.345400  0.746800  1.0  -0.1187
  C  C184  1  0.469400  0.416600  0.755800  1.0  -0.1642
  C  C185  1  0.387700  0.415400  0.680000  1.0  -0.1761
  C  C186  1  0.236400  0.395900  0.684100  1.0  -0.1568
  C  C187  1  0.415400  0.631600  0.179400  1.0  -0.1216
  C  C188  1  0.265500  0.658300  0.180000  1.0  0.1098
  C  C189  1  0.178900  0.654600  0.253200  1.0  -0.1201
  C  C190  1  0.469400  0.583400  0.244200  1.0  -0.164
  C  C191  1  0.387700  0.584600  0.320000  1.0  -0.1754
  C  C192  1  0.236400  0.604100  0.315900  1.0  -0.1579
  C  C193  1  0.415400  0.820600  0.631600  1.0  -0.1204
  C  C194  1  0.265500  0.820000  0.658300  1.0  0.1086
  C  C195  1  0.178900  0.746800  0.654600  1.0  -0.1227
  C  C196  1  0.469400  0.755800  0.583400  1.0  -0.1637
  C  C197  1  0.387700  0.680000  0.584600  1.0  -0.1742
  C  C198  1  0.236400  0.684100  0.604100  1.0  -0.157
  C  C199  1  0.415400  0.179400  0.368400  1.0  -0.1203
  C  C200  1  0.265500  0.180000  0.341700  1.0  0.1145
  C  C201  1  0.178900  0.253200  0.345400  1.0  -0.1215
  C  C202  1  0.469400  0.244200  0.416600  1.0  -0.1645
  C  C203  1  0.387700  0.320000  0.415400  1.0  -0.1741
  C  C204  1  0.236400  0.315900  0.395900  1.0  -0.1571
  N  N205  1  0.703000  0.300500  0.113200  1.0  -0.2863
  N  N206  1  0.703000  0.699500  0.886800  1.0  -0.2851
  N  N207  1  0.703000  0.886800  0.300500  1.0  -0.2852
  N  N208  1  0.703000  0.113200  0.699500  1.0  -0.2837
  N  N209  1  0.203000  0.300500  0.886800  1.0  -0.285
  N  N210  1  0.203000  0.699500  0.113200  1.0  -0.285
  N  N211  1  0.203000  0.886800  0.699500  1.0  -0.2841
  N  N212  1  0.203000  0.113200  0.300500  1.0  -0.2856
  O  O213  1  0.973500  0.993100  0.215300  1.0  -0.5726
  O  O214  1  0.873000  0.866700  0.156000  1.0  -0.9231
  O  O215  1  0.130200  0.956800  0.212400  1.0  -0.6207
  O  O216  1  0.984000  0.082800  0.454800  1.0  -0.9116
  O  O217  1  0.883400  0.117000  0.320200  1.0  -0.8277
  O  O218  1  0.731500  0.031700  0.412600  1.0  -0.8427
  O  O219  1  0.973500  0.006900  0.784700  1.0  -0.5721
  O  O220  1  0.873000  0.133300  0.844000  1.0  -0.9241
  O  O221  1  0.130200  0.043200  0.787600  1.0  -0.6202
  O  O222  1  0.984000  0.917200  0.545200  1.0  -0.9113
  O  O223  1  0.883400  0.883000  0.679800  1.0  -0.8278
  O  O224  1  0.731500  0.968300  0.587400  1.0  -0.8428
  O  O225  1  0.973500  0.784700  0.993100  1.0  -0.5731
  O  O226  1  0.873000  0.844000  0.866700  1.0  -0.9281
  O  O227  1  0.130200  0.787600  0.956800  1.0  -0.6216
  O  O228  1  0.984000  0.545200  0.082800  1.0  -0.91
  O  O229  1  0.883400  0.679800  0.117000  1.0  -0.8275
  O  O230  1  0.731500  0.587400  0.031700  1.0  -0.8428
  O  O231  1  0.973500  0.215300  0.006900  1.0  -0.5736
  O  O232  1  0.873000  0.156000  0.133300  1.0  -0.9275
  O  O233  1  0.130200  0.212400  0.043200  1.0  -0.6213
  O  O234  1  0.984000  0.454800  0.917200  1.0  -0.9104
  O  O235  1  0.883400  0.320200  0.883000  1.0  -0.8276
  O  O236  1  0.731500  0.412600  0.968300  1.0  -0.8432
  O  O237  1  0.473500  0.993100  0.784700  1.0  -0.5728
  O  O238  1  0.373000  0.866700  0.844000  1.0  -0.924
  O  O239  1  0.630200  0.956800  0.787600  1.0  -0.6203
  O  O240  1  0.484000  0.082800  0.545200  1.0  -0.9112
  O  O241  1  0.383400  0.117000  0.679800  1.0  -0.8285
  O  O242  1  0.231500  0.031700  0.587400  1.0  -0.8428
  O  O243  1  0.473500  0.006900  0.215300  1.0  -0.5722
  O  O244  1  0.373000  0.133300  0.156000  1.0  -0.9234
  O  O245  1  0.630200  0.043200  0.212400  1.0  -0.6207
  O  O246  1  0.484000  0.917200  0.454800  1.0  -0.9123
  O  O247  1  0.383400  0.883000  0.320200  1.0  -0.8272
  O  O248  1  0.231500  0.968300  0.412600  1.0  -0.8427
  O  O249  1  0.473500  0.784700  0.006900  1.0  -0.5736
  O  O250  1  0.373000  0.844000  0.133300  1.0  -0.928
  O  O251  1  0.630200  0.787600  0.043200  1.0  -0.6218
  O  O252  1  0.484000  0.545200  0.917200  1.0  -0.9106
  O  O253  1  0.383400  0.679800  0.883000  1.0  -0.8265
  O  O254  1  0.231500  0.587400  0.968300  1.0  -0.843
  O  O255  1  0.473500  0.215300  0.993100  1.0  -0.5733
  O  O256  1  0.373000  0.156000  0.866700  1.0  -0.9271
  O  O257  1  0.630200  0.212400  0.956800  1.0  -0.6212
  O  O258  1  0.484000  0.454800  0.082800  1.0  -0.9091
  O  O259  1  0.383400  0.320200  0.117000  1.0  -0.8289
  O  O260  1  0.231500  0.412600  0.031700  1.0  -0.843
