# generated using pymatgen
data_CuH3C8NO4
_symmetry_space_group_name_H-M   'P 1'
_cell_length_a   20.26990000
_cell_length_b   27.16420000
_cell_length_c   27.16420000
_cell_angle_alpha   65.97110000
_cell_angle_beta   75.59740000
_cell_angle_gamma   104.40300000
_symmetry_Int_Tables_number   1
_chemical_formula_structural   CuH3C8NO4
_chemical_formula_sum   'Cu24 H72 C192 N24 O96'
_cell_volume   12151.73179003
_cell_formula_units_Z   24
loop_
 _symmetry_equiv_pos_site_id
 _symmetry_equiv_pos_as_xyz
  1  'x, y, z'
loop_
 _atom_site_type_symbol
 _atom_site_label
 _atom_site_symmetry_multiplicity
 _atom_site_fract_x
 _atom_site_fract_y
 _atom_site_fract_z
 _atom_site_occupancy
 _atom_site_charge
  Cu  Cu1  1  0.034180  0.292440  0.206140  1.0  0.9413
  Cu  Cu2  1  0.993630  0.194880  0.307150  1.0  0.9056
  Cu  Cu3  1  0.267350  0.977730  0.211140  1.0  0.9317
  Cu  Cu4  1  0.207990  0.974230  0.312760  1.0  0.9679
  Cu  Cu5  1  0.240320  0.206140  0.501420  1.0  0.9419
  Cu  Cu6  1  0.300780  0.307150  0.497970  1.0  0.9063
  Cu  Cu7  1  0.478490  0.211140  0.811130  1.0  0.9461
  Cu  Cu8  1  0.520750  0.312760  0.713010  1.0  0.9723
  Cu  Cu9  1  0.741740  0.501420  0.292440  1.0  0.9358
  Cu  Cu10  1  0.798750  0.497970  0.194880  1.0  0.9026
  Cu  Cu11  1  0.289620  0.811130  0.977730  1.0  0.948
  Cu  Cu12  1  0.233760  0.713010  0.974230  1.0  0.9693
  Cu  Cu13  1  0.965820  0.707560  0.793860  1.0  0.9397
  Cu  Cu14  1  0.006370  0.805120  0.692850  1.0  0.9043
  Cu  Cu15  1  0.732650  0.022270  0.788860  1.0  0.933
  Cu  Cu16  1  0.792010  0.025770  0.687240  1.0  0.964
  Cu  Cu17  1  0.759680  0.793860  0.498580  1.0  0.9396
  Cu  Cu18  1  0.699220  0.692850  0.502030  1.0  0.9056
  Cu  Cu19  1  0.521510  0.788860  0.188870  1.0  0.9462
  Cu  Cu20  1  0.479250  0.687240  0.286990  1.0  0.9753
  Cu  Cu21  1  0.258260  0.498580  0.707560  1.0  0.9367
  Cu  Cu22  1  0.201250  0.502030  0.805120  1.0  0.9058
  Cu  Cu23  1  0.710380  0.188870  0.022270  1.0  0.9462
  Cu  Cu24  1  0.766240  0.286990  0.025770  1.0  0.9711
  H  H25  1  0.130500  0.113700  0.245200  1.0  0.103
  H  H26  1  0.250800  0.130800  0.095800  1.0  0.1479
  H  H27  1  0.156400  0.247200  0.097600  1.0  0.1357
  H  H28  1  0.330300  0.244900  0.927600  1.0  0.1462
  H  H29  1  0.365100  0.379300  0.772200  1.0  0.1342
  H  H30  1  0.216300  0.347600  0.925600  1.0  0.1462
  H  H31  1  0.154000  0.260600  0.366900  1.0  0.1407
  H  H32  1  0.276200  0.411800  0.346800  1.0  0.1521
  H  H33  1  0.193100  0.413300  0.229200  1.0  0.1054
  H  H34  1  0.344400  0.582300  0.236800  1.0  0.1206
  H  H35  1  0.380200  0.736700  0.110100  1.0  0.1255
  H  H36  1  0.261800  0.589600  0.117800  1.0  0.1145
  H  H37  1  0.375700  0.245200  0.641100  1.0  0.102
  H  H38  1  0.346600  0.095800  0.773400  1.0  0.1505
  H  H39  1  0.254000  0.097600  0.655200  1.0  0.1358
  H  H40  1  0.257900  0.927600  0.827500  1.0  0.1466
  H  H41  1  0.137300  0.772200  0.848500  1.0  0.1341
  H  H42  1  0.141900  0.925600  0.726800  1.0  0.1463
  H  H43  1  0.520900  0.366900  0.372500  1.0  0.1394
  H  H44  1  0.623000  0.346800  0.241400  1.0  0.1504
  H  H45  1  0.422300  0.229200  0.357500  1.0  0.1058
  H  H46  1  0.581200  0.236800  0.180900  1.0  0.1208
  H  H47  1  0.490300  0.110100  0.153200  1.0  0.1263
  H  H48  1  0.379600  0.117800  0.292600  1.0  0.1132
  H  H49  1  0.016800  0.641100  0.113700  1.0  0.1024
  H  H50  1  0.120000  0.773400  0.130800  1.0  0.1495
  H  H51  1  0.909200  0.655200  0.247200  1.0  0.1355
  H  H52  1  0.085400  0.827500  0.244900  1.0  0.1458
  H  H53  1  0.985800  0.848500  0.379300  1.0  0.1328
  H  H54  1  0.868700  0.726800  0.347600  1.0  0.1467
  H  H55  1  0.893400  0.372500  0.260600  1.0  0.1389
  H  H56  1  0.864400  0.241400  0.411800  1.0  0.1507
  H  H57  1  0.779800  0.357500  0.413300  1.0  0.1051
  H  H58  1  0.762100  0.180900  0.582300  1.0  0.1202
  H  H59  1  0.643500  0.153200  0.736700  1.0  0.1264
  H  H60  1  0.672200  0.292600  0.589600  1.0  0.1135
  H  H61  1  0.869500  0.886300  0.754800  1.0  0.1019
  H  H62  1  0.749200  0.869200  0.904200  1.0  0.1492
  H  H63  1  0.843600  0.752800  0.902400  1.0  0.1356
  H  H64  1  0.669700  0.755100  0.072400  1.0  0.1466
  H  H65  1  0.634900  0.620700  0.227800  1.0  0.1339
  H  H66  1  0.783700  0.652400  0.074400  1.0  0.1457
  H  H67  1  0.846000  0.739400  0.633100  1.0  0.1404
  H  H68  1  0.723800  0.588200  0.653200  1.0  0.152
  H  H69  1  0.806900  0.586700  0.770800  1.0  0.1056
  H  H70  1  0.655600  0.417700  0.763200  1.0  0.1209
  H  H71  1  0.619800  0.263300  0.889900  1.0  0.1261
  H  H72  1  0.738200  0.410400  0.882200  1.0  0.1145
  H  H73  1  0.624300  0.754800  0.358900  1.0  0.1018
  H  H74  1  0.653400  0.904200  0.226600  1.0  0.1501
  H  H75  1  0.746000  0.902400  0.344800  1.0  0.1361
  H  H76  1  0.742100  0.072400  0.172500  1.0  0.1466
  H  H77  1  0.862700  0.227800  0.151500  1.0  0.1339
  H  H78  1  0.858100  0.074400  0.273200  1.0  0.147
  H  H79  1  0.479100  0.633100  0.627500  1.0  0.139
  H  H80  1  0.377000  0.653200  0.758600  1.0  0.1513
  H  H81  1  0.577700  0.770800  0.642500  1.0  0.105
  H  H82  1  0.418800  0.763200  0.819100  1.0  0.1204
  H  H83  1  0.509700  0.889900  0.846800  1.0  0.126
  H  H84  1  0.620400  0.882200  0.707400  1.0  0.1128
  H  H85  1  0.983200  0.358900  0.886300  1.0  0.1014
  H  H86  1  0.880000  0.226600  0.869200  1.0  0.1494
  H  H87  1  0.090800  0.344800  0.752800  1.0  0.1356
  H  H88  1  0.914600  0.172500  0.755100  1.0  0.1454
  H  H89  1  0.014200  0.151500  0.620700  1.0  0.1329
  H  H90  1  0.131300  0.273200  0.652400  1.0  0.1478
  H  H91  1  0.106600  0.627500  0.739400  1.0  0.1386
  H  H92  1  0.135600  0.758600  0.588200  1.0  0.1516
  H  H93  1  0.220200  0.642500  0.586700  1.0  0.1057
  H  H94  1  0.237900  0.819100  0.417700  1.0  0.1204
  H  H95  1  0.356500  0.846800  0.263300  1.0  0.1262
  H  H96  1  0.327800  0.707400  0.410400  1.0  0.1132
  C  C97  1  0.101800  0.210700  0.206600  1.0  0.7084
  C  C98  1  0.145600  0.186100  0.176900  1.0  -0.1077
  C  C99  1  0.154000  0.135300  0.204700  1.0  -1e-04
  C  C100  1  0.194100  0.114300  0.177700  1.0  -0.0936
  C  C101  1  0.201900  0.057900  0.209500  1.0  0.6755
  C  C102  1  0.224100  0.144400  0.116600  1.0  -0.0222
  C  C103  1  0.213000  0.194500  0.088100  1.0  -0.0076
  C  C104  1  0.168500  0.215900  0.117300  1.0  -0.0402
  C  C105  1  0.276700  0.293600  0.938500  1.0  0.0982
  C  C106  1  0.320200  0.276700  0.906000  1.0  0.0283
  C  C107  1  0.352500  0.302300  0.841900  1.0  -0.0503
  C  C108  1  0.409300  0.293300  0.808300  1.0  0.6862
  C  C109  1  0.339200  0.355200  0.812600  1.0  -0.0334
  C  C110  1  0.288200  0.372200  0.842800  1.0  -0.1066
  C  C111  1  0.269300  0.424400  0.813400  1.0  0.5762
  C  C112  1  0.253100  0.339700  0.905700  1.0  -0.0219
  C  C113  1  0.117600  0.301200  0.276400  1.0  0.6997
  C  C114  1  0.165900  0.334800  0.293800  1.0  -0.066
  C  C115  1  0.177200  0.301400  0.345000  1.0  -0.0306
  C  C116  1  0.223200  0.332200  0.359900  1.0  -0.0168
  C  C117  1  0.239000  0.311900  0.416700  1.0  0.4456
  C  C118  1  0.248900  0.391400  0.333333  1.0  -0.0878
  C  C119  1  0.233300  0.420100  0.285800  1.0  0.1051
  C  C120  1  0.196800  0.392300  0.264600  1.0  -0.0388
  C  C121  1  0.300400  0.574600  0.179900  1.0  0.2129
  C  C122  1  0.340100  0.604700  0.202200  1.0  0.004
  C  C123  1  0.372700  0.664400  0.176400  1.0  -0.1124
  C  C124  1  0.420700  0.695900  0.198900  1.0  0.6502
  C  C125  1  0.360100  0.695900  0.128400  1.0  0.0097
  C  C126  1  0.314200  0.666500  0.103800  1.0  -0.0936
  C  C127  1  0.305100  0.709100  0.049200  1.0  0.6962
  C  C128  1  0.289500  0.608900  0.132000  1.0  0.0307
  C  C129  1  0.308400  0.206600  0.582700  1.0  0.7082
  C  C130  1  0.322500  0.176900  0.637000  1.0  -0.1104
  C  C131  1  0.358700  0.204700  0.660000  1.0  -0.0032
  C  C132  1  0.371800  0.177700  0.708000  1.0  -0.0944
  C  C133  1  0.411400  0.209500  0.732600  1.0  0.6774
  C  C134  1  0.340700  0.116600  0.739000  1.0  -0.0208
  C  C135  1  0.301100  0.088100  0.717400  1.0  -0.0058
  C  C136  1  0.285800  0.117300  0.666800  1.0  -0.0401
  C  C137  1  0.215200  0.938500  0.767900  1.0  0.0976
  C  C138  1  0.226200  0.906000  0.817300  1.0  0.0286
  C  C139  1  0.194400  0.841900  0.855800  1.0  -0.0504
  C  C140  1  0.217600  0.808300  0.898400  1.0  0.6859
  C  C141  1  0.151800  0.812600  0.832200  1.0  -0.0316
  C  C142  1  0.131000  0.842800  0.785000  1.0  -0.1051
  C  C143  1  0.082700  0.813400  0.762200  1.0  0.5767
  C  C144  1  0.158800  0.905700  0.754600  1.0  -0.0218
  C  C145  1  0.394000  0.276400  0.422400  1.0  0.6987
  C  C146  1  0.459700  0.293800  0.371400  1.0  -0.0651
  C  C147  1  0.522200  0.345000  0.353600  1.0  -0.028
  C  C148  1  0.583100  0.359900  0.307900  1.0  -0.0165
  C  C149  1  0.655700  0.416700  0.271400  1.0  0.443
  C  C150  1  0.582200  0.333333  0.275300  1.0  -0.09
  C  C151  1  0.519100  0.285800  0.294100  1.0  0.1025
  C  C152  1  0.461400  0.264600  0.343100  1.0  -0.0392
  C  C153  1  0.480300  0.179900  0.245500  1.0  0.214
  C  C154  1  0.542300  0.202200  0.193100  1.0  0.0043
  C  C155  1  0.549100  0.176400  0.159200  1.0  -0.1106
  C  C156  1  0.619600  0.198900  0.105200  1.0  0.6498
  C  C157  1  0.488500  0.128400  0.175700  1.0  0.0079
  C  C158  1  0.418000  0.103800  0.229700  1.0  -0.092
  C  C159  1  0.354300  0.049200  0.241700  1.0  0.6969
  C  C160  1  0.421500  0.132000  0.259100  1.0  0.0311
  C  C161  1  0.891100  0.582700  0.210700  1.0  0.7062
  C  C162  1  0.959500  0.637000  0.186100  1.0  -0.11
  C  C163  1  0.018700  0.660000  0.135300  1.0  -0.0025
  C  C164  1  0.079800  0.708000  0.114300  1.0  -0.0931
  C  C165  1  0.144000  0.732600  0.057900  1.0  0.6769
  C  C166  1  0.079700  0.739000  0.144400  1.0  -0.0219
  C  C167  1  0.018500  0.717400  0.194500  1.0  -0.007
  C  C168  1  0.952600  0.666800  0.215900  1.0  -0.0403
  C  C169  1  0.983100  0.767900  0.293600  1.0  0.0988
  C  C170  1  0.043500  0.817300  0.276700  1.0  0.0259
  C  C171  1  0.050200  0.855800  0.302300  1.0  -0.049
  C  C172  1  0.116000  0.898400  0.293300  1.0  0.6857
  C  C173  1  0.984000  0.832200  0.355200  1.0  -0.0311
  C  C174  1  0.916000  0.785000  0.372200  1.0  -0.1053
  C  C175  1  0.844900  0.762200  0.424400  1.0  0.5773
  C  C176  1  0.913400  0.754600  0.339700  1.0  -0.0221
  C  C177  1  0.816400  0.422400  0.301200  1.0  0.6968
  C  C178  1  0.831100  0.371400  0.334800  1.0  -0.064
  C  C179  1  0.875800  0.353600  0.301400  1.0  -0.0304
  C  C180  1  0.891000  0.307900  0.332200  1.0  -0.0172
  C  C181  1  0.927100  0.271400  0.311900  1.0  0.4443
  C  C182  1  0.857500  0.275300  0.391400  1.0  -0.0892
  C  C183  1  0.813200  0.294100  0.420100  1.0  0.1027
  C  C184  1  0.804500  0.343100  0.392300  1.0  -0.0367
  C  C185  1  0.725800  0.245500  0.574600  1.0  0.2128
  C  C186  1  0.735400  0.193100  0.604700  1.0  0.0008
  C  C187  1  0.708300  0.159200  0.664400  1.0  -0.1099
  C  C188  1  0.724800  0.105200  0.695900  1.0  0.6489
  C  C189  1  0.664200  0.175700  0.695900  1.0  0.0108
  C  C190  1  0.647700  0.229700  0.666500  1.0  -0.0922
  C  C191  1  0.596000  0.241700  0.709100  1.0  0.6988
  C  C192  1  0.680600  0.259100  0.608900  1.0  0.031
  C  C193  1  0.898200  0.789300  0.793400  1.0  0.7085
  C  C194  1  0.854400  0.813900  0.823100  1.0  -0.1079
  C  C195  1  0.846000  0.864700  0.795300  1.0  -0.0013
  C  C196  1  0.805900  0.885700  0.822300  1.0  -0.0944
  C  C197  1  0.798100  0.942100  0.790500  1.0  0.6725
  C  C198  1  0.775900  0.855600  0.883400  1.0  -0.022
  C  C199  1  0.787000  0.805500  0.911900  1.0  -0.0071
  C  C200  1  0.831500  0.784100  0.882700  1.0  -0.0396
  C  C201  1  0.723300  0.706400  0.061500  1.0  0.0984
  C  C202  1  0.679800  0.723300  0.094000  1.0  0.0262
  C  C203  1  0.647500  0.697700  0.158100  1.0  -0.0494
  C  C204  1  0.590700  0.706700  0.191700  1.0  0.6859
  C  C205  1  0.660800  0.644800  0.187400  1.0  -0.0316
  C  C206  1  0.711800  0.627800  0.157200  1.0  -0.1066
  C  C207  1  0.730700  0.575600  0.186600  1.0  0.5767
  C  C208  1  0.746900  0.660300  0.094300  1.0  -0.0223
  C  C209  1  0.882400  0.698800  0.723600  1.0  0.6993
  C  C210  1  0.834100  0.665200  0.706200  1.0  -0.0645
  C  C211  1  0.822800  0.698600  0.655000  1.0  -0.031
  C  C212  1  0.776800  0.667800  0.640100  1.0  -0.0158
  C  C213  1  0.761000  0.688100  0.583300  1.0  0.4459
  C  C214  1  0.751100  0.608600  0.666667  1.0  -0.0897
  C  C215  1  0.766700  0.579900  0.714200  1.0  0.1065
  C  C216  1  0.803200  0.607700  0.735400  1.0  -0.0362
  C  C217  1  0.699600  0.425400  0.820100  1.0  0.2141
  C  C218  1  0.659900  0.395300  0.797800  1.0  0.003
  C  C219  1  0.627300  0.335600  0.823600  1.0  -0.1128
  C  C220  1  0.579300  0.304100  0.801100  1.0  0.6512
  C  C221  1  0.639900  0.304100  0.871600  1.0  0.0108
  C  C222  1  0.685800  0.333500  0.896200  1.0  -0.093
  C  C223  1  0.694900  0.290900  0.950800  1.0  0.6986
  C  C224  1  0.710500  0.391100  0.868000  1.0  0.031
  C  C225  1  0.691600  0.793400  0.417300  1.0  0.7089
  C  C226  1  0.677500  0.823100  0.363000  1.0  -0.1079
  C  C227  1  0.641300  0.795300  0.340000  1.0  -0.0018
  C  C228  1  0.628200  0.822300  0.292000  1.0  -0.0963
  C  C229  1  0.588600  0.790500  0.267400  1.0  0.6743
  C  C230  1  0.659300  0.883400  0.261000  1.0  -0.0221
  C  C231  1  0.698900  0.911900  0.282600  1.0  -0.0048
  C  C232  1  0.714200  0.882700  0.333200  1.0  -0.0398
  C  C233  1  0.784800  0.061500  0.232100  1.0  0.0979
  C  C234  1  0.773800  0.094000  0.182700  1.0  0.0269
  C  C235  1  0.805600  0.158100  0.144200  1.0  -0.0504
  C  C236  1  0.782400  0.191700  0.101600  1.0  0.6857
  C  C237  1  0.848200  0.187400  0.167800  1.0  -0.0333
  C  C238  1  0.869000  0.157200  0.215000  1.0  -0.1062
  C  C239  1  0.917300  0.186600  0.237800  1.0  0.5767
  C  C240  1  0.841200  0.094300  0.245400  1.0  -0.0194
  C  C241  1  0.606000  0.723600  0.577600  1.0  0.6987
  C  C242  1  0.540300  0.706200  0.628600  1.0  -0.0639
  C  C243  1  0.477800  0.655000  0.646400  1.0  -0.0281
  C  C244  1  0.416900  0.640100  0.692100  1.0  -0.0161
  C  C245  1  0.344300  0.583300  0.728600  1.0  0.4446
  C  C246  1  0.417800  0.666667  0.724700  1.0  -0.089
  C  C247  1  0.480900  0.714200  0.705900  1.0  0.1057
  C  C248  1  0.538600  0.735400  0.656900  1.0  -0.0388
  C  C249  1  0.519700  0.820100  0.754500  1.0  0.2139
  C  C250  1  0.457700  0.797800  0.806900  1.0  0.0025
  C  C251  1  0.450900  0.823600  0.840800  1.0  -0.1109
  C  C252  1  0.380400  0.801100  0.894800  1.0  0.6508
  C  C253  1  0.511500  0.871600  0.824300  1.0  0.0094
  C  C254  1  0.582000  0.896200  0.770300  1.0  -0.0913
  C  C255  1  0.645700  0.950800  0.758300  1.0  0.6987
  C  C256  1  0.578500  0.868000  0.740900  1.0  0.0308
  C  C257  1  0.108900  0.417300  0.789300  1.0  0.7064
  C  C258  1  0.040500  0.363000  0.813900  1.0  -0.1075
  C  C259  1  0.981300  0.340000  0.864700  1.0  -0.0013
  C  C260  1  0.920200  0.292000  0.885700  1.0  -0.094
  C  C261  1  0.856000  0.267400  0.942100  1.0  0.6742
  C  C262  1  0.920300  0.261000  0.855600  1.0  -0.0218
  C  C263  1  0.981500  0.282600  0.805500  1.0  -0.0066
  C  C264  1  0.047400  0.333200  0.784100  1.0  -0.0409
  C  C265  1  0.016900  0.232100  0.706400  1.0  0.0971
  C  C266  1  0.956500  0.182700  0.723300  1.0  0.0272
  C  C267  1  0.949800  0.144200  0.697700  1.0  -0.0489
  C  C268  1  0.884000  0.101600  0.706700  1.0  0.6855
  C  C269  1  0.016000  0.167800  0.644800  1.0  -0.0326
  C  C270  1  0.084000  0.215000  0.627800  1.0  -0.106
  C  C271  1  0.155100  0.237800  0.575600  1.0  0.5781
  C  C272  1  0.086600  0.245400  0.660300  1.0  -0.0212
  C  C273  1  0.183600  0.577600  0.698800  1.0  0.6973
  C  C274  1  0.168900  0.628600  0.665200  1.0  -0.0643
  C  C275  1  0.124200  0.646400  0.698600  1.0  -0.0291
  C  C276  1  0.109000  0.692100  0.667800  1.0  -0.0199
  C  C277  1  0.072900  0.728600  0.688100  1.0  0.4443
  C  C278  1  0.142500  0.724700  0.608600  1.0  -0.0885
  C  C279  1  0.186800  0.705900  0.579900  1.0  0.1029
  C  C280  1  0.195500  0.656900  0.607700  1.0  -0.0385
  C  C281  1  0.274200  0.754500  0.425400  1.0  0.2123
  C  C282  1  0.264600  0.806900  0.395300  1.0  0.0028
  C  C283  1  0.291700  0.840800  0.335600  1.0  -0.1107
  C  C284  1  0.275200  0.894800  0.304100  1.0  0.6503
  C  C285  1  0.335800  0.824300  0.304100  1.0  0.0078
  C  C286  1  0.352300  0.770300  0.333500  1.0  -0.0914
  C  C287  1  0.404000  0.758300  0.290900  1.0  0.6985
  C  C288  1  0.319400  0.740900  0.391100  1.0  0.0322
  N  N289  1  0.251900  0.223500  0.022900  1.0  -0.2935
  N  N290  1  0.236900  0.268100  0.998200  1.0  -0.2631
  N  N291  1  0.275900  0.488100  0.250300  1.0  -0.2183
  N  N292  1  0.259800  0.515200  0.209600  1.0  -0.1514
  N  N293  1  0.274800  0.022900  0.753600  1.0  -0.2937
  N  N294  1  0.235100  0.998200  0.733700  1.0  -0.2637
  N  N295  1  0.526200  0.250300  0.261600  1.0  -0.2191
  N  N296  1  0.469400  0.209600  0.275200  1.0  -0.1471
  N  N297  1  0.028400  0.753600  0.223500  1.0  -0.2934
  N  N298  1  0.968800  0.733700  0.268100  1.0  -0.2619
  N  N299  1  0.787800  0.261600  0.488100  1.0  -0.2178
  N  N300  1  0.744600  0.275200  0.515200  1.0  -0.1472
  N  N301  1  0.748100  0.776500  0.977100  1.0  -0.2929
  N  N302  1  0.763100  0.731900  0.001800  1.0  -0.2627
  N  N303  1  0.724100  0.511900  0.749700  1.0  -0.22
  N  N304  1  0.740200  0.484800  0.790400  1.0  -0.1492
  N  N305  1  0.725200  0.977100  0.246400  1.0  -0.297
  N  N306  1  0.764900  0.001800  0.266300  1.0  -0.2636
  N  N307  1  0.473800  0.749700  0.738400  1.0  -0.2184
  N  N308  1  0.530600  0.790400  0.724800  1.0  -0.1468
  N  N309  1  0.971600  0.246400  0.776500  1.0  -0.2933
  N  N310  1  0.031200  0.266300  0.731900  1.0  -0.2609
  N  N311  1  0.212200  0.738400  0.511900  1.0  -0.2175
  N  N312  1  0.255400  0.724800  0.484800  1.0  -0.1451
  O  O313  1  0.099120  0.258420  0.177460  1.0  -0.5704
  O  O314  1  0.062700  0.173450  0.261750  1.0  -0.5806
  O  O315  1  0.236560  0.037310  0.183930  1.0  -0.5875
  O  O316  1  0.188960  0.037020  0.264940  1.0  -0.5758
  O  O317  1  0.409080  0.242910  0.841070  1.0  -0.5873
  O  O318  1  0.442530  0.324950  0.756760  1.0  -0.5155
  O  O319  1  0.283440  0.437080  0.755460  1.0  -0.5885
  O  O320  1  0.240120  0.444050  0.837790  1.0  -0.4985
  O  O321  1  0.107790  0.327500  0.232530  1.0  -0.541
  O  O322  1  0.076730  0.244170  0.315880  1.0  -0.598
  O  O323  1  0.214070  0.254370  0.435460  1.0  -0.6287
  O  O324  1  0.275480  0.331210  0.436370  1.0  -0.5774
  O  O325  1  0.416080  0.661800  0.246760  1.0  -0.5575
  O  O326  1  0.450600  0.750890  0.166890  1.0  -0.5382
  O  O327  1  0.310200  0.761100  0.037600  1.0  -0.5744
  O  O328  1  0.270310  0.677160  0.033130  1.0  -0.5853
  O  O329  1  0.276580  0.177460  0.564120  1.0  -0.5725
  O  O330  1  0.324450  0.261750  0.564800  1.0  -0.5774
  O  O331  1  0.420490  0.183930  0.778760  1.0  -0.5867
  O  O332  1  0.453900  0.264940  0.698040  1.0  -0.5779
  O  O333  1  0.250150  0.841070  0.916020  1.0  -0.5871
  O  O334  1  0.199290  0.756760  0.918290  1.0  -0.5117
  O  O335  1  0.038900  0.755460  0.807460  1.0  -0.5936
  O  O336  1  0.077910  0.837790  0.718160  1.0  -0.5011
  O  O337  1  0.340320  0.232530  0.439970  1.0  -0.5391
  O  O338  1  0.392610  0.315880  0.439950  1.0  -0.599
  O  O339  1  0.649530  0.435460  0.310170  1.0  -0.6293
  O  O340  1  0.711850  0.436370  0.232420  1.0  -0.5735
  O  O341  1  0.662840  0.246760  0.091440  1.0  -0.5576
  O  O342  1  0.617490  0.166890  0.082220  1.0  -0.5368
  O  O343  1  0.347800  0.037600  0.201300  1.0  -0.5748
  O  O344  1  0.303440  0.033130  0.289710  1.0  -0.5799
  O  O345  1  0.840700  0.564120  0.258420  1.0  -0.5695
  O  O346  1  0.889250  0.564800  0.173450  1.0  -0.5764
  O  O347  1  0.199250  0.778760  0.037310  1.0  -0.5856
  O  O348  1  0.151940  0.698040  0.037020  1.0  -0.5779
  O  O349  1  0.166170  0.916020  0.242910  1.0  -0.5867
  O  O350  1  0.117580  0.918290  0.324950  1.0  -0.5126
  O  O351  1  0.846360  0.807460  0.437080  1.0  -0.5922
  O  O352  1  0.796070  0.718160  0.444050  1.0  -0.5003
  O  O353  1  0.780290  0.439970  0.327500  1.0  -0.5391
  O  O354  1  0.832560  0.439950  0.244170  1.0  -0.6001
  O  O355  1  0.959700  0.310170  0.254370  1.0  -0.6297
  O  O356  1  0.944270  0.232420  0.331210  1.0  -0.5751
  O  O357  1  0.754280  0.091440  0.661800  1.0  -0.5571
  O  O358  1  0.699710  0.082220  0.750890  1.0  -0.5416
  O  O359  1  0.549100  0.201300  0.761100  1.0  -0.5738
  O  O360  1  0.593150  0.289710  0.677160  1.0  -0.5838
  O  O361  1  0.900880  0.741580  0.822540  1.0  -0.5713
  O  O362  1  0.937300  0.826550  0.738250  1.0  -0.5814
  O  O363  1  0.763440  0.962690  0.816070  1.0  -0.5866
  O  O364  1  0.811040  0.962980  0.735060  1.0  -0.5768
  O  O365  1  0.590920  0.757090  0.158930  1.0  -0.5861
  O  O366  1  0.557470  0.675050  0.243240  1.0  -0.5144
  O  O367  1  0.716560  0.562920  0.244540  1.0  -0.5914
  O  O368  1  0.759880  0.555950  0.162210  1.0  -0.4977
  O  O369  1  0.892210  0.672500  0.767470  1.0  -0.5411
  O  O370  1  0.923270  0.755830  0.684120  1.0  -0.5986
  O  O371  1  0.785930  0.745630  0.564540  1.0  -0.6291
  O  O372  1  0.724520  0.668790  0.563630  1.0  -0.5752
  O  O373  1  0.583920  0.338200  0.753240  1.0  -0.5571
  O  O374  1  0.549400  0.249110  0.833110  1.0  -0.5395
  O  O375  1  0.689800  0.238900  0.962400  1.0  -0.5746
  O  O376  1  0.729690  0.322840  0.966870  1.0  -0.5853
  O  O377  1  0.723420  0.822540  0.435880  1.0  -0.5733
  O  O378  1  0.675550  0.738250  0.435200  1.0  -0.5779
  O  O379  1  0.579510  0.816070  0.221240  1.0  -0.5859
  O  O380  1  0.546100  0.735060  0.301960  1.0  -0.5772
  O  O381  1  0.749850  0.158930  0.083980  1.0  -0.5876
  O  O382  1  0.800710  0.243240  0.081710  1.0  -0.512
  O  O383  1  0.961100  0.244540  0.192540  1.0  -0.5923
  O  O384  1  0.922090  0.162210  0.281840  1.0  -0.5019
  O  O385  1  0.659680  0.767470  0.560030  1.0  -0.5405
  O  O386  1  0.607390  0.684120  0.560050  1.0  -0.599
  O  O387  1  0.350470  0.564540  0.689830  1.0  -0.6294
  O  O388  1  0.288150  0.563630  0.767580  1.0  -0.572
  O  O389  1  0.337160  0.753240  0.908560  1.0  -0.5578
  O  O390  1  0.382510  0.833110  0.917780  1.0  -0.5363
  O  O391  1  0.652200  0.962400  0.798700  1.0  -0.5742
  O  O392  1  0.696560  0.966870  0.710290  1.0  -0.582
  O  O393  1  0.159300  0.435880  0.741580  1.0  -0.5705
  O  O394  1  0.110750  0.435200  0.826550  1.0  -0.5787
  O  O395  1  0.800750  0.221240  0.962690  1.0  -0.5863
  O  O396  1  0.848060  0.301960  0.962980  1.0  -0.5782
  O  O397  1  0.833830  0.083980  0.757090  1.0  -0.5853
  O  O398  1  0.882420  0.081710  0.675050  1.0  -0.5121
  O  O399  1  0.153640  0.192540  0.562920  1.0  -0.5914
  O  O400  1  0.203930  0.281840  0.555950  1.0  -0.4994
  O  O401  1  0.219710  0.560030  0.672500  1.0  -0.5395
  O  O402  1  0.167440  0.560050  0.755830  1.0  -0.5986
  O  O403  1  0.040300  0.689830  0.745630  1.0  -0.6292
  O  O404  1  0.055730  0.767580  0.668790  1.0  -0.5755
  O  O405  1  0.245720  0.908560  0.338200  1.0  -0.556
  O  O406  1  0.300290  0.917780  0.249110  1.0  -0.5426
  O  O407  1  0.450900  0.798700  0.238900  1.0  -0.5753
  O  O408  1  0.406850  0.710290  0.322840  1.0  -0.5848
