# generated using pymatgen
data_MnH8C16(NO4)2
_symmetry_space_group_name_H-M   'P 1'
_cell_length_a   9.66770000
_cell_length_b   11.36670000
_cell_length_c   22.10560000
_cell_angle_alpha   90.00000000
_cell_angle_beta   90.00000000
_cell_angle_gamma   102.98600000
_symmetry_Int_Tables_number   1
_chemical_formula_structural   MnH8C16(NO4)2
_chemical_formula_sum   'Mn4 H32 C64 N8 O32'
_cell_volume   2367.05467126
_cell_formula_units_Z   4
loop_
 _symmetry_equiv_pos_site_id
 _symmetry_equiv_pos_as_xyz
  1  'x, y, z'
loop_
 _atom_site_type_symbol
 _atom_site_label
 _atom_site_symmetry_multiplicity
 _atom_site_fract_x
 _atom_site_fract_y
 _atom_site_fract_z
 _atom_site_occupancy
 _atom_site_charge
  Mn  Mn1  1  0.259970  0.260080  0.405120  1.0  1.2027
  Mn  Mn2  1  0.240030  0.739920  0.905120  1.0  1.2032
  Mn  Mn3  1  0.740030  0.739920  0.594880  1.0  1.2291
  Mn  Mn4  1  0.759970  0.260080  0.094880  1.0  1.2293
  H  H5  1  0.803000  0.456000  0.982600  1.0  0.3635
  H  H6  1  0.154000  0.077000  0.816300  1.0  0.1169
  H  H7  1  0.928000  0.335000  0.509200  1.0  0.1011
  H  H8  1  0.072000  0.171000  0.647700  1.0  0.1116
  H  H9  1  0.065000  0.157800  0.983700  1.0  0.1037
  H  H10  1  0.838000  0.414000  0.679000  1.0  0.1163
  H  H11  1  0.929000  0.330000  0.844300  1.0  0.1148
  H  H12  1  0.283000  0.955000  0.012000  1.0  0.3776
  H  H13  1  0.697000  0.544000  0.482600  1.0  0.3651
  H  H14  1  0.346000  0.923000  0.316300  1.0  0.1169
  H  H15  1  0.572000  0.665000  0.009200  1.0  0.1017
  H  H16  1  0.428000  0.829000  0.147700  1.0  0.1118
  H  H17  1  0.435000  0.842200  0.483700  1.0  0.1035
  H  H18  1  0.662000  0.586000  0.179000  1.0  0.1175
  H  H19  1  0.571000  0.670000  0.344300  1.0  0.1145
  H  H20  1  0.217000  0.045000  0.512000  1.0  0.3785
  H  H21  1  0.197000  0.544000  0.017400  1.0  0.3662
  H  H22  1  0.846000  0.923000  0.183700  1.0  0.1171
  H  H23  1  0.072000  0.665000  0.490800  1.0  0.1019
  H  H24  1  0.928000  0.829000  0.352300  1.0  0.1117
  H  H25  1  0.935000  0.842200  0.016300  1.0  0.1037
  H  H26  1  0.162000  0.586000  0.321000  1.0  0.1163
  H  H27  1  0.071000  0.670000  0.155700  1.0  0.1144
  H  H28  1  0.717000  0.045000  0.988000  1.0  0.3778
  H  H29  1  0.303000  0.456000  0.517400  1.0  0.3635
  H  H30  1  0.654000  0.077000  0.683700  1.0  0.1178
  H  H31  1  0.428000  0.335000  0.990800  1.0  0.1009
  H  H32  1  0.572000  0.171000  0.852300  1.0  0.1113
  H  H33  1  0.565000  0.157800  0.516300  1.0  0.104
  H  H34  1  0.338000  0.414000  0.821000  1.0  0.116
  H  H35  1  0.429000  0.330000  0.655700  1.0  0.1149
  H  H36  1  0.783000  0.955000  0.488000  1.0  0.3778
  C  C37  1  0.792300  0.481800  0.565580  1.0  0.6996
  C  C38  1  0.867500  0.388300  0.589050  1.0  -0.1582
  C  C39  1  0.932200  0.323800  0.549260  1.0  0.036
  C  C40  1  0.009800  0.242900  0.570200  1.0  -0.1635
  C  C41  1  0.086500  0.181000  0.525550  1.0  0.6983
  C  C42  1  0.020800  0.225500  0.631950  1.0  -0.0436
  C  C43  1  0.955600  0.290100  0.672420  1.0  0.149
  C  C44  1  0.879400  0.370900  0.650790  1.0  -0.0737
  C  C45  1  0.041800  0.205100  0.820480  1.0  0.1442
  C  C46  1  0.979700  0.273600  0.860200  1.0  -0.0389
  C  C47  1  0.986100  0.254600  0.921750  1.0  -0.1485
  C  C48  1  0.912600  0.319600  0.966350  1.0  0.6924
  C  C49  1  0.057100  0.169500  0.943690  1.0  0.0326
  C  C50  1  0.119500  0.101800  0.904900  1.0  -0.1696
  C  C51  1  0.191900  0.007700  0.929230  1.0  0.7133
  C  C52  1  0.112100  0.120300  0.843150  1.0  -0.073
  C  C53  1  0.707700  0.518200  0.065580  1.0  0.6981
  C  C54  1  0.632500  0.611700  0.089050  1.0  -0.1594
  C  C55  1  0.567800  0.676200  0.049260  1.0  0.0365
  C  C56  1  0.490200  0.757100  0.070200  1.0  -0.1638
  C  C57  1  0.413500  0.819000  0.025550  1.0  0.697
  C  C58  1  0.479200  0.774500  0.131950  1.0  -0.0446
  C  C59  1  0.544400  0.709900  0.172420  1.0  0.1487
  C  C60  1  0.620600  0.629100  0.150790  1.0  -0.0736
  C  C61  1  0.458200  0.794900  0.320480  1.0  0.1442
  C  C62  1  0.520300  0.726400  0.360200  1.0  -0.0387
  C  C63  1  0.513900  0.745400  0.421750  1.0  -0.1483
  C  C64  1  0.587400  0.680400  0.466350  1.0  0.693
  C  C65  1  0.442900  0.830500  0.443690  1.0  0.0327
  C  C66  1  0.380500  0.898200  0.404900  1.0  -0.1692
  C  C67  1  0.308100  0.992300  0.429230  1.0  0.7151
  C  C68  1  0.387900  0.879700  0.343150  1.0  -0.0727
  C  C69  1  0.207700  0.518200  0.434420  1.0  0.6986
  C  C70  1  0.132500  0.611700  0.410950  1.0  -0.1599
  C  C71  1  0.067800  0.676200  0.450740  1.0  0.0375
  C  C72  1  0.990200  0.757100  0.429800  1.0  -0.164
  C  C73  1  0.913500  0.819000  0.474450  1.0  0.6969
  C  C74  1  0.979200  0.774500  0.368050  1.0  -0.0435
  C  C75  1  0.044400  0.709900  0.327580  1.0  0.1503
  C  C76  1  0.120600  0.629100  0.349210  1.0  -0.0735
  C  C77  1  0.958200  0.794900  0.179520  1.0  0.1436
  C  C78  1  0.020300  0.726400  0.139800  1.0  -0.0392
  C  C79  1  0.013900  0.745400  0.078250  1.0  -0.1479
  C  C80  1  0.087400  0.680400  0.033650  1.0  0.6928
  C  C81  1  0.942900  0.830500  0.056310  1.0  0.0303
  C  C82  1  0.880500  0.898200  0.095100  1.0  -0.1689
  C  C83  1  0.808100  0.992300  0.070770  1.0  0.7148
  C  C84  1  0.887900  0.879700  0.156850  1.0  -0.073
  C  C85  1  0.292300  0.481800  0.934420  1.0  0.7003
  C  C86  1  0.367500  0.388300  0.910950  1.0  -0.1589
  C  C87  1  0.432200  0.323800  0.950740  1.0  0.0376
  C  C88  1  0.509800  0.242900  0.929800  1.0  -0.1636
  C  C89  1  0.586500  0.181000  0.974450  1.0  0.6977
  C  C90  1  0.520800  0.225500  0.868050  1.0  -0.0433
  C  C91  1  0.455600  0.290100  0.827580  1.0  0.1499
  C  C92  1  0.379400  0.370900  0.849210  1.0  -0.0738
  C  C93  1  0.541800  0.205100  0.679520  1.0  0.1434
  C  C94  1  0.479700  0.273600  0.639800  1.0  -0.0398
  C  C95  1  0.486100  0.254600  0.578250  1.0  -0.1483
  C  C96  1  0.412600  0.319600  0.533650  1.0  0.6923
  C  C97  1  0.557100  0.169500  0.556310  1.0  0.0304
  C  C98  1  0.619500  0.101800  0.595100  1.0  -0.1695
  C  C99  1  0.691900  0.007700  0.570770  1.0  0.7142
  C  C100  1  0.612100  0.120300  0.656850  1.0  -0.0717
  N  N101  1  0.961800  0.281200  0.736630  1.0  -0.154
  N  N102  1  0.036800  0.213700  0.755930  1.0  -0.149
  N  N103  1  0.538200  0.718800  0.236630  1.0  -0.152
  N  N104  1  0.463200  0.786300  0.255930  1.0  -0.1485
  N  N105  1  0.038200  0.718800  0.263370  1.0  -0.1531
  N  N106  1  0.963200  0.786300  0.244070  1.0  -0.1487
  N  N107  1  0.461800  0.281200  0.763370  1.0  -0.1538
  N  N108  1  0.536800  0.213700  0.744070  1.0  -0.1482
  O  O109  1  0.771900  0.560080  0.601040  1.0  -0.6417
  O  O110  1  0.757300  0.472320  0.509980  1.0  -0.5183
  O  O111  1  0.091300  0.214000  0.471820  1.0  -0.6328
  O  O112  1  0.143900  0.099470  0.546130  1.0  -0.5282
  O  O113  1  0.857700  0.403000  0.945070  1.0  -0.5073
  O  O114  1  0.907700  0.288250  0.020050  1.0  -0.6279
  O  O115  1  0.228500  0.021170  0.984690  1.0  -0.5124
  O  O116  1  0.209600  0.925530  0.895880  1.0  -0.647
  O  O117  1  0.728100  0.439920  0.101040  1.0  -0.6435
  O  O118  1  0.742700  0.527680  0.009980  1.0  -0.5178
  O  O119  1  0.408700  0.786000  0.971820  1.0  -0.6313
  O  O120  1  0.356100  0.900530  0.046130  1.0  -0.5307
  O  O121  1  0.642300  0.597000  0.445070  1.0  -0.5067
  O  O122  1  0.592300  0.711750  0.520050  1.0  -0.6284
  O  O123  1  0.271500  0.978830  0.484690  1.0  -0.5141
  O  O124  1  0.290400  0.074470  0.395880  1.0  -0.6496
  O  O125  1  0.228100  0.439920  0.398960  1.0  -0.6441
  O  O126  1  0.242700  0.527680  0.490020  1.0  -0.5172
  O  O127  1  0.908700  0.786000  0.528180  1.0  -0.6296
  O  O128  1  0.856100  0.900530  0.453870  1.0  -0.5329
  O  O129  1  0.142300  0.597000  0.054930  1.0  -0.5046
  O  O130  1  0.092300  0.711750  0.979950  1.0  -0.6261
  O  O131  1  0.771500  0.978830  0.015310  1.0  -0.515
  O  O132  1  0.790400  0.074470  0.104120  1.0  -0.6451
  O  O133  1  0.271900  0.560080  0.898960  1.0  -0.6455
  O  O134  1  0.257300  0.472320  0.990020  1.0  -0.5177
  O  O135  1  0.591300  0.214000  0.028180  1.0  -0.6311
  O  O136  1  0.643900  0.099470  0.953870  1.0  -0.5309
  O  O137  1  0.357700  0.403000  0.554930  1.0  -0.5062
  O  O138  1  0.407700  0.288250  0.479950  1.0  -0.6263
  O  O139  1  0.728500  0.021170  0.515310  1.0  -0.5135
  O  O140  1  0.709600  0.925530  0.604120  1.0  -0.6468
