# generated using pymatgen
data_CeH4C5O6
_symmetry_space_group_name_H-M   'P 1'
_cell_length_a   9.16020000
_cell_length_b   9.16020000
_cell_length_c   14.89400000
_cell_angle_alpha   80.01260000
_cell_angle_beta   80.01230000
_cell_angle_gamma   115.85000000
_symmetry_Int_Tables_number   1
_chemical_formula_structural   CeH4C5O6
_chemical_formula_sum   'Ce4 H16 C20 O24'
_cell_volume   1063.01810188
_cell_formula_units_Z   4
loop_
 _symmetry_equiv_pos_site_id
 _symmetry_equiv_pos_as_xyz
  1  'x, y, z'
loop_
 _atom_site_type_symbol
 _atom_site_label
 _atom_site_symmetry_multiplicity
 _atom_site_fract_x
 _atom_site_fract_y
 _atom_site_fract_z
 _atom_site_occupancy
 _atom_site_charge
  Ce  Ce1  1  0.990500  0.240500  0.019000  1.0  2.2274
  Ce  Ce2  1  0.759500  0.009500  0.481000  1.0  2.2243
  Ce  Ce3  1  0.009500  0.759500  0.981000  1.0  2.2243
  Ce  Ce4  1  0.240500  0.990500  0.519000  1.0  2.2274
  H  H5  1  0.563000  0.659200  0.031400  1.0  0.0978
  H  H6  1  0.523500  0.639500  0.140400  1.0  0.1173
  H  H7  1  0.405600  0.809400  0.031400  1.0  0.0969
  H  H8  1  0.336100  0.720100  0.140400  1.0  0.1171
  H  H9  1  0.340800  0.437000  0.468600  1.0  0.0977
  H  H10  1  0.360500  0.476500  0.359600  1.0  0.117
  H  H11  1  0.190600  0.594400  0.468600  1.0  0.0969
  H  H12  1  0.279900  0.663900  0.359600  1.0  0.1175
  H  H13  1  0.437000  0.340800  0.968600  1.0  0.0985
  H  H14  1  0.476500  0.360500  0.859600  1.0  0.1175
  H  H15  1  0.594400  0.190600  0.968600  1.0  0.0963
  H  H16  1  0.663900  0.279900  0.859600  1.0  0.1169
  H  H17  1  0.659200  0.563000  0.531400  1.0  0.098
  H  H18  1  0.639500  0.523500  0.640400  1.0  0.1172
  H  H19  1  0.809400  0.405600  0.531400  1.0  0.097
  H  H20  1  0.720100  0.336100  0.640400  1.0  0.1174
  C  C21  1  0.691510  0.876510  0.062380  1.0  0.803
  C  C22  1  0.539200  0.711200  0.079400  1.0  -0.2559
  C  C23  1  0.246110  0.561110  0.062380  1.0  0.814
  C  C24  1  0.381400  0.709400  0.079400  1.0  -0.2519
  C  C25  1  0.123490  0.308490  0.437620  1.0  0.8033
  C  C26  1  0.288800  0.460800  0.420600  1.0  -0.2503
  C  C27  1  0.438890  0.753890  0.437620  1.0  0.8162
  C  C28  1  0.290600  0.618600  0.420600  1.0  -0.2518
  C  C29  1  0.308490  0.123490  0.937620  1.0  0.8037
  C  C30  1  0.460800  0.288800  0.920600  1.0  -0.2535
  C  C31  1  0.753890  0.438890  0.937620  1.0  0.8129
  C  C32  1  0.618600  0.290600  0.920600  1.0  -0.2523
  C  C33  1  0.876510  0.691510  0.562380  1.0  0.8046
  C  C34  1  0.711200  0.539200  0.579400  1.0  -0.2533
  C  C35  1  0.561110  0.246110  0.562380  1.0  0.8151
  C  C36  1  0.709400  0.381400  0.579400  1.0  -0.2494
  C  C37  1  0.924900  0.075100  0.250000  1.0  0.513
  C  C38  1  0.825100  0.174900  0.250000  1.0  0.5141
  C  C39  1  0.075100  0.924900  0.750000  1.0  0.5141
  C  C40  1  0.174900  0.825100  0.750000  1.0  0.513
  O  O41  1  0.989660  0.067600  0.170940  1.0  -0.6458
  O  O42  1  0.833350  0.887370  0.032880  1.0  -0.8014
  O  O43  1  0.679180  0.001020  0.079800  1.0  -0.6974
  O  O44  1  0.839400  0.261460  0.170940  1.0  -0.645
  O  O45  1  0.133770  0.579750  0.032880  1.0  -0.8003
  O  O46  1  0.241020  0.419180  0.079800  1.0  -0.696
  O  O47  1  0.932400  0.010340  0.329060  1.0  -0.6446
  O  O48  1  0.112630  0.166650  0.467120  1.0  -0.7995
  O  O49  1  0.998980  0.320820  0.420200  1.0  -0.6971
  O  O50  1  0.738540  0.160600  0.329060  1.0  -0.6433
  O  O51  1  0.420250  0.866230  0.467120  1.0  -0.8004
  O  O52  1  0.580820  0.758980  0.420200  1.0  -0.697
  O  O53  1  0.010340  0.932400  0.829060  1.0  -0.6447
  O  O54  1  0.166650  0.112630  0.967120  1.0  -0.7999
  O  O55  1  0.320820  0.998980  0.920200  1.0  -0.6983
  O  O56  1  0.160600  0.738540  0.829060  1.0  -0.6443
  O  O57  1  0.866230  0.420250  0.967120  1.0  -0.7982
  O  O58  1  0.758980  0.580820  0.920200  1.0  -0.6947
  O  O59  1  0.067600  0.989660  0.670940  1.0  -0.6451
  O  O60  1  0.887370  0.833350  0.532880  1.0  -0.7977
  O  O61  1  0.001020  0.679180  0.579800  1.0  -0.6982
  O  O62  1  0.261460  0.839400  0.670940  1.0  -0.6455
  O  O63  1  0.579750  0.133770  0.532880  1.0  -0.7987
  O  O64  1  0.419180  0.241020  0.579800  1.0  -0.6956
