# generated using pymatgen
data_CeH3(CO)6
_symmetry_space_group_name_H-M   'P 1'
_cell_length_a   9.09440000
_cell_length_b   9.38090000
_cell_length_c   9.94590000
_cell_angle_alpha   84.27200000
_cell_angle_beta   65.44200000
_cell_angle_gamma   63.36800000
_symmetry_Int_Tables_number   1
_chemical_formula_structural   CeH3(CO)6
_chemical_formula_sum   'Ce2 H6 C12 O12'
_cell_volume   685.96843407
_cell_formula_units_Z   2
loop_
 _symmetry_equiv_pos_site_id
 _symmetry_equiv_pos_as_xyz
  1  'x, y, z'
loop_
 _atom_site_type_symbol
 _atom_site_label
 _atom_site_symmetry_multiplicity
 _atom_site_fract_x
 _atom_site_fract_y
 _atom_site_fract_z
 _atom_site_occupancy
 _atom_site_charge
  Ce  Ce1  1  0.267870  0.490450  0.460230  1.0  2.1984
  Ce  Ce2  1  0.732130  0.509550  0.539770  1.0  2.1974
  H  H3  1  0.152800  0.364200  0.981600  1.0  0.1168
  H  H4  1  0.905500  0.072800  0.395000  1.0  0.1058
  H  H5  1  0.697600  0.916500  0.436000  1.0  0.098
  H  H6  1  0.847200  0.635800  0.018400  1.0  0.1164
  H  H7  1  0.094500  0.927200  0.605000  1.0  0.1069
  H  H8  1  0.302400  0.083500  0.564000  1.0  0.0978
  C  C9  1  0.137000  0.465600  0.786700  1.0  0.7102
  C  C10  1  0.075900  0.450600  0.950300  1.0  -0.1929
  C  C11  1  0.641900  0.212200  0.412100  1.0  0.6946
  C  C12  1  0.801500  0.065500  0.409100  1.0  -0.1621
  C  C13  1  0.800900  0.922600  0.425900  1.0  -0.1746
  C  C14  1  0.953900  0.774100  0.429400  1.0  0.7324
  C  C15  1  0.863000  0.534400  0.213300  1.0  0.7076
  C  C16  1  0.924100  0.549400  0.049700  1.0  -0.1942
  C  C17  1  0.358100  0.787800  0.587900  1.0  0.6961
  C  C18  1  0.198500  0.934500  0.590900  1.0  -0.1623
  C  C19  1  0.199100  0.077400  0.574100  1.0  -0.1743
  C  C20  1  0.046100  0.225900  0.570600  1.0  0.7302
  O  O21  1  0.038900  0.580300  0.738600  1.0  -0.6172
  O  O22  1  0.293300  0.360200  0.699700  1.0  -0.6493
  O  O23  1  0.631300  0.347400  0.440600  1.0  -0.7969
  O  O24  1  0.520200  0.205400  0.388200  1.0  -0.6099
  O  O25  1  0.102600  0.771300  0.400700  1.0  -0.6234
  O  O26  1  0.927500  0.650800  0.468400  1.0  -0.8294
  O  O27  1  0.961100  0.419700  0.261400  1.0  -0.6155
  O  O28  1  0.706700  0.639800  0.300300  1.0  -0.6474
  O  O29  1  0.368700  0.652600  0.559400  1.0  -0.7973
  O  O30  1  0.479800  0.794600  0.611800  1.0  -0.6123
  O  O31  1  0.897400  0.228700  0.599300  1.0  -0.6218
  O  O32  1  0.072500  0.349200  0.531600  1.0  -0.8277
