# generated using pymatgen
data_CoPH11C12N3O4
_symmetry_space_group_name_H-M   'P 1'
_cell_length_a   5.19530000
_cell_length_b   10.53000000
_cell_length_c   14.26000000
_cell_angle_alpha   74.29000000
_cell_angle_beta   89.02000000
_cell_angle_gamma   82.30000000
_symmetry_Int_Tables_number   1
_chemical_formula_structural   CoPH11C12N3O4
_chemical_formula_sum   'Co2 P2 H22 C24 N6 O8'
_cell_volume   744.05150012
_cell_formula_units_Z   2
loop_
 _symmetry_equiv_pos_site_id
 _symmetry_equiv_pos_as_xyz
  1  'x, y, z'
loop_
 _atom_site_type_symbol
 _atom_site_label
 _atom_site_symmetry_multiplicity
 _atom_site_fract_x
 _atom_site_fract_y
 _atom_site_fract_z
 _atom_site_occupancy
 _atom_site_charge
  Co  Co1  1  0.000000  0.500000  0.500000  1.0  0.9098
  Co  Co2  1  0.500000  0.000000  0.500000  1.0  1.003
  P  P3  1  0.911560  0.197300  0.474030  1.0  1.4171
  P  P4  1  0.088440  0.802700  0.525970  1.0  1.4181
  H  H5  1  0.371000  0.946400  0.329200  1.0  0.4088
  H  H6  1  0.078100  0.280800  0.275000  1.0  0.1119
  H  H7  1  0.986900  0.227700  0.132500  1.0  0.0927
  H  H8  1  0.687600  0.082700  0.133700  1.0  0.1365
  H  H9  1  0.079600  0.245300  0.700500  1.0  0.0931
  H  H10  1  0.781600  0.212700  0.836000  1.0  0.135
  H  H11  1  0.563000  0.564000  0.653600  1.0  0.1
  H  H12  1  0.250100  0.494400  0.787900  1.0  0.1125
  H  H13  1  0.290400  0.343800  0.846200  1.0  0.1078
  H  H14  1  0.711200  0.576700  0.862100  1.0  0.0802
  H  H15  1  0.208400  0.358100  0.002900  1.0  0.0921
  H  H16  1  0.629000  0.053600  0.670800  1.0  0.4087
  H  H17  1  0.921900  0.719200  0.725000  1.0  0.1117
  H  H18  1  0.013100  0.772300  0.867500  1.0  0.0931
  H  H19  1  0.312400  0.917300  0.866300  1.0  0.1365
  H  H20  1  0.920400  0.754700  0.299500  1.0  0.094
  H  H21  1  0.218400  0.787300  0.164000  1.0  0.1354
  H  H22  1  0.437000  0.436000  0.346400  1.0  0.1002
  H  H23  1  0.749900  0.505600  0.212100  1.0  0.1128
  H  H24  1  0.709600  0.656200  0.153800  1.0  0.1006
  H  H25  1  0.288800  0.423300  0.137900  1.0  0.0798
  H  H26  1  0.791600  0.641900  0.997100  1.0  0.0923
  C  C27  1  0.831900  0.167400  0.357700  1.0  -0.0044
  C  C28  1  0.958100  0.222900  0.274500  1.0  -0.1319
  C  C29  1  0.903400  0.191100  0.189800  1.0  -0.0226
  C  C30  1  0.725300  0.105400  0.190100  1.0  -0.2752
  C  C31  1  0.603900  0.053600  0.276300  1.0  0.5367
  C  C32  1  0.938300  0.305800  0.707900  1.0  0.0485
  C  C33  1  0.774700  0.287400  0.782800  1.0  -0.1613
  C  C34  1  0.656000  0.480800  0.681900  1.0  0.1523
  C  C35  1  0.374600  0.423600  0.826700  1.0  -0.071
  C  C36  1  0.445800  0.461300  0.917200  1.0  0.0486
  C  C37  1  0.621100  0.544400  0.918600  1.0  -0.1374
  C  C38  1  0.328600  0.417100  0.999700  1.0  -0.1245
  C  C39  1  0.168100  0.832600  0.642300  1.0  -0.0035
  C  C40  1  0.041900  0.777100  0.725500  1.0  -0.1315
  C  C41  1  0.096600  0.808900  0.810200  1.0  -0.0214
  C  C42  1  0.274700  0.894600  0.809900  1.0  -0.2844
  C  C43  1  0.396100  0.946400  0.723700  1.0  0.5374
  C  C44  1  0.061700  0.694200  0.292100  1.0  0.0493
  C  C45  1  0.225300  0.712600  0.217200  1.0  -0.1618
  C  C46  1  0.344000  0.519200  0.318100  1.0  0.1526
  C  C47  1  0.625400  0.576400  0.173300  1.0  -0.075
  C  C48  1  0.554200  0.538700  0.082800  1.0  0.0496
  C  C49  1  0.378900  0.455600  0.081400  1.0  -0.138
  C  C50  1  0.671400  0.582900  0.000300  1.0  -0.1239
  N  N51  1  0.651600  0.084900  0.358530  1.0  -0.3745
  N  N52  1  0.863100  0.429200  0.643480  1.0  -0.4077
  N  N53  1  0.596000  0.399500  0.766300  1.0  0.053
  N  N54  1  0.348400  0.915100  0.641470  1.0  -0.3768
  N  N55  1  0.136900  0.570800  0.356520  1.0  -0.4068
  N  N56  1  0.404000  0.600500  0.233700  1.0  0.0532
  O  O57  1  0.828500  0.344450  0.464930  1.0  -0.8339
  O  O58  1  0.754000  0.106290  0.547530  1.0  -0.7933
  O  O59  1  0.203900  0.161840  0.488370  1.0  -0.8026
  O  O60  1  0.436400  0.968300  0.275490  1.0  -0.537
  O  O61  1  0.171500  0.655550  0.535070  1.0  -0.8354
  O  O62  1  0.246000  0.893710  0.452470  1.0  -0.7926
  O  O63  1  0.796100  0.838160  0.511630  1.0  -0.8022
  O  O64  1  0.563600  0.031700  0.724510  1.0  -0.534
