# generated using pymatgen
data_Ag2PH12C6SN3
_symmetry_space_group_name_H-M   'P 1'
_cell_length_a   9.54750000
_cell_length_b   11.44000000
_cell_length_c   13.20920000
_cell_angle_alpha   90.00000000
_cell_angle_beta   109.97400000
_cell_angle_gamma   90.00000000
_symmetry_Int_Tables_number   1
_chemical_formula_structural   Ag2PH12C6SN3
_chemical_formula_sum   'Ag8 P4 H48 C24 S4 N12'
_cell_volume   1355.96881995
_cell_formula_units_Z   4
loop_
 _symmetry_equiv_pos_site_id
 _symmetry_equiv_pos_as_xyz
  1  'x, y, z'
loop_
 _atom_site_type_symbol
 _atom_site_label
 _atom_site_symmetry_multiplicity
 _atom_site_fract_x
 _atom_site_fract_y
 _atom_site_fract_z
 _atom_site_occupancy
 _atom_site_charge
  Ag  Ag1  1  0.983250  0.278360  0.627280  1.0  -0.1059
  Ag  Ag2  1  0.447410  0.220080  0.855470  1.0  -0.2365
  Ag  Ag3  1  0.413680  0.729800  0.393740  1.0  -0.1809
  Ag  Ag4  1  0.070820  0.147020  0.913830  1.0  -0.1798
  Ag  Ag5  1  0.016750  0.778360  0.372720  1.0  -0.107
  Ag  Ag6  1  0.552590  0.720080  0.144530  1.0  -0.2406
  Ag  Ag7  1  0.586320  0.229800  0.606260  1.0  -0.1787
  Ag  Ag8  1  0.929180  0.647020  0.086170  1.0  -0.1816
  P  P9  1  0.197360  0.448980  0.885940  1.0  0.5573
  P  P10  1  0.188290  0.480410  0.384410  1.0  0.5699
  P  P11  1  0.802640  0.948980  0.114060  1.0  0.5555
  P  P12  1  0.811710  0.980410  0.615590  1.0  0.5708
  H  H13  1  0.041600  0.550200  0.734400  1.0  0.0988
  H  H14  1  0.212500  0.562600  0.741800  1.0  0.1106
  H  H15  1  0.452200  0.499000  0.943800  1.0  0.1068
  H  H16  1  0.409600  0.450100  0.043600  1.0  0.1152
  H  H17  1  0.094600  0.425300  0.023500  1.0  0.1157
  H  H18  1  0.966300  0.461400  0.913000  1.0  0.1001
  H  H19  1  0.271100  0.570500  0.125600  1.0  0.0727
  H  H20  1  0.245500  0.706500  0.097600  1.0  0.0601
  H  H21  1  0.048100  0.763400  0.924700  1.0  0.0655
  H  H22  1  0.949700  0.662700  0.849800  1.0  0.0622
  H  H23  1  0.376300  0.690800  0.874700  1.0  0.0797
  H  H24  1  0.310900  0.782300  0.938500  1.0  0.0617
  H  H25  1  0.979800  0.470400  0.440900  1.0  0.0932
  H  H26  1  0.125300  0.506100  0.540500  1.0  0.1148
  H  H27  1  0.420600  0.481100  0.526200  1.0  0.1161
  H  H28  1  0.440500  0.430300  0.418500  1.0  0.1016
  H  H29  1  0.175500  0.362600  0.236800  1.0  0.1013
  H  H30  1  0.013100  0.375700  0.246400  1.0  0.0927
  H  H31  1  0.279000  0.225700  0.603000  1.0  0.0604
  H  H32  1  0.309100  0.361800  0.628200  1.0  0.0717
  H  H33  1  0.949000  0.266600  0.377200  1.0  0.0659
  H  H34  1  0.056500  0.166600  0.446400  1.0  0.0721
  H  H35  1  0.306300  0.146000  0.432900  1.0  0.0513
  H  H36  1  0.354500  0.234700  0.357200  1.0  0.06
  H  H37  1  0.958400  0.050200  0.265600  1.0  0.0998
  H  H38  1  0.787500  0.062600  0.258200  1.0  0.1111
  H  H39  1  0.547800  0.999000  0.056200  1.0  0.1074
  H  H40  1  0.590400  0.950100  0.956400  1.0  0.1144
  H  H41  1  0.905400  0.925300  0.976500  1.0  0.1142
  H  H42  1  0.033700  0.961400  0.087000  1.0  0.0996
  H  H43  1  0.728900  0.070500  0.874400  1.0  0.072
  H  H44  1  0.754500  0.206500  0.902400  1.0  0.0599
  H  H45  1  0.951900  0.263400  0.075300  1.0  0.0674
  H  H46  1  0.050300  0.162700  0.150200  1.0  0.0621
  H  H47  1  0.623700  0.190800  0.125300  1.0  0.0729
  H  H48  1  0.689100  0.282300  0.061500  1.0  0.062
  H  H49  1  0.020200  0.970400  0.559100  1.0  0.0933
  H  H50  1  0.874700  0.006100  0.459500  1.0  0.115
  H  H51  1  0.579400  0.981100  0.473800  1.0  0.1157
  H  H52  1  0.559500  0.930300  0.581500  1.0  0.0995
  H  H53  1  0.824500  0.862600  0.763200  1.0  0.1031
  H  H54  1  0.986900  0.875700  0.753600  1.0  0.0923
  H  H55  1  0.721000  0.725700  0.397000  1.0  0.0602
  H  H56  1  0.690900  0.861800  0.371800  1.0  0.072
  H  H57  1  0.051000  0.766600  0.622800  1.0  0.0662
  H  H58  1  0.943500  0.666667  0.553600  1.0  0.0719
  H  H59  1  0.693700  0.646000  0.567100  1.0  0.0515
  H  H60  1  0.645500  0.734700  0.642800  1.0  0.0595
  C  C61  1  0.144700  0.563000  0.784200  1.0  -0.2271
  C  C62  1  0.375800  0.500700  0.979000  1.0  -0.2435
  C  C63  1  0.070300  0.477100  0.959700  1.0  -0.2641
  C  C64  1  0.242400  0.627800  0.065800  1.0  0.034
  C  C65  1  0.050700  0.682000  0.899900  1.0  0.0717
  C  C66  1  0.305700  0.700000  0.914300  1.0  0.0772
  C  C67  1  0.087200  0.454000  0.477100  1.0  -0.2775
  C  C68  1  0.375900  0.429300  0.463300  1.0  -0.2421
  C  C69  1  0.120100  0.363500  0.287900  1.0  -0.2525
  C  C70  1  0.269900  0.304000  0.569500  1.0  0.0438
  C  C71  1  0.054000  0.247300  0.418700  1.0  0.0709
  C  C72  1  0.296700  0.227600  0.406500  1.0  0.0571
  C  C73  1  0.855300  0.063000  0.215800  1.0  -0.2291
  C  C74  1  0.624200  0.000700  0.021000  1.0  -0.2427
  C  C75  1  0.929700  0.977100  0.040300  1.0  -0.2637
  C  C76  1  0.757600  0.127800  0.934200  1.0  0.0338
  C  C77  1  0.949300  0.182000  0.100100  1.0  0.0699
  C  C78  1  0.694300  0.200000  0.085700  1.0  0.0771
  C  C79  1  0.912800  0.954000  0.522900  1.0  -0.2765
  C  C80  1  0.624100  0.929300  0.536700  1.0  -0.2448
  C  C81  1  0.879900  0.863500  0.712100  1.0  -0.2542
  C  C82  1  0.730100  0.804000  0.430500  1.0  0.0477
  C  C83  1  0.946000  0.747300  0.581300  1.0  0.0703
  C  C84  1  0.703300  0.727600  0.593500  1.0  0.0585
  S  S85  1  0.190450  0.285960  0.827190  1.0  -0.2417
  S  S86  1  0.169970  0.635890  0.311110  1.0  -0.281
  S  S87  1  0.809550  0.785960  0.172810  1.0  -0.2431
  S  S88  1  0.830030  0.135890  0.688890  1.0  -0.2838
  N  N89  1  0.155400  0.675900  0.841100  1.0  -0.267
  N  N90  1  0.353300  0.622900  0.010030  1.0  -0.0708
  N  N91  1  0.086800  0.602800  0.994500  1.0  -0.0647
  N  N92  1  0.109300  0.329000  0.511780  1.0  -0.0778
  N  N93  1  0.362800  0.307500  0.500300  1.0  -0.0558
  N  N94  1  0.140900  0.251500  0.346600  1.0  -0.2549
  N  N95  1  0.844600  0.175900  0.158900  1.0  -0.2673
  N  N96  1  0.646700  0.122900  0.989970  1.0  -0.0691
  N  N97  1  0.913200  0.102800  0.005500  1.0  -0.066
  N  N98  1  0.890700  0.829000  0.488220  1.0  -0.0784
  N  N99  1  0.637200  0.807500  0.499700  1.0  -0.056
  N  N100  1  0.859100  0.751500  0.653400  1.0  -0.2527
