# generated using pymatgen
data_ZnH4C8O5
_symmetry_space_group_name_H-M   'P 1'
_cell_length_a   18.38470000
_cell_length_b   12.92560000
_cell_length_c   14.55500000
_cell_angle_alpha   90.00000000
_cell_angle_beta   120.06830000
_cell_angle_gamma   90.00000000
_symmetry_Int_Tables_number   1
_chemical_formula_structural   ZnH4C8O5
_chemical_formula_sum   'Zn8 H32 C64 O40'
_cell_volume   2993.30376662
_cell_formula_units_Z   8
loop_
 _symmetry_equiv_pos_site_id
 _symmetry_equiv_pos_as_xyz
  1  'x, y, z'
loop_
 _atom_site_type_symbol
 _atom_site_label
 _atom_site_symmetry_multiplicity
 _atom_site_fract_x
 _atom_site_fract_y
 _atom_site_fract_z
 _atom_site_occupancy
 _atom_site_charge
  Zn  Zn1  1  0.182100  0.513780  0.501820  1.0  1.0682
  Zn  Zn2  1  0.654490  0.447070  0.253740  1.0  0.9666
  Zn  Zn3  1  0.817900  0.013780  0.998180  1.0  1.0682
  Zn  Zn4  1  0.345510  0.947070  0.246260  1.0  0.9672
  Zn  Zn5  1  0.817900  0.486220  0.498180  1.0  1.0676
  Zn  Zn6  1  0.345510  0.552930  0.746260  1.0  0.9669
  Zn  Zn7  1  0.182100  0.986220  0.001820  1.0  1.0679
  Zn  Zn8  1  0.654490  0.052930  0.753740  1.0  0.9661
  H  H9  1  0.498500  0.330800  0.715200  1.0  0.1256
  H  H10  1  0.490900  0.074600  0.555300  1.0  0.1165
  H  H11  1  0.289600  0.261900  0.437800  1.0  0.1269
  H  H12  1  0.957200  0.237500  0.237300  1.0  0.1246
  H  H13  1  0.732400  0.272800  0.216700  1.0  0.1174
  H  H14  1  0.930800  0.440500  0.427200  1.0  0.1059
  H  H15  1  0.619530  0.254470  0.749590  1.0  0.2408
  H  H16  1  0.227500  0.662170  0.614220  1.0  0.2112
  H  H17  1  0.501500  0.830800  0.784800  1.0  0.1262
  H  H18  1  0.509100  0.574600  0.944700  1.0  0.1159
  H  H19  1  0.710400  0.761900  0.062200  1.0  0.1266
  H  H20  1  0.042800  0.737500  0.262700  1.0  0.1251
  H  H21  1  0.267600  0.772800  0.283300  1.0  0.1175
  H  H22  1  0.069200  0.940500  0.072800  1.0  0.106
  H  H23  1  0.380470  0.754470  0.750410  1.0  0.2417
  H  H24  1  0.772500  0.162170  0.885780  1.0  0.2119
  H  H25  1  0.501500  0.669200  0.284800  1.0  0.126
  H  H26  1  0.509100  0.925400  0.444700  1.0  0.1142
  H  H27  1  0.710400  0.738100  0.562200  1.0  0.1267
  H  H28  1  0.042800  0.762500  0.762700  1.0  0.1248
  H  H29  1  0.267600  0.727200  0.783300  1.0  0.1167
  H  H30  1  0.069200  0.559500  0.572800  1.0  0.1069
  H  H31  1  0.380470  0.745530  0.250410  1.0  0.2405
  H  H32  1  0.772500  0.337830  0.385780  1.0  0.2132
  H  H33  1  0.498500  0.169200  0.215200  1.0  0.1258
  H  H34  1  0.490900  0.425400  0.055300  1.0  0.1145
  H  H35  1  0.289600  0.238100  0.937800  1.0  0.127
  H  H36  1  0.957200  0.262500  0.737300  1.0  0.1245
  H  H37  1  0.732400  0.227200  0.716700  1.0  0.1173
  H  H38  1  0.930800  0.059500  0.927200  1.0  0.1075
  H  H39  1  0.619530  0.245530  0.249590  1.0  0.24
  H  H40  1  0.227500  0.837830  0.114220  1.0  0.2122
  C  C41  1  0.342900  0.400500  0.593500  1.0  0.7428
  C  C42  1  0.386500  0.309200  0.580600  1.0  -0.142
  C  C43  1  0.469500  0.286000  0.658100  1.0  -0.0658
  C  C44  1  0.509500  0.196800  0.651200  1.0  0.2903
  C  C45  1  0.465300  0.134000  0.561900  1.0  -0.1158
  C  C46  1  0.384600  0.157400  0.482900  1.0  -0.1308
  C  C47  1  0.340700  0.094300  0.382000  1.0  0.7246
  C  C48  1  0.343900  0.245700  0.491000  1.0  0.0395
  C  C49  1  0.047400  0.378200  0.383100  1.0  0.6839
  C  C50  1  0.957700  0.344300  0.340200  1.0  -0.1334
  C  C51  1  0.923600  0.269400  0.259900  1.0  0.044
  C  C52  1  0.839500  0.243200  0.214400  1.0  -0.1179
  C  C53  1  0.803400  0.162300  0.127800  1.0  0.7435
  C  C54  1  0.788800  0.291100  0.247600  1.0  -0.1517
  C  C55  1  0.822300  0.366300  0.327000  1.0  0.2997
  C  C56  1  0.907600  0.391400  0.373300  1.0  -0.1338
  C  C57  1  0.657100  0.900500  0.906500  1.0  0.7427
  C  C58  1  0.613500  0.809200  0.919400  1.0  -0.1413
  C  C59  1  0.530500  0.786000  0.841900  1.0  -0.0648
  C  C60  1  0.490500  0.696800  0.848800  1.0  0.2905
  C  C61  1  0.534700  0.634000  0.938100  1.0  -0.1162
  C  C62  1  0.615400  0.657400  0.017100  1.0  -0.1314
  C  C63  1  0.659300  0.594300  0.118000  1.0  0.7254
  C  C64  1  0.656100  0.745700  0.009000  1.0  0.042
  C  C65  1  0.952600  0.878200  0.116900  1.0  0.6858
  C  C66  1  0.042300  0.844300  0.159800  1.0  -0.1351
  C  C67  1  0.076400  0.769400  0.240100  1.0  0.0449
  C  C68  1  0.160500  0.743200  0.285600  1.0  -0.1182
  C  C69  1  0.196600  0.662300  0.372200  1.0  0.7439
  C  C70  1  0.211200  0.791100  0.252400  1.0  -0.1501
  C  C71  1  0.177700  0.866300  0.173000  1.0  0.2986
  C  C72  1  0.092400  0.891400  0.126700  1.0  -0.1328
  C  C73  1  0.657100  0.599500  0.406500  1.0  0.7429
  C  C74  1  0.613500  0.690800  0.419400  1.0  -0.1408
  C  C75  1  0.530500  0.714000  0.341900  1.0  -0.0648
  C  C76  1  0.490500  0.803200  0.348800  1.0  0.2901
  C  C77  1  0.534700  0.866000  0.438100  1.0  -0.117
  C  C78  1  0.615400  0.842600  0.517100  1.0  -0.1318
  C  C79  1  0.659300  0.905700  0.618000  1.0  0.7258
  C  C80  1  0.656100  0.754300  0.509000  1.0  0.0427
  C  C81  1  0.952600  0.621800  0.616900  1.0  0.6859
  C  C82  1  0.042300  0.655700  0.659800  1.0  -0.1343
  C  C83  1  0.076400  0.730600  0.740100  1.0  0.0443
  C  C84  1  0.160500  0.756800  0.785600  1.0  -0.1186
  C  C85  1  0.196600  0.837700  0.872200  1.0  0.7437
  C  C86  1  0.211200  0.708900  0.752400  1.0  -0.15
  C  C87  1  0.177700  0.633700  0.673000  1.0  0.2989
  C  C88  1  0.092400  0.608600  0.626700  1.0  -0.1329
  C  C89  1  0.342900  0.099500  0.093500  1.0  0.7428
  C  C90  1  0.386500  0.190800  0.080600  1.0  -0.1416
  C  C91  1  0.469500  0.214000  0.158100  1.0  -0.0646
  C  C92  1  0.509500  0.303200  0.151200  1.0  0.2898
  C  C93  1  0.465300  0.366000  0.061900  1.0  -0.1166
  C  C94  1  0.384600  0.342600  0.982900  1.0  -0.1309
  C  C95  1  0.340700  0.405700  0.882000  1.0  0.725
  C  C96  1  0.343900  0.254300  0.991000  1.0  0.0397
  C  C97  1  0.047400  0.121800  0.883100  1.0  0.6842
  C  C98  1  0.957700  0.155700  0.840200  1.0  -0.1339
  C  C99  1  0.923600  0.230600  0.759900  1.0  0.0439
  C  C100  1  0.839500  0.256800  0.714400  1.0  -0.1173
  C  C101  1  0.803400  0.337700  0.627800  1.0  0.7436
  C  C102  1  0.788800  0.208900  0.747600  1.0  -0.1517
  C  C103  1  0.822300  0.133700  0.827000  1.0  0.3001
  C  C104  1  0.907600  0.108600  0.873300  1.0  -0.1329
  O  O105  1  0.384000  0.457800  0.673000  1.0  -0.6101
  O  O106  1  0.268200  0.414100  0.523500  1.0  -0.5893
  O  O107  1  0.588100  0.177100  0.729700  1.0  -0.6227
  O  O108  1  0.377800  0.011800  0.381900  1.0  -0.5866
  O  O109  1  0.274300  0.123900  0.306500  1.0  -0.5061
  O  O110  1  0.076400  0.442000  0.459300  1.0  -0.5627
  O  O111  1  0.088500  0.346400  0.342700  1.0  -0.4463
  O  O112  1  0.855000  0.117700  0.108000  1.0  -0.5819
  O  O113  1  0.728800  0.140500  0.083000  1.0  -0.4667
  O  O114  1  0.772500  0.415200  0.358300  1.0  -0.8131
  O  O115  1  0.616000  0.957800  0.827000  1.0  -0.6108
  O  O116  1  0.731800  0.914100  0.976500  1.0  -0.5894
  O  O117  1  0.411900  0.677100  0.770300  1.0  -0.6259
  O  O118  1  0.622200  0.511800  0.118100  1.0  -0.5868
  O  O119  1  0.725700  0.623900  0.193500  1.0  -0.5036
  O  O120  1  0.923600  0.942000  0.040700  1.0  -0.5631
  O  O121  1  0.911500  0.846400  0.157300  1.0  -0.4469
  O  O122  1  0.145000  0.617700  0.392000  1.0  -0.5812
  O  O123  1  0.271200  0.640500  0.417000  1.0  -0.4657
  O  O124  1  0.227500  0.915200  0.141700  1.0  -0.8138
  O  O125  1  0.616000  0.542200  0.327000  1.0  -0.6112
  O  O126  1  0.731800  0.585900  0.476500  1.0  -0.59
  O  O127  1  0.411900  0.822900  0.270300  1.0  -0.6261
  O  O128  1  0.622200  0.988200  0.618100  1.0  -0.5864
  O  O129  1  0.725700  0.876100  0.693500  1.0  -0.5042
  O  O130  1  0.923600  0.558000  0.540700  1.0  -0.5633
  O  O131  1  0.911500  0.653600  0.657300  1.0  -0.4473
  O  O132  1  0.145000  0.882300  0.892000  1.0  -0.5815
  O  O133  1  0.271200  0.859500  0.917000  1.0  -0.4631
  O  O134  1  0.227500  0.584800  0.641700  1.0  -0.8115
  O  O135  1  0.384000  0.042200  0.173000  1.0  -0.6101
  O  O136  1  0.268200  0.085900  0.023500  1.0  -0.5892
  O  O137  1  0.588100  0.322900  0.229700  1.0  -0.6222
  O  O138  1  0.377800  0.488200  0.881900  1.0  -0.5864
  O  O139  1  0.274300  0.376100  0.806500  1.0  -0.5063
  O  O140  1  0.076400  0.058000  0.959300  1.0  -0.5628
  O  O141  1  0.088500  0.153600  0.842700  1.0  -0.4462
  O  O142  1  0.855000  0.382300  0.608000  1.0  -0.5809
  O  O143  1  0.728800  0.359500  0.583000  1.0  -0.4688
  O  O144  1  0.772500  0.084800  0.858300  1.0  -0.8111
