# generated using pymatgen
data_Zn2P2H16C13(NO3)2
_symmetry_space_group_name_H-M   'P 1'
_cell_length_a   10.33400000
_cell_length_b   11.54510000
_cell_length_c   28.44690000
_cell_angle_alpha   90.00000000
_cell_angle_beta   90.00000000
_cell_angle_gamma   115.30900000
_symmetry_Int_Tables_number   1
_chemical_formula_structural   Zn2P2H16C13(NO3)2
_chemical_formula_sum   'Zn8 P8 H64 C52 N8 O24'
_cell_volume   3068.15245390
_cell_formula_units_Z   4
loop_
 _symmetry_equiv_pos_site_id
 _symmetry_equiv_pos_as_xyz
  1  'x, y, z'
loop_
 _atom_site_type_symbol
 _atom_site_label
 _atom_site_symmetry_multiplicity
 _atom_site_fract_x
 _atom_site_fract_y
 _atom_site_fract_z
 _atom_site_occupancy
 _atom_site_charge
  Zn  Zn1  1  0.090270  0.007670  0.937670  1.0  1.0498
  Zn  Zn2  1  0.330540  0.334250  0.522060  1.0  1.0751
  Zn  Zn3  1  0.909730  0.492330  0.437670  1.0  1.0496
  Zn  Zn4  1  0.669460  0.165750  0.022060  1.0  1.075
  Zn  Zn5  1  0.909730  0.992330  0.062330  1.0  1.049
  Zn  Zn6  1  0.669460  0.665750  0.477940  1.0  1.0754
  Zn  Zn7  1  0.090270  0.507670  0.562330  1.0  1.0492
  Zn  Zn8  1  0.330540  0.834250  0.977940  1.0  1.0753
  P  P9  1  0.405770  0.122970  0.954890  1.0  1.544
  P  P10  1  0.064150  0.830370  0.022870  1.0  1.5765
  P  P11  1  0.594230  0.377030  0.454890  1.0  1.5436
  P  P12  1  0.935850  0.669630  0.522870  1.0  1.5704
  P  P13  1  0.594230  0.877030  0.045110  1.0  1.5436
  P  P14  1  0.935850  0.169630  0.977130  1.0  1.5695
  P  P15  1  0.405770  0.622970  0.545110  1.0  1.5441
  P  P16  1  0.064150  0.330370  0.477130  1.0  1.5753
  H  H17  1  0.929200  0.032700  0.857100  1.0  0.0945
  H  H18  1  0.906700  0.000600  0.777200  1.0  0.1377
  H  H19  1  0.221400  0.880700  0.782800  1.0  0.1266
  H  H20  1  0.238600  0.919200  0.862800  1.0  0.0936
  H  H21  1  0.944700  0.863300  0.710800  1.0  0.1088
  H  H22  1  0.074800  0.000400  0.702600  1.0  0.1017
  H  H23  1  0.237200  0.907800  0.700800  1.0  0.0813
  H  H24  1  0.111200  0.770000  0.712500  1.0  0.0764
  H  H25  1  0.151600  0.774300  0.631800  1.0  0.1057
  H  H26  1  0.999300  0.777200  0.638600  1.0  0.1048
  H  H27  1  0.968800  0.970200  0.615100  1.0  0.1328
  H  H28  1  0.053800  0.158300  0.572600  1.0  0.0897
  H  H29  1  0.432200  0.154900  0.560100  1.0  0.1007
  H  H30  1  0.358900  0.970800  0.604400  1.0  0.1362
  H  H31  1  0.477490  0.194200  0.920600  1.0  -0.1944
  H  H32  1  0.965720  0.727300  0.034540  1.0  -0.1879
  H  H33  1  0.070800  0.467300  0.357100  1.0  0.0949
  H  H34  1  0.093300  0.499400  0.277200  1.0  0.1372
  H  H35  1  0.778600  0.619300  0.282800  1.0  0.127
  H  H36  1  0.761400  0.580800  0.362800  1.0  0.0932
  H  H37  1  0.055300  0.636700  0.210800  1.0  0.1077
  H  H38  1  0.925200  0.499600  0.202600  1.0  0.1005
  H  H39  1  0.762800  0.592200  0.200800  1.0  0.0806
  H  H40  1  0.888800  0.730000  0.212500  1.0  0.0742
  H  H41  1  0.848400  0.725700  0.131800  1.0  0.1076
  H  H42  1  0.000700  0.722800  0.138600  1.0  0.1048
  H  H43  1  0.031200  0.529800  0.115100  1.0  0.1317
  H  H44  1  0.946200  0.341700  0.072600  1.0  0.0901
  H  H45  1  0.567800  0.345100  0.060100  1.0  0.101
  H  H46  1  0.641100  0.529200  0.104400  1.0  0.1362
  H  H47  1  0.522510  0.305800  0.420600  1.0  -0.1932
  H  H48  1  0.034280  0.772700  0.534540  1.0  -0.1869
  H  H49  1  0.070800  0.967300  0.142900  1.0  0.0954
  H  H50  1  0.093300  0.999400  0.222800  1.0  0.1369
  H  H51  1  0.778600  0.119300  0.217200  1.0  0.1269
  H  H52  1  0.761400  0.080800  0.137200  1.0  0.0933
  H  H53  1  0.055300  0.136700  0.289200  1.0  0.1075
  H  H54  1  0.925200  0.999600  0.297400  1.0  0.1012
  H  H55  1  0.762800  0.092200  0.299200  1.0  0.0805
  H  H56  1  0.888800  0.230000  0.287500  1.0  0.0752
  H  H57  1  0.848400  0.225700  0.368200  1.0  0.108
  H  H58  1  0.000700  0.222800  0.361400  1.0  0.1049
  H  H59  1  0.031200  0.029800  0.384900  1.0  0.132
  H  H60  1  0.946200  0.841700  0.427400  1.0  0.0898
  H  H61  1  0.567800  0.845100  0.439900  1.0  0.1011
  H  H62  1  0.641100  0.029200  0.395600  1.0  0.1364
  H  H63  1  0.522510  0.805800  0.079400  1.0  -0.1969
  H  H64  1  0.034280  0.272700  0.965460  1.0  -0.1884
  H  H65  1  0.929200  0.532700  0.642900  1.0  0.0944
  H  H66  1  0.906700  0.500600  0.722800  1.0  0.1376
  H  H67  1  0.221400  0.380700  0.717200  1.0  0.1267
  H  H68  1  0.238600  0.419200  0.637200  1.0  0.0933
  H  H69  1  0.944700  0.363300  0.789200  1.0  0.1086
  H  H70  1  0.074800  0.500400  0.797400  1.0  0.101
  H  H71  1  0.237200  0.407800  0.799200  1.0  0.0812
  H  H72  1  0.111200  0.270000  0.787500  1.0  0.0763
  H  H73  1  0.151600  0.274300  0.868200  1.0  0.1066
  H  H74  1  0.999300  0.277200  0.861400  1.0  0.1058
  H  H75  1  0.968800  0.470200  0.884900  1.0  0.1331
  H  H76  1  0.053800  0.658300  0.927400  1.0  0.0896
  H  H77  1  0.432200  0.654900  0.939900  1.0  0.1003
  H  H78  1  0.358900  0.470800  0.895600  1.0  0.1363
  H  H79  1  0.477490  0.694200  0.579400  1.0  -0.1977
  H  H80  1  0.965720  0.227300  0.465460  1.0  -0.189
  C  C81  1  0.989730  0.001830  0.841670  1.0  0.1827
  C  C82  1  0.975490  0.982730  0.794010  1.0  -0.244
  C  C83  1  0.062540  0.936930  0.770350  1.0  0.1619
  C  C84  1  0.160610  0.912810  0.797320  1.0  -0.2616
  C  C85  1  0.169890  0.935270  0.845130  1.0  0.1778
  C  C86  1  0.047010  0.916210  0.717970  1.0  -0.2075
  C  C87  1  0.134010  0.852260  0.696210  1.0  -0.0856
  C  C88  1  0.103690  0.826890  0.643400  1.0  -0.2159
  C  C89  1  0.154540  0.948430  0.615050  1.0  0.1755
  C  C90  1  0.065280  0.007350  0.604520  1.0  -0.2416
  C  C91  1  0.116170  0.119040  0.578880  1.0  0.1593
  C  C92  1  0.337070  0.117440  0.571920  1.0  0.1759
  C  C93  1  0.293690  0.006980  0.598040  1.0  -0.2353
  C  C94  1  0.010270  0.498170  0.341670  1.0  0.1817
  C  C95  1  0.024510  0.517270  0.294010  1.0  -0.2431
  C  C96  1  0.937460  0.563070  0.270350  1.0  0.162
  C  C97  1  0.839390  0.587190  0.297320  1.0  -0.2623
  C  C98  1  0.830110  0.564730  0.345130  1.0  0.1779
  C  C99  1  0.952990  0.583790  0.217970  1.0  -0.2064
  C  C100  1  0.865990  0.647740  0.196210  1.0  -0.0861
  C  C101  1  0.896310  0.673110  0.143400  1.0  -0.2165
  C  C102  1  0.845460  0.551570  0.115050  1.0  0.1741
  C  C103  1  0.934720  0.492650  0.104520  1.0  -0.2401
  C  C104  1  0.883830  0.380960  0.078880  1.0  0.1594
  C  C105  1  0.662930  0.382560  0.071920  1.0  0.1772
  C  C106  1  0.706310  0.493020  0.098040  1.0  -0.2367
  C  C107  1  0.010270  0.998170  0.158330  1.0  0.1816
  C  C108  1  0.024510  0.017270  0.205990  1.0  -0.2431
  C  C109  1  0.937460  0.063070  0.229650  1.0  0.1622
  C  C110  1  0.839390  0.087190  0.202680  1.0  -0.2629
  C  C111  1  0.830110  0.064730  0.154870  1.0  0.1773
  C  C112  1  0.952990  0.083790  0.282030  1.0  -0.2062
  C  C113  1  0.865990  0.147740  0.303790  1.0  -0.086
  C  C114  1  0.896310  0.173110  0.356600  1.0  -0.2164
  C  C115  1  0.845460  0.051570  0.384950  1.0  0.1753
  C  C116  1  0.934720  0.992650  0.395480  1.0  -0.2409
  C  C117  1  0.883830  0.880960  0.421120  1.0  0.1595
  C  C118  1  0.662930  0.882560  0.428080  1.0  0.1778
  C  C119  1  0.706310  0.993020  0.401960  1.0  -0.236
  C  C120  1  0.989730  0.501830  0.658330  1.0  0.182
  C  C121  1  0.975490  0.482730  0.705990  1.0  -0.2449
  C  C122  1  0.062540  0.436930  0.729650  1.0  0.162
  C  C123  1  0.160610  0.412810  0.702680  1.0  -0.2618
  C  C124  1  0.169890  0.435270  0.654870  1.0  0.1764
  C  C125  1  0.047010  0.416210  0.782030  1.0  -0.2076
  C  C126  1  0.134010  0.352260  0.803790  1.0  -0.0861
  C  C127  1  0.103690  0.326890  0.856600  1.0  -0.2158
  C  C128  1  0.154540  0.448430  0.884950  1.0  0.1757
  C  C129  1  0.065280  0.507350  0.895480  1.0  -0.2416
  C  C130  1  0.116170  0.619040  0.921120  1.0  0.1593
  C  C131  1  0.337070  0.617440  0.928080  1.0  0.1759
  C  C132  1  0.293690  0.506980  0.901960  1.0  -0.2362
  N  N133  1  0.085390  0.978990  0.867670  1.0  -0.3618
  N  N134  1  0.250980  0.174960  0.562290  1.0  -0.3689
  N  N135  1  0.914610  0.521010  0.367670  1.0  -0.361
  N  N136  1  0.749020  0.325040  0.062290  1.0  -0.3698
  N  N137  1  0.914610  0.021010  0.132330  1.0  -0.3612
  N  N138  1  0.749020  0.825040  0.437710  1.0  -0.3699
  N  N139  1  0.085390  0.478990  0.632330  1.0  -0.3615
  N  N140  1  0.250980  0.674960  0.937710  1.0  -0.3701
  O  O141  1  0.371100  0.986030  0.941250  1.0  -0.8693
  O  O142  1  0.269720  0.143890  0.959950  1.0  -0.8488
  O  O143  1  0.043900  0.848960  0.971040  1.0  -0.872
  O  O144  1  0.204110  0.818160  0.031210  1.0  -0.8656
  O  O145  1  0.056710  0.931970  0.054920  1.0  -0.8522
  O  O146  1  0.497280  0.171100  0.998380  1.0  -0.8487
  O  O147  1  0.628900  0.513970  0.441250  1.0  -0.8728
  O  O148  1  0.730280  0.356110  0.459950  1.0  -0.8502
  O  O149  1  0.956100  0.651040  0.471040  1.0  -0.8699
  O  O150  1  0.795890  0.681840  0.531210  1.0  -0.866
  O  O151  1  0.943290  0.568030  0.554920  1.0  -0.8522
  O  O152  1  0.502720  0.328900  0.498380  1.0  -0.8477
  O  O153  1  0.628900  0.013970  0.058750  1.0  -0.873
  O  O154  1  0.730280  0.856110  0.040050  1.0  -0.8499
  O  O155  1  0.956100  0.151040  0.028960  1.0  -0.8699
  O  O156  1  0.795890  0.181840  0.968790  1.0  -0.8644
  O  O157  1  0.943290  0.068030  0.945080  1.0  -0.8521
  O  O158  1  0.502720  0.828900  0.001620  1.0  -0.8474
  O  O159  1  0.371100  0.486030  0.558750  1.0  -0.8698
  O  O160  1  0.269720  0.643890  0.540050  1.0  -0.8486
  O  O161  1  0.043900  0.348960  0.528960  1.0  -0.8714
  O  O162  1  0.204110  0.318160  0.468790  1.0  -0.8634
  O  O163  1  0.056710  0.431970  0.445080  1.0  -0.8521
  O  O164  1  0.497280  0.671100  0.501620  1.0  -0.8486
