# generated using pymatgen
data_Zn2P2H16C13(NO3)2
_symmetry_space_group_name_H-M   'P 1'
_cell_length_a   9.77140000
_cell_length_b   9.97970000
_cell_length_c   22.92290000
_cell_angle_alpha   90.00000000
_cell_angle_beta   91.53500000
_cell_angle_gamma   90.00000000
_symmetry_Int_Tables_number   1
_chemical_formula_structural   Zn2P2H16C13(NO3)2
_chemical_formula_sum   'Zn8 P8 H64 C52 N8 O24'
_cell_volume   2234.53912048
_cell_formula_units_Z   4
loop_
 _symmetry_equiv_pos_site_id
 _symmetry_equiv_pos_as_xyz
  1  'x, y, z'
loop_
 _atom_site_type_symbol
 _atom_site_label
 _atom_site_symmetry_multiplicity
 _atom_site_fract_x
 _atom_site_fract_y
 _atom_site_fract_z
 _atom_site_occupancy
 _atom_site_charge
  Zn  Zn1  1  0.107520  0.317960  0.010870  1.0  1.1014
  Zn  Zn2  1  0.346380  0.358830  0.503700  1.0  1.0798
  Zn  Zn3  1  0.392480  0.817960  0.989130  1.0  1.1001
  Zn  Zn4  1  0.153620  0.858830  0.496300  1.0  1.0834
  Zn  Zn5  1  0.892480  0.682040  0.989130  1.0  1.0999
  Zn  Zn6  1  0.653620  0.641170  0.496300  1.0  1.0833
  Zn  Zn7  1  0.607520  0.182040  0.010870  1.0  1.1011
  Zn  Zn8  1  0.846380  0.141170  0.503700  1.0  1.0796
  P  P9  1  0.630980  0.337060  0.446190  1.0  1.5133
  P  P10  1  0.827760  0.412510  0.059850  1.0  1.5371
  P  P11  1  0.869020  0.837060  0.553810  1.0  1.5125
  P  P12  1  0.672240  0.912510  0.940150  1.0  1.5359
  P  P13  1  0.369020  0.662940  0.553810  1.0  1.5135
  P  P14  1  0.172240  0.587490  0.940150  1.0  1.5355
  P  P15  1  0.130980  0.162940  0.446190  1.0  1.5144
  P  P16  1  0.327760  0.087490  0.059850  1.0  1.5366
  H  H17  1  0.519400  0.421700  0.608100  1.0  0.0779
  H  H18  1  0.663100  0.316900  0.675400  1.0  0.1294
  H  H19  1  0.544100  0.960800  0.606800  1.0  0.1284
  H  H20  1  0.399300  0.074300  0.542600  1.0  0.0844
  H  H21  1  0.802700  0.028400  0.667900  1.0  0.1008
  H  H22  1  0.675700  0.966400  0.700800  1.0  0.1088
  H  H23  1  0.806200  0.212500  0.734400  1.0  0.0703
  H  H24  1  0.682000  0.145800  0.768200  1.0  0.0767
  H  H25  1  0.821900  0.956900  0.790700  1.0  0.1152
  H  H26  1  0.945700  0.024800  0.757700  1.0  0.1044
  H  H27  1  0.806900  0.281300  0.834100  1.0  0.1215
  H  H28  1  0.894700  0.371100  0.920200  1.0  0.0807
  H  H29  1  0.037300  0.951700  0.864300  1.0  0.1286
  H  H30  1  0.121000  0.049600  0.949400  1.0  0.0905
  H  H31  1  0.678500  0.335150  0.394700  1.0  -0.1828
  H  H32  1  0.789200  0.465700  0.108300  1.0  -0.2143
  H  H33  1  0.980600  0.921700  0.391900  1.0  0.0783
  H  H34  1  0.836900  0.816900  0.324600  1.0  0.1295
  H  H35  1  0.955900  0.460800  0.393200  1.0  0.1282
  H  H36  1  0.100700  0.574300  0.457400  1.0  0.0845
  H  H37  1  0.697300  0.528400  0.332100  1.0  0.1012
  H  H38  1  0.824300  0.466400  0.299200  1.0  0.108
  H  H39  1  0.693800  0.712500  0.265600  1.0  0.0709
  H  H40  1  0.818000  0.645800  0.231800  1.0  0.0765
  H  H41  1  0.678100  0.456900  0.209300  1.0  0.1141
  H  H42  1  0.554300  0.524800  0.242300  1.0  0.1063
  H  H43  1  0.693100  0.781300  0.165900  1.0  0.1215
  H  H44  1  0.605300  0.871100  0.079800  1.0  0.0811
  H  H45  1  0.462700  0.451700  0.135700  1.0  0.1281
  H  H46  1  0.379000  0.549600  0.050600  1.0  0.0902
  H  H47  1  0.821500  0.835150  0.605300  1.0  -0.1858
  H  H48  1  0.710800  0.965700  0.891700  1.0  -0.2102
  H  H49  1  0.480600  0.578300  0.391900  1.0  0.0778
  H  H50  1  0.336900  0.683100  0.324600  1.0  0.129
  H  H51  1  0.455900  0.039200  0.393200  1.0  0.1272
  H  H52  1  0.600700  0.925700  0.457400  1.0  0.0842
  H  H53  1  0.197300  0.971600  0.332100  1.0  0.101
  H  H54  1  0.324300  0.033600  0.299200  1.0  0.1073
  H  H55  1  0.193800  0.787500  0.265600  1.0  0.0729
  H  H56  1  0.318000  0.854200  0.231800  1.0  0.077
  H  H57  1  0.178100  0.043100  0.209300  1.0  0.1135
  H  H58  1  0.054300  0.975200  0.242300  1.0  0.1054
  H  H59  1  0.193100  0.718700  0.165900  1.0  0.1212
  H  H60  1  0.105300  0.628900  0.079800  1.0  0.081
  H  H61  1  0.962700  0.048300  0.135700  1.0  0.1295
  H  H62  1  0.879000  0.950400  0.050600  1.0  0.0902
  H  H63  1  0.321500  0.664850  0.605300  1.0  -0.1857
  H  H64  1  0.210800  0.534300  0.891700  1.0  -0.2113
  H  H65  1  0.019400  0.078300  0.608100  1.0  0.0781
  H  H66  1  0.163100  0.183100  0.675400  1.0  0.1288
  H  H67  1  0.044100  0.539200  0.606800  1.0  0.1275
  H  H68  1  0.899300  0.425700  0.542600  1.0  0.0845
  H  H69  1  0.302700  0.471600  0.667900  1.0  0.1013
  H  H70  1  0.175700  0.533600  0.700800  1.0  0.1086
  H  H71  1  0.306200  0.287500  0.734400  1.0  0.0703
  H  H72  1  0.182000  0.354200  0.768200  1.0  0.077
  H  H73  1  0.321900  0.543100  0.790700  1.0  0.1141
  H  H74  1  0.445700  0.475200  0.757700  1.0  0.105
  H  H75  1  0.306900  0.218700  0.834100  1.0  0.1208
  H  H76  1  0.394700  0.128900  0.920200  1.0  0.0805
  H  H77  1  0.537300  0.548300  0.864300  1.0  0.129
  H  H78  1  0.621000  0.450400  0.949400  1.0  0.0901
  H  H79  1  0.178500  0.164850  0.394700  1.0  -0.183
  H  H80  1  0.289200  0.034300  0.108300  1.0  -0.2136
  C  C81  1  0.523800  0.326640  0.608160  1.0  0.184
  C  C82  1  0.611090  0.264750  0.648200  1.0  -0.2309
  C  C83  1  0.622590  0.125320  0.648520  1.0  0.162
  C  C84  1  0.540610  0.055870  0.608050  1.0  -0.2086
  C  C85  1  0.454140  0.124210  0.569650  1.0  0.2016
  C  C86  1  0.719560  0.051550  0.689440  1.0  -0.2051
  C  C87  1  0.763550  0.126150  0.744930  1.0  -0.0882
  C  C88  1  0.865100  0.043850  0.781610  1.0  -0.2058
  C  C89  1  0.914840  0.106730  0.838090  1.0  0.1668
  C  C90  1  0.872400  0.232100  0.856740  1.0  -0.2414
  C  C91  1  0.925400  0.285320  0.908300  1.0  0.1913
  C  C92  1  0.007720  0.039000  0.874490  1.0  -0.2141
  C  C93  1  0.057270  0.097810  0.925390  1.0  0.1926
  C  C94  1  0.976200  0.826640  0.391840  1.0  0.1843
  C  C95  1  0.888910  0.764750  0.351800  1.0  -0.2319
  C  C96  1  0.877410  0.625320  0.351480  1.0  0.1623
  C  C97  1  0.959390  0.555870  0.391950  1.0  -0.2085
  C  C98  1  0.045860  0.624210  0.430350  1.0  0.202
  C  C99  1  0.780440  0.551550  0.310560  1.0  -0.207
  C  C100  1  0.736450  0.626150  0.255070  1.0  -0.0889
  C  C101  1  0.634900  0.543850  0.218390  1.0  -0.2041
  C  C102  1  0.585160  0.606730  0.161910  1.0  0.1656
  C  C103  1  0.627600  0.732100  0.143260  1.0  -0.2411
  C  C104  1  0.574600  0.785320  0.091700  1.0  0.1914
  C  C105  1  0.492280  0.539000  0.125510  1.0  -0.2142
  C  C106  1  0.442730  0.597810  0.074610  1.0  0.1927
  C  C107  1  0.476200  0.673360  0.391840  1.0  0.1842
  C  C108  1  0.388910  0.735250  0.351800  1.0  -0.2333
  C  C109  1  0.377410  0.874680  0.351480  1.0  0.1618
  C  C110  1  0.459390  0.944130  0.391950  1.0  -0.2091
  C  C111  1  0.545860  0.875790  0.430350  1.0  0.2017
  C  C112  1  0.280440  0.948450  0.310560  1.0  -0.2088
  C  C113  1  0.236450  0.873850  0.255070  1.0  -0.0892
  C  C114  1  0.134900  0.956150  0.218390  1.0  -0.2046
  C  C115  1  0.085160  0.893270  0.161910  1.0  0.1655
  C  C116  1  0.127600  0.767900  0.143260  1.0  -0.2425
  C  C117  1  0.074600  0.714680  0.091700  1.0  0.1922
  C  C118  1  0.992280  0.961000  0.125510  1.0  -0.2148
  C  C119  1  0.942730  0.902190  0.074610  1.0  0.1932
  C  C120  1  0.023800  0.173360  0.608160  1.0  0.1842
  C  C121  1  0.111090  0.235250  0.648200  1.0  -0.2325
  C  C122  1  0.122590  0.374680  0.648520  1.0  0.1617
  C  C123  1  0.040610  0.444130  0.608050  1.0  -0.2087
  C  C124  1  0.954140  0.375790  0.569650  1.0  0.2018
  C  C125  1  0.219560  0.448450  0.689440  1.0  -0.2069
  C  C126  1  0.263550  0.373850  0.744930  1.0  -0.0886
  C  C127  1  0.365100  0.456150  0.781610  1.0  -0.2045
  C  C128  1  0.414840  0.393270  0.838090  1.0  0.1665
  C  C129  1  0.372400  0.267900  0.856740  1.0  -0.2421
  C  C130  1  0.425400  0.214680  0.908300  1.0  0.1919
  C  C131  1  0.507720  0.461000  0.874490  1.0  -0.2154
  C  C132  1  0.557270  0.402190  0.925390  1.0  0.1926
  N  N133  1  0.444870  0.259090  0.569210  1.0  -0.3985
  N  N134  1  0.018170  0.221390  0.942220  1.0  -0.394
  N  N135  1  0.055130  0.759090  0.430790  1.0  -0.3974
  N  N136  1  0.481830  0.721390  0.057780  1.0  -0.3977
  N  N137  1  0.555130  0.740910  0.430790  1.0  -0.396
  N  N138  1  0.981830  0.778610  0.057780  1.0  -0.3986
  N  N139  1  0.944870  0.240910  0.569210  1.0  -0.3992
  N  N140  1  0.518170  0.278610  0.942220  1.0  -0.3952
  O  O141  1  0.978850  0.376990  0.069090  1.0  -0.8586
  O  O142  1  0.474490  0.347240  0.438830  1.0  -0.8576
  O  O143  1  0.673930  0.206840  0.474790  1.0  -0.8322
  O  O144  1  0.693130  0.458400  0.476510  1.0  -0.8718
  O  O145  1  0.740160  0.291390  0.050270  1.0  -0.8639
  O  O146  1  0.804050  0.518060  0.013080  1.0  -0.8757
  O  O147  1  0.521150  0.876990  0.930910  1.0  -0.8574
  O  O148  1  0.025510  0.847240  0.561170  1.0  -0.8574
  O  O149  1  0.826070  0.706840  0.525210  1.0  -0.8318
  O  O150  1  0.806870  0.958400  0.523490  1.0  -0.8718
  O  O151  1  0.759840  0.791390  0.949730  1.0  -0.865
  O  O152  1  0.695950  0.018060  0.986920  1.0  -0.8744
  O  O153  1  0.021150  0.623010  0.930910  1.0  -0.8565
  O  O154  1  0.525510  0.652760  0.561170  1.0  -0.8577
  O  O155  1  0.326070  0.793160  0.525210  1.0  -0.8319
  O  O156  1  0.306870  0.541600  0.523490  1.0  -0.8722
  O  O157  1  0.259840  0.708610  0.949730  1.0  -0.8649
  O  O158  1  0.195950  0.481940  0.986920  1.0  -0.8747
  O  O159  1  0.478850  0.123010  0.069090  1.0  -0.8584
  O  O160  1  0.974490  0.152760  0.438830  1.0  -0.858
  O  O161  1  0.173930  0.293160  0.474790  1.0  -0.8324
  O  O162  1  0.193130  0.041600  0.476510  1.0  -0.8718
  O  O163  1  0.240160  0.208610  0.050270  1.0  -0.8641
  O  O164  1  0.304050  0.981940  0.013080  1.0  -0.8759
