# generated using pymatgen
data_Zn2P2H16C13(NO3)2
_symmetry_space_group_name_H-M   'P 1'
_cell_length_a   9.62990000
_cell_length_b   9.76980000
_cell_length_c   24.56390000
_cell_angle_alpha   90.00000000
_cell_angle_beta   90.00000000
_cell_angle_gamma   90.00000000
_symmetry_Int_Tables_number   1
_chemical_formula_structural   Zn2P2H16C13(NO3)2
_chemical_formula_sum   'Zn8 P8 H64 C52 N8 O24'
_cell_volume   2311.02567938
_cell_formula_units_Z   4
loop_
 _symmetry_equiv_pos_site_id
 _symmetry_equiv_pos_as_xyz
  1  'x, y, z'
loop_
 _atom_site_type_symbol
 _atom_site_label
 _atom_site_symmetry_multiplicity
 _atom_site_fract_x
 _atom_site_fract_y
 _atom_site_fract_z
 _atom_site_occupancy
 _atom_site_charge
  Zn  Zn1  1  0.500170  0.887510  0.983180  1.0  1.0783
  Zn  Zn2  1  0.368740  0.879300  0.502820  1.0  1.0865
  Zn  Zn3  1  0.999830  0.112490  0.483180  1.0  1.0782
  Zn  Zn4  1  0.131260  0.120700  0.002820  1.0  1.0867
  Zn  Zn5  1  0.499830  0.387510  0.516820  1.0  1.0802
  Zn  Zn6  1  0.631260  0.379300  0.997180  1.0  1.0854
  Zn  Zn7  1  0.000170  0.612490  0.016820  1.0  1.0799
  Zn  Zn8  1  0.868740  0.620700  0.497180  1.0  1.0851
  P  P9  1  0.729800  0.661460  0.947000  1.0  1.5153
  P  P10  1  0.419450  0.170080  0.935990  1.0  1.5099
  P  P11  1  0.770200  0.338540  0.447000  1.0  1.5163
  P  P12  1  0.080550  0.829920  0.435990  1.0  1.5101
  P  P13  1  0.270200  0.161460  0.553000  1.0  1.5174
  P  P14  1  0.580550  0.670080  0.564010  1.0  1.5118
  P  P15  1  0.229800  0.838540  0.053000  1.0  1.5164
  P  P16  1  0.919450  0.329920  0.064010  1.0  1.512
  H  H17  1  0.749900  0.849000  0.056200  1.0  0.0911
  H  H18  1  0.832100  0.928800  0.138200  1.0  0.1288
  H  H19  1  0.517800  0.200700  0.141300  1.0  0.1292
  H  H20  1  0.442400  0.113800  0.059700  1.0  0.0756
  H  H21  1  0.835300  0.112600  0.207000  1.0  0.1002
  H  H22  1  0.719000  0.229400  0.204400  1.0  0.0995
  H  H23  1  0.557500  0.073300  0.246000  1.0  0.0748
  H  H24  1  0.680200  0.963700  0.251700  1.0  0.074
  H  H25  1  0.683000  0.226400  0.304000  1.0  0.1033
  H  H26  1  0.802200  0.113700  0.310700  1.0  0.1071
  H  H27  1  0.785000  0.958500  0.385100  1.0  0.119
  H  H28  1  0.665400  0.872400  0.459000  1.0  0.0888
  H  H29  1  0.326600  0.065300  0.413200  1.0  0.085
  H  H30  1  0.438200  0.154900  0.338300  1.0  0.134
  H  H31  1  0.801700  0.690300  0.902000  1.0  -0.1936
  H  H32  1  0.390100  0.223300  0.888500  1.0  -0.194
  H  H33  1  0.750100  0.151000  0.556200  1.0  0.0914
  H  H34  1  0.667900  0.071200  0.638200  1.0  0.1283
  H  H35  1  0.982200  0.799300  0.641300  1.0  0.1293
  H  H36  1  0.057600  0.886200  0.559700  1.0  0.0754
  H  H37  1  0.664700  0.887400  0.707000  1.0  0.1007
  H  H38  1  0.781000  0.770600  0.704400  1.0  0.1002
  H  H39  1  0.942500  0.926700  0.746000  1.0  0.0758
  H  H40  1  0.819800  0.036300  0.751700  1.0  0.0759
  H  H41  1  0.817000  0.773600  0.804000  1.0  0.1043
  H  H42  1  0.697800  0.886300  0.810700  1.0  0.1088
  H  H43  1  0.715000  0.041500  0.885100  1.0  0.1209
  H  H44  1  0.834600  0.127600  0.959000  1.0  0.0887
  H  H45  1  0.173400  0.934700  0.913200  1.0  0.0853
  H  H46  1  0.061800  0.845100  0.838300  1.0  0.134
  H  H47  1  0.698300  0.309700  0.402000  1.0  -0.1957
  H  H48  1  0.109900  0.776700  0.388500  1.0  -0.194
  H  H49  1  0.250100  0.349000  0.443800  1.0  0.0913
  H  H50  1  0.167900  0.428800  0.361800  1.0  0.1281
  H  H51  1  0.482200  0.700700  0.358700  1.0  0.1292
  H  H52  1  0.557600  0.613800  0.440300  1.0  0.0755
  H  H53  1  0.164700  0.612600  0.293000  1.0  0.1005
  H  H54  1  0.281000  0.729400  0.295600  1.0  0.0995
  H  H55  1  0.442500  0.573300  0.254000  1.0  0.0759
  H  H56  1  0.319800  0.463700  0.248300  1.0  0.0738
  H  H57  1  0.317000  0.726400  0.196000  1.0  0.1035
  H  H58  1  0.197800  0.613700  0.189300  1.0  0.1091
  H  H59  1  0.215000  0.458500  0.114900  1.0  0.1214
  H  H60  1  0.334600  0.372400  0.041000  1.0  0.0882
  H  H61  1  0.673400  0.565300  0.086800  1.0  0.0854
  H  H62  1  0.561800  0.654900  0.161700  1.0  0.1336
  H  H63  1  0.198300  0.190300  0.598000  1.0  -0.1977
  H  H64  1  0.609900  0.723300  0.611500  1.0  -0.1975
  H  H65  1  0.249900  0.651000  0.943800  1.0  0.0913
  H  H66  1  0.332100  0.571200  0.861800  1.0  0.1288
  H  H67  1  0.017800  0.299300  0.858700  1.0  0.129
  H  H68  1  0.942400  0.386200  0.940300  1.0  0.0755
  H  H69  1  0.335300  0.387400  0.793000  1.0  0.1006
  H  H70  1  0.219000  0.270600  0.795600  1.0  0.0999
  H  H71  1  0.057500  0.426700  0.754000  1.0  0.0756
  H  H72  1  0.180200  0.536300  0.748300  1.0  0.0763
  H  H73  1  0.183000  0.273600  0.696000  1.0  0.1044
  H  H74  1  0.302200  0.386300  0.689300  1.0  0.1071
  H  H75  1  0.285000  0.541500  0.614900  1.0  0.119
  H  H76  1  0.165400  0.627600  0.541000  1.0  0.0885
  H  H77  1  0.826600  0.434700  0.586800  1.0  0.0852
  H  H78  1  0.938200  0.345100  0.661700  1.0  0.1338
  H  H79  1  0.301700  0.809700  0.098000  1.0  -0.1969
  H  H80  1  0.890100  0.276700  0.111500  1.0  -0.1964
  C  C81  1  0.701700  0.921100  0.073890  1.0  0.1851
  C  C82  1  0.751500  0.969100  0.122710  1.0  -0.217
  C  C83  1  0.685900  0.074800  0.149540  1.0  0.1752
  C  C84  1  0.567500  0.128000  0.124590  1.0  -0.2359
  C  C85  1  0.522900  0.075500  0.076010  1.0  0.1893
  C  C86  1  0.734400  0.129200  0.203310  1.0  -0.194
  C  C87  1  0.658900  0.062800  0.251060  1.0  -0.0834
  C  C88  1  0.701200  0.126700  0.305370  1.0  -0.196
  C  C89  1  0.625500  0.066900  0.353310  1.0  0.1734
  C  C90  1  0.690100  0.981900  0.390060  1.0  -0.2164
  C  C91  1  0.618300  0.930400  0.434080  1.0  0.1967
  C  C92  1  0.421400  0.042700  0.407300  1.0  0.1816
  C  C93  1  0.487400  0.097000  0.362620  1.0  -0.2363
  C  C94  1  0.798300  0.078900  0.573890  1.0  0.185
  C  C95  1  0.748500  0.030900  0.622710  1.0  -0.2172
  C  C96  1  0.814100  0.925200  0.649540  1.0  0.1748
  C  C97  1  0.932500  0.872000  0.624590  1.0  -0.2359
  C  C98  1  0.977100  0.924500  0.576010  1.0  0.1867
  C  C99  1  0.765600  0.870800  0.703310  1.0  -0.1948
  C  C100  1  0.841100  0.937200  0.751060  1.0  -0.0846
  C  C101  1  0.798800  0.873300  0.805370  1.0  -0.1959
  C  C102  1  0.874500  0.933100  0.853310  1.0  0.1733
  C  C103  1  0.809900  0.018100  0.890060  1.0  -0.2168
  C  C104  1  0.881700  0.069600  0.934080  1.0  0.1951
  C  C105  1  0.078600  0.957300  0.907300  1.0  0.1804
  C  C106  1  0.012600  0.903000  0.862620  1.0  -0.2358
  C  C107  1  0.298300  0.421100  0.426110  1.0  0.1877
  C  C108  1  0.248500  0.469100  0.377290  1.0  -0.2129
  C  C109  1  0.314100  0.574800  0.350460  1.0  0.175
  C  C110  1  0.432500  0.628000  0.375410  1.0  -0.2352
  C  C111  1  0.477100  0.575500  0.423990  1.0  0.1885
  C  C112  1  0.265600  0.629200  0.296690  1.0  -0.1943
  C  C113  1  0.341100  0.562800  0.248940  1.0  -0.0844
  C  C114  1  0.298800  0.626700  0.194630  1.0  -0.195
  C  C115  1  0.374500  0.566900  0.146690  1.0  0.174
  C  C116  1  0.309900  0.481900  0.109940  1.0  -0.2172
  C  C117  1  0.381700  0.430400  0.065920  1.0  0.1944
  C  C118  1  0.578600  0.542700  0.092700  1.0  0.1801
  C  C119  1  0.512600  0.597000  0.137380  1.0  -0.237
  C  C120  1  0.201700  0.578900  0.926110  1.0  0.1871
  C  C121  1  0.251500  0.530900  0.877290  1.0  -0.2151
  C  C122  1  0.185900  0.425200  0.850460  1.0  0.1755
  C  C123  1  0.067500  0.372000  0.875410  1.0  -0.2359
  C  C124  1  0.022900  0.424500  0.923990  1.0  0.1898
  C  C125  1  0.234400  0.370800  0.796690  1.0  -0.1957
  C  C126  1  0.158900  0.437200  0.748940  1.0  -0.0844
  C  C127  1  0.201200  0.373300  0.694630  1.0  -0.1957
  C  C128  1  0.125500  0.433100  0.646690  1.0  0.1742
  C  C129  1  0.190100  0.518100  0.609940  1.0  -0.2164
  C  C130  1  0.118300  0.569600  0.565920  1.0  0.1945
  C  C131  1  0.921400  0.457300  0.592700  1.0  0.1817
  C  C132  1  0.987400  0.403000  0.637380  1.0  -0.2377
  N  N133  1  0.587430  0.972660  0.050360  1.0  -0.3998
  N  N134  1  0.483750  0.959930  0.442780  1.0  -0.3949
  N  N135  1  0.912570  0.027340  0.550360  1.0  -0.3985
  N  N136  1  0.016250  0.040070  0.942780  1.0  -0.3935
  N  N137  1  0.412570  0.472660  0.449640  1.0  -0.3952
  N  N138  1  0.516250  0.459930  0.057220  1.0  -0.3952
  N  N139  1  0.087430  0.527340  0.949640  1.0  -0.3966
  N  N140  1  0.983750  0.540070  0.557220  1.0  -0.3953
  O  O141  1  0.604650  0.752040  0.945860  1.0  -0.8449
  O  O142  1  0.442750  0.017710  0.926690  1.0  -0.8539
  O  O143  1  0.825230  0.692450  0.994140  1.0  -0.8576
  O  O144  1  0.691660  0.510510  0.943140  1.0  -0.8574
  O  O145  1  0.298170  0.200780  0.972690  1.0  -0.8694
  O  O146  1  0.551350  0.237430  0.955100  1.0  -0.8603
  O  O147  1  0.895350  0.247960  0.445860  1.0  -0.8447
  O  O148  1  0.057250  0.982290  0.426690  1.0  -0.8537
  O  O149  1  0.674770  0.307550  0.494140  1.0  -0.8581
  O  O150  1  0.808340  0.489490  0.443140  1.0  -0.8556
  O  O151  1  0.201830  0.799220  0.472690  1.0  -0.8699
  O  O152  1  0.948650  0.762570  0.455100  1.0  -0.8613
  O  O153  1  0.395350  0.252040  0.554140  1.0  -0.8457
  O  O154  1  0.557250  0.517710  0.573310  1.0  -0.8539
  O  O155  1  0.174770  0.192450  0.505860  1.0  -0.8587
  O  O156  1  0.308340  0.010510  0.556860  1.0  -0.8537
  O  O157  1  0.701830  0.700780  0.527310  1.0  -0.8715
  O  O158  1  0.448650  0.737430  0.544900  1.0  -0.8613
  O  O159  1  0.104650  0.747960  0.054140  1.0  -0.846
  O  O160  1  0.942750  0.482290  0.073310  1.0  -0.8539
  O  O161  1  0.325230  0.807550  0.005860  1.0  -0.8593
  O  O162  1  0.191660  0.989490  0.056860  1.0  -0.8533
  O  O163  1  0.798170  0.299220  0.027310  1.0  -0.8711
  O  O164  1  0.051350  0.262570  0.044900  1.0  -0.8615
