# generated using pymatgen
data_Ba2H15C9(SO4)3
_symmetry_space_group_name_H-M   'P 1'
_cell_length_a   4.98650000
_cell_length_b   21.38940000
_cell_length_c   18.93380000
_cell_angle_alpha   90.00000000
_cell_angle_beta   90.00000000
_cell_angle_gamma   90.00000000
_symmetry_Int_Tables_number   1
_chemical_formula_structural   Ba2H15C9(SO4)3
_chemical_formula_sum   'Ba8 H60 C36 S12 O48'
_cell_volume   2019.44584321
_cell_formula_units_Z   4
loop_
 _symmetry_equiv_pos_site_id
 _symmetry_equiv_pos_as_xyz
  1  'x, y, z'
loop_
 _atom_site_type_symbol
 _atom_site_label
 _atom_site_symmetry_multiplicity
 _atom_site_fract_x
 _atom_site_fract_y
 _atom_site_fract_z
 _atom_site_occupancy
 _atom_site_charge
  Ba  Ba1  1  0.804040  0.434030  0.120220  1.0  1.5926
  Ba  Ba2  1  0.195960  0.565970  0.620220  1.0  1.5921
  Ba  Ba3  1  0.195960  0.934030  0.379780  1.0  1.5926
  Ba  Ba4  1  0.804040  0.065970  0.879780  1.0  1.5923
  Ba  Ba5  1  0.195960  0.565970  0.879780  1.0  1.5923
  Ba  Ba6  1  0.804040  0.434030  0.379780  1.0  1.5926
  Ba  Ba7  1  0.804040  0.065970  0.620220  1.0  1.5921
  Ba  Ba8  1  0.195960  0.934030  0.120220  1.0  1.5925
  H  H9  1  0.300300  0.423200  0.007700  1.0  0.4337
  H  H10  1  0.300300  0.364500  0.038600  1.0  0.4612
  H  H11  1  0.617100  0.717600  0.143100  1.0  0.0992
  H  H12  1  0.278500  0.666500  0.078700  1.0  0.12
  H  H13  1  0.017400  0.642300  0.119500  1.0  0.1221
  H  H14  1  0.979300  0.769200  0.207700  1.0  0.1203
  H  H15  1  0.699700  0.576800  0.507700  1.0  0.4329
  H  H16  1  0.699700  0.635500  0.538600  1.0  0.4612
  H  H17  1  0.382900  0.282400  0.643100  1.0  0.0987
  H  H18  1  0.721500  0.333500  0.578700  1.0  0.1191
  H  H19  1  0.982600  0.357700  0.619500  1.0  0.1245
  H  H20  1  0.020700  0.230800  0.707700  1.0  0.1195
  H  H21  1  0.699700  0.923200  0.492300  1.0  0.4354
  H  H22  1  0.699700  0.864500  0.461400  1.0  0.461
  H  H23  1  0.382900  0.217600  0.356900  1.0  0.0976
  H  H24  1  0.721500  0.166500  0.421300  1.0  0.1214
  H  H25  1  0.982600  0.142300  0.380500  1.0  0.1226
  H  H26  1  0.020700  0.269200  0.292300  1.0  0.12
  H  H27  1  0.300300  0.076800  0.992300  1.0  0.4344
  H  H28  1  0.300300  0.135500  0.961400  1.0  0.4612
  H  H29  1  0.617100  0.782400  0.856900  1.0  0.0985
  H  H30  1  0.278500  0.833500  0.921300  1.0  0.122
  H  H31  1  0.017400  0.857700  0.880500  1.0  0.1209
  H  H32  1  0.979300  0.730800  0.792300  1.0  0.12
  H  H33  1  0.699700  0.576800  0.992300  1.0  0.4348
  H  H34  1  0.699700  0.635500  0.961400  1.0  0.4611
  H  H35  1  0.382900  0.282400  0.856900  1.0  0.0979
  H  H36  1  0.721500  0.333500  0.921300  1.0  0.1216
  H  H37  1  0.982600  0.357700  0.880500  1.0  0.123
  H  H38  1  0.020700  0.230800  0.792300  1.0  0.1195
  H  H39  1  0.300300  0.423200  0.492300  1.0  0.4348
  H  H40  1  0.300300  0.364500  0.461400  1.0  0.4613
  H  H41  1  0.617100  0.717600  0.356900  1.0  0.0982
  H  H42  1  0.278500  0.666500  0.421300  1.0  0.1215
  H  H43  1  0.017400  0.642300  0.380500  1.0  0.121
  H  H44  1  0.979300  0.769200  0.292300  1.0  0.1202
  H  H45  1  0.300300  0.076800  0.507700  1.0  0.4327
  H  H46  1  0.300300  0.135500  0.538600  1.0  0.4613
  H  H47  1  0.617100  0.782400  0.643100  1.0  0.0991
  H  H48  1  0.278500  0.833500  0.578700  1.0  0.1194
  H  H49  1  0.017400  0.857700  0.619500  1.0  0.1219
  H  H50  1  0.979300  0.730800  0.707700  1.0  0.12
  H  H51  1  0.699700  0.923200  0.007700  1.0  0.434
  H  H52  1  0.699700  0.864500  0.038600  1.0  0.4609
  H  H53  1  0.382900  0.217600  0.143100  1.0  0.0989
  H  H54  1  0.721500  0.166500  0.078700  1.0  0.1199
  H  H55  1  0.982600  0.142300  0.119500  1.0  0.1243
  H  H56  1  0.020700  0.269200  0.207700  1.0  0.1203
  H  H57  1  0.488900  0.504200  0.250000  1.0  0.4197
  H  H58  1  0.735100  0.534300  0.250000  1.0  0.4194
  H  H59  1  0.077400  0.612400  0.250000  1.0  0.0896
  H  H60  1  0.511100  0.495800  0.750000  1.0  0.4188
  H  H61  1  0.264900  0.465700  0.750000  1.0  0.4179
  H  H62  1  0.922600  0.387600  0.750000  1.0  0.0896
  H  H63  1  0.511100  0.004200  0.250000  1.0  0.4189
  H  H64  1  0.264900  0.034300  0.250000  1.0  0.4193
  H  H65  1  0.922600  0.112400  0.250000  1.0  0.0899
  H  H66  1  0.488900  0.995800  0.750000  1.0  0.4203
  H  H67  1  0.735100  0.965700  0.750000  1.0  0.4179
  H  H68  1  0.077400  0.887600  0.750000  1.0  0.0898
  C  C69  1  0.331900  0.661200  0.185950  1.0  0.0845
  C  C70  1  0.543100  0.703530  0.186520  1.0  -0.2234
  C  C71  1  0.215200  0.638890  0.117240  1.0  -0.4048
  C  C72  1  0.668100  0.338800  0.685950  1.0  0.0843
  C  C73  1  0.456900  0.296470  0.686520  1.0  -0.228
  C  C74  1  0.784800  0.361110  0.617240  1.0  -0.4047
  C  C75  1  0.668100  0.161200  0.314050  1.0  0.0839
  C  C76  1  0.456900  0.203530  0.313480  1.0  -0.228
  C  C77  1  0.784800  0.138890  0.382760  1.0  -0.4042
  C  C78  1  0.331900  0.838800  0.814050  1.0  0.084
  C  C79  1  0.543100  0.796470  0.813480  1.0  -0.2217
  C  C80  1  0.215200  0.861110  0.882760  1.0  -0.4051
  C  C81  1  0.668100  0.338800  0.814050  1.0  0.0836
  C  C82  1  0.456900  0.296470  0.813480  1.0  -0.2277
  C  C83  1  0.784800  0.361110  0.882760  1.0  -0.4048
  C  C84  1  0.331900  0.661200  0.314050  1.0  0.0842
  C  C85  1  0.543100  0.703530  0.313480  1.0  -0.2223
  C  C86  1  0.215200  0.638890  0.382760  1.0  -0.4045
  C  C87  1  0.331900  0.838800  0.685950  1.0  0.0848
  C  C88  1  0.543100  0.796470  0.686520  1.0  -0.2242
  C  C89  1  0.215200  0.861110  0.617240  1.0  -0.4047
  C  C90  1  0.668100  0.161200  0.185950  1.0  0.0843
  C  C91  1  0.456900  0.203530  0.186520  1.0  -0.2283
  C  C92  1  0.784800  0.138890  0.117240  1.0  -0.4051
  C  C93  1  0.224600  0.640620  0.250000  1.0  -0.1692
  C  C94  1  0.647100  0.725450  0.250000  1.0  0.0582
  C  C95  1  0.865000  0.774820  0.250000  1.0  -0.3924
  C  C96  1  0.775400  0.359380  0.750000  1.0  -0.1674
  C  C97  1  0.352900  0.274550  0.750000  1.0  0.0582
  C  C98  1  0.135000  0.225180  0.750000  1.0  -0.3933
  C  C99  1  0.775400  0.140620  0.250000  1.0  -0.1676
  C  C100  1  0.352900  0.225450  0.250000  1.0  0.0576
  C  C101  1  0.135000  0.274820  0.250000  1.0  -0.3945
  C  C102  1  0.224600  0.859380  0.750000  1.0  -0.1695
  C  C103  1  0.647100  0.774550  0.750000  1.0  0.0589
  C  C104  1  0.865000  0.725180  0.750000  1.0  -0.3926
  S  S105  1  0.303440  0.560070  0.096860  1.0  1.3875
  S  S106  1  0.696560  0.439930  0.596860  1.0  1.3862
  S  S107  1  0.696560  0.060070  0.403140  1.0  1.3876
  S  S108  1  0.303440  0.939930  0.903140  1.0  1.3865
  S  S109  1  0.696560  0.439930  0.903140  1.0  1.3862
  S  S110  1  0.303440  0.560070  0.403140  1.0  1.3874
  S  S111  1  0.303440  0.939930  0.596860  1.0  1.386
  S  S112  1  0.696560  0.060070  0.096860  1.0  1.3871
  S  S113  1  0.732000  0.852240  0.250000  1.0  1.3844
  S  S114  1  0.268000  0.147760  0.750000  1.0  1.3848
  S  S115  1  0.268000  0.352240  0.250000  1.0  1.3844
  S  S116  1  0.732000  0.647760  0.750000  1.0  1.3851
  O  O117  1  0.300600  0.403970  0.047570  1.0  -0.9239
  O  O118  1  0.194900  0.520680  0.153310  1.0  -0.7381
  O  O119  1  0.596000  0.556440  0.094830  1.0  -0.7106
  O  O120  1  0.182300  0.547070  0.028380  1.0  -0.7285
  O  O121  1  0.575200  0.859560  0.185870  1.0  -0.7412
  O  O122  1  0.699400  0.596030  0.547570  1.0  -0.9251
  O  O123  1  0.805100  0.479320  0.653310  1.0  -0.7372
  O  O124  1  0.404000  0.443560  0.594830  1.0  -0.7112
  O  O125  1  0.817700  0.452930  0.528380  1.0  -0.728
  O  O126  1  0.424800  0.140440  0.685870  1.0  -0.7416
  O  O127  1  0.699400  0.903970  0.452430  1.0  -0.9221
  O  O128  1  0.805100  0.020680  0.346690  1.0  -0.7376
  O  O129  1  0.404000  0.056440  0.405170  1.0  -0.7107
  O  O130  1  0.817700  0.047070  0.471620  1.0  -0.7281
  O  O131  1  0.424800  0.359560  0.314130  1.0  -0.7429
  O  O132  1  0.300600  0.096030  0.952430  1.0  -0.923
  O  O133  1  0.194900  0.979320  0.846690  1.0  -0.7373
  O  O134  1  0.596000  0.943560  0.905170  1.0  -0.7098
  O  O135  1  0.182300  0.952930  0.971620  1.0  -0.7295
  O  O136  1  0.575200  0.640440  0.814130  1.0  -0.742
  O  O137  1  0.699400  0.596030  0.952430  1.0  -0.9241
  O  O138  1  0.805100  0.479320  0.846690  1.0  -0.7373
  O  O139  1  0.404000  0.443560  0.905170  1.0  -0.7108
  O  O140  1  0.817700  0.452930  0.971620  1.0  -0.7287
  O  O141  1  0.424800  0.140440  0.814130  1.0  -0.7424
  O  O142  1  0.300600  0.403970  0.452430  1.0  -0.9228
  O  O143  1  0.194900  0.520680  0.346690  1.0  -0.7378
  O  O144  1  0.596000  0.556440  0.405170  1.0  -0.7101
  O  O145  1  0.182300  0.547070  0.471620  1.0  -0.7291
  O  O146  1  0.575200  0.859560  0.314130  1.0  -0.7425
  O  O147  1  0.300600  0.096030  0.547570  1.0  -0.9242
  O  O148  1  0.194900  0.979320  0.653310  1.0  -0.7371
  O  O149  1  0.596000  0.943560  0.594830  1.0  -0.7104
  O  O150  1  0.182300  0.952930  0.528380  1.0  -0.7283
  O  O151  1  0.575200  0.640440  0.685870  1.0  -0.7406
  O  O152  1  0.699400  0.903970  0.047570  1.0  -0.9232
  O  O153  1  0.805100  0.020680  0.153310  1.0  -0.738
  O  O154  1  0.404000  0.056440  0.094830  1.0  -0.711
  O  O155  1  0.817700  0.047070  0.028380  1.0  -0.7279
  O  O156  1  0.424800  0.359560  0.185870  1.0  -0.7417
  O  O157  1  0.659500  0.498180  0.250000  1.0  -0.8783
  O  O158  1  0.968300  0.893250  0.250000  1.0  -0.8286
  O  O159  1  0.340500  0.501820  0.750000  1.0  -0.8766
  O  O160  1  0.031700  0.106750  0.750000  1.0  -0.8267
  O  O161  1  0.340500  0.998180  0.250000  1.0  -0.8791
  O  O162  1  0.031700  0.393250  0.250000  1.0  -0.8261
  O  O163  1  0.659500  0.001820  0.750000  1.0  -0.8763
  O  O164  1  0.968300  0.606750  0.750000  1.0  -0.8289
