# generated using pymatgen
data_Co2H22C19(NO4)2
_symmetry_space_group_name_H-M   'P 1'
_cell_length_a   8.38480000
_cell_length_b   17.23430000
_cell_length_c   17.23430000
_cell_angle_alpha   62.57740000
_cell_angle_beta   80.66700000
_cell_angle_gamma   99.33300000
_symmetry_Int_Tables_number   1
_chemical_formula_structural   Co2H22C19(NO4)2
_chemical_formula_sum   'Co6 H66 C57 N6 O24'
_cell_volume   2100.08071669
_cell_formula_units_Z   3
loop_
 _symmetry_equiv_pos_site_id
 _symmetry_equiv_pos_as_xyz
  1  'x, y, z'
loop_
 _atom_site_type_symbol
 _atom_site_label
 _atom_site_symmetry_multiplicity
 _atom_site_fract_x
 _atom_site_fract_y
 _atom_site_fract_z
 _atom_site_occupancy
 _atom_site_charge
  Co  Co1  1  0.344990  0.779370  0.066740  1.0  0.8746
  Co  Co2  1  0.036450  0.219290  0.933230  1.0  0.8633
  Co  Co3  1  0.411730  0.066740  0.153890  1.0  0.8778
  Co  Co4  1  0.969680  0.933230  0.847480  1.0  0.8656
  Co  Co5  1  0.565620  0.153890  0.779370  1.0  0.8677
  Co  Co6  1  0.817160  0.847480  0.219290  1.0  0.8539
  H  H7  1  0.708900  0.520100  0.031600  1.0  0.0983
  H  H8  1  0.754700  0.598800  0.104300  1.0  0.1102
  H  H9  1  0.925900  0.674400  0.056300  1.0  0.114
  H  H10  1  0.903500  0.587000  0.149500  1.0  0.107
  H  H11  1  0.721400  0.366900  0.971700  1.0  0.1068
  H  H12  1  0.753700  0.459900  0.882600  1.0  0.1272
  H  H13  1  0.621200  0.436300  0.971200  1.0  0.1163
  H  H14  1  0.980100  0.396500  0.891200  1.0  0.0846
  H  H15  1  0.171700  0.425300  0.883700  1.0  0.0809
  H  H16  1  0.353900  0.457500  0.994500  1.0  0.103
  H  H17  1  0.401200  0.562200  0.959100  1.0  0.1039
  H  H18  1  0.362100  0.526200  0.893700  1.0  0.111
  H  H19  1  0.304400  0.562200  0.074300  1.0  0.0793
  H  H20  1  0.168400  0.595800  0.113600  1.0  0.111
  H  H21  1  0.212600  0.704200  0.906400  1.0  0.0904
  H  H22  1  0.384100  0.779200  0.863500  1.0  0.103
  H  H23  1  0.541300  0.684300  0.924600  1.0  0.1045
  H  H24  1  0.555200  0.660100  0.022800  1.0  0.098
  H  H25  1  0.851900  0.311100  0.074300  1.0  0.0755
  H  H26  1  0.932300  0.234800  0.130000  1.0  0.0988
  H  H27  1  0.204400  0.314300  0.074200  1.0  0.0712
  H  H28  1  0.298300  0.336900  0.976500  1.0  0.0851
  H  H29  1  0.740500  0.031600  0.448300  1.0  0.0982
  H  H30  1  0.859000  0.104300  0.296900  1.0  0.1111
  H  H31  1  0.982200  0.056300  0.269300  1.0  0.1129
  H  H32  1  0.053000  0.149500  0.263500  1.0  0.1064
  H  H33  1  0.693100  0.971700  0.661400  1.0  0.1037
  H  H34  1  0.636300  0.882600  0.657500  1.0  0.1274
  H  H35  1  0.592400  0.971200  0.592500  1.0  0.1152
  H  H36  1  0.871300  0.891200  0.712300  1.0  0.0802
  H  H37  1  0.055400  0.883700  0.691000  1.0  0.0823
  H  H38  1  0.348400  0.994500  0.548000  1.0  0.1019
  H  H39  1  0.360300  0.959100  0.478700  1.0  0.1033
  H  H40  1  0.255800  0.893700  0.580100  1.0  0.1107
  H  H41  1  0.378700  0.074300  0.363500  1.0  0.0791
  H  H42  1  0.282000  0.113600  0.290600  1.0  0.1097
  H  H43  1  0.119000  0.906400  0.389400  1.0  0.0887
  H  H44  1  0.247600  0.863500  0.357300  1.0  0.1014
  H  H45  1  0.465900  0.924600  0.391100  1.0  0.1035
  H  H46  1  0.578000  0.022800  0.317100  1.0  0.097
  H  H47  1  0.926200  0.074300  0.614600  1.0  0.0761
  H  H48  1  0.062300  0.130000  0.635200  1.0  0.098
  H  H49  1  0.278600  0.074200  0.611500  1.0  0.0703
  H  H50  1  0.274800  0.976500  0.686600  1.0  0.0859
  H  H51  1  0.188800  0.448300  0.520100  1.0  0.0979
  H  H52  1  0.155900  0.296900  0.598800  1.0  0.111
  H  H53  1  0.251500  0.269300  0.674400  1.0  0.1127
  H  H54  1  0.316500  0.263500  0.587000  1.0  0.106
  H  H55  1  0.354500  0.661400  0.366900  1.0  0.104
  H  H56  1  0.293800  0.657500  0.459900  1.0  0.13
  H  H57  1  0.184900  0.592500  0.436300  1.0  0.1151
  H  H58  1  0.583600  0.712300  0.396500  1.0  0.0809
  H  H59  1  0.746400  0.691000  0.425300  1.0  0.0804
  H  H60  1  0.896400  0.548000  0.457500  1.0  0.1035
  H  H61  1  0.839000  0.478700  0.562200  1.0  0.1003
  H  H62  1  0.835900  0.580100  0.526200  1.0  0.1098
  H  H63  1  0.742200  0.363500  0.562200  1.0  0.0794
  H  H64  1  0.572600  0.290600  0.595800  1.0  0.1099
  H  H65  1  0.508400  0.389400  0.704200  1.0  0.0875
  H  H66  1  0.604900  0.357300  0.779200  1.0  0.1011
  H  H67  1  0.857000  0.391100  0.684300  1.0  0.1034
  H  H68  1  0.895100  0.317100  0.660100  1.0  0.097
  H  H69  1  0.540800  0.614600  0.311100  1.0  0.0739
  H  H70  1  0.697500  0.635200  0.234800  1.0  0.0976
  H  H71  1  0.890100  0.611500  0.314300  1.0  0.0712
  H  H72  1  0.961400  0.686600  0.336900  1.0  0.0865
  C  C73  1  0.103800  0.558900  0.026900  1.0  -0.0186
  C  C74  1  0.145900  0.508700  0.984800  1.0  -0.045
  C  C75  1  0.026400  0.463300  0.962500  1.0  -0.0193
  C  C76  1  0.860200  0.472100  0.974900  1.0  0.0485
  C  C77  1  0.819900  0.518600  0.018100  1.0  -0.1847
  C  C78  1  0.935700  0.563700  0.043100  1.0  0.0728
  C  C79  1  0.874500  0.610300  0.092700  1.0  -0.3537
  C  C80  1  0.727300  0.430000  0.947800  1.0  -0.3738
  C  C81  1  0.060000  0.399900  0.925200  1.0  -0.1174
  C  C82  1  0.333600  0.514200  0.955200  1.0  -0.3668
  C  C83  1  0.228800  0.600500  0.058000  1.0  -0.0284
  C  C84  1  0.285600  0.747500  0.915200  1.0  -0.1819
  C  C85  1  0.195100  0.814900  0.918400  1.0  0.7225
  C  C86  1  0.626100  0.800600  0.933200  1.0  0.718
  C  C87  1  0.522300  0.701500  0.970900  1.0  -0.0935
  C  C88  1  0.899500  0.263500  0.074100  1.0  -0.1332
  C  C89  1  0.762800  0.193400  0.074800  1.0  0.7134
  C  C90  1  0.214200  0.196800  0.067700  1.0  0.709
  C  C91  1  0.202500  0.296500  0.028500  1.0  -0.1087
  C  C92  1  0.130700  0.026900  0.414200  1.0  -0.0171
  C  C93  1  0.130700  0.984800  0.506500  1.0  -0.0451
  C  C94  1  0.988900  0.962500  0.574200  1.0  -0.0178
  C  C95  1  0.835100  0.974900  0.553000  1.0  0.0533
  C  C96  1  0.838000  0.018100  0.463300  1.0  -0.1842
  C  C97  1  0.978800  0.043100  0.393200  1.0  0.0723
  C  C98  1  0.967200  0.092700  0.297000  1.0  -0.3532
  C  C99  1  0.675100  0.947800  0.622200  1.0  -0.372
  C  C100  1  0.985200  0.925200  0.674900  1.0  -0.1142
  C  C101  1  0.288800  0.955200  0.530600  1.0  -0.3657
  C  C102  1  0.286800  0.058000  0.341500  1.0  -0.0244
  C  C103  1  0.200800  0.915200  0.337300  1.0  -0.1843
  C  C104  1  0.113500  0.918400  0.266700  1.0  0.7242
  C  C105  1  0.559300  0.933200  0.266200  1.0  0.7139
  C  C106  1  0.493200  0.970900  0.327600  1.0  -0.1102
  C  C107  1  0.973600  0.074100  0.662400  1.0  -0.1264
  C  C108  1  0.837600  0.074800  0.731800  1.0  0.7157
  C  C109  1  0.281900  0.067700  0.735500  1.0  0.7113
  C  C110  1  0.231000  0.028500  0.675000  1.0  -0.1154
  C  C111  1  0.544900  0.414200  0.558900  1.0  -0.0153
  C  C112  1  0.637200  0.506500  0.508700  1.0  -0.0447
  C  C113  1  0.563100  0.574200  0.463300  1.0  -0.0207
  C  C114  1  0.388100  0.553000  0.472100  1.0  0.0509
  C  C115  1  0.301300  0.463300  0.518600  1.0  -0.1847
  C  C116  1  0.372000  0.393200  0.563700  1.0  0.0717
  C  C117  1  0.264200  0.297000  0.610300  1.0  -0.3578
  C  C118  1  0.297300  0.622200  0.430000  1.0  -0.3748
  C  C119  1  0.660100  0.674900  0.399900  1.0  -0.1168
  C  C120  1  0.819400  0.530600  0.514200  1.0  -0.3682
  C  C121  1  0.628300  0.341500  0.600500  1.0  -0.0273
  C  C122  1  0.538100  0.337300  0.747500  1.0  -0.1852
  C  C123  1  0.380200  0.266700  0.814900  1.0  0.7212
  C  C124  1  0.825500  0.266200  0.800600  1.0  0.717
  C  C125  1  0.820800  0.327600  0.701500  1.0  -0.0947
  C  C126  1  0.636000  0.662400  0.263500  1.0  -0.1267
  C  C127  1  0.569400  0.731800  0.193400  1.0  0.7171
  C  C128  1  0.017400  0.735500  0.196800  1.0  0.7125
  C  C129  1  0.906000  0.675000  0.296500  1.0  -0.1096
  N  N130  1  0.338000  0.697600  0.998800  1.0  -0.0979
  N  N131  1  0.046100  0.304500  0.000500  1.0  -0.1445
  N  N132  1  0.336800  0.998800  0.303600  1.0  -0.0954
  N  N133  1  0.046600  0.000500  0.695000  1.0  -0.1424
  N  N134  1  0.640400  0.303600  0.697600  1.0  -0.0974
  N  N135  1  0.741600  0.695000  0.304500  1.0  -0.1412
  O  O136  1  0.215900  0.842700  0.971700  1.0  -0.572
  O  O137  1  0.114900  0.844000  0.859300  1.0  -0.5931
  O  O138  1  0.575400  0.843100  0.968200  1.0  -0.5454
  O  O139  1  0.768700  0.823300  0.878500  1.0  -0.5941
  O  O140  1  0.801100  0.162200  0.022000  1.0  -0.5772
  O  O141  1  0.629900  0.161800  0.135900  1.0  -0.582
  O  O142  1  0.153200  0.153500  0.034600  1.0  -0.5489
  O  O143  1  0.304500  0.172300  0.123000  1.0  -0.5924
  O  O144  1  0.187600  0.971700  0.185600  1.0  -0.5867
  O  O145  1  0.974200  0.859300  0.296700  1.0  -0.5914
  O  O146  1  0.543600  0.968200  0.188700  1.0  -0.5483
  O  O147  1  0.647200  0.878500  0.298200  1.0  -0.594
  O  O148  1  0.823100  0.022000  0.815800  1.0  -0.5819
  O  O149  1  0.765800  0.135900  0.702300  1.0  -0.5823
  O  O150  1  0.187800  0.034600  0.811900  1.0  -0.5642
  O  O151  1  0.427500  0.123000  0.704700  1.0  -0.5933
  O  O152  1  0.373200  0.185600  0.842700  1.0  -0.5729
  O  O153  1  0.270900  0.296700  0.844000  1.0  -0.592
  O  O154  1  0.732300  0.188700  0.843100  1.0  -0.5507
  O  O155  1  0.945400  0.298200  0.823300  1.0  -0.5945
  O  O156  1  0.638900  0.815800  0.162200  1.0  -0.5885
  O  O157  1  0.468100  0.702300  0.161800  1.0  -0.5824
  O  O158  1  0.999700  0.811900  0.153500  1.0  -0.5499
  O  O159  1  0.132200  0.704700  0.172300  1.0  -0.5921
