# generated using pymatgen
data_Cu3H14(C17O6)2
_symmetry_space_group_name_H-M   'P 1'
_cell_length_a   18.80280000
_cell_length_b   18.80280000
_cell_length_c   51.88300000
_cell_angle_alpha   90.00000000
_cell_angle_beta   90.00000000
_cell_angle_gamma   120.00000000
_symmetry_Int_Tables_number   1
_chemical_formula_structural   Cu3H14(C17O6)2
_chemical_formula_sum   'Cu18 H84 C204 O72'
_cell_volume   15885.49546772
_cell_formula_units_Z   6
loop_
 _symmetry_equiv_pos_site_id
 _symmetry_equiv_pos_as_xyz
  1  'x, y, z'
loop_
 _atom_site_type_symbol
 _atom_site_label
 _atom_site_symmetry_multiplicity
 _atom_site_fract_x
 _atom_site_fract_y
 _atom_site_fract_z
 _atom_site_occupancy
 _atom_site_charge
  Cu  Cu1  1  0.045860  0.522930  0.021200  1.0  0.8966
  Cu  Cu2  1  0.522930  0.477070  0.521200  1.0  0.8967
  Cu  Cu3  1  0.880180  0.940090  0.250000  1.0  0.6945
  Cu  Cu4  1  0.477070  0.522930  0.478800  1.0  0.8969
  Cu  Cu5  1  0.940090  0.880180  0.750000  1.0  0.6979
  Cu  Cu6  1  0.477070  0.522930  0.021200  1.0  0.896
  Cu  Cu7  1  0.954140  0.477070  0.978800  1.0  0.8968
  Cu  Cu8  1  0.522930  0.045860  0.521200  1.0  0.8974
  Cu  Cu9  1  0.522930  0.477070  0.978800  1.0  0.8956
  Cu  Cu10  1  0.059910  0.119820  0.250000  1.0  0.6903
  Cu  Cu11  1  0.940090  0.059910  0.750000  1.0  0.6934
  Cu  Cu12  1  0.045860  0.522930  0.478800  1.0  0.8954
  Cu  Cu13  1  0.477070  0.954140  0.478800  1.0  0.8972
  Cu  Cu14  1  0.954140  0.477070  0.521200  1.0  0.8961
  Cu  Cu15  1  0.477070  0.954140  0.021200  1.0  0.897
  Cu  Cu16  1  0.059910  0.940090  0.250000  1.0  0.6963
  Cu  Cu17  1  0.119820  0.059910  0.750000  1.0  0.6952
  Cu  Cu18  1  0.522930  0.045860  0.978800  1.0  0.8966
  H  H19  1  0.086700  0.385300  0.935900  1.0  0.1274
  H  H20  1  0.235200  0.764800  0.503100  1.0  0.1193
  H  H21  1  0.996500  0.793900  0.816400  1.0  0.1017
  H  H22  1  0.385300  0.298600  0.064100  1.0  0.1269
  H  H23  1  0.238100  0.261500  0.857300  1.0  0.1357
  H  H24  1  0.206100  0.202600  0.683600  1.0  0.1021
  H  H25  1  0.261500  0.238100  0.142700  1.0  0.1359
  H  H26  1  0.976600  0.738500  0.357300  1.0  0.1358
  H  H27  1  0.701400  0.614700  0.435900  1.0  0.1275
  H  H28  1  0.614700  0.701400  0.564100  1.0  0.1269
  H  H29  1  0.738500  0.761900  0.857300  1.0  0.1368
  H  H30  1  0.238100  0.976600  0.857300  1.0  0.1351
  H  H31  1  0.913300  0.298600  0.064100  1.0  0.1269
  H  H32  1  0.235200  0.764800  0.996900  1.0  0.1189
  H  H33  1  0.793900  0.797400  0.316400  1.0  0.1017
  H  H34  1  0.086700  0.385300  0.564100  1.0  0.1276
  H  H35  1  0.261500  0.238100  0.357300  1.0  0.1362
  H  H36  1  0.996500  0.202600  0.816400  1.0  0.1015
  H  H37  1  0.614700  0.913300  0.564100  1.0  0.1277
  H  H38  1  0.913300  0.298600  0.435900  1.0  0.1271
  H  H39  1  0.298600  0.385300  0.935900  1.0  0.1271
  H  H40  1  0.298600  0.913300  0.564100  1.0  0.128
  H  H41  1  0.701400  0.614700  0.064100  1.0  0.1274
  H  H42  1  0.298600  0.913300  0.935900  1.0  0.128
  H  H43  1  0.976600  0.738500  0.142700  1.0  0.1352
  H  H44  1  0.086700  0.701400  0.935900  1.0  0.1266
  H  H45  1  0.385300  0.298600  0.435900  1.0  0.1269
  H  H46  1  0.761900  0.738500  0.357300  1.0  0.1359
  H  H47  1  0.003500  0.797400  0.316400  1.0  0.1025
  H  H48  1  0.003500  0.206100  0.183600  1.0  0.1025
  H  H49  1  0.298600  0.385300  0.564100  1.0  0.1272
  H  H50  1  0.793900  0.797400  0.183600  1.0  0.1019
  H  H51  1  0.996500  0.793900  0.683600  1.0  0.1021
  H  H52  1  0.738500  0.976600  0.857300  1.0  0.1354
  H  H53  1  0.797400  0.793900  0.816400  1.0  0.1017
  H  H54  1  0.797400  0.793900  0.683600  1.0  0.1018
  H  H55  1  0.996500  0.202600  0.683600  1.0  0.1013
  H  H56  1  0.764800  0.235200  0.496900  1.0  0.1191
  H  H57  1  0.614700  0.913300  0.935900  1.0  0.1279
  H  H58  1  0.793900  0.996500  0.316400  1.0  0.1013
  H  H59  1  0.023400  0.261500  0.642700  1.0  0.1353
  H  H60  1  0.385300  0.086700  0.064100  1.0  0.1282
  H  H61  1  0.529600  0.764800  0.996900  1.0  0.1189
  H  H62  1  0.238100  0.261500  0.642700  1.0  0.1355
  H  H63  1  0.261500  0.023400  0.142700  1.0  0.1352
  H  H64  1  0.913300  0.614700  0.064100  1.0  0.1273
  H  H65  1  0.470400  0.235200  0.003100  1.0  0.1193
  H  H66  1  0.976600  0.238100  0.357300  1.0  0.1365
  H  H67  1  0.238100  0.976600  0.642700  1.0  0.1352
  H  H68  1  0.761900  0.738500  0.142700  1.0  0.1352
  H  H69  1  0.202600  0.996500  0.316400  1.0  0.1021
  H  H70  1  0.764800  0.529600  0.496900  1.0  0.1194
  H  H71  1  0.206100  0.003500  0.816400  1.0  0.1023
  H  H72  1  0.202600  0.206100  0.316400  1.0  0.1028
  H  H73  1  0.738500  0.761900  0.642700  1.0  0.1362
  H  H74  1  0.761900  0.023400  0.357300  1.0  0.1358
  H  H75  1  0.701400  0.086700  0.064100  1.0  0.128
  H  H76  1  0.023400  0.761900  0.642700  1.0  0.1364
  H  H77  1  0.614700  0.701400  0.935900  1.0  0.1269
  H  H78  1  0.701400  0.086700  0.435900  1.0  0.1277
  H  H79  1  0.761900  0.023400  0.142700  1.0  0.1347
  H  H80  1  0.202600  0.206100  0.183600  1.0  0.1029
  H  H81  1  0.235200  0.470400  0.503100  1.0  0.1196
  H  H82  1  0.529600  0.764800  0.503100  1.0  0.1194
  H  H83  1  0.764800  0.529600  0.003100  1.0  0.1196
  H  H84  1  0.202600  0.996500  0.183600  1.0  0.102
  H  H85  1  0.976600  0.238100  0.142700  1.0  0.1363
  H  H86  1  0.470400  0.235200  0.496900  1.0  0.1191
  H  H87  1  0.913300  0.614700  0.435900  1.0  0.1274
  H  H88  1  0.261500  0.023400  0.357300  1.0  0.1354
  H  H89  1  0.385300  0.086700  0.435900  1.0  0.128
  H  H90  1  0.235200  0.470400  0.996900  1.0  0.1193
  H  H91  1  0.023400  0.261500  0.857300  1.0  0.1356
  H  H92  1  0.797400  0.003500  0.816400  1.0  0.1017
  H  H93  1  0.793900  0.996500  0.183600  1.0  0.1017
  H  H94  1  0.764800  0.235200  0.003100  1.0  0.1195
  H  H95  1  0.206100  0.202600  0.816400  1.0  0.1023
  H  H96  1  0.206100  0.003500  0.683600  1.0  0.102
  H  H97  1  0.023400  0.761900  0.857300  1.0  0.1374
  H  H98  1  0.003500  0.206100  0.316400  1.0  0.1026
  H  H99  1  0.797400  0.003500  0.683600  1.0  0.1017
  H  H100  1  0.086700  0.701400  0.564100  1.0  0.1269
  H  H101  1  0.003500  0.797400  0.183600  1.0  0.1027
  H  H102  1  0.738500  0.976600  0.642700  1.0  0.135
  C  C103  1  0.045500  0.830600  0.824460  1.0  -0.0379
  C  C104  1  0.170050  0.340100  0.593900  1.0  -0.0783
  C  C105  1  0.848000  0.568200  0.468320  1.0  -0.1468
  C  C106  1  0.738800  0.135300  0.055950  1.0  -0.0083
  C  C107  1  0.170050  0.340100  0.906100  1.0  -0.0802
  C  C108  1  0.279800  0.431800  0.531680  1.0  -0.1465
  C  C109  1  0.864700  0.603500  0.055950  1.0  -0.0059
  C  C110  1  0.361300  0.906900  0.981360  1.0  0.6668
  C  C111  1  0.154550  0.309100  0.613900  1.0  -0.0715
  C  C112  1  0.078150  0.921850  0.713790  1.0  0.7762
  C  C113  1  0.848000  0.279800  0.468320  1.0  -0.1471
  C  C114  1  0.804000  0.902000  0.811600  1.0  -0.0567
  C  C115  1  0.938400  0.748200  0.150990  1.0  -0.1632
  C  C116  1  0.690900  0.845450  0.886100  1.0  -0.0719
  C  C117  1  0.902000  0.804000  0.311600  1.0  -0.0541
  C  C118  1  0.809800  0.748200  0.349010  1.0  -0.1642
  C  C119  1  0.061600  0.809800  0.650990  1.0  -0.165
  C  C120  1  0.152000  0.431800  0.531680  1.0  -0.147
  C  C121  1  0.135300  0.396500  0.555950  1.0  -0.0071
  C  C122  1  0.785100  0.830600  0.824460  1.0  -0.0381
  C  C123  1  0.093100  0.638700  0.981360  1.0  0.6666
  C  C124  1  0.748200  0.938400  0.849010  1.0  -0.1653
  C  C125  1  0.638700  0.545600  0.481360  1.0  0.6669
  C  C126  1  0.748200  0.809800  0.650990  1.0  -0.1648
  C  C127  1  0.135300  0.396500  0.944050  1.0  -0.0073
  C  C128  1  0.738800  0.603500  0.444050  1.0  -0.0074
  C  C129  1  0.864700  0.261200  0.055950  1.0  -0.0069
  C  C130  1  0.775950  0.551900  0.019560  1.0  0.0374
  C  C131  1  0.361300  0.454400  0.981360  1.0  0.6667
  C  C132  1  0.845450  0.154550  0.113900  1.0  -0.0724
  C  C133  1  0.093100  0.454400  0.518640  1.0  0.6672
  C  C134  1  0.170050  0.829950  0.593900  1.0  -0.0797
  C  C135  1  0.224050  0.775950  0.519560  1.0  0.0368
  C  C136  1  0.829950  0.170050  0.406100  1.0  -0.081
  C  C137  1  0.775950  0.224050  0.480440  1.0  0.0358
  C  C138  1  0.431800  0.279800  0.468320  1.0  -0.147
  C  C139  1  0.396500  0.135300  0.055950  1.0  -0.0072
  C  C140  1  0.169400  0.214900  0.675540  1.0  -0.0335
  C  C141  1  0.843700  0.921850  0.713790  1.0  0.7768
  C  C142  1  0.845450  0.690900  0.386100  1.0  -0.0705
  C  C143  1  0.273300  0.136650  0.139400  1.0  0.0557
  C  C144  1  0.748200  0.938400  0.650990  1.0  -0.1644
  C  C145  1  0.196000  0.098000  0.188400  1.0  -0.0577
  C  C146  1  0.196000  0.098000  0.311600  1.0  -0.0562
  C  C147  1  0.864700  0.603500  0.444050  1.0  -0.0064
  C  C148  1  0.136650  0.863350  0.639400  1.0  0.0573
  C  C149  1  0.273300  0.136650  0.360600  1.0  0.0568
  C  C150  1  0.845450  0.690900  0.113900  1.0  -0.0716
  C  C151  1  0.078150  0.921850  0.786210  1.0  0.7724
  C  C152  1  0.093100  0.638700  0.518640  1.0  0.6666
  C  C153  1  0.396500  0.135300  0.444050  1.0  -0.007
  C  C154  1  0.603500  0.738800  0.555950  1.0  -0.006
  C  C155  1  0.188850  0.811150  0.931690  1.0  0.0726
  C  C156  1  0.135300  0.738800  0.555950  1.0  -0.008
  C  C157  1  0.224050  0.448100  0.519560  1.0  0.0369
  C  C158  1  0.431800  0.279800  0.031680  1.0  -0.147
  C  C159  1  0.775950  0.224050  0.019560  1.0  0.0365
  C  C160  1  0.224050  0.448100  0.980440  1.0  0.0363
  C  C161  1  0.224050  0.775950  0.980440  1.0  0.0367
  C  C162  1  0.545600  0.638700  0.981360  1.0  0.6668
  C  C163  1  0.545600  0.906900  0.518640  1.0  0.6674
  C  C164  1  0.152000  0.720200  0.968320  1.0  -0.1472
  C  C165  1  0.098000  0.902000  0.811600  1.0  -0.0558
  C  C166  1  0.775950  0.551900  0.480440  1.0  0.0371
  C  C167  1  0.551900  0.775950  0.980440  1.0  0.0362
  C  C168  1  0.864700  0.261200  0.444050  1.0  -0.0067
  C  C169  1  0.738800  0.603500  0.055950  1.0  -0.0075
  C  C170  1  0.045500  0.214900  0.824460  1.0  -0.0352
  C  C171  1  0.638700  0.545600  0.018640  1.0  0.6668
  C  C172  1  0.361300  0.454400  0.518640  1.0  0.6668
  C  C173  1  0.061600  0.251800  0.849010  1.0  -0.1642
  C  C174  1  0.188850  0.811150  0.568310  1.0  0.0726
  C  C175  1  0.785100  0.954500  0.824460  1.0  -0.0379
  C  C176  1  0.809800  0.748200  0.150990  1.0  -0.1644
  C  C177  1  0.902000  0.804000  0.188400  1.0  -0.0556
  C  C178  1  0.938400  0.748200  0.349010  1.0  -0.1622
  C  C179  1  0.169400  0.954500  0.824460  1.0  -0.0387
  C  C180  1  0.848000  0.279800  0.031680  1.0  -0.1469
  C  C181  1  0.190200  0.251800  0.650990  1.0  -0.1631
  C  C182  1  0.214900  0.045500  0.175540  1.0  -0.0369
  C  C183  1  0.738800  0.135300  0.444050  1.0  -0.0079
  C  C184  1  0.603500  0.864700  0.944050  1.0  -0.0082
  C  C185  1  0.659900  0.829950  0.593900  1.0  -0.079
  C  C186  1  0.848000  0.568200  0.031680  1.0  -0.1466
  C  C187  1  0.906900  0.361300  0.481360  1.0  0.667
  C  C188  1  0.954500  0.785100  0.324460  1.0  -0.0345
  C  C189  1  0.261200  0.864700  0.555950  1.0  -0.0076
  C  C190  1  0.156300  0.078150  0.286210  1.0  0.7732
  C  C191  1  0.921850  0.843700  0.213790  1.0  0.7739
  C  C192  1  0.622300  0.811150  0.931690  1.0  0.0728
  C  C193  1  0.251800  0.061600  0.349010  1.0  -0.1626
  C  C194  1  0.279800  0.848000  0.968320  1.0  -0.1462
  C  C195  1  0.093100  0.454400  0.981360  1.0  0.6672
  C  C196  1  0.309100  0.154550  0.113900  1.0  -0.0715
  C  C197  1  0.830600  0.785100  0.324460  1.0  -0.0344
  C  C198  1  0.809800  0.061600  0.349010  1.0  -0.1637
  C  C199  1  0.726700  0.863350  0.639400  1.0  0.0557
  C  C200  1  0.829950  0.170050  0.093900  1.0  -0.0793
  C  C201  1  0.136650  0.863350  0.860600  1.0  0.0552
  C  C202  1  0.811150  0.188850  0.068310  1.0  0.0727
  C  C203  1  0.811150  0.622300  0.431690  1.0  0.0736
  C  C204  1  0.726700  0.863350  0.860600  1.0  0.0547
  C  C205  1  0.938400  0.190200  0.349010  1.0  -0.1636
  C  C206  1  0.863350  0.136650  0.139400  1.0  0.0549
  C  C207  1  0.078150  0.156300  0.786210  1.0  0.7715
  C  C208  1  0.078150  0.156300  0.713790  1.0  0.7741
  C  C209  1  0.251800  0.190200  0.150990  1.0  -0.1652
  C  C210  1  0.454400  0.093100  0.018640  1.0  0.6665
  C  C211  1  0.638700  0.093100  0.018640  1.0  0.6671
  C  C212  1  0.396500  0.261200  0.444050  1.0  -0.0082
  C  C213  1  0.448100  0.224050  0.480440  1.0  0.0363
  C  C214  1  0.169400  0.214900  0.824460  1.0  -0.0343
  C  C215  1  0.045500  0.214900  0.675540  1.0  -0.0347
  C  C216  1  0.279800  0.431800  0.968320  1.0  -0.1467
  C  C217  1  0.214900  0.169400  0.175540  1.0  -0.0381
  C  C218  1  0.954500  0.169400  0.324460  1.0  -0.0383
  C  C219  1  0.136650  0.273300  0.639400  1.0  0.0575
  C  C220  1  0.377700  0.188850  0.431690  1.0  0.072
  C  C221  1  0.829950  0.659900  0.406100  1.0  -0.0803
  C  C222  1  0.190200  0.938400  0.849010  1.0  -0.1639
  C  C223  1  0.720200  0.152000  0.468320  1.0  -0.1466
  C  C224  1  0.720200  0.568200  0.031680  1.0  -0.1471
  C  C225  1  0.154550  0.845450  0.886100  1.0  -0.0708
  C  C226  1  0.921850  0.078150  0.213790  1.0  0.7766
  C  C227  1  0.431800  0.152000  0.031680  1.0  -0.1459
  C  C228  1  0.843700  0.921850  0.786210  1.0  0.7738
  C  C229  1  0.279800  0.848000  0.531680  1.0  -0.1462
  C  C230  1  0.261200  0.396500  0.555950  1.0  -0.0054
  C  C231  1  0.568200  0.720200  0.968320  1.0  -0.1468
  C  C232  1  0.690900  0.845450  0.613900  1.0  -0.0727
  C  C233  1  0.454400  0.361300  0.018640  1.0  0.667
  C  C234  1  0.603500  0.864700  0.555950  1.0  -0.0082
  C  C235  1  0.154550  0.309100  0.886100  1.0  -0.0702
  C  C236  1  0.361300  0.906900  0.518640  1.0  0.6668
  C  C237  1  0.906900  0.545600  0.018640  1.0  0.6664
  C  C238  1  0.863350  0.726700  0.360600  1.0  0.0566
  C  C239  1  0.845450  0.154550  0.386100  1.0  -0.0715
  C  C240  1  0.188850  0.377700  0.931690  1.0  0.0713
  C  C241  1  0.830600  0.045500  0.175540  1.0  -0.0378
  C  C242  1  0.340100  0.170050  0.406100  1.0  -0.0817
  C  C243  1  0.902000  0.098000  0.311600  1.0  -0.0573
  C  C244  1  0.098000  0.196000  0.688400  1.0  -0.0565
  C  C245  1  0.061600  0.251800  0.650990  1.0  -0.1642
  C  C246  1  0.136650  0.273300  0.860600  1.0  0.0568
  C  C247  1  0.568200  0.720200  0.531680  1.0  -0.1467
  C  C248  1  0.152000  0.431800  0.968320  1.0  -0.147
  C  C249  1  0.135300  0.738800  0.944050  1.0  -0.0079
  C  C250  1  0.169400  0.954500  0.675540  1.0  -0.0382
  C  C251  1  0.545600  0.638700  0.518640  1.0  0.6667
  C  C252  1  0.902000  0.098000  0.188400  1.0  -0.0588
  C  C253  1  0.340100  0.170050  0.093900  1.0  -0.0799
  C  C254  1  0.098000  0.196000  0.811600  1.0  -0.055
  C  C255  1  0.830600  0.045500  0.324460  1.0  -0.0379
  C  C256  1  0.785100  0.954500  0.675540  1.0  -0.0373
  C  C257  1  0.863350  0.726700  0.139400  1.0  0.0568
  C  C258  1  0.568200  0.848000  0.968320  1.0  -0.1468
  C  C259  1  0.906900  0.545600  0.481360  1.0  0.6664
  C  C260  1  0.431800  0.152000  0.468320  1.0  -0.1458
  C  C261  1  0.921850  0.078150  0.286210  1.0  0.7744
  C  C262  1  0.309100  0.154550  0.386100  1.0  -0.0704
  C  C263  1  0.545600  0.906900  0.981360  1.0  0.6674
  C  C264  1  0.170050  0.829950  0.906100  1.0  -0.0815
  C  C265  1  0.551900  0.775950  0.519560  1.0  0.037
  C  C266  1  0.154550  0.845450  0.613900  1.0  -0.0719
  C  C267  1  0.720200  0.152000  0.031680  1.0  -0.1467
  C  C268  1  0.829950  0.659900  0.093900  1.0  -0.0784
  C  C269  1  0.377700  0.188850  0.068310  1.0  0.0726
  C  C270  1  0.748200  0.809800  0.849010  1.0  -0.1648
  C  C271  1  0.261200  0.396500  0.944050  1.0  -0.0062
  C  C272  1  0.954500  0.169400  0.175540  1.0  -0.0376
  C  C273  1  0.214900  0.169400  0.324460  1.0  -0.0387
  C  C274  1  0.448100  0.224050  0.019560  1.0  0.0362
  C  C275  1  0.622300  0.811150  0.568310  1.0  0.0731
  C  C276  1  0.659900  0.829950  0.906100  1.0  -0.0809
  C  C277  1  0.396500  0.261200  0.055950  1.0  -0.0088
  C  C278  1  0.638700  0.093100  0.481360  1.0  0.6672
  C  C279  1  0.785100  0.830600  0.675540  1.0  -0.0376
  C  C280  1  0.454400  0.093100  0.481360  1.0  0.6665
  C  C281  1  0.251800  0.190200  0.349010  1.0  -0.165
  C  C282  1  0.863350  0.136650  0.360600  1.0  0.0566
  C  C283  1  0.938400  0.190200  0.150990  1.0  -0.1643
  C  C284  1  0.811150  0.188850  0.431690  1.0  0.0724
  C  C285  1  0.454400  0.361300  0.481360  1.0  0.6669
  C  C286  1  0.811150  0.622300  0.068310  1.0  0.0729
  C  C287  1  0.804000  0.902000  0.688400  1.0  -0.0582
  C  C288  1  0.720200  0.568200  0.468320  1.0  -0.1471
  C  C289  1  0.261200  0.864700  0.944050  1.0  -0.0077
  C  C290  1  0.809800  0.061600  0.150990  1.0  -0.1638
  C  C291  1  0.830600  0.785100  0.175540  1.0  -0.0344
  C  C292  1  0.152000  0.720200  0.531680  1.0  -0.1475
  C  C293  1  0.568200  0.848000  0.531680  1.0  -0.1467
  C  C294  1  0.190200  0.938400  0.650990  1.0  -0.1642
  C  C295  1  0.098000  0.902000  0.688400  1.0  -0.057
  C  C296  1  0.190200  0.251800  0.849010  1.0  -0.1628
  C  C297  1  0.061600  0.809800  0.849010  1.0  -0.1656
  C  C298  1  0.045500  0.830600  0.675540  1.0  -0.0375
  C  C299  1  0.251800  0.061600  0.150990  1.0  -0.1633
  C  C300  1  0.188850  0.377700  0.568310  1.0  0.0718
  C  C301  1  0.214900  0.045500  0.324460  1.0  -0.037
  C  C302  1  0.921850  0.843700  0.286210  1.0  0.77
  C  C303  1  0.156300  0.078150  0.213790  1.0  0.7761
  C  C304  1  0.954500  0.785100  0.175540  1.0  -0.0342
  C  C305  1  0.906900  0.361300  0.018640  1.0  0.667
  C  C306  1  0.603500  0.738800  0.944050  1.0  -0.0064
  O  O307  1  0.483200  0.371800  0.503320  1.0  -0.5411
  O  O308  1  0.589600  0.557100  0.032580  1.0  -0.5627
  O  O309  1  0.873000  0.862300  0.222880  1.0  -0.6171
  O  O310  1  0.873000  0.010700  0.277120  1.0  -0.623
  O  O311  1  0.589600  0.032500  0.467420  1.0  -0.5651
  O  O312  1  0.442900  0.410400  0.467420  1.0  -0.5637
  O  O313  1  0.989300  0.862300  0.222880  1.0  -0.6179
  O  O314  1  0.010700  0.137700  0.722880  1.0  -0.6148
  O  O315  1  0.371800  0.888600  0.003320  1.0  -0.543
  O  O316  1  0.137700  0.127000  0.222880  1.0  -0.6187
  O  O317  1  0.862300  0.873000  0.722880  1.0  -0.6184
  O  O318  1  0.483200  0.111400  0.996680  1.0  -0.5431
  O  O319  1  0.032500  0.442900  0.967420  1.0  -0.5638
  O  O320  1  0.967500  0.410400  0.467420  1.0  -0.5638
  O  O321  1  0.967500  0.410400  0.032580  1.0  -0.562
  O  O322  1  0.371800  0.888600  0.496680  1.0  -0.5419
  O  O323  1  0.557100  0.589600  0.967420  1.0  -0.5643
  O  O324  1  0.557100  0.967500  0.967420  1.0  -0.5647
  O  O325  1  0.888600  0.371800  0.503320  1.0  -0.5416
  O  O326  1  0.862300  0.989300  0.722880  1.0  -0.6217
  O  O327  1  0.989300  0.862300  0.277120  1.0  -0.6175
  O  O328  1  0.442900  0.410400  0.032580  1.0  -0.5626
  O  O329  1  0.589600  0.032500  0.032580  1.0  -0.5634
  O  O330  1  0.137700  0.127000  0.277120  1.0  -0.6191
  O  O331  1  0.873000  0.010700  0.222880  1.0  -0.6225
  O  O332  1  0.873000  0.862300  0.277120  1.0  -0.617
  O  O333  1  0.127000  0.137700  0.722880  1.0  -0.6179
  O  O334  1  0.589600  0.557100  0.467420  1.0  -0.564
  O  O335  1  0.032500  0.442900  0.532580  1.0  -0.562
  O  O336  1  0.862300  0.873000  0.777120  1.0  -0.6182
  O  O337  1  0.989300  0.127000  0.277120  1.0  -0.6191
  O  O338  1  0.516800  0.628200  0.003320  1.0  -0.5416
  O  O339  1  0.111400  0.483200  0.496680  1.0  -0.5419
  O  O340  1  0.628200  0.111400  0.503320  1.0  -0.5424
  O  O341  1  0.410400  0.967500  0.532580  1.0  -0.5637
  O  O342  1  0.888600  0.516800  0.503320  1.0  -0.5422
  O  O343  1  0.137700  0.010700  0.277120  1.0  -0.6201
  O  O344  1  0.888600  0.516800  0.996680  1.0  -0.5417
  O  O345  1  0.442900  0.032500  0.467420  1.0  -0.5654
  O  O346  1  0.127000  0.989300  0.722880  1.0  -0.6209
  O  O347  1  0.032500  0.589600  0.967420  1.0  -0.5641
  O  O348  1  0.967500  0.557100  0.032580  1.0  -0.5625
  O  O349  1  0.410400  0.442900  0.967420  1.0  -0.5641
  O  O350  1  0.483200  0.111400  0.503320  1.0  -0.543
  O  O351  1  0.111400  0.628200  0.496680  1.0  -0.5423
  O  O352  1  0.516800  0.888600  0.003320  1.0  -0.5416
  O  O353  1  0.516800  0.888600  0.496680  1.0  -0.5425
  O  O354  1  0.557100  0.967500  0.532580  1.0  -0.5634
  O  O355  1  0.111400  0.628200  0.003320  1.0  -0.5408
  O  O356  1  0.557100  0.589600  0.532580  1.0  -0.5629
  O  O357  1  0.371800  0.483200  0.496680  1.0  -0.5418
  O  O358  1  0.967500  0.557100  0.467420  1.0  -0.5641
  O  O359  1  0.127000  0.989300  0.777120  1.0  -0.6229
  O  O360  1  0.371800  0.483200  0.003320  1.0  -0.5417
  O  O361  1  0.442900  0.032500  0.032580  1.0  -0.5637
  O  O362  1  0.862300  0.989300  0.777120  1.0  -0.6244
  O  O363  1  0.127000  0.137700  0.777120  1.0  -0.6179
  O  O364  1  0.888600  0.371800  0.996680  1.0  -0.5412
  O  O365  1  0.137700  0.010700  0.222880  1.0  -0.6219
  O  O366  1  0.628200  0.111400  0.996680  1.0  -0.5429
  O  O367  1  0.010700  0.873000  0.722880  1.0  -0.6161
  O  O368  1  0.032500  0.589600  0.532580  1.0  -0.5626
  O  O369  1  0.628200  0.516800  0.503320  1.0  -0.5412
  O  O370  1  0.010700  0.137700  0.777120  1.0  -0.6168
  O  O371  1  0.010700  0.873000  0.777120  1.0  -0.6174
  O  O372  1  0.111400  0.483200  0.003320  1.0  -0.5408
  O  O373  1  0.410400  0.442900  0.532580  1.0  -0.5622
  O  O374  1  0.516800  0.628200  0.496680  1.0  -0.5413
  O  O375  1  0.989300  0.127000  0.222880  1.0  -0.616
  O  O376  1  0.483200  0.371800  0.996680  1.0  -0.5422
  O  O377  1  0.410400  0.967500  0.967420  1.0  -0.5649
  O  O378  1  0.628200  0.516800  0.996680  1.0  -0.5417
