# generated using pymatgen
data_Ni2H22C19(NO4)2
_symmetry_space_group_name_H-M   'P 1'
_cell_length_a   8.30650000
_cell_length_b   17.12380000
_cell_length_c   17.12380000
_cell_angle_alpha   62.56240000
_cell_angle_beta   80.69470000
_cell_angle_gamma   99.30530000
_symmetry_Int_Tables_number   1
_chemical_formula_structural   Ni2H22C19(NO4)2
_chemical_formula_sum   'Ni6 H66 C57 N6 O24'
_cell_volume   2054.20165820
_cell_formula_units_Z   3
loop_
 _symmetry_equiv_pos_site_id
 _symmetry_equiv_pos_as_xyz
  1  'x, y, z'
loop_
 _atom_site_type_symbol
 _atom_site_label
 _atom_site_symmetry_multiplicity
 _atom_site_fract_x
 _atom_site_fract_y
 _atom_site_fract_z
 _atom_site_occupancy
 _atom_site_charge
  Ni  Ni1  1  0.974360  0.782660  0.063160  1.0  0.7789
  Ni  Ni2  1  0.660570  0.218250  0.937050  1.0  0.7944
  Ni  Ni3  1  0.037520  0.063160  0.154180  1.0  0.7839
  Ni  Ni4  1  0.597620  0.937050  0.844700  1.0  0.7939
  Ni  Ni5  1  0.191700  0.154180  0.782660  1.0  0.768
  Ni  Ni6  1  0.442320  0.844700  0.218250  1.0  0.793
  H  H7  1  0.706400  0.667000  0.016200  1.0  0.0973
  H  H8  1  0.813800  0.694200  0.918600  1.0  0.1059
  H  H9  1  0.077800  0.768400  0.868900  1.0  0.1021
  H  H10  1  0.161700  0.693200  0.925400  1.0  0.0966
  H  H11  1  0.829700  0.575200  0.114300  1.0  0.0967
  H  H12  1  0.020900  0.603800  0.110500  1.0  0.1095
  H  H13  1  0.288200  0.464200  0.985300  1.0  0.0924
  H  H14  1  0.652200  0.495800  0.093100  1.0  0.1148
  H  H15  1  0.602100  0.437800  0.047400  1.0  0.1148
  H  H16  1  0.655600  0.544800  0.989400  1.0  0.1126
  H  H17  1  0.238700  0.574700  0.107500  1.0  0.1073
  H  H18  1  0.351600  0.628800  0.006200  1.0  0.1119
  H  H19  1  0.362800  0.530500  0.072900  1.0  0.1165
  H  H20  1  0.213600  0.356200  0.936400  1.0  0.1258
  H  H21  1  0.156800  0.416400  0.849900  1.0  0.1153
  H  H22  1  0.026900  0.328200  0.932700  1.0  0.1032
  H  H23  1  0.833000  0.400700  0.885500  1.0  0.0993
  H  H24  1  0.696300  0.435000  0.925200  1.0  0.0839
  H  H25  1  0.793800  0.293500  0.095700  1.0  0.0923
  H  H26  1  0.623500  0.216200  0.138400  1.0  0.0975
  H  H27  1  0.448000  0.333400  0.982300  1.0  0.0909
  H  H28  1  0.464700  0.309600  0.080600  1.0  0.1018
  H  H29  1  0.722600  0.016200  0.316800  1.0  0.0995
  H  H30  1  0.732400  0.918600  0.387200  1.0  0.1042
  H  H31  1  0.946700  0.868900  0.362700  1.0  0.1023
  H  H32  1  0.087100  0.925400  0.381400  1.0  0.0968
  H  H33  1  0.944000  0.114300  0.310500  1.0  0.0962
  H  H34  1  0.131400  0.110500  0.285700  1.0  0.1073
  H  H35  1  0.273500  0.985300  0.550500  1.0  0.0927
  H  H36  1  0.745300  0.093100  0.411100  1.0  0.1163
  H  H37  1  0.649500  0.047400  0.514800  1.0  0.1118
  H  H38  1  0.645000  0.989400  0.465800  1.0  0.1124
  H  H39  1  0.346200  0.107500  0.317800  1.0  0.106
  H  H40  1  0.357800  0.006200  0.365000  1.0  0.1109
  H  H41  1  0.435700  0.072900  0.396600  1.0  0.1168
  H  H42  1  0.150000  0.936400  0.707400  1.0  0.1241
  H  H43  1  0.006700  0.849900  0.733700  1.0  0.1112
  H  H44  1  0.959600  0.932700  0.739100  1.0  0.1028
  H  H45  1  0.718500  0.885500  0.713800  1.0  0.0969
  H  H46  1  0.621500  0.925200  0.639800  1.0  0.0831
  H  H47  1  0.889500  0.095700  0.610800  1.0  0.0891
  H  H48  1  0.761900  0.138400  0.645400  1.0  0.0959
  H  H49  1  0.430300  0.982300  0.684300  1.0  0.0904
  H  H50  1  0.545300  0.080600  0.609800  1.0  0.0998
  H  H51  1  0.039400  0.316800  0.667000  1.0  0.0988
  H  H52  1  0.119600  0.387200  0.694200  1.0  0.1035
  H  H53  1  0.309400  0.362700  0.768400  1.0  0.1036
  H  H54  1  0.468500  0.381400  0.693200  1.0  0.0937
  H  H55  1  0.254500  0.310500  0.575200  1.0  0.0935
  H  H56  1  0.417100  0.285700  0.603800  1.0  0.1067
  H  H57  1  0.824000  0.550500  0.464200  1.0  0.0927
  H  H58  1  0.156400  0.411100  0.495800  1.0  0.1137
  H  H59  1  0.164300  0.514800  0.437800  1.0  0.1111
  H  H60  1  0.110800  0.465800  0.544800  1.0  0.1121
  H  H61  1  0.664000  0.317800  0.574700  1.0  0.1087
  H  H62  1  0.722800  0.365000  0.628800  1.0  0.1094
  H  H63  1  0.832300  0.396600  0.530500  1.0  0.1175
  H  H64  1  0.857400  0.707400  0.356200  1.0  0.1263
  H  H65  1  0.740400  0.733700  0.416400  1.0  0.1158
  H  H66  1  0.698700  0.739100  0.328200  1.0  0.1029
  H  H67  1  0.432300  0.713800  0.400700  1.0  0.0977
  H  H68  1  0.261300  0.639800  0.435000  1.0  0.0885
  H  H69  1  0.500300  0.610800  0.293500  1.0  0.0909
  H  H70  1  0.407300  0.645400  0.216200  1.0  0.0957
  H  H71  1  0.114600  0.684300  0.333400  1.0  0.0915
  H  H72  1  0.155100  0.609800  0.309600  1.0  0.0987
  C  C73  1  0.797000  0.811700  0.929900  1.0  0.5301
  C  C74  1  0.807400  0.708500  0.967400  1.0  -0.0819
  C  C75  1  0.111900  0.740700  0.925200  1.0  -0.1553
  C  C76  1  0.249900  0.813500  0.921800  1.0  0.7149
  C  C77  1  0.943900  0.601600  0.074100  1.0  -0.0986
  C  C78  1  0.982600  0.539500  0.036900  1.0  0.009
  C  C79  1  0.145400  0.527100  0.026600  1.0  0.0475
  C  C80  1  0.181400  0.474400  0.989500  1.0  -0.1195
  C  C81  1  0.069600  0.435500  0.957800  1.0  0.0259
  C  C82  1  0.901200  0.439100  0.972200  1.0  0.0334
  C  C83  1  0.860200  0.491900  0.012400  1.0  -0.1077
  C  C84  1  0.675200  0.492600  0.038000  1.0  -0.3521
  C  C85  1  0.288400  0.569300  0.056200  1.0  -0.3495
  C  C86  1  0.121600  0.378800  0.915200  1.0  -0.3661
  C  C87  1  0.773700  0.396900  0.941400  1.0  -0.005
  C  C88  1  0.722400  0.249800  0.086200  1.0  -0.0644
  C  C89  1  0.814800  0.186300  0.081800  1.0  0.6161
  C  C90  1  0.384400  0.193800  0.071600  1.0  0.7038
  C  C91  1  0.483900  0.292400  0.034000  1.0  -0.0729
  C  C92  1  0.726900  0.929900  0.258400  1.0  0.5314
  C  C93  1  0.774800  0.967400  0.324100  1.0  -0.0901
  C  C94  1  0.037100  0.925200  0.334100  1.0  -0.1565
  C  C95  1  0.171700  0.921800  0.264700  1.0  0.7173
  C  C96  1  0.018000  0.074100  0.324300  1.0  -0.0916
  C  C97  1  0.019500  0.036900  0.423600  1.0  0.0112
  C  C98  1  0.172000  0.026600  0.446300  1.0  0.0481
  C  C99  1  0.170900  0.989500  0.536100  1.0  -0.1194
  C  C100  1  0.027400  0.957800  0.606700  1.0  0.0292
  C  C101  1  0.873400  0.972200  0.588700  1.0  0.0317
  C  C102  1  0.872600  0.012400  0.495700  1.0  -0.1076
  C  C103  1  0.713200  0.038000  0.469400  1.0  -0.3518
  C  C104  1  0.344600  0.056200  0.374500  1.0  -0.3504
  C  C105  1  0.036800  0.915200  0.706000  1.0  -0.3657
  C  C106  1  0.715100  0.941400  0.661700  1.0  -0.0025
  C  C107  1  0.808600  0.086200  0.664000  1.0  -0.0608
  C  C108  1  0.896600  0.081800  0.731900  1.0  0.6251
  C  C109  1  0.456000  0.071600  0.734600  1.0  0.7027
  C  C110  1  0.517900  0.034000  0.673600  1.0  -0.075
  C  C111  1  0.985300  0.258400  0.811700  1.0  0.5292
  C  C112  1  0.098900  0.324100  0.708500  1.0  -0.0815
  C  C113  1  0.371200  0.334100  0.740700  1.0  -0.1548
  C  C114  1  0.436400  0.264700  0.813500  1.0  0.7161
  C  C115  1  0.342300  0.324300  0.601600  1.0  -0.0962
  C  C116  1  0.443100  0.423600  0.539500  1.0  0.0089
  C  C117  1  0.618300  0.446300  0.527100  1.0  0.0505
  C  C118  1  0.707000  0.536100  0.474400  1.0  -0.1208
  C  C119  1  0.634100  0.606700  0.435500  1.0  0.0255
  C  C120  1  0.462100  0.588700  0.439100  1.0  0.0337
  C  C121  1  0.368300  0.495700  0.491900  1.0  -0.1077
  C  C122  1  0.182600  0.469400  0.492600  1.0  -0.3515
  C  C123  1  0.719100  0.374500  0.569300  1.0  -0.3519
  C  C124  1  0.742800  0.706000  0.378800  1.0  -0.3697
  C  C125  1  0.376800  0.661700  0.396900  1.0  -0.0025
  C  C126  1  0.472600  0.664000  0.249800  1.0  -0.0614
  C  C127  1  0.628500  0.731900  0.186300  1.0  0.6151
  C  C128  1  0.190600  0.734600  0.193800  1.0  0.7083
  C  C129  1  0.191500  0.673600  0.292400  1.0  -0.0765
  N  N130  1  0.958700  0.697300  0.001800  1.0  -0.1147
  N  N131  1  0.667800  0.299300  0.004300  1.0  -0.1191
  N  N132  1  0.960500  0.001800  0.300900  1.0  -0.1142
  N  N133  1  0.672100  0.004300  0.696400  1.0  -0.1206
  N  N134  1  0.261400  0.300900  0.697300  1.0  -0.1148
  N  N135  1  0.368500  0.696400  0.299300  1.0  -0.1205
  O  O136  1  0.861800  0.851200  0.960400  1.0  -0.5416
  O  O137  1  0.707000  0.830700  0.876300  1.0  -0.5768
  O  O138  1  0.208500  0.843500  0.973400  1.0  -0.56
  O  O139  1  0.383900  0.845400  0.860100  1.0  -0.5774
  O  O140  1  0.892100  0.151400  0.143800  1.0  -0.5749
  O  O141  1  0.791600  0.153600  0.026300  1.0  -0.5448
  O  O142  1  0.240000  0.170000  0.125800  1.0  -0.5953
  O  O143  1  0.438700  0.149200  0.036900  1.0  -0.5623
  O  O144  1  0.822200  0.960400  0.188400  1.0  -0.5314
  O  O145  1  0.583300  0.876300  0.293000  1.0  -0.5746
  O  O146  1  0.181900  0.973400  0.183100  1.0  -0.5643
  O  O147  1  0.244000  0.860100  0.294500  1.0  -0.5768
  O  O148  1  0.035900  0.143800  0.704800  1.0  -0.5738
  O  O149  1  0.817900  0.026300  0.820100  1.0  -0.5672
  O  O150  1  0.365800  0.125800  0.704200  1.0  -0.5954
  O  O151  1  0.475600  0.036900  0.813900  1.0  -0.5651
  O  O152  1  0.010600  0.188400  0.851200  1.0  -0.5283
  O  O153  1  0.876300  0.293000  0.830700  1.0  -0.5753
  O  O154  1  0.365000  0.183100  0.843500  1.0  -0.5537
  O  O155  1  0.538500  0.294500  0.845400  1.0  -0.5774
  O  O156  1  0.740700  0.704800  0.151400  1.0  -0.5747
  O  O157  1  0.638000  0.820100  0.153600  1.0  -0.5439
  O  O158  1  0.070000  0.704200  0.170000  1.0  -0.5956
  O  O159  1  0.289500  0.813900  0.149200  1.0  -0.5514
