# generated using pymatgen
data_Bi(CO2)4
_symmetry_space_group_name_H-M   'P 1'
_cell_length_a   11.70260000
_cell_length_b   11.70260000
_cell_length_c   9.22330000
_cell_angle_alpha   90.00000000
_cell_angle_beta   90.00000000
_cell_angle_gamma   90.00000000
_symmetry_Int_Tables_number   1
_chemical_formula_structural   Bi(CO2)4
_chemical_formula_sum   'Bi4 C16 O32'
_cell_volume   1263.13874492
_cell_formula_units_Z   4
loop_
 _symmetry_equiv_pos_site_id
 _symmetry_equiv_pos_as_xyz
  1  'x, y, z'
loop_
 _atom_site_type_symbol
 _atom_site_label
 _atom_site_symmetry_multiplicity
 _atom_site_fract_x
 _atom_site_fract_y
 _atom_site_fract_z
 _atom_site_occupancy
 _atom_site_charge
  Bi  Bi1  1  0.500000  0.250000  0.625000  1.0  1.5786
  Bi  Bi2  1  0.000000  0.750000  0.125000  1.0  1.5786
  Bi  Bi3  1  0.000000  0.250000  0.875000  1.0  1.5843
  Bi  Bi4  1  0.500000  0.750000  0.375000  1.0  1.5843
  C  C5  1  0.500000  0.024500  0.422300  1.0  0.6218
  C  C6  1  0.000000  0.524500  0.922300  1.0  0.6218
  C  C7  1  0.000000  0.975500  0.922300  1.0  0.6216
  C  C8  1  0.500000  0.475500  0.422300  1.0  0.6216
  C  C9  1  0.225500  0.250000  0.672300  1.0  0.6226
  C  C10  1  0.274500  0.750000  0.172300  1.0  0.6229
  C  C11  1  0.000000  0.024500  0.077700  1.0  0.6224
  C  C12  1  0.500000  0.524500  0.577700  1.0  0.6224
  C  C13  1  0.500000  0.975500  0.577700  1.0  0.6224
  C  C14  1  0.000000  0.475500  0.077700  1.0  0.6224
  C  C15  1  0.274500  0.250000  0.827700  1.0  0.6245
  C  C16  1  0.225500  0.750000  0.327700  1.0  0.6232
  C  C17  1  0.774500  0.750000  0.327700  1.0  0.6245
  C  C18  1  0.725500  0.250000  0.827700  1.0  0.6232
  C  C19  1  0.725500  0.750000  0.172300  1.0  0.6226
  C  C20  1  0.774500  0.250000  0.672300  1.0  0.6229
  O  O21  1  0.500000  0.130000  0.408200  1.0  -0.5025
  O  O22  1  0.500000  0.952300  0.321300  1.0  -0.5131
  O  O23  1  0.000000  0.630000  0.908200  1.0  -0.5025
  O  O24  1  0.000000  0.452300  0.821300  1.0  -0.5131
  O  O25  1  0.000000  0.870000  0.908200  1.0  -0.5013
  O  O26  1  0.000000  0.047700  0.821300  1.0  -0.5126
  O  O27  1  0.500000  0.370000  0.408200  1.0  -0.5013
  O  O28  1  0.500000  0.547700  0.321300  1.0  -0.5126
  O  O29  1  0.120000  0.250000  0.658200  1.0  -0.5043
  O  O30  1  0.297700  0.250000  0.571300  1.0  -0.5144
  O  O31  1  0.380000  0.750000  0.158200  1.0  -0.5052
  O  O32  1  0.202300  0.750000  0.071300  1.0  -0.5152
  O  O33  1  0.000000  0.130000  0.091800  1.0  -0.5036
  O  O34  1  0.000000  0.952300  0.178700  1.0  -0.5127
  O  O35  1  0.500000  0.630000  0.591800  1.0  -0.5036
  O  O36  1  0.500000  0.452300  0.678700  1.0  -0.5127
  O  O37  1  0.500000  0.870000  0.591800  1.0  -0.5042
  O  O38  1  0.500000  0.047700  0.678700  1.0  -0.5122
  O  O39  1  0.000000  0.370000  0.091800  1.0  -0.5042
  O  O40  1  0.000000  0.547700  0.178700  1.0  -0.5122
  O  O41  1  0.380000  0.250000  0.841800  1.0  -0.5076
  O  O42  1  0.202300  0.250000  0.928700  1.0  -0.5146
  O  O43  1  0.120000  0.750000  0.341800  1.0  -0.5063
  O  O44  1  0.297700  0.750000  0.428700  1.0  -0.5146
  O  O45  1  0.880000  0.750000  0.341800  1.0  -0.5076
  O  O46  1  0.702300  0.750000  0.428700  1.0  -0.5146
  O  O47  1  0.620000  0.250000  0.841800  1.0  -0.5063
  O  O48  1  0.797700  0.250000  0.928700  1.0  -0.5146
  O  O49  1  0.620000  0.750000  0.158200  1.0  -0.5043
  O  O50  1  0.797700  0.750000  0.071300  1.0  -0.5144
  O  O51  1  0.880000  0.250000  0.658200  1.0  -0.5052
  O  O52  1  0.702300  0.250000  0.571300  1.0  -0.5152
