# generated using pymatgen
data_ZnH2(C5O4)2
_symmetry_space_group_name_H-M   'P 1'
_cell_length_a   9.57410000
_cell_length_b   14.50440000
_cell_length_c   13.73290000
_cell_angle_alpha   90.00000000
_cell_angle_beta   100.58200000
_cell_angle_gamma   90.00000000
_symmetry_Int_Tables_number   1
_chemical_formula_structural   ZnH2(C5O4)2
_chemical_formula_sum   'Zn4 H8 C40 O32'
_cell_volume   1874.60793208
_cell_formula_units_Z   4
loop_
 _symmetry_equiv_pos_site_id
 _symmetry_equiv_pos_as_xyz
  1  'x, y, z'
loop_
 _atom_site_type_symbol
 _atom_site_label
 _atom_site_symmetry_multiplicity
 _atom_site_fract_x
 _atom_site_fract_y
 _atom_site_fract_z
 _atom_site_occupancy
 _atom_site_charge
  Zn  Zn1  1  0.462320  0.642070  0.360470  1.0  1.078
  Zn  Zn2  1  0.537680  0.142070  0.139530  1.0  1.0784
  Zn  Zn3  1  0.537680  0.357930  0.639530  1.0  1.0788
  Zn  Zn4  1  0.462320  0.857930  0.860470  1.0  1.0783
  H  H5  1  0.928300  0.595500  0.366400  1.0  0.143
  H  H6  1  0.447900  0.941700  0.340400  1.0  0.1528
  H  H7  1  0.071700  0.095500  0.133600  1.0  0.1432
  H  H8  1  0.552100  0.441700  0.159600  1.0  0.152
  H  H9  1  0.071700  0.404500  0.633600  1.0  0.1436
  H  H10  1  0.552100  0.058300  0.659600  1.0  0.1519
  H  H11  1  0.928300  0.904500  0.866400  1.0  0.1434
  H  H12  1  0.447900  0.558300  0.840400  1.0  0.1526
  C  C13  1  0.101900  0.543600  0.454500  1.0  -0.1094
  C  C14  1  0.206500  0.592200  0.401900  1.0  0.7387
  C  C15  1  0.957300  0.556400  0.420000  1.0  -0.0044
  C  C16  1  0.702200  0.528700  0.417000  1.0  0.703
  C  C17  1  0.486400  0.904100  0.484900  1.0  -0.0665
  C  C18  1  0.471900  0.802800  0.466400  1.0  0.7202
  C  C19  1  0.461000  0.117300  0.325100  1.0  0.7003
  C  C20  1  0.469800  0.964900  0.404500  1.0  -0.0096
  C  C21  1  0.855000  0.512800  0.463000  1.0  -0.0387
  C  C22  1  0.485700  0.060400  0.419300  1.0  -0.0081
  C  C23  1  0.898100  0.043600  0.045500  1.0  -0.1082
  C  C24  1  0.793500  0.092200  0.098100  1.0  0.7389
  C  C25  1  0.042700  0.056400  0.080000  1.0  -0.0028
  C  C26  1  0.297800  0.028700  0.083000  1.0  0.7052
  C  C27  1  0.513600  0.404100  0.015100  1.0  -0.0666
  C  C28  1  0.528100  0.302800  0.033600  1.0  0.7201
  C  C29  1  0.539000  0.617300  0.174900  1.0  0.7
  C  C30  1  0.530200  0.464900  0.095500  1.0  -0.0081
  C  C31  1  0.145000  0.012800  0.037000  1.0  -0.0381
  C  C32  1  0.514300  0.560400  0.080700  1.0  -0.008
  C  C33  1  0.898100  0.456400  0.545500  1.0  -0.1084
  C  C34  1  0.793500  0.407800  0.598100  1.0  0.7393
  C  C35  1  0.042700  0.443600  0.580000  1.0  -0.0004
  C  C36  1  0.297800  0.471300  0.583000  1.0  0.705
  C  C37  1  0.513600  0.095900  0.515100  1.0  -0.0658
  C  C38  1  0.528100  0.197200  0.533600  1.0  0.7198
  C  C39  1  0.539000  0.882700  0.674900  1.0  0.702
  C  C40  1  0.530200  0.035100  0.595500  1.0  -0.0085
  C  C41  1  0.145000  0.487200  0.537000  1.0  -0.0382
  C  C42  1  0.514300  0.939600  0.580700  1.0  -0.008
  C  C43  1  0.101900  0.956400  0.954500  1.0  -0.1094
  C  C44  1  0.206500  0.907800  0.901900  1.0  0.7389
  C  C45  1  0.957300  0.943600  0.920000  1.0  -0.0025
  C  C46  1  0.702200  0.971300  0.917000  1.0  0.7026
  C  C47  1  0.486400  0.595900  0.984900  1.0  -0.0659
  C  C48  1  0.471900  0.697200  0.966400  1.0  0.7199
  C  C49  1  0.461000  0.382700  0.825100  1.0  0.7019
  C  C50  1  0.469800  0.535100  0.904500  1.0  -0.0095
  C  C51  1  0.855000  0.987200  0.963000  1.0  -0.039
  C  C52  1  0.485700  0.439600  0.919300  1.0  -0.0081
  O  O53  1  0.458700  0.777850  0.374000  1.0  -0.5479
  O  O54  1  0.568200  0.119700  0.282700  1.0  -0.5418
  O  O55  1  0.332000  0.560400  0.416700  1.0  -0.5597
  O  O56  1  0.167700  0.657100  0.347100  1.0  -0.4196
  O  O57  1  0.649500  0.605000  0.437900  1.0  -0.5474
  O  O58  1  0.343100  0.149500  0.294300  1.0  -0.4305
  O  O59  1  0.636200  0.470300  0.358200  1.0  -0.4997
  O  O60  1  0.472100  0.748900  0.535500  1.0  -0.4599
  O  O61  1  0.541300  0.277850  0.126000  1.0  -0.5457
  O  O62  1  0.431800  0.619700  0.217300  1.0  -0.5426
  O  O63  1  0.668000  0.060400  0.083300  1.0  -0.5586
  O  O64  1  0.832300  0.157100  0.152900  1.0  -0.417
  O  O65  1  0.350500  0.105000  0.062100  1.0  -0.5477
  O  O66  1  0.656900  0.649500  0.205700  1.0  -0.433
  O  O67  1  0.363800  0.970300  0.141800  1.0  -0.4978
  O  O68  1  0.527900  0.248900  0.964500  1.0  -0.461
  O  O69  1  0.541300  0.222150  0.626000  1.0  -0.5462
  O  O70  1  0.431800  0.880300  0.717300  1.0  -0.5424
  O  O71  1  0.668000  0.439600  0.583300  1.0  -0.5595
  O  O72  1  0.832300  0.342900  0.652900  1.0  -0.4162
  O  O73  1  0.350500  0.395000  0.562100  1.0  -0.5472
  O  O74  1  0.656900  0.850500  0.705700  1.0  -0.4327
  O  O75  1  0.363800  0.529700  0.641800  1.0  -0.4979
  O  O76  1  0.527900  0.251100  0.464500  1.0  -0.461
  O  O77  1  0.458700  0.722150  0.874000  1.0  -0.5479
  O  O78  1  0.568200  0.380300  0.782700  1.0  -0.5419
  O  O79  1  0.332000  0.939600  0.916700  1.0  -0.5604
  O  O80  1  0.167700  0.842900  0.847100  1.0  -0.419
  O  O81  1  0.649500  0.895000  0.937900  1.0  -0.5475
  O  O82  1  0.343100  0.350500  0.794300  1.0  -0.4297
  O  O83  1  0.636200  0.029700  0.858200  1.0  -0.4987
  O  O84  1  0.472100  0.751100  0.035500  1.0  -0.4619
