# generated using pymatgen
data_Ga5P5(O5F)4
_symmetry_space_group_name_H-M   'P 1'
_cell_length_a   12.23200000
_cell_length_b   12.26800000
_cell_length_c   16.39200000
_cell_angle_alpha   90.00000000
_cell_angle_beta   90.00000000
_cell_angle_gamma   90.00000000
_symmetry_Int_Tables_number   1
_chemical_formula_structural   Ga5P5(O5F)4
_chemical_formula_sum   'Ga20 P20 O80 F16'
_cell_volume   2459.81918899
_cell_formula_units_Z   4
loop_
 _symmetry_equiv_pos_site_id
 _symmetry_equiv_pos_as_xyz
  1  'x, y, z'
loop_
 _atom_site_type_symbol
 _atom_site_label
 _atom_site_symmetry_multiplicity
 _atom_site_fract_x
 _atom_site_fract_y
 _atom_site_fract_z
 _atom_site_occupancy
 _atom_site_charge
  Ga  Ga1  1  0.172480  0.476350  0.254060  1.0  1.6656
  Ga  Ga2  1  0.133110  0.459790  0.900950  1.0  1.6784
  Ga  Ga3  1  0.327520  0.023650  0.254060  1.0  1.6637
  Ga  Ga4  1  0.366890  0.040210  0.900950  1.0  1.6783
  Ga  Ga5  1  0.827520  0.976350  0.245940  1.0  1.6638
  Ga  Ga6  1  0.866890  0.959790  0.599050  1.0  1.6759
  Ga  Ga7  1  0.672480  0.523650  0.245940  1.0  1.6654
  Ga  Ga8  1  0.633110  0.540210  0.599050  1.0  1.6772
  Ga  Ga9  1  0.827520  0.523650  0.745940  1.0  1.6637
  Ga  Ga10  1  0.866890  0.540210  0.099050  1.0  1.6763
  Ga  Ga11  1  0.672480  0.976350  0.745940  1.0  1.6656
  Ga  Ga12  1  0.633110  0.959790  0.099050  1.0  1.6767
  Ga  Ga13  1  0.172480  0.023650  0.754060  1.0  1.6654
  Ga  Ga14  1  0.133110  0.040210  0.400950  1.0  1.6787
  Ga  Ga15  1  0.327520  0.476350  0.754060  1.0  1.6637
  Ga  Ga16  1  0.366890  0.459790  0.400950  1.0  1.6778
  Ga  Ga17  1  0.250000  0.750000  0.183890  1.0  1.687
  Ga  Ga18  1  0.750000  0.250000  0.316110  1.0  1.6858
  Ga  Ga19  1  0.750000  0.250000  0.816110  1.0  1.6858
  Ga  Ga20  1  0.250000  0.750000  0.683890  1.0  1.687
  P  P21  1  0.125540  0.562490  0.078520  1.0  1.9176
  P  P22  1  0.410650  0.557610  0.237540  1.0  1.8437
  P  P23  1  0.374460  0.937510  0.078520  1.0  1.9168
  P  P24  1  0.089350  0.942390  0.237540  1.0  1.8428
  P  P25  1  0.874460  0.062490  0.421480  1.0  1.9172
  P  P26  1  0.589350  0.057610  0.262460  1.0  1.8447
  P  P27  1  0.625540  0.437510  0.421480  1.0  1.9183
  P  P28  1  0.910650  0.442390  0.262460  1.0  1.8455
  P  P29  1  0.874460  0.437510  0.921480  1.0  1.9173
  P  P30  1  0.589350  0.442390  0.762460  1.0  1.8446
  P  P31  1  0.625540  0.062490  0.921480  1.0  1.9181
  P  P32  1  0.910650  0.057610  0.762460  1.0  1.8456
  P  P33  1  0.125540  0.937510  0.578520  1.0  1.9176
  P  P34  1  0.410650  0.942390  0.737540  1.0  1.8437
  P  P35  1  0.374460  0.562490  0.578520  1.0  1.9167
  P  P36  1  0.089350  0.557610  0.737540  1.0  1.8429
  P  P37  1  0.250000  0.250000  0.321050  1.0  1.8126
  P  P38  1  0.750000  0.750000  0.178950  1.0  1.8124
  P  P39  1  0.750000  0.750000  0.678950  1.0  1.8124
  P  P40  1  0.250000  0.250000  0.821050  1.0  1.8126
  O  O41  1  0.387200  0.669100  0.199400  1.0  -0.7349
  O  O42  1  0.191800  0.663600  0.097200  1.0  -0.7969
  O  O43  1  0.174500  0.513800  0.000000  1.0  -0.873
  O  O44  1  0.520800  0.515200  0.203900  1.0  -0.7463
  O  O45  1  0.324900  0.317100  0.378000  1.0  -0.839
  O  O46  1  0.415100  0.570200  0.331300  1.0  -0.7733
  O  O47  1  0.130600  0.475800  0.144300  1.0  -0.8062
  O  O48  1  0.324900  0.472200  0.217900  1.0  -0.7398
  O  O49  1  0.176500  0.321200  0.268400  1.0  -0.78
  O  O50  1  0.005600  0.597000  0.063300  1.0  -0.7819
  O  O51  1  0.112800  0.830900  0.199400  1.0  -0.7351
  O  O52  1  0.308200  0.836400  0.097200  1.0  -0.7955
  O  O53  1  0.325500  0.986200  0.000000  1.0  -0.8729
  O  O54  1  0.979200  0.984800  0.203900  1.0  -0.7469
  O  O55  1  0.175100  0.182900  0.378000  1.0  -0.8395
  O  O56  1  0.084900  0.929800  0.331300  1.0  -0.7728
  O  O57  1  0.369400  0.024200  0.144300  1.0  -0.8077
  O  O58  1  0.175100  0.027800  0.217900  1.0  -0.7395
  O  O59  1  0.323500  0.178800  0.268400  1.0  -0.7792
  O  O60  1  0.494400  0.903000  0.063300  1.0  -0.7813
  O  O61  1  0.612800  0.169100  0.300600  1.0  -0.7344
  O  O62  1  0.808200  0.163600  0.402800  1.0  -0.7964
  O  O63  1  0.825500  0.013800  0.500000  1.0  -0.874
  O  O64  1  0.479200  0.015200  0.296100  1.0  -0.747
  O  O65  1  0.675100  0.817100  0.122000  1.0  -0.8393
  O  O66  1  0.584900  0.070200  0.168700  1.0  -0.7741
  O  O67  1  0.869400  0.975800  0.355700  1.0  -0.8071
  O  O68  1  0.675100  0.972200  0.282100  1.0  -0.7406
  O  O69  1  0.823500  0.821200  0.231600  1.0  -0.7808
  O  O70  1  0.994400  0.097000  0.436700  1.0  -0.7793
  O  O71  1  0.887200  0.330900  0.300600  1.0  -0.7325
  O  O72  1  0.691800  0.336400  0.402800  1.0  -0.7947
  O  O73  1  0.674500  0.486200  0.500000  1.0  -0.8737
  O  O74  1  0.020800  0.484800  0.296100  1.0  -0.7465
  O  O75  1  0.824900  0.682900  0.122000  1.0  -0.8401
  O  O76  1  0.915100  0.429800  0.168700  1.0  -0.7721
  O  O77  1  0.630600  0.524200  0.355700  1.0  -0.8068
  O  O78  1  0.824900  0.527800  0.282100  1.0  -0.7401
  O  O79  1  0.676500  0.678800  0.231600  1.0  -0.7811
  O  O80  1  0.505600  0.403000  0.436700  1.0  -0.7814
  O  O81  1  0.612800  0.330900  0.800600  1.0  -0.7333
  O  O82  1  0.808200  0.336400  0.902800  1.0  -0.7944
  O  O83  1  0.825500  0.486200  0.000000  1.0  -0.8739
  O  O84  1  0.479200  0.484800  0.796100  1.0  -0.7466
  O  O85  1  0.675100  0.682900  0.622000  1.0  -0.8398
  O  O86  1  0.584900  0.429800  0.668700  1.0  -0.7725
  O  O87  1  0.869400  0.524200  0.855700  1.0  -0.8073
  O  O88  1  0.675100  0.527800  0.782100  1.0  -0.7406
  O  O89  1  0.823500  0.678800  0.731600  1.0  -0.781
  O  O90  1  0.994400  0.403000  0.936700  1.0  -0.7803
  O  O91  1  0.887200  0.169100  0.800600  1.0  -0.7336
  O  O92  1  0.691800  0.163600  0.902800  1.0  -0.7964
  O  O93  1  0.674500  0.013800  0.000000  1.0  -0.874
  O  O94  1  0.020800  0.015200  0.796100  1.0  -0.7466
  O  O95  1  0.824900  0.817100  0.622000  1.0  -0.8389
  O  O96  1  0.915100  0.070200  0.668700  1.0  -0.7737
  O  O97  1  0.630600  0.975800  0.855700  1.0  -0.8064
  O  O98  1  0.824900  0.972200  0.782100  1.0  -0.7404
  O  O99  1  0.676500  0.821200  0.731600  1.0  -0.7809
  O  O100  1  0.505600  0.097000  0.936700  1.0  -0.7803
  O  O101  1  0.387200  0.830900  0.699400  1.0  -0.7344
  O  O102  1  0.191800  0.836400  0.597200  1.0  -0.796
  O  O103  1  0.174500  0.986200  0.500000  1.0  -0.8727
  O  O104  1  0.520800  0.984800  0.703900  1.0  -0.7466
  O  O105  1  0.324900  0.182900  0.878000  1.0  -0.8396
  O  O106  1  0.415100  0.929800  0.831300  1.0  -0.7725
  O  O107  1  0.130600  0.024200  0.644300  1.0  -0.8069
  O  O108  1  0.324900  0.027800  0.717900  1.0  -0.7396
  O  O109  1  0.176500  0.178800  0.768400  1.0  -0.7795
  O  O110  1  0.005600  0.903000  0.563300  1.0  -0.7825
  O  O111  1  0.112800  0.669100  0.699400  1.0  -0.7358
  O  O112  1  0.308200  0.663600  0.597200  1.0  -0.7968
  O  O113  1  0.325500  0.513800  0.500000  1.0  -0.8731
  O  O114  1  0.979200  0.515200  0.703900  1.0  -0.7466
  O  O115  1  0.175100  0.317100  0.878000  1.0  -0.839
  O  O116  1  0.084900  0.570200  0.831300  1.0  -0.7737
  O  O117  1  0.369400  0.475800  0.644300  1.0  -0.8071
  O  O118  1  0.175100  0.472200  0.717900  1.0  -0.7398
  O  O119  1  0.323500  0.321200  0.768400  1.0  -0.7797
  O  O120  1  0.494400  0.597000  0.563300  1.0  -0.7809
  F  F121  1  0.212700  0.494900  0.367100  1.0  -0.4817
  F  F122  1  0.182800  0.641500  0.258500  1.0  -0.4982
  F  F123  1  0.287300  0.005100  0.367100  1.0  -0.4827
  F  F124  1  0.317200  0.858500  0.258500  1.0  -0.4992
  F  F125  1  0.787300  0.994900  0.132900  1.0  -0.4845
  F  F126  1  0.817200  0.141500  0.241500  1.0  -0.4996
  F  F127  1  0.712700  0.505100  0.132900  1.0  -0.4832
  F  F128  1  0.682800  0.358500  0.241500  1.0  -0.5
  F  F129  1  0.787300  0.505100  0.632900  1.0  -0.484
  F  F130  1  0.817200  0.358500  0.741500  1.0  -0.5003
  F  F131  1  0.712700  0.994900  0.632900  1.0  -0.4833
  F  F132  1  0.682800  0.141500  0.741500  1.0  -0.4994
  F  F133  1  0.212700  0.005100  0.867100  1.0  -0.4821
  F  F134  1  0.182800  0.858500  0.758500  1.0  -0.4991
  F  F135  1  0.287300  0.494900  0.867100  1.0  -0.4821
  F  F136  1  0.317200  0.641500  0.758500  1.0  -0.4982
