# generated using pymatgen
data_EuH32C52S4(NO4)4
_symmetry_space_group_name_H-M   'P 1'
_cell_length_a   19.11470000
_cell_length_b   19.11470000
_cell_length_c   21.14950000
_cell_angle_alpha   90.00000000
_cell_angle_beta   90.00000000
_cell_angle_gamma   90.00000000
_symmetry_Int_Tables_number   1
_chemical_formula_structural   EuH32C52S4(NO4)4
_chemical_formula_sum   'Eu4 H128 C208 S16 N16 O64'
_cell_volume   7727.42995543
_cell_formula_units_Z   4
loop_
 _symmetry_equiv_pos_site_id
 _symmetry_equiv_pos_as_xyz
  1  'x, y, z'
loop_
 _atom_site_type_symbol
 _atom_site_label
 _atom_site_symmetry_multiplicity
 _atom_site_fract_x
 _atom_site_fract_y
 _atom_site_fract_z
 _atom_site_occupancy
 _atom_site_charge
  Eu  Eu1  1  0.500000  0.000000  0.250000  1.0  2.1068
  Eu  Eu2  1  0.000000  0.500000  0.750000  1.0  2.1068
  Eu  Eu3  1  0.500000  0.000000  0.750000  1.0  2.1068
  Eu  Eu4  1  0.000000  0.500000  0.250000  1.0  2.1068
  H  H5  1  0.678200  0.784900  0.200600  1.0  0.1409
  H  H6  1  0.566300  0.887300  0.066400  1.0  0.1437
  H  H7  1  0.399700  0.073800  0.369800  1.0  0.106
  H  H8  1  0.358900  0.177200  0.414400  1.0  0.144
  H  H9  1  0.393600  0.282800  0.373200  1.0  0.1461
  H  H10  1  0.465000  0.350500  0.293700  1.0  0.1389
  H  H11  1  0.321800  0.215100  0.200600  1.0  0.1405
  H  H12  1  0.433700  0.112700  0.066400  1.0  0.1438
  H  H13  1  0.600300  0.926200  0.369800  1.0  0.1049
  H  H14  1  0.641100  0.822800  0.414400  1.0  0.1436
  H  H15  1  0.606400  0.717200  0.373200  1.0  0.1452
  H  H16  1  0.535000  0.649500  0.293700  1.0  0.1397
  H  H17  1  0.215100  0.678200  0.700600  1.0  0.1415
  H  H18  1  0.112700  0.566300  0.566400  1.0  0.1436
  H  H19  1  0.926200  0.399700  0.869800  1.0  0.106
  H  H20  1  0.822800  0.358900  0.914400  1.0  0.145
  H  H21  1  0.717200  0.393600  0.873200  1.0  0.1461
  H  H22  1  0.649500  0.465000  0.793700  1.0  0.1392
  H  H23  1  0.784900  0.321800  0.700600  1.0  0.1405
  H  H24  1  0.887300  0.433700  0.566400  1.0  0.1441
  H  H25  1  0.073800  0.600300  0.869800  1.0  0.1053
  H  H26  1  0.177200  0.641100  0.914400  1.0  0.1438
  H  H27  1  0.282800  0.606400  0.873200  1.0  0.1447
  H  H28  1  0.350500  0.535000  0.793700  1.0  0.1392
  H  H29  1  0.321800  0.784900  0.299400  1.0  0.1407
  H  H30  1  0.433700  0.887300  0.433600  1.0  0.1431
  H  H31  1  0.600300  0.073800  0.130200  1.0  0.1052
  H  H32  1  0.641100  0.177200  0.085600  1.0  0.1423
  H  H33  1  0.606400  0.282800  0.126800  1.0  0.1457
  H  H34  1  0.535000  0.350500  0.206300  1.0  0.1392
  H  H35  1  0.678200  0.215100  0.299400  1.0  0.1404
  H  H36  1  0.566300  0.112700  0.433600  1.0  0.1442
  H  H37  1  0.399700  0.926200  0.130200  1.0  0.1053
  H  H38  1  0.358900  0.822800  0.085600  1.0  0.1419
  H  H39  1  0.393600  0.717200  0.126800  1.0  0.1459
  H  H40  1  0.465000  0.649500  0.206300  1.0  0.1396
  H  H41  1  0.784900  0.678200  0.799400  1.0  0.141
  H  H42  1  0.887300  0.566300  0.933600  1.0  0.1438
  H  H43  1  0.073800  0.399700  0.630200  1.0  0.105
  H  H44  1  0.177200  0.358900  0.585600  1.0  0.1425
  H  H45  1  0.282800  0.393600  0.626800  1.0  0.1452
  H  H46  1  0.350500  0.465000  0.706300  1.0  0.1394
  H  H47  1  0.215100  0.321800  0.799400  1.0  0.1415
  H  H48  1  0.112700  0.433700  0.933600  1.0  0.1433
  H  H49  1  0.926200  0.600300  0.630200  1.0  0.1051
  H  H50  1  0.822800  0.641100  0.585600  1.0  0.1435
  H  H51  1  0.717200  0.606400  0.626800  1.0  0.1457
  H  H52  1  0.649500  0.535000  0.706300  1.0  0.1394
  H  H53  1  0.321800  0.215100  0.799400  1.0  0.1402
  H  H54  1  0.433700  0.112700  0.933600  1.0  0.1438
  H  H55  1  0.600300  0.926200  0.630200  1.0  0.1051
  H  H56  1  0.641100  0.822800  0.585600  1.0  0.1424
  H  H57  1  0.606400  0.717200  0.626800  1.0  0.1455
  H  H58  1  0.535000  0.649500  0.706300  1.0  0.1396
  H  H59  1  0.678200  0.784900  0.799400  1.0  0.141
  H  H60  1  0.566300  0.887300  0.933600  1.0  0.1433
  H  H61  1  0.399700  0.073800  0.630200  1.0  0.1053
  H  H62  1  0.358900  0.177200  0.585600  1.0  0.1419
  H  H63  1  0.393600  0.282800  0.626800  1.0  0.146
  H  H64  1  0.465000  0.350500  0.706300  1.0  0.1393
  H  H65  1  0.784900  0.321800  0.299400  1.0  0.1406
  H  H66  1  0.887300  0.433700  0.433600  1.0  0.1441
  H  H67  1  0.073800  0.600300  0.130200  1.0  0.1048
  H  H68  1  0.177200  0.641100  0.085600  1.0  0.1434
  H  H69  1  0.282800  0.606400  0.126800  1.0  0.145
  H  H70  1  0.350500  0.535000  0.206300  1.0  0.1394
  H  H71  1  0.215100  0.678200  0.299400  1.0  0.1416
  H  H72  1  0.112700  0.566300  0.433600  1.0  0.1432
  H  H73  1  0.926200  0.399700  0.130200  1.0  0.1055
  H  H74  1  0.822800  0.358900  0.085600  1.0  0.1426
  H  H75  1  0.717200  0.393600  0.126800  1.0  0.1461
  H  H76  1  0.649500  0.465000  0.206300  1.0  0.1394
  H  H77  1  0.678200  0.215100  0.700600  1.0  0.1405
  H  H78  1  0.566300  0.112700  0.566400  1.0  0.1443
  H  H79  1  0.399700  0.926200  0.869800  1.0  0.106
  H  H80  1  0.358900  0.822800  0.914400  1.0  0.1439
  H  H81  1  0.393600  0.717200  0.873200  1.0  0.1462
  H  H82  1  0.465000  0.649500  0.793700  1.0  0.1397
  H  H83  1  0.321800  0.784900  0.700600  1.0  0.1404
  H  H84  1  0.433700  0.887300  0.566400  1.0  0.1433
  H  H85  1  0.600300  0.073800  0.869800  1.0  0.105
  H  H86  1  0.641100  0.177200  0.914400  1.0  0.1436
  H  H87  1  0.606400  0.282800  0.873200  1.0  0.1451
  H  H88  1  0.535000  0.350500  0.793700  1.0  0.139
  H  H89  1  0.215100  0.321800  0.200600  1.0  0.1416
  H  H90  1  0.112700  0.433700  0.066400  1.0  0.1435
  H  H91  1  0.926200  0.600300  0.369800  1.0  0.1056
  H  H92  1  0.822800  0.641100  0.414400  1.0  0.1437
  H  H93  1  0.717200  0.606400  0.373200  1.0  0.1453
  H  H94  1  0.649500  0.535000  0.293700  1.0  0.1389
  H  H95  1  0.784900  0.678200  0.200600  1.0  0.1409
  H  H96  1  0.887300  0.566300  0.066400  1.0  0.1443
  H  H97  1  0.073800  0.399700  0.369800  1.0  0.1056
  H  H98  1  0.177200  0.358900  0.414400  1.0  0.1452
  H  H99  1  0.282800  0.393600  0.373200  1.0  0.145
  H  H100  1  0.350500  0.465000  0.293700  1.0  0.1393
  H  H101  1  0.616100  0.616100  0.164400  1.0  0.1373
  H  H102  1  0.659900  0.659900  0.215300  1.0  0.1392
  H  H103  1  0.383900  0.383900  0.164400  1.0  0.1358
  H  H104  1  0.340100  0.340100  0.215300  1.0  0.139
  H  H105  1  0.383900  0.616100  0.664400  1.0  0.1365
  H  H106  1  0.340100  0.659900  0.715300  1.0  0.1393
  H  H107  1  0.616100  0.383900  0.664400  1.0  0.1369
  H  H108  1  0.659900  0.340100  0.715300  1.0  0.1389
  H  H109  1  0.383900  0.616100  0.335600  1.0  0.1363
  H  H110  1  0.340100  0.659900  0.284700  1.0  0.1392
  H  H111  1  0.616100  0.383900  0.335600  1.0  0.1368
  H  H112  1  0.659900  0.340100  0.284700  1.0  0.1391
  H  H113  1  0.616100  0.616100  0.835600  1.0  0.1375
  H  H114  1  0.659900  0.659900  0.784700  1.0  0.139
  H  H115  1  0.383900  0.383900  0.835600  1.0  0.1357
  H  H116  1  0.340100  0.340100  0.784700  1.0  0.1392
  H  H117  1  0.484500  0.741000  0.000000  1.0  0.1497
  H  H118  1  0.485200  0.824900  0.000000  1.0  0.1483
  H  H119  1  0.515500  0.259000  0.000000  1.0  0.1489
  H  H120  1  0.514800  0.175100  0.000000  1.0  0.1479
  H  H121  1  0.259000  0.484500  0.500000  1.0  0.1491
  H  H122  1  0.175100  0.485200  0.500000  1.0  0.1472
  H  H123  1  0.741000  0.515500  0.500000  1.0  0.1497
  H  H124  1  0.824900  0.514800  0.500000  1.0  0.1476
  H  H125  1  0.515500  0.741000  0.500000  1.0  0.1491
  H  H126  1  0.514800  0.824900  0.500000  1.0  0.1474
  H  H127  1  0.484500  0.259000  0.500000  1.0  0.1496
  H  H128  1  0.485200  0.175100  0.500000  1.0  0.1474
  H  H129  1  0.741000  0.484500  0.000000  1.0  0.1499
  H  H130  1  0.824900  0.485200  0.000000  1.0  0.1467
  H  H131  1  0.259000  0.515500  0.000000  1.0  0.1493
  H  H132  1  0.175100  0.514800  0.000000  1.0  0.1486
  C  C133  1  0.626700  0.719800  0.140200  1.0  0.0503
  C  C134  1  0.648400  0.783600  0.164600  1.0  -0.0321
  C  C135  1  0.626300  0.846000  0.136400  1.0  -0.2454
  C  C136  1  0.582000  0.844700  0.084500  1.0  -0.0617
  C  C137  1  0.561000  0.782300  0.059400  1.0  0.0422
  C  C138  1  0.583100  0.720000  0.086900  1.0  0.2108
  C  C139  1  0.414000  0.117100  0.351900  1.0  0.1669
  C  C140  1  0.389500  0.178800  0.379100  1.0  -0.1277
  C  C141  1  0.409800  0.240300  0.355000  1.0  -0.0066
  C  C142  1  0.454700  0.241800  0.302900  1.0  -0.0266
  C  C143  1  0.479000  0.307300  0.275400  1.0  -0.1114
  C  C144  1  0.476600  0.178100  0.276500  1.0  0.1419
  C  C145  1  0.373300  0.280200  0.140200  1.0  0.0495
  C  C146  1  0.351600  0.216400  0.164600  1.0  -0.0323
  C  C147  1  0.373700  0.154000  0.136400  1.0  -0.2514
  C  C148  1  0.418000  0.155300  0.084500  1.0  -0.0619
  C  C149  1  0.439000  0.217700  0.059400  1.0  0.0436
  C  C150  1  0.416900  0.280000  0.086900  1.0  0.2105
  C  C151  1  0.586000  0.882900  0.351900  1.0  0.1696
  C  C152  1  0.610500  0.821200  0.379100  1.0  -0.1276
  C  C153  1  0.590200  0.759700  0.355000  1.0  -0.0082
  C  C154  1  0.545300  0.758200  0.302900  1.0  -0.0276
  C  C155  1  0.521000  0.692700  0.275400  1.0  -0.1074
  C  C156  1  0.523400  0.821900  0.276500  1.0  0.1438
  C  C157  1  0.280200  0.626700  0.640200  1.0  0.0506
  C  C158  1  0.216400  0.648400  0.664600  1.0  -0.0326
  C  C159  1  0.154000  0.626300  0.636400  1.0  -0.2475
  C  C160  1  0.155300  0.582000  0.584500  1.0  -0.0599
  C  C161  1  0.217700  0.561000  0.559400  1.0  0.0433
  C  C162  1  0.280000  0.583100  0.586900  1.0  0.2089
  C  C163  1  0.882900  0.414000  0.851900  1.0  0.17
  C  C164  1  0.821200  0.389500  0.879100  1.0  -0.1222
  C  C165  1  0.759700  0.409800  0.855000  1.0  -0.0033
  C  C166  1  0.758200  0.454700  0.802900  1.0  -0.0271
  C  C167  1  0.692700  0.479000  0.775400  1.0  -0.1031
  C  C168  1  0.821900  0.476600  0.776500  1.0  0.1431
  C  C169  1  0.719800  0.373300  0.640200  1.0  0.0497
  C  C170  1  0.783600  0.351600  0.664600  1.0  -0.0319
  C  C171  1  0.846000  0.373700  0.636400  1.0  -0.2397
  C  C172  1  0.844700  0.418000  0.584500  1.0  -0.06
  C  C173  1  0.782300  0.439000  0.559400  1.0  0.0428
  C  C174  1  0.720000  0.416900  0.586900  1.0  0.2096
  C  C175  1  0.117100  0.586000  0.851900  1.0  0.1683
  C  C176  1  0.178800  0.610500  0.879100  1.0  -0.1237
  C  C177  1  0.240300  0.590200  0.855000  1.0  -0.0061
  C  C178  1  0.241800  0.545300  0.802900  1.0  -0.0278
  C  C179  1  0.307300  0.521000  0.775400  1.0  -0.1039
  C  C180  1  0.178100  0.523400  0.776500  1.0  0.1414
  C  C181  1  0.373300  0.719800  0.359800  1.0  0.0499
  C  C182  1  0.351600  0.783600  0.335400  1.0  -0.0317
  C  C183  1  0.373700  0.846000  0.363600  1.0  -0.2501
  C  C184  1  0.418000  0.844700  0.415500  1.0  -0.0617
  C  C185  1  0.439000  0.782300  0.440600  1.0  0.0445
  C  C186  1  0.416900  0.720000  0.413100  1.0  0.2118
  C  C187  1  0.586000  0.117100  0.148100  1.0  0.1693
  C  C188  1  0.610500  0.178800  0.120900  1.0  -0.1267
  C  C189  1  0.590200  0.240300  0.145000  1.0  -0.0039
  C  C190  1  0.545300  0.241800  0.197100  1.0  -0.0271
  C  C191  1  0.521000  0.307300  0.224600  1.0  -0.1087
  C  C192  1  0.523400  0.178100  0.223500  1.0  0.1438
  C  C193  1  0.626700  0.280200  0.359800  1.0  0.0495
  C  C194  1  0.648400  0.216400  0.335400  1.0  -0.0318
  C  C195  1  0.626300  0.154000  0.363600  1.0  -0.2462
  C  C196  1  0.582000  0.155300  0.415500  1.0  -0.0611
  C  C197  1  0.561000  0.217700  0.440600  1.0  0.0438
  C  C198  1  0.583100  0.280000  0.413100  1.0  0.2101
  C  C199  1  0.414000  0.882900  0.148100  1.0  0.1667
  C  C200  1  0.389500  0.821200  0.120900  1.0  -0.1292
  C  C201  1  0.409800  0.759700  0.145000  1.0  -0.0079
  C  C202  1  0.454700  0.758200  0.197100  1.0  -0.0272
  C  C203  1  0.479000  0.692700  0.224600  1.0  -0.1068
  C  C204  1  0.476600  0.821900  0.223500  1.0  0.1435
  C  C205  1  0.719800  0.626700  0.859800  1.0  0.0498
  C  C206  1  0.783600  0.648400  0.835400  1.0  -0.0316
  C  C207  1  0.846000  0.626300  0.863600  1.0  -0.2428
  C  C208  1  0.844700  0.582000  0.915500  1.0  -0.0599
  C  C209  1  0.782300  0.561000  0.940600  1.0  0.0442
  C  C210  1  0.720000  0.583100  0.913100  1.0  0.2098
  C  C211  1  0.117100  0.414000  0.648100  1.0  0.17
  C  C212  1  0.178800  0.389500  0.620900  1.0  -0.1222
  C  C213  1  0.240300  0.409800  0.645000  1.0  -0.0066
  C  C214  1  0.241800  0.454700  0.697100  1.0  -0.0276
  C  C215  1  0.307300  0.479000  0.724600  1.0  -0.1029
  C  C216  1  0.178100  0.476600  0.723500  1.0  0.1422
  C  C217  1  0.280200  0.373300  0.859800  1.0  0.0496
  C  C218  1  0.216400  0.351600  0.835400  1.0  -0.0312
  C  C219  1  0.154000  0.373700  0.863600  1.0  -0.2446
  C  C220  1  0.155300  0.418000  0.915500  1.0  -0.0599
  C  C221  1  0.217700  0.439000  0.940600  1.0  0.0442
  C  C222  1  0.280000  0.416900  0.913100  1.0  0.2089
  C  C223  1  0.882900  0.586000  0.648100  1.0  0.1702
  C  C224  1  0.821200  0.610500  0.620900  1.0  -0.1232
  C  C225  1  0.759700  0.590200  0.645000  1.0  -0.0055
  C  C226  1  0.758200  0.545300  0.697100  1.0  -0.0268
  C  C227  1  0.692700  0.521000  0.724600  1.0  -0.1036
  C  C228  1  0.821900  0.523400  0.723500  1.0  0.143
  C  C229  1  0.373300  0.280200  0.859800  1.0  0.0496
  C  C230  1  0.351600  0.216400  0.835400  1.0  -0.0318
  C  C231  1  0.373700  0.154000  0.863600  1.0  -0.2507
  C  C232  1  0.418000  0.155300  0.915500  1.0  -0.0614
  C  C233  1  0.439000  0.217700  0.940600  1.0  0.0447
  C  C234  1  0.416900  0.280000  0.913100  1.0  0.2101
  C  C235  1  0.586000  0.882900  0.648100  1.0  0.1696
  C  C236  1  0.610500  0.821200  0.620900  1.0  -0.1274
  C  C237  1  0.590200  0.759700  0.645000  1.0  -0.0074
  C  C238  1  0.545300  0.758200  0.697100  1.0  -0.0274
  C  C239  1  0.521000  0.692700  0.724600  1.0  -0.1073
  C  C240  1  0.523400  0.821900  0.723500  1.0  0.1438
  C  C241  1  0.626700  0.719800  0.859800  1.0  0.0499
  C  C242  1  0.648400  0.783600  0.835400  1.0  -0.0318
  C  C243  1  0.626300  0.846000  0.863600  1.0  -0.2454
  C  C244  1  0.582000  0.844700  0.915500  1.0  -0.0618
  C  C245  1  0.561000  0.782300  0.940600  1.0  0.0435
  C  C246  1  0.583100  0.720000  0.913100  1.0  0.2116
  C  C247  1  0.414000  0.117100  0.648100  1.0  0.1671
  C  C248  1  0.389500  0.178800  0.620900  1.0  -0.1291
  C  C249  1  0.409800  0.240300  0.645000  1.0  -0.006
  C  C250  1  0.454700  0.241800  0.697100  1.0  -0.0268
  C  C251  1  0.479000  0.307300  0.724600  1.0  -0.111
  C  C252  1  0.476600  0.178100  0.723500  1.0  0.142
  C  C253  1  0.719800  0.373300  0.359800  1.0  0.0494
  C  C254  1  0.783600  0.351600  0.335400  1.0  -0.0317
  C  C255  1  0.846000  0.373700  0.363600  1.0  -0.2394
  C  C256  1  0.844700  0.418000  0.415500  1.0  -0.0594
  C  C257  1  0.782300  0.439000  0.440600  1.0  0.0441
  C  C258  1  0.720000  0.416900  0.413100  1.0  0.2098
  C  C259  1  0.117100  0.586000  0.148100  1.0  0.1686
  C  C260  1  0.178800  0.610500  0.120900  1.0  -0.1228
  C  C261  1  0.240300  0.590200  0.145000  1.0  -0.0051
  C  C262  1  0.241800  0.545300  0.197100  1.0  -0.0277
  C  C263  1  0.307300  0.521000  0.224600  1.0  -0.1042
  C  C264  1  0.178100  0.523400  0.223500  1.0  0.1414
  C  C265  1  0.280200  0.626700  0.359800  1.0  0.0502
  C  C266  1  0.216400  0.648400  0.335400  1.0  -0.0314
  C  C267  1  0.154000  0.626300  0.363600  1.0  -0.2473
  C  C268  1  0.155300  0.582000  0.415500  1.0  -0.0601
  C  C269  1  0.217700  0.561000  0.440600  1.0  0.0444
  C  C270  1  0.280000  0.583100  0.413100  1.0  0.2091
  C  C271  1  0.882900  0.414000  0.148100  1.0  0.17
  C  C272  1  0.821200  0.389500  0.120900  1.0  -0.1229
  C  C273  1  0.759700  0.409800  0.145000  1.0  -0.0042
  C  C274  1  0.758200  0.454700  0.197100  1.0  -0.0272
  C  C275  1  0.692700  0.479000  0.224600  1.0  -0.1039
  C  C276  1  0.821900  0.476600  0.223500  1.0  0.1429
  C  C277  1  0.626700  0.280200  0.640200  1.0  0.0498
  C  C278  1  0.648400  0.216400  0.664600  1.0  -0.0322
  C  C279  1  0.626300  0.154000  0.636400  1.0  -0.2461
  C  C280  1  0.582000  0.155300  0.584500  1.0  -0.0613
  C  C281  1  0.561000  0.217700  0.559400  1.0  0.0425
  C  C282  1  0.583100  0.280000  0.586900  1.0  0.2104
  C  C283  1  0.414000  0.882900  0.851900  1.0  0.1661
  C  C284  1  0.389500  0.821200  0.879100  1.0  -0.1281
  C  C285  1  0.409800  0.759700  0.855000  1.0  -0.0077
  C  C286  1  0.454700  0.758200  0.802900  1.0  -0.0271
  C  C287  1  0.479000  0.692700  0.775400  1.0  -0.107
  C  C288  1  0.476600  0.821900  0.776500  1.0  0.1433
  C  C289  1  0.373300  0.719800  0.640200  1.0  0.0501
  C  C290  1  0.351600  0.783600  0.664600  1.0  -0.0323
  C  C291  1  0.373700  0.846000  0.636400  1.0  -0.2503
  C  C292  1  0.418000  0.844700  0.584500  1.0  -0.062
  C  C293  1  0.439000  0.782300  0.559400  1.0  0.0434
  C  C294  1  0.416900  0.720000  0.586900  1.0  0.211
  C  C295  1  0.586000  0.117100  0.851900  1.0  0.1695
  C  C296  1  0.610500  0.178800  0.879100  1.0  -0.1263
  C  C297  1  0.590200  0.240300  0.855000  1.0  -0.0051
  C  C298  1  0.545300  0.241800  0.802900  1.0  -0.0272
  C  C299  1  0.521000  0.307300  0.775400  1.0  -0.1089
  C  C300  1  0.523400  0.178100  0.776500  1.0  0.1437
  C  C301  1  0.280200  0.373300  0.140200  1.0  0.0499
  C  C302  1  0.216400  0.351600  0.164600  1.0  -0.0315
  C  C303  1  0.154000  0.373700  0.136400  1.0  -0.2454
  C  C304  1  0.155300  0.418000  0.084500  1.0  -0.0603
  C  C305  1  0.217700  0.439000  0.059400  1.0  0.0431
  C  C306  1  0.280000  0.416900  0.086900  1.0  0.209
  C  C307  1  0.882900  0.586000  0.351900  1.0  0.1695
  C  C308  1  0.821200  0.610500  0.379100  1.0  -0.1236
  C  C309  1  0.759700  0.590200  0.355000  1.0  -0.0059
  C  C310  1  0.758200  0.545300  0.302900  1.0  -0.0263
  C  C311  1  0.692700  0.521000  0.275400  1.0  -0.1032
  C  C312  1  0.821900  0.523400  0.276500  1.0  0.143
  C  C313  1  0.719800  0.626700  0.140200  1.0  0.0503
  C  C314  1  0.783600  0.648400  0.164600  1.0  -0.0328
  C  C315  1  0.846000  0.626300  0.136400  1.0  -0.2428
  C  C316  1  0.844700  0.582000  0.084500  1.0  -0.0595
  C  C317  1  0.782300  0.561000  0.059400  1.0  0.0429
  C  C318  1  0.720000  0.583100  0.086900  1.0  0.2094
  C  C319  1  0.117100  0.414000  0.351900  1.0  0.17
  C  C320  1  0.178800  0.389500  0.379100  1.0  -0.1217
  C  C321  1  0.240300  0.409800  0.355000  1.0  -0.0068
  C  C322  1  0.241800  0.454700  0.302900  1.0  -0.0281
  C  C323  1  0.307300  0.479000  0.275400  1.0  -0.1024
  C  C324  1  0.178100  0.476600  0.276500  1.0  0.1423
  C  C325  1  0.652500  0.652500  0.169400  1.0  -0.2432
  C  C326  1  0.347500  0.347500  0.169400  1.0  -0.243
  C  C327  1  0.347500  0.652500  0.669400  1.0  -0.2435
  C  C328  1  0.652500  0.347500  0.669400  1.0  -0.2428
  C  C329  1  0.347500  0.652500  0.330600  1.0  -0.2431
  C  C330  1  0.652500  0.347500  0.330600  1.0  -0.2422
  C  C331  1  0.652500  0.652500  0.830600  1.0  -0.2424
  C  C332  1  0.347500  0.347500  0.830600  1.0  -0.2429
  C  C333  1  0.515200  0.782700  0.000000  1.0  -0.2213
  C  C334  1  0.484800  0.217300  0.000000  1.0  -0.2206
  C  C335  1  0.217300  0.515200  0.500000  1.0  -0.2238
  C  C336  1  0.782700  0.484800  0.500000  1.0  -0.2232
  C  C337  1  0.484800  0.782700  0.500000  1.0  -0.221
  C  C338  1  0.515200  0.217300  0.500000  1.0  -0.2211
  C  C339  1  0.782700  0.515200  0.000000  1.0  -0.2237
  C  C340  1  0.217300  0.484800  0.000000  1.0  -0.2237
  S  S341  1  0.654030  0.926830  0.167410  1.0  1.4123
  S  S342  1  0.345970  0.073170  0.167410  1.0  1.4134
  S  S343  1  0.073170  0.654030  0.667410  1.0  1.419
  S  S344  1  0.926830  0.345970  0.667410  1.0  1.4167
  S  S345  1  0.345970  0.926830  0.332590  1.0  1.4133
  S  S346  1  0.654030  0.073170  0.332590  1.0  1.4122
  S  S347  1  0.926830  0.654030  0.832590  1.0  1.4171
  S  S348  1  0.073170  0.345970  0.832590  1.0  1.4157
  S  S349  1  0.345970  0.073170  0.832590  1.0  1.4131
  S  S350  1  0.654030  0.926830  0.832590  1.0  1.4112
  S  S351  1  0.926830  0.345970  0.332590  1.0  1.4163
  S  S352  1  0.073170  0.654030  0.332590  1.0  1.4175
  S  S353  1  0.654030  0.073170  0.667410  1.0  1.4133
  S  S354  1  0.345970  0.926830  0.667410  1.0  1.4141
  S  S355  1  0.073170  0.345970  0.167410  1.0  1.4163
  S  S356  1  0.926830  0.654030  0.167410  1.0  1.4183
  N  N357  1  0.456800  0.115800  0.301700  1.0  -0.4233
  N  N358  1  0.543200  0.884200  0.301700  1.0  -0.4267
  N  N359  1  0.884200  0.456800  0.801700  1.0  -0.4237
  N  N360  1  0.115800  0.543200  0.801700  1.0  -0.426
  N  N361  1  0.543200  0.115800  0.198300  1.0  -0.4246
  N  N362  1  0.456800  0.884200  0.198300  1.0  -0.4265
  N  N363  1  0.115800  0.456800  0.698300  1.0  -0.4241
  N  N364  1  0.884200  0.543200  0.698300  1.0  -0.4245
  N  N365  1  0.543200  0.884200  0.698300  1.0  -0.4263
  N  N366  1  0.456800  0.115800  0.698300  1.0  -0.4238
  N  N367  1  0.115800  0.543200  0.198300  1.0  -0.4256
  N  N368  1  0.884200  0.456800  0.198300  1.0  -0.4233
  N  N369  1  0.456800  0.884200  0.801700  1.0  -0.4266
  N  N370  1  0.543200  0.115800  0.801700  1.0  -0.4245
  N  N371  1  0.884200  0.543200  0.301700  1.0  -0.425
  N  N372  1  0.115800  0.456800  0.301700  1.0  -0.4242
  O  O373  1  0.561100  0.657200  0.063060  1.0  -0.549
  O  O374  1  0.691000  0.962800  0.116300  1.0  -0.6012
  O  O375  1  0.589400  0.965000  0.182480  1.0  -0.7262
  O  O376  1  0.695700  0.912500  0.222500  1.0  -0.5252
  O  O377  1  0.438900  0.342800  0.063060  1.0  -0.5485
  O  O378  1  0.309000  0.037200  0.116300  1.0  -0.5997
  O  O379  1  0.410600  0.035000  0.182480  1.0  -0.7274
  O  O380  1  0.304300  0.087500  0.222500  1.0  -0.5214
  O  O381  1  0.342800  0.561100  0.563060  1.0  -0.5494
  O  O382  1  0.037200  0.691000  0.616300  1.0  -0.6074
  O  O383  1  0.035000  0.589400  0.682480  1.0  -0.7261
  O  O384  1  0.087500  0.695700  0.722500  1.0  -0.5209
  O  O385  1  0.657200  0.438900  0.563060  1.0  -0.5511
  O  O386  1  0.962800  0.309000  0.616300  1.0  -0.6045
  O  O387  1  0.965000  0.410600  0.682480  1.0  -0.7256
  O  O388  1  0.912500  0.304300  0.722500  1.0  -0.5216
  O  O389  1  0.438900  0.657200  0.436940  1.0  -0.5486
  O  O390  1  0.309000  0.962800  0.383700  1.0  -0.6008
  O  O391  1  0.410600  0.965000  0.317520  1.0  -0.7271
  O  O392  1  0.304300  0.912500  0.277500  1.0  -0.5212
  O  O393  1  0.561100  0.342800  0.436940  1.0  -0.5493
  O  O394  1  0.691000  0.037200  0.383700  1.0  -0.6014
  O  O395  1  0.589400  0.035000  0.317520  1.0  -0.727
  O  O396  1  0.695700  0.087500  0.277500  1.0  -0.5229
  O  O397  1  0.657200  0.561100  0.936940  1.0  -0.549
  O  O398  1  0.962800  0.691000  0.883700  1.0  -0.6058
  O  O399  1  0.965000  0.589400  0.817520  1.0  -0.726
  O  O400  1  0.912500  0.695700  0.777500  1.0  -0.5202
  O  O401  1  0.342800  0.438900  0.936940  1.0  -0.5487
  O  O402  1  0.037200  0.309000  0.883700  1.0  -0.6053
  O  O403  1  0.035000  0.410600  0.817520  1.0  -0.7259
  O  O404  1  0.087500  0.304300  0.777500  1.0  -0.5224
  O  O405  1  0.438900  0.342800  0.936940  1.0  -0.5479
  O  O406  1  0.309000  0.037200  0.883700  1.0  -0.5994
  O  O407  1  0.410600  0.035000  0.817520  1.0  -0.7272
  O  O408  1  0.304300  0.087500  0.777500  1.0  -0.5216
  O  O409  1  0.561100  0.657200  0.936940  1.0  -0.5476
  O  O410  1  0.691000  0.962800  0.883700  1.0  -0.6027
  O  O411  1  0.589400  0.965000  0.817520  1.0  -0.7263
  O  O412  1  0.695700  0.912500  0.777500  1.0  -0.5223
  O  O413  1  0.657200  0.438900  0.436940  1.0  -0.5493
  O  O414  1  0.962800  0.309000  0.383700  1.0  -0.605
  O  O415  1  0.965000  0.410600  0.317520  1.0  -0.7256
  O  O416  1  0.912500  0.304300  0.277500  1.0  -0.522
  O  O417  1  0.342800  0.561100  0.436940  1.0  -0.5488
  O  O418  1  0.037200  0.691000  0.383700  1.0  -0.6072
  O  O419  1  0.035000  0.589400  0.317520  1.0  -0.726
  O  O420  1  0.087500  0.695700  0.277500  1.0  -0.5208
  O  O421  1  0.561100  0.342800  0.563060  1.0  -0.5499
  O  O422  1  0.691000  0.037200  0.616300  1.0  -0.5995
  O  O423  1  0.589400  0.035000  0.682480  1.0  -0.7273
  O  O424  1  0.695700  0.087500  0.722500  1.0  -0.5248
  O  O425  1  0.438900  0.657200  0.563060  1.0  -0.5499
  O  O426  1  0.309000  0.962800  0.616300  1.0  -0.6004
  O  O427  1  0.410600  0.965000  0.682480  1.0  -0.7273
  O  O428  1  0.304300  0.912500  0.722500  1.0  -0.5218
  O  O429  1  0.342800  0.438900  0.063060  1.0  -0.5482
  O  O430  1  0.037200  0.309000  0.116300  1.0  -0.6038
  O  O431  1  0.035000  0.410600  0.182480  1.0  -0.7255
  O  O432  1  0.087500  0.304300  0.222500  1.0  -0.5215
  O  O433  1  0.657200  0.561100  0.063060  1.0  -0.5517
  O  O434  1  0.962800  0.691000  0.116300  1.0  -0.6069
  O  O435  1  0.965000  0.589400  0.182480  1.0  -0.7261
  O  O436  1  0.912500  0.695700  0.222500  1.0  -0.5207
