# generated using pymatgen
data_CoH3(CO2)3
_symmetry_space_group_name_H-M   'P 1'
_cell_length_a   8.30700000
_cell_length_b   8.38250000
_cell_length_c   8.38250000
_cell_angle_alpha   62.18630000
_cell_angle_beta   60.29760000
_cell_angle_gamma   60.29760000
_symmetry_Int_Tables_number   1
_chemical_formula_structural   CoH3(CO2)3
_chemical_formula_sum   'Co2 H6 C6 O12'
_cell_volume   421.06316177
_cell_formula_units_Z   2
loop_
 _symmetry_equiv_pos_site_id
 _symmetry_equiv_pos_as_xyz
  1  'x, y, z'
loop_
 _atom_site_type_symbol
 _atom_site_label
 _atom_site_symmetry_multiplicity
 _atom_site_fract_x
 _atom_site_fract_y
 _atom_site_fract_z
 _atom_site_occupancy
 _atom_site_charge
  Co  Co1  1  0.000000  0.000000  0.000000  1.0  1.1813
  Co  Co2  1  0.500000  0.500000  0.500000  1.0  1.1813
  H  H3  1  0.299000  0.750000  0.750000  1.0  0.0307
  H  H4  1  0.701000  0.250000  0.250000  1.0  0.0333
  H  H5  1  0.798200  0.701800  0.201800  1.0  0.0006
  H  H6  1  0.201800  0.798200  0.298200  1.0  -0.002
  H  H7  1  0.201800  0.298200  0.798200  1.0  -0.002
  H  H8  1  0.798200  0.201800  0.701800  1.0  0.0006
  C  C9  1  0.187100  0.750000  0.750000  1.0  0.6991
  C  C10  1  0.812900  0.250000  0.250000  1.0  0.699
  C  C11  1  0.718800  0.781200  0.281200  1.0  0.7452
  C  C12  1  0.281200  0.718800  0.218800  1.0  0.7455
  C  C13  1  0.281200  0.218800  0.718800  1.0  0.7455
  C  C14  1  0.718800  0.281200  0.781200  1.0  0.7452
  O  O15  1  0.777100  0.906300  0.234900  1.0  -0.5615
  O  O16  1  0.418300  0.593700  0.265100  1.0  -0.562
  O  O17  1  0.581700  0.734900  0.406300  1.0  -0.5626
  O  O18  1  0.222900  0.765100  0.093700  1.0  -0.5609
  O  O19  1  0.222900  0.093700  0.765100  1.0  -0.5626
  O  O20  1  0.581700  0.406300  0.734900  1.0  -0.5631
  O  O21  1  0.418300  0.265100  0.593700  1.0  -0.5619
  O  O22  1  0.777100  0.234900  0.906300  1.0  -0.5619
  O  O23  1  0.023600  0.843800  0.843800  1.0  -0.5724
  O  O24  1  0.211200  0.656200  0.656200  1.0  -0.5774
  O  O25  1  0.788800  0.343800  0.343800  1.0  -0.5805
  O  O26  1  0.976400  0.156200  0.156200  1.0  -0.5762
