# generated using pymatgen
data_NdH32C52S4(NO4)4
_symmetry_space_group_name_H-M   'P 1'
_cell_length_a   18.93070000
_cell_length_b   18.93070000
_cell_length_c   20.98900000
_cell_angle_alpha   90.00000000
_cell_angle_beta   90.00000000
_cell_angle_gamma   90.00000000
_symmetry_Int_Tables_number   1
_chemical_formula_structural   NdH32C52S4(NO4)4
_chemical_formula_sum   'Nd4 H128 C208 S16 N16 O64'
_cell_volume   7521.85736686
_cell_formula_units_Z   4
loop_
 _symmetry_equiv_pos_site_id
 _symmetry_equiv_pos_as_xyz
  1  'x, y, z'
loop_
 _atom_site_type_symbol
 _atom_site_label
 _atom_site_symmetry_multiplicity
 _atom_site_fract_x
 _atom_site_fract_y
 _atom_site_fract_z
 _atom_site_occupancy
 _atom_site_charge
  Nd  Nd1  1  0.500000  0.000000  0.750000  1.0  2.3044
  Nd  Nd2  1  0.000000  0.500000  0.250000  1.0  2.3044
  Nd  Nd3  1  0.500000  0.000000  0.250000  1.0  2.3044
  Nd  Nd4  1  0.000000  0.500000  0.750000  1.0  2.3044
  H  H5  1  0.322400  0.214100  0.799800  1.0  0.1238
  H  H6  1  0.434400  0.111700  0.934900  1.0  0.1387
  H  H7  1  0.606300  0.921200  0.634700  1.0  0.0878
  H  H8  1  0.648300  0.819500  0.587600  1.0  0.1343
  H  H9  1  0.611100  0.710800  0.627700  1.0  0.1375
  H  H10  1  0.535500  0.642900  0.708600  1.0  0.1217
  H  H11  1  0.677600  0.785900  0.799800  1.0  0.1243
  H  H12  1  0.565600  0.888300  0.934900  1.0  0.138
  H  H13  1  0.393700  0.078800  0.634700  1.0  0.0877
  H  H14  1  0.351700  0.180500  0.587600  1.0  0.1347
  H  H15  1  0.388900  0.289200  0.627700  1.0  0.1376
  H  H16  1  0.464500  0.357100  0.708600  1.0  0.1214
  H  H17  1  0.785900  0.322400  0.299800  1.0  0.1248
  H  H18  1  0.888300  0.434400  0.434900  1.0  0.1386
  H  H19  1  0.078800  0.606300  0.134700  1.0  0.0878
  H  H20  1  0.180500  0.648300  0.087600  1.0  0.1366
  H  H21  1  0.289200  0.611100  0.127700  1.0  0.137
  H  H22  1  0.357100  0.535500  0.208600  1.0  0.1207
  H  H23  1  0.214100  0.677600  0.299800  1.0  0.1245
  H  H24  1  0.111700  0.565600  0.434900  1.0  0.1373
  H  H25  1  0.921200  0.393700  0.134700  1.0  0.0879
  H  H26  1  0.819500  0.351700  0.087600  1.0  0.1354
  H  H27  1  0.710800  0.388900  0.127700  1.0  0.1378
  H  H28  1  0.642900  0.464500  0.208600  1.0  0.1205
  H  H29  1  0.677600  0.214100  0.700200  1.0  0.1242
  H  H30  1  0.565600  0.111700  0.565100  1.0  0.1388
  H  H31  1  0.393700  0.921200  0.865300  1.0  0.0882
  H  H32  1  0.351700  0.819500  0.912400  1.0  0.1368
  H  H33  1  0.388900  0.710800  0.872300  1.0  0.1381
  H  H34  1  0.464500  0.642900  0.791400  1.0  0.1219
  H  H35  1  0.322400  0.785900  0.700200  1.0  0.1235
  H  H36  1  0.434400  0.888300  0.565100  1.0  0.1381
  H  H37  1  0.606300  0.078800  0.865300  1.0  0.0873
  H  H38  1  0.648300  0.180500  0.912400  1.0  0.1358
  H  H39  1  0.611100  0.289200  0.872300  1.0  0.1372
  H  H40  1  0.535500  0.357100  0.791400  1.0  0.1213
  H  H41  1  0.214100  0.322400  0.200200  1.0  0.1256
  H  H42  1  0.111700  0.434400  0.065100  1.0  0.1376
  H  H43  1  0.921200  0.606300  0.365300  1.0  0.087
  H  H44  1  0.819500  0.648300  0.412400  1.0  0.1369
  H  H45  1  0.710800  0.611100  0.372300  1.0  0.1375
  H  H46  1  0.642900  0.535500  0.291400  1.0  0.1205
  H  H47  1  0.785900  0.677600  0.200200  1.0  0.1239
  H  H48  1  0.888300  0.565600  0.065100  1.0  0.1385
  H  H49  1  0.078800  0.393700  0.365300  1.0  0.0882
  H  H50  1  0.180500  0.351700  0.412400  1.0  0.1381
  H  H51  1  0.289200  0.388900  0.372300  1.0  0.1373
  H  H52  1  0.357100  0.464500  0.291400  1.0  0.1209
  H  H53  1  0.677600  0.785900  0.200200  1.0  0.1239
  H  H54  1  0.565600  0.888300  0.065100  1.0  0.1384
  H  H55  1  0.393700  0.078800  0.365300  1.0  0.088
  H  H56  1  0.351700  0.180500  0.412400  1.0  0.137
  H  H57  1  0.388900  0.289200  0.372300  1.0  0.138
  H  H58  1  0.464500  0.357100  0.291400  1.0  0.1214
  H  H59  1  0.322400  0.214100  0.200200  1.0  0.1239
  H  H60  1  0.434400  0.111700  0.065100  1.0  0.1385
  H  H61  1  0.606300  0.921200  0.365300  1.0  0.0874
  H  H62  1  0.648300  0.819500  0.412400  1.0  0.1353
  H  H63  1  0.611100  0.710800  0.372300  1.0  0.1372
  H  H64  1  0.535500  0.642900  0.291400  1.0  0.1221
  H  H65  1  0.214100  0.677600  0.700200  1.0  0.1244
  H  H66  1  0.111700  0.565600  0.565100  1.0  0.1377
  H  H67  1  0.921200  0.393700  0.865300  1.0  0.0875
  H  H68  1  0.819500  0.351700  0.912400  1.0  0.1377
  H  H69  1  0.710800  0.388900  0.872300  1.0  0.1379
  H  H70  1  0.642900  0.464500  0.791400  1.0  0.1206
  H  H71  1  0.785900  0.322400  0.700200  1.0  0.1246
  H  H72  1  0.888300  0.434400  0.565100  1.0  0.1385
  H  H73  1  0.078800  0.606300  0.865300  1.0  0.0877
  H  H74  1  0.180500  0.648300  0.912400  1.0  0.1372
  H  H75  1  0.289200  0.611100  0.872300  1.0  0.1369
  H  H76  1  0.357100  0.535500  0.791400  1.0  0.1207
  H  H77  1  0.322400  0.785900  0.299800  1.0  0.1238
  H  H78  1  0.434400  0.888300  0.434900  1.0  0.1379
  H  H79  1  0.606300  0.078800  0.134700  1.0  0.0879
  H  H80  1  0.648300  0.180500  0.087600  1.0  0.1347
  H  H81  1  0.611100  0.289200  0.127700  1.0  0.1376
  H  H82  1  0.535500  0.357100  0.208600  1.0  0.1213
  H  H83  1  0.677600  0.214100  0.299800  1.0  0.1243
  H  H84  1  0.565600  0.111700  0.434900  1.0  0.1388
  H  H85  1  0.393700  0.921200  0.134700  1.0  0.0882
  H  H86  1  0.351700  0.819500  0.087600  1.0  0.1346
  H  H87  1  0.388900  0.710800  0.127700  1.0  0.1375
  H  H88  1  0.464500  0.642900  0.208600  1.0  0.1214
  H  H89  1  0.785900  0.677600  0.799800  1.0  0.124
  H  H90  1  0.888300  0.565600  0.934900  1.0  0.1382
  H  H91  1  0.078800  0.393700  0.634700  1.0  0.0881
  H  H92  1  0.180500  0.351700  0.587600  1.0  0.1353
  H  H93  1  0.289200  0.388900  0.627700  1.0  0.1371
  H  H94  1  0.357100  0.464500  0.708600  1.0  0.1207
  H  H95  1  0.214100  0.322400  0.799800  1.0  0.1256
  H  H96  1  0.111700  0.434400  0.934900  1.0  0.1375
  H  H97  1  0.921200  0.606300  0.634700  1.0  0.087
  H  H98  1  0.819500  0.648300  0.587600  1.0  0.1366
  H  H99  1  0.710800  0.611100  0.627700  1.0  0.1376
  H  H100  1  0.642900  0.535500  0.708600  1.0  0.1205
  H  H101  1  0.341000  0.341000  0.783900  1.0  0.1238
  H  H102  1  0.385500  0.385500  0.834800  1.0  0.1336
  H  H103  1  0.659000  0.659000  0.783900  1.0  0.1213
  H  H104  1  0.614500  0.614500  0.834800  1.0  0.1349
  H  H105  1  0.659000  0.341000  0.283900  1.0  0.123
  H  H106  1  0.614500  0.385500  0.334800  1.0  0.1346
  H  H107  1  0.341000  0.659000  0.283900  1.0  0.1233
  H  H108  1  0.385500  0.614500  0.334800  1.0  0.1341
  H  H109  1  0.659000  0.341000  0.716100  1.0  0.1227
  H  H110  1  0.614500  0.385500  0.665200  1.0  0.1361
  H  H111  1  0.341000  0.659000  0.716100  1.0  0.1234
  H  H112  1  0.385500  0.614500  0.665200  1.0  0.1359
  H  H113  1  0.341000  0.341000  0.216100  1.0  0.1235
  H  H114  1  0.385500  0.385500  0.165200  1.0  0.135
  H  H115  1  0.659000  0.659000  0.216100  1.0  0.1214
  H  H116  1  0.614500  0.614500  0.165200  1.0  0.1358
  H  H117  1  0.517300  0.173700  0.000000  1.0  0.1396
  H  H118  1  0.519500  0.258400  0.000000  1.0  0.1392
  H  H119  1  0.482700  0.826300  0.000000  1.0  0.14
  H  H120  1  0.480500  0.741600  0.000000  1.0  0.141
  H  H121  1  0.826300  0.517300  0.500000  1.0  0.1382
  H  H122  1  0.741600  0.519500  0.500000  1.0  0.1404
  H  H123  1  0.173700  0.482700  0.500000  1.0  0.1398
  H  H124  1  0.258400  0.480500  0.500000  1.0  0.1391
  H  H125  1  0.482700  0.173700  0.500000  1.0  0.1387
  H  H126  1  0.480500  0.258400  0.500000  1.0  0.1399
  H  H127  1  0.517300  0.826300  0.500000  1.0  0.1393
  H  H128  1  0.519500  0.741600  0.500000  1.0  0.1406
  H  H129  1  0.173700  0.517300  0.000000  1.0  0.1402
  H  H130  1  0.258400  0.519500  0.000000  1.0  0.1383
  H  H131  1  0.826300  0.482700  0.000000  1.0  0.1384
  H  H132  1  0.741600  0.480500  0.000000  1.0  0.1409
  C  C133  1  0.374700  0.281200  0.859500  1.0  0.0741
  C  C134  1  0.352300  0.215700  0.836100  1.0  -0.0284
  C  C135  1  0.372700  0.153400  0.864700  1.0  -0.1535
  C  C136  1  0.418800  0.154700  0.916300  1.0  -0.0805
  C  C137  1  0.441700  0.218100  0.940400  1.0  0.0489
  C  C138  1  0.420000  0.281700  0.913100  1.0  0.1881
  C  C139  1  0.590500  0.877300  0.651400  1.0  0.1687
  C  C140  1  0.616400  0.816800  0.622500  1.0  -0.151
  C  C141  1  0.594600  0.753600  0.646000  1.0  -0.0143
  C  C142  1  0.547300  0.752300  0.697500  1.0  -0.0145
  C  C143  1  0.521000  0.686900  0.726100  1.0  -0.1234
  C  C144  1  0.524100  0.817700  0.722900  1.0  0.1459
  C  C145  1  0.625300  0.718800  0.859500  1.0  0.0745
  C  C146  1  0.647700  0.784300  0.836100  1.0  -0.0304
  C  C147  1  0.627300  0.846600  0.864700  1.0  -0.1588
  C  C148  1  0.581200  0.845300  0.916300  1.0  -0.0819
  C  C149  1  0.558300  0.781900  0.940400  1.0  0.0431
  C  C150  1  0.580000  0.718300  0.913100  1.0  0.1884
  C  C151  1  0.409500  0.122700  0.651400  1.0  0.165
  C  C152  1  0.383600  0.183200  0.622500  1.0  -0.1527
  C  C153  1  0.405400  0.246400  0.646000  1.0  -0.0116
  C  C154  1  0.452700  0.247700  0.697500  1.0  -0.0097
  C  C155  1  0.479000  0.313100  0.726100  1.0  -0.1164
  C  C156  1  0.475900  0.182300  0.722900  1.0  0.1447
  C  C157  1  0.718800  0.374700  0.359500  1.0  0.0741
  C  C158  1  0.784300  0.352300  0.336100  1.0  -0.0312
  C  C159  1  0.846600  0.372700  0.364700  1.0  -0.1468
  C  C160  1  0.845300  0.418800  0.416300  1.0  -0.0793
  C  C161  1  0.781900  0.441700  0.440400  1.0  0.0431
  C  C162  1  0.718300  0.420000  0.413100  1.0  0.1878
  C  C163  1  0.122700  0.590500  0.151400  1.0  0.169
  C  C164  1  0.183200  0.616400  0.122500  1.0  -0.1443
  C  C165  1  0.246400  0.594600  0.146000  1.0  -0.0059
  C  C166  1  0.247700  0.547300  0.197500  1.0  -0.0156
  C  C167  1  0.313100  0.521000  0.226100  1.0  -0.1146
  C  C168  1  0.182300  0.524100  0.222900  1.0  0.1455
  C  C169  1  0.281200  0.625300  0.359500  1.0  0.0752
  C  C170  1  0.215700  0.647700  0.336100  1.0  -0.0308
  C  C171  1  0.153400  0.627300  0.364700  1.0  -0.1542
  C  C172  1  0.154700  0.581200  0.416300  1.0  -0.0809
  C  C173  1  0.218100  0.558300  0.440400  1.0  0.0449
  C  C174  1  0.281700  0.580000  0.413100  1.0  0.1877
  C  C175  1  0.877300  0.409500  0.151400  1.0  0.1699
  C  C176  1  0.816800  0.383600  0.122500  1.0  -0.1461
  C  C177  1  0.753600  0.405400  0.146000  1.0  -0.014
  C  C178  1  0.752300  0.452700  0.197500  1.0  -0.0109
  C  C179  1  0.686900  0.479000  0.226100  1.0  -0.1214
  C  C180  1  0.817700  0.475900  0.222900  1.0  0.1462
  C  C181  1  0.625300  0.281200  0.640500  1.0  0.0747
  C  C182  1  0.647700  0.215700  0.663900  1.0  -0.0303
  C  C183  1  0.627300  0.153400  0.635300  1.0  -0.1586
  C  C184  1  0.581200  0.154700  0.583700  1.0  -0.0817
  C  C185  1  0.558300  0.218100  0.559600  1.0  0.0469
  C  C186  1  0.580000  0.281700  0.586900  1.0  0.1889
  C  C187  1  0.409500  0.877300  0.848600  1.0  0.1656
  C  C188  1  0.383600  0.816800  0.877500  1.0  -0.1535
  C  C189  1  0.405400  0.753600  0.854000  1.0  -0.0181
  C  C190  1  0.452700  0.752300  0.802500  1.0  -0.0094
  C  C191  1  0.479000  0.686900  0.773900  1.0  -0.1224
  C  C192  1  0.475900  0.817700  0.777100  1.0  0.144
  C  C193  1  0.374700  0.718800  0.640500  1.0  0.074
  C  C194  1  0.352300  0.784300  0.663900  1.0  -0.029
  C  C195  1  0.372700  0.846600  0.635300  1.0  -0.1512
  C  C196  1  0.418800  0.845300  0.583700  1.0  -0.0833
  C  C197  1  0.441700  0.781900  0.559600  1.0  0.0429
  C  C198  1  0.420000  0.718300  0.586900  1.0  0.1879
  C  C199  1  0.590500  0.122700  0.848600  1.0  0.1683
  C  C200  1  0.616400  0.183200  0.877500  1.0  -0.1488
  C  C201  1  0.594600  0.246400  0.854000  1.0  -0.0079
  C  C202  1  0.547300  0.247700  0.802500  1.0  -0.0145
  C  C203  1  0.521000  0.313100  0.773900  1.0  -0.1235
  C  C204  1  0.524100  0.182300  0.777100  1.0  0.1464
  C  C205  1  0.281200  0.374700  0.140500  1.0  0.0748
  C  C206  1  0.215700  0.352300  0.163900  1.0  -0.03
  C  C207  1  0.153400  0.372700  0.135300  1.0  -0.1458
  C  C208  1  0.154700  0.418800  0.083700  1.0  -0.0807
  C  C209  1  0.218100  0.441700  0.059600  1.0  0.0479
  C  C210  1  0.281700  0.420000  0.086900  1.0  0.188
  C  C211  1  0.877300  0.590500  0.348600  1.0  0.169
  C  C212  1  0.816800  0.616400  0.377500  1.0  -0.1447
  C  C213  1  0.753600  0.594600  0.354000  1.0  -0.015
  C  C214  1  0.752300  0.547300  0.302500  1.0  -0.0132
  C  C215  1  0.686900  0.521000  0.273900  1.0  -0.122
  C  C216  1  0.817700  0.524100  0.277100  1.0  0.145
  C  C217  1  0.718800  0.625300  0.140500  1.0  0.0745
  C  C218  1  0.784300  0.647700  0.163900  1.0  -0.0318
  C  C219  1  0.846600  0.627300  0.135300  1.0  -0.1538
  C  C220  1  0.845300  0.581200  0.083700  1.0  -0.0801
  C  C221  1  0.781900  0.558300  0.059600  1.0  0.0423
  C  C222  1  0.718300  0.580000  0.086900  1.0  0.1878
  C  C223  1  0.122700  0.409500  0.348600  1.0  0.1701
  C  C224  1  0.183200  0.383600  0.377500  1.0  -0.1464
  C  C225  1  0.246400  0.405400  0.354000  1.0  -0.0087
  C  C226  1  0.247700  0.452700  0.302500  1.0  -0.0149
  C  C227  1  0.313100  0.479000  0.273900  1.0  -0.1153
  C  C228  1  0.182300  0.475900  0.277100  1.0  0.145
  C  C229  1  0.625300  0.718800  0.140500  1.0  0.0751
  C  C230  1  0.647700  0.784300  0.163900  1.0  -0.0302
  C  C231  1  0.627300  0.846600  0.135300  1.0  -0.1583
  C  C232  1  0.581200  0.845300  0.083700  1.0  -0.0827
  C  C233  1  0.558300  0.781900  0.059600  1.0  0.0415
  C  C234  1  0.580000  0.718300  0.086900  1.0  0.1882
  C  C235  1  0.409500  0.122700  0.348600  1.0  0.1654
  C  C236  1  0.383600  0.183200  0.377500  1.0  -0.1522
  C  C237  1  0.405400  0.246400  0.354000  1.0  -0.0107
  C  C238  1  0.452700  0.247700  0.302500  1.0  -0.0089
  C  C239  1  0.479000  0.313100  0.273900  1.0  -0.1169
  C  C240  1  0.475900  0.182300  0.277100  1.0  0.1446
  C  C241  1  0.374700  0.281200  0.140500  1.0  0.0739
  C  C242  1  0.352300  0.215700  0.163900  1.0  -0.0289
  C  C243  1  0.372700  0.153400  0.135300  1.0  -0.1539
  C  C244  1  0.418800  0.154700  0.083700  1.0  -0.083
  C  C245  1  0.441700  0.218100  0.059600  1.0  0.0474
  C  C246  1  0.420000  0.281700  0.086900  1.0  0.1886
  C  C247  1  0.590500  0.877300  0.348600  1.0  0.1686
  C  C248  1  0.616400  0.816800  0.377500  1.0  -0.1514
  C  C249  1  0.594600  0.753600  0.354000  1.0  -0.0148
  C  C250  1  0.547300  0.752300  0.302500  1.0  -0.0143
  C  C251  1  0.521000  0.686900  0.273900  1.0  -0.1239
  C  C252  1  0.524100  0.817700  0.277100  1.0  0.1459
  C  C253  1  0.281200  0.625300  0.640500  1.0  0.0752
  C  C254  1  0.215700  0.647700  0.663900  1.0  -0.0315
  C  C255  1  0.153400  0.627300  0.635300  1.0  -0.1545
  C  C256  1  0.154700  0.581200  0.583700  1.0  -0.0802
  C  C257  1  0.218100  0.558300  0.559600  1.0  0.0421
  C  C258  1  0.281700  0.580000  0.586900  1.0  0.1879
  C  C259  1  0.877300  0.409500  0.848600  1.0  0.17
  C  C260  1  0.816800  0.383600  0.877500  1.0  -0.1467
  C  C261  1  0.753600  0.405400  0.854000  1.0  -0.0136
  C  C262  1  0.752300  0.452700  0.802500  1.0  -0.0104
  C  C263  1  0.686900  0.479000  0.773900  1.0  -0.1212
  C  C264  1  0.817700  0.475900  0.777100  1.0  0.1459
  C  C265  1  0.718800  0.374700  0.640500  1.0  0.074
  C  C266  1  0.784300  0.352300  0.663900  1.0  -0.0309
  C  C267  1  0.846600  0.372700  0.635300  1.0  -0.1454
  C  C268  1  0.845300  0.418800  0.583700  1.0  -0.0775
  C  C269  1  0.781900  0.441700  0.559600  1.0  0.0464
  C  C270  1  0.718300  0.420000  0.586900  1.0  0.1876
  C  C271  1  0.122700  0.590500  0.848600  1.0  0.1687
  C  C272  1  0.183200  0.616400  0.877500  1.0  -0.1451
  C  C273  1  0.246400  0.594600  0.854000  1.0  -0.0071
  C  C274  1  0.247700  0.547300  0.802500  1.0  -0.0151
  C  C275  1  0.313100  0.521000  0.773900  1.0  -0.1155
  C  C276  1  0.182300  0.524100  0.777100  1.0  0.1453
  C  C277  1  0.374700  0.718800  0.359500  1.0  0.0739
  C  C278  1  0.352300  0.784300  0.336100  1.0  -0.0284
  C  C279  1  0.372700  0.846600  0.364700  1.0  -0.1523
  C  C280  1  0.418800  0.845300  0.416300  1.0  -0.0824
  C  C281  1  0.441700  0.781900  0.440400  1.0  0.0436
  C  C282  1  0.420000  0.718300  0.413100  1.0  0.1881
  C  C283  1  0.590500  0.122700  0.151400  1.0  0.1684
  C  C284  1  0.616400  0.183200  0.122500  1.0  -0.1483
  C  C285  1  0.594600  0.246400  0.146000  1.0  -0.0078
  C  C286  1  0.547300  0.247700  0.197500  1.0  -0.015
  C  C287  1  0.521000  0.313100  0.226100  1.0  -0.1232
  C  C288  1  0.524100  0.182300  0.222900  1.0  0.1465
  C  C289  1  0.625300  0.281200  0.359500  1.0  0.0745
  C  C290  1  0.647700  0.215700  0.336100  1.0  -0.0304
  C  C291  1  0.627300  0.153400  0.364700  1.0  -0.1592
  C  C292  1  0.581200  0.154700  0.416300  1.0  -0.0811
  C  C293  1  0.558300  0.218100  0.440400  1.0  0.0481
  C  C294  1  0.580000  0.281700  0.413100  1.0  0.1884
  C  C295  1  0.409500  0.877300  0.151400  1.0  0.1659
  C  C296  1  0.383600  0.816800  0.122500  1.0  -0.1541
  C  C297  1  0.405400  0.753600  0.146000  1.0  -0.0184
  C  C298  1  0.452700  0.752300  0.197500  1.0  -0.0098
  C  C299  1  0.479000  0.686900  0.226100  1.0  -0.1218
  C  C300  1  0.475900  0.817700  0.222900  1.0  0.1442
  C  C301  1  0.718800  0.625300  0.859500  1.0  0.0743
  C  C302  1  0.784300  0.647700  0.836100  1.0  -0.0312
  C  C303  1  0.846600  0.627300  0.864700  1.0  -0.156
  C  C304  1  0.845300  0.581200  0.916300  1.0  -0.079
  C  C305  1  0.781900  0.558300  0.940400  1.0  0.0437
  C  C306  1  0.718300  0.580000  0.913100  1.0  0.188
  C  C307  1  0.122700  0.409500  0.651400  1.0  0.17
  C  C308  1  0.183200  0.383600  0.622500  1.0  -0.1457
  C  C309  1  0.246400  0.405400  0.646000  1.0  -0.0086
  C  C310  1  0.247700  0.452700  0.697500  1.0  -0.0151
  C  C311  1  0.313100  0.479000  0.726100  1.0  -0.1147
  C  C312  1  0.182300  0.475900  0.722900  1.0  0.1452
  C  C313  1  0.281200  0.374700  0.859500  1.0  0.0749
  C  C314  1  0.215700  0.352300  0.836100  1.0  -0.0303
  C  C315  1  0.153400  0.372700  0.864700  1.0  -0.1475
  C  C316  1  0.154700  0.418800  0.916300  1.0  -0.0784
  C  C317  1  0.218100  0.441700  0.940400  1.0  0.0486
  C  C318  1  0.281700  0.420000  0.913100  1.0  0.1876
  C  C319  1  0.877300  0.590500  0.651400  1.0  0.1697
  C  C320  1  0.816800  0.616400  0.622500  1.0  -0.144
  C  C321  1  0.753600  0.594600  0.646000  1.0  -0.0142
  C  C322  1  0.752300  0.547300  0.697500  1.0  -0.0141
  C  C323  1  0.686900  0.521000  0.726100  1.0  -0.1216
  C  C324  1  0.817700  0.524100  0.722900  1.0  0.1452
  C  C325  1  0.348700  0.348700  0.830000  1.0  -0.2378
  C  C326  1  0.651300  0.651300  0.830000  1.0  -0.2382
  C  C327  1  0.651300  0.348700  0.330000  1.0  -0.2377
  C  C328  1  0.348700  0.651300  0.330000  1.0  -0.2382
  C  C329  1  0.651300  0.348700  0.670000  1.0  -0.2381
  C  C330  1  0.348700  0.651300  0.670000  1.0  -0.2386
  C  C331  1  0.348700  0.348700  0.170000  1.0  -0.2378
  C  C332  1  0.651300  0.651300  0.170000  1.0  -0.2389
  C  C333  1  0.487700  0.216900  0.000000  1.0  -0.2233
  C  C334  1  0.512300  0.783100  0.000000  1.0  -0.2243
  C  C335  1  0.783100  0.487700  0.500000  1.0  -0.2259
  C  C336  1  0.216900  0.512300  0.500000  1.0  -0.2275
  C  C337  1  0.512300  0.216900  0.500000  1.0  -0.2241
  C  C338  1  0.487700  0.783100  0.500000  1.0  -0.2237
  C  C339  1  0.216900  0.487700  0.000000  1.0  -0.2264
  C  C340  1  0.783100  0.512300  0.000000  1.0  -0.2272
  S  S341  1  0.343350  0.072570  0.835390  1.0  1.3928
  S  S342  1  0.656650  0.927430  0.835390  1.0  1.3911
  S  S343  1  0.927430  0.343350  0.335390  1.0  1.3976
  S  S344  1  0.072570  0.656650  0.335390  1.0  1.3952
  S  S345  1  0.656650  0.072570  0.664610  1.0  1.3932
  S  S346  1  0.343350  0.927430  0.664610  1.0  1.394
  S  S347  1  0.072570  0.343350  0.164610  1.0  1.3973
  S  S348  1  0.927430  0.656650  0.164610  1.0  1.395
  S  S349  1  0.656650  0.927430  0.164610  1.0  1.3914
  S  S350  1  0.343350  0.072570  0.164610  1.0  1.3931
  S  S351  1  0.072570  0.656650  0.664610  1.0  1.3963
  S  S352  1  0.927430  0.343350  0.664610  1.0  1.3977
  S  S353  1  0.343350  0.927430  0.335390  1.0  1.3936
  S  S354  1  0.656650  0.072570  0.335390  1.0  1.3929
  S  S355  1  0.927430  0.656650  0.835390  1.0  1.3946
  S  S356  1  0.072570  0.343350  0.835390  1.0  1.3971
  N  N357  1  0.546100  0.880200  0.699800  1.0  -0.4126
  N  N358  1  0.453900  0.119800  0.699800  1.0  -0.4114
  N  N359  1  0.119800  0.546100  0.199800  1.0  -0.4098
  N  N360  1  0.880200  0.453900  0.199800  1.0  -0.4092
  N  N361  1  0.453900  0.880200  0.800200  1.0  -0.4133
  N  N362  1  0.546100  0.119800  0.800200  1.0  -0.4135
  N  N363  1  0.880200  0.546100  0.300200  1.0  -0.4103
  N  N364  1  0.119800  0.453900  0.300200  1.0  -0.4094
  N  N365  1  0.453900  0.119800  0.300200  1.0  -0.4115
  N  N366  1  0.546100  0.880200  0.300200  1.0  -0.4139
  N  N367  1  0.880200  0.453900  0.800200  1.0  -0.4098
  N  N368  1  0.119800  0.546100  0.800200  1.0  -0.4105
  N  N369  1  0.546100  0.119800  0.199800  1.0  -0.4128
  N  N370  1  0.453900  0.880200  0.199800  1.0  -0.4124
  N  N371  1  0.119800  0.453900  0.699800  1.0  -0.4089
  N  N372  1  0.880200  0.546100  0.699800  1.0  -0.4099
  O  O373  1  0.443600  0.344500  0.936700  1.0  -0.5637
  O  O374  1  0.307100  0.038000  0.887100  1.0  -0.61
  O  O375  1  0.408500  0.034400  0.818930  1.0  -0.7164
  O  O376  1  0.300700  0.086900  0.780300  1.0  -0.5088
  O  O377  1  0.556400  0.655500  0.936700  1.0  -0.5621
  O  O378  1  0.692900  0.962000  0.887100  1.0  -0.6117
  O  O379  1  0.591500  0.965600  0.818930  1.0  -0.7166
  O  O380  1  0.699300  0.913100  0.780300  1.0  -0.5099
  O  O381  1  0.655500  0.443600  0.436700  1.0  -0.5638
  O  O382  1  0.962000  0.307100  0.387100  1.0  -0.6163
  O  O383  1  0.965600  0.408500  0.318930  1.0  -0.7159
  O  O384  1  0.913100  0.300700  0.280300  1.0  -0.5127
  O  O385  1  0.344500  0.556400  0.436700  1.0  -0.5636
  O  O386  1  0.038000  0.692900  0.387100  1.0  -0.6182
  O  O387  1  0.034400  0.591500  0.318930  1.0  -0.7173
  O  O388  1  0.086900  0.699300  0.280300  1.0  -0.5135
  O  O389  1  0.556400  0.344500  0.563300  1.0  -0.5652
  O  O390  1  0.692900  0.038000  0.612900  1.0  -0.6078
  O  O391  1  0.591500  0.034400  0.681070  1.0  -0.7175
  O  O392  1  0.699300  0.086900  0.719700  1.0  -0.5124
  O  O393  1  0.443600  0.655500  0.563300  1.0  -0.5634
  O  O394  1  0.307100  0.962000  0.612900  1.0  -0.6111
  O  O395  1  0.408500  0.965600  0.681070  1.0  -0.7166
  O  O396  1  0.300700  0.913100  0.719700  1.0  -0.5089
  O  O397  1  0.344500  0.443600  0.063300  1.0  -0.5623
  O  O398  1  0.038000  0.307100  0.112900  1.0  -0.6149
  O  O399  1  0.034400  0.408500  0.181070  1.0  -0.716
  O  O400  1  0.086900  0.300700  0.219700  1.0  -0.5128
  O  O401  1  0.655500  0.556400  0.063300  1.0  -0.5645
  O  O402  1  0.962000  0.692900  0.112900  1.0  -0.6172
  O  O403  1  0.965600  0.591500  0.181070  1.0  -0.7173
  O  O404  1  0.913100  0.699300  0.219700  1.0  -0.5123
  O  O405  1  0.556400  0.655500  0.063300  1.0  -0.5626
  O  O406  1  0.692900  0.962000  0.112900  1.0  -0.6101
  O  O407  1  0.591500  0.965600  0.181070  1.0  -0.7162
  O  O408  1  0.699300  0.913100  0.219700  1.0  -0.5124
  O  O409  1  0.443600  0.344500  0.063300  1.0  -0.5633
  O  O410  1  0.307100  0.038000  0.112900  1.0  -0.61
  O  O411  1  0.408500  0.034400  0.181070  1.0  -0.7169
  O  O412  1  0.300700  0.086900  0.219700  1.0  -0.5084
  O  O413  1  0.344500  0.556400  0.563300  1.0  -0.5633
  O  O414  1  0.038000  0.692900  0.612900  1.0  -0.618
  O  O415  1  0.034400  0.591500  0.681070  1.0  -0.7171
  O  O416  1  0.086900  0.699300  0.719700  1.0  -0.5129
  O  O417  1  0.655500  0.443600  0.563300  1.0  -0.5639
  O  O418  1  0.962000  0.307100  0.612900  1.0  -0.6152
  O  O419  1  0.965600  0.408500  0.681070  1.0  -0.7162
  O  O420  1  0.913100  0.300700  0.719700  1.0  -0.5128
  O  O421  1  0.443600  0.655500  0.436700  1.0  -0.5628
  O  O422  1  0.307100  0.962000  0.387100  1.0  -0.6119
  O  O423  1  0.408500  0.965600  0.318930  1.0  -0.7161
  O  O424  1  0.300700  0.913100  0.280300  1.0  -0.5091
  O  O425  1  0.556400  0.344500  0.436700  1.0  -0.5656
  O  O426  1  0.692900  0.038000  0.387100  1.0  -0.6099
  O  O427  1  0.591500  0.034400  0.318930  1.0  -0.7172
  O  O428  1  0.699300  0.086900  0.280300  1.0  -0.5104
  O  O429  1  0.655500  0.556400  0.936700  1.0  -0.5634
  O  O430  1  0.962000  0.692900  0.887100  1.0  -0.6162
  O  O431  1  0.965600  0.591500  0.818930  1.0  -0.7173
  O  O432  1  0.913100  0.699300  0.780300  1.0  -0.5123
  O  O433  1  0.344500  0.443600  0.936700  1.0  -0.5635
  O  O434  1  0.038000  0.307100  0.887100  1.0  -0.617
  O  O435  1  0.034400  0.408500  0.818930  1.0  -0.7159
  O  O436  1  0.086900  0.300700  0.780300  1.0  -0.5132
