# generated using pymatgen
data_GdCu6H56C33N17O8
_symmetry_space_group_name_H-M   'P 1'
_cell_length_a   15.06990000
_cell_length_b   15.70020000
_cell_length_c   27.24800000
_cell_angle_alpha   90.00000000
_cell_angle_beta   101.91000000
_cell_angle_gamma   90.00000000
_symmetry_Int_Tables_number   1
_chemical_formula_structural   GdCu6H56C33N17O8
_chemical_formula_sum   'Gd4 Cu24 H224 C132 N68 O32'
_cell_volume   6308.10659635
_cell_formula_units_Z   4
loop_
 _symmetry_equiv_pos_site_id
 _symmetry_equiv_pos_as_xyz
  1  'x, y, z'
loop_
 _atom_site_type_symbol
 _atom_site_label
 _atom_site_symmetry_multiplicity
 _atom_site_fract_x
 _atom_site_fract_y
 _atom_site_fract_z
 _atom_site_occupancy
 _atom_site_charge
  Gd  Gd1  1  0.718430  0.616940  0.627310  1.0  2.1231
  Gd  Gd2  1  0.281570  0.116940  0.872690  1.0  2.1213
  Gd  Gd3  1  0.281570  0.383060  0.372690  1.0  2.1215
  Gd  Gd4  1  0.718430  0.883060  0.127310  1.0  2.1234
  Cu  Cu5  1  0.424660  0.192240  0.665920  1.0  0.5134
  Cu  Cu6  1  0.231510  0.934660  0.653300  1.0  0.4733
  Cu  Cu7  1  0.971360  0.024640  0.726150  1.0  0.4655
  Cu  Cu8  1  0.731000  0.199590  0.622840  1.0  0.4202
  Cu  Cu9  1  0.224500  0.444540  0.656130  1.0  0.4827
  Cu  Cu10  1  0.245660  0.682700  0.541860  1.0  0.466
  Cu  Cu11  1  0.575340  0.692240  0.834080  1.0  0.5136
  Cu  Cu12  1  0.768490  0.434660  0.846700  1.0  0.475
  Cu  Cu13  1  0.028640  0.524640  0.773850  1.0  0.4672
  Cu  Cu14  1  0.269000  0.699590  0.877160  1.0  0.4176
  Cu  Cu15  1  0.775500  0.944540  0.843870  1.0  0.4837
  Cu  Cu16  1  0.754340  0.182700  0.958140  1.0  0.4657
  Cu  Cu17  1  0.575340  0.807760  0.334080  1.0  0.5125
  Cu  Cu18  1  0.768490  0.065340  0.346700  1.0  0.4718
  Cu  Cu19  1  0.028640  0.975360  0.273850  1.0  0.4675
  Cu  Cu20  1  0.269000  0.800410  0.377160  1.0  0.4183
  Cu  Cu21  1  0.775500  0.555460  0.343870  1.0  0.4837
  Cu  Cu22  1  0.754340  0.317300  0.458140  1.0  0.4668
  Cu  Cu23  1  0.424660  0.307760  0.165920  1.0  0.5124
  Cu  Cu24  1  0.231510  0.565340  0.153300  1.0  0.4765
  Cu  Cu25  1  0.971360  0.475360  0.226150  1.0  0.4659
  Cu  Cu26  1  0.731000  0.300410  0.122840  1.0  0.4206
  Cu  Cu27  1  0.224500  0.055460  0.156130  1.0  0.4828
  Cu  Cu28  1  0.245660  0.817300  0.041860  1.0  0.4674
  H  H29  1  0.952200  0.633300  0.677100  1.0  0.0843
  H  H30  1  0.064000  0.767300  0.583600  1.0  0.1071
  H  H31  1  0.990200  0.698500  0.558400  1.0  0.0882
  H  H32  1  0.958500  0.784300  0.581500  1.0  0.0975
  H  H33  1  0.142900  0.735600  0.651500  1.0  0.094
  H  H34  1  0.094100  0.731800  0.698300  1.0  0.066
  H  H35  1  0.124200  0.645600  0.675000  1.0  0.0916
  H  H36  1  0.689100  0.774900  0.534800  1.0  0.0593
  H  H37  1  0.829400  0.694100  0.436200  1.0  0.0832
  H  H38  1  0.853300  0.651600  0.490700  1.0  0.0902
  H  H39  1  0.761700  0.626100  0.452400  1.0  0.0952
  H  H40  1  0.787000  0.820600  0.432000  1.0  0.081
  H  H41  1  0.690000  0.839000  0.445100  1.0  0.0975
  H  H42  1  0.780600  0.867000  0.483400  1.0  0.0916
  H  H43  1  0.825000  0.510400  0.542900  1.0  0.0274
  H  H44  1  0.980400  0.337600  0.623300  1.0  0.094
  H  H45  1  0.942700  0.411000  0.654300  1.0  0.1028
  H  H46  1  0.875900  0.338200  0.627200  1.0  0.1015
  H  H47  1  0.007400  0.370200  0.554000  1.0  0.0656
  H  H48  1  0.921700  0.393700  0.510800  1.0  0.0785
  H  H49  1  0.989800  0.467000  0.536200  1.0  0.0729
  H  H50  1  0.633000  0.432400  0.570800  1.0  0.062
  H  H51  1  0.366100  0.436200  0.546500  1.0  0.088
  H  H52  1  0.417300  0.497500  0.590200  1.0  0.0841
  H  H53  1  0.412200  0.522300  0.532700  1.0  0.0785
  H  H54  1  0.429000  0.323400  0.536900  1.0  0.0955
  H  H55  1  0.518900  0.329600  0.514500  1.0  0.095
  H  H56  1  0.525900  0.305600  0.572300  1.0  0.089
  H  H57  1  0.789700  0.428400  0.698300  1.0  0.0413
  H  H58  1  0.573200  0.332800  0.737000  1.0  0.0794
  H  H59  1  0.582900  0.434300  0.738500  1.0  0.0938
  H  H60  1  0.555500  0.386200  0.685800  1.0  0.0879
  H  H61  1  0.695400  0.262900  0.754300  1.0  0.0796
  H  H62  1  0.764800  0.271200  0.717400  1.0  0.081
  H  H63  1  0.784400  0.320400  0.769900  1.0  0.094
  H  H64  1  0.581900  0.578900  0.713800  1.0  0.0653
  H  H65  1  0.357000  0.604000  0.722900  1.0  0.1015
  H  H66  1  0.418400  0.523600  0.715800  1.0  0.1017
  H  H67  1  0.451800  0.588800  0.761000  1.0  0.097
  H  H68  1  0.351300  0.694300  0.668900  1.0  0.0859
  H  H69  1  0.439800  0.749000  0.666200  1.0  0.1072
  H  H70  1  0.407900  0.674100  0.626700  1.0  0.0907
  H  H71  1  0.774000  0.610900  0.766800  1.0  0.0671
  H  H72  1  0.957000  0.794200  0.794200  1.0  0.085
  H  H73  1  0.958900  0.737200  0.745700  1.0  0.0972
  H  H74  1  0.880000  0.805900  0.744600  1.0  0.09
  H  H75  1  0.919700  0.735100  0.854500  1.0  0.1029
  H  H76  1  0.817500  0.701700  0.847800  1.0  0.1012
  H  H77  1  0.898400  0.635300  0.848600  1.0  0.1049
  H  H78  1  0.631400  0.807700  0.666667  1.0  0.0403
  H  H79  1  0.716800  0.011600  0.693600  1.0  0.095
  H  H80  1  0.617600  0.971600  0.675700  1.0  0.0963
  H  H81  1  0.684000  0.935900  0.725000  1.0  0.0875
  H  H82  1  0.813400  0.978800  0.650500  1.0  0.0914
  H  H83  1  0.844100  0.881100  0.651100  1.0  0.0937
  H  H84  1  0.776600  0.919300  0.602900  1.0  0.0893
  H  H85  1  0.047800  0.133300  0.822900  1.0  0.0818
  H  H86  1  0.936000  0.267300  0.916400  1.0  0.1074
  H  H87  1  0.009800  0.198500  0.941600  1.0  0.0892
  H  H88  1  0.041500  0.284300  0.918500  1.0  0.0961
  H  H89  1  0.857100  0.235600  0.848500  1.0  0.0927
  H  H90  1  0.905900  0.231800  0.801700  1.0  0.0666
  H  H91  1  0.875800  0.145600  0.825000  1.0  0.0919
  H  H92  1  0.310900  0.274900  0.965200  1.0  0.0599
  H  H93  1  0.170600  0.194100  0.063800  1.0  0.0829
  H  H94  1  0.146700  0.151600  0.009300  1.0  0.0898
  H  H95  1  0.238300  0.126100  0.047600  1.0  0.0949
  H  H96  1  0.213000  0.320600  0.068000  1.0  0.082
  H  H97  1  0.310000  0.339000  0.054900  1.0  0.0967
  H  H98  1  0.219400  0.367000  0.016600  1.0  0.0938
  H  H99  1  0.175000  0.010400  0.957100  1.0  0.0274
  H  H100  1  0.019600  0.837600  0.876700  1.0  0.0962
  H  H101  1  0.057300  0.911000  0.845700  1.0  0.1006
  H  H102  1  0.124100  0.838200  0.872800  1.0  0.1015
  H  H103  1  0.992600  0.870200  0.946000  1.0  0.0662
  H  H104  1  0.078300  0.893700  0.989200  1.0  0.0791
  H  H105  1  0.010200  0.967000  0.963800  1.0  0.0727
  H  H106  1  0.367000  0.932400  0.929200  1.0  0.0612
  H  H107  1  0.633900  0.936200  0.953500  1.0  0.0876
  H  H108  1  0.582700  0.997500  0.909800  1.0  0.0858
  H  H109  1  0.587800  0.022300  0.967300  1.0  0.0793
  H  H110  1  0.571000  0.823400  0.963100  1.0  0.0964
  H  H111  1  0.481100  0.829600  0.985500  1.0  0.0957
  H  H112  1  0.474100  0.805600  0.927700  1.0  0.088
  H  H113  1  0.210300  0.928400  0.801700  1.0  0.0409
  H  H114  1  0.426800  0.832800  0.763000  1.0  0.079
  H  H115  1  0.417100  0.934300  0.761500  1.0  0.0946
  H  H116  1  0.444500  0.886200  0.814200  1.0  0.0891
  H  H117  1  0.304600  0.762900  0.745700  1.0  0.0792
  H  H118  1  0.235200  0.771200  0.782600  1.0  0.0815
  H  H119  1  0.215600  0.820400  0.730100  1.0  0.0936
  H  H120  1  0.418100  0.078900  0.786200  1.0  0.065
  H  H121  1  0.643000  0.104000  0.777100  1.0  0.1027
  H  H122  1  0.581600  0.023600  0.784200  1.0  0.1014
  H  H123  1  0.548200  0.088800  0.739000  1.0  0.0953
  H  H124  1  0.648700  0.194300  0.831100  1.0  0.0848
  H  H125  1  0.560200  0.249000  0.833800  1.0  0.1066
  H  H126  1  0.592100  0.174100  0.873300  1.0  0.09
  H  H127  1  0.226000  0.110900  0.733200  1.0  0.0664
  H  H128  1  0.043000  0.294200  0.705800  1.0  0.0843
  H  H129  1  0.041100  0.237200  0.754300  1.0  0.097
  H  H130  1  0.120000  0.305900  0.755400  1.0  0.0891
  H  H131  1  0.080300  0.235100  0.645500  1.0  0.1037
  H  H132  1  0.182500  0.201700  0.652200  1.0  0.1034
  H  H133  1  0.101600  0.135300  0.651400  1.0  0.1032
  H  H134  1  0.368600  0.307700  0.833400  1.0  0.0415
  H  H135  1  0.283200  0.511600  0.806400  1.0  0.0962
  H  H136  1  0.382400  0.471600  0.824300  1.0  0.096
  H  H137  1  0.316000  0.435900  0.775000  1.0  0.0877
  H  H138  1  0.186600  0.478800  0.849500  1.0  0.0911
  H  H139  1  0.155900  0.381100  0.848900  1.0  0.0921
  H  H140  1  0.223400  0.419300  0.897100  1.0  0.0901
  H  H141  1  0.047800  0.366700  0.322900  1.0  0.0824
  H  H142  1  0.936000  0.232700  0.416400  1.0  0.1072
  H  H143  1  0.009800  0.301500  0.441600  1.0  0.0894
  H  H144  1  0.041500  0.215700  0.418500  1.0  0.0967
  H  H145  1  0.857100  0.264400  0.348500  1.0  0.0942
  H  H146  1  0.905900  0.268200  0.301700  1.0  0.0667
  H  H147  1  0.875800  0.354400  0.325000  1.0  0.0925
  H  H148  1  0.310900  0.225100  0.465200  1.0  0.0599
  H  H149  1  0.170600  0.305900  0.563800  1.0  0.083
  H  H150  1  0.146700  0.348400  0.509300  1.0  0.0895
  H  H151  1  0.238300  0.373900  0.547600  1.0  0.0952
  H  H152  1  0.213000  0.179400  0.568000  1.0  0.082
  H  H153  1  0.310000  0.161000  0.554900  1.0  0.0963
  H  H154  1  0.219400  0.133000  0.516600  1.0  0.0907
  H  H155  1  0.175000  0.489600  0.457100  1.0  0.0279
  H  H156  1  0.019600  0.662400  0.376700  1.0  0.096
  H  H157  1  0.057300  0.589000  0.345700  1.0  0.0999
  H  H158  1  0.124100  0.661800  0.372800  1.0  0.1017
  H  H159  1  0.992600  0.629800  0.446000  1.0  0.0673
  H  H160  1  0.078300  0.606300  0.489200  1.0  0.08
  H  H161  1  0.010200  0.533000  0.463800  1.0  0.0722
  H  H162  1  0.367000  0.567600  0.429200  1.0  0.0613
  H  H163  1  0.633900  0.563800  0.453500  1.0  0.0883
  H  H164  1  0.582700  0.502500  0.409800  1.0  0.0852
  H  H165  1  0.587800  0.477700  0.467300  1.0  0.0793
  H  H166  1  0.571000  0.676600  0.463100  1.0  0.0955
  H  H167  1  0.481100  0.670400  0.485500  1.0  0.0952
  H  H168  1  0.474100  0.694400  0.427700  1.0  0.089
  H  H169  1  0.210300  0.571600  0.301700  1.0  0.041
  H  H170  1  0.426800  0.667200  0.263000  1.0  0.0796
  H  H171  1  0.417100  0.565700  0.261500  1.0  0.0936
  H  H172  1  0.444500  0.613800  0.314200  1.0  0.0884
  H  H173  1  0.304600  0.737100  0.245700  1.0  0.0796
  H  H174  1  0.235200  0.728800  0.282600  1.0  0.0813
  H  H175  1  0.215600  0.679600  0.230100  1.0  0.0929
  H  H176  1  0.418100  0.421100  0.286200  1.0  0.065
  H  H177  1  0.643000  0.396000  0.277100  1.0  0.1027
  H  H178  1  0.581600  0.476400  0.284200  1.0  0.1033
  H  H179  1  0.548200  0.411200  0.239000  1.0  0.096
  H  H180  1  0.648700  0.305700  0.331100  1.0  0.0844
  H  H181  1  0.560200  0.251000  0.333800  1.0  0.106
  H  H182  1  0.592100  0.325900  0.373300  1.0  0.0904
  H  H183  1  0.226000  0.389100  0.233200  1.0  0.0666
  H  H184  1  0.043000  0.205800  0.205800  1.0  0.0843
  H  H185  1  0.041100  0.262800  0.254300  1.0  0.097
  H  H186  1  0.120000  0.194100  0.255400  1.0  0.0895
  H  H187  1  0.080300  0.264900  0.145500  1.0  0.1034
  H  H188  1  0.182500  0.298300  0.152200  1.0  0.1035
  H  H189  1  0.101600  0.364700  0.151400  1.0  0.1071
  H  H190  1  0.368600  0.192300  0.333400  1.0  0.0414
  H  H191  1  0.283200  0.988400  0.306400  1.0  0.0955
  H  H192  1  0.382400  0.028400  0.324300  1.0  0.0957
  H  H193  1  0.316000  0.064100  0.275000  1.0  0.087
  H  H194  1  0.186600  0.021200  0.349500  1.0  0.0909
  H  H195  1  0.155900  0.118900  0.348900  1.0  0.092
  H  H196  1  0.223400  0.080700  0.397100  1.0  0.0902
  H  H197  1  0.952200  0.866700  0.177100  1.0  0.0841
  H  H198  1  0.064000  0.732700  0.083600  1.0  0.1068
  H  H199  1  0.990200  0.801500  0.058400  1.0  0.088
  H  H200  1  0.958500  0.715700  0.081500  1.0  0.0969
  H  H201  1  0.142900  0.764400  0.151500  1.0  0.0927
  H  H202  1  0.094100  0.768200  0.198300  1.0  0.0657
  H  H203  1  0.124200  0.854400  0.175000  1.0  0.0924
  H  H204  1  0.689100  0.725100  0.034800  1.0  0.0599
  H  H205  1  0.829400  0.805900  0.936200  1.0  0.0831
  H  H206  1  0.853300  0.848400  0.990700  1.0  0.09
  H  H207  1  0.761700  0.873900  0.952400  1.0  0.0955
  H  H208  1  0.787000  0.679400  0.932000  1.0  0.0809
  H  H209  1  0.690000  0.661000  0.945100  1.0  0.0971
  H  H210  1  0.780600  0.633000  0.983400  1.0  0.0914
  H  H211  1  0.825000  0.989600  0.042900  1.0  0.0277
  H  H212  1  0.980400  0.162400  0.123300  1.0  0.0947
  H  H213  1  0.942700  0.089000  0.154300  1.0  0.1029
  H  H214  1  0.875900  0.161800  0.127200  1.0  0.1014
  H  H215  1  0.007400  0.129800  0.054000  1.0  0.067
  H  H216  1  0.921700  0.106300  0.010800  1.0  0.0795
  H  H217  1  0.989800  0.033000  0.036200  1.0  0.0725
  H  H218  1  0.633000  0.067600  0.070800  1.0  0.0619
  H  H219  1  0.366100  0.063800  0.046500  1.0  0.0884
  H  H220  1  0.417300  0.002500  0.090200  1.0  0.0834
  H  H221  1  0.412200  0.977700  0.032700  1.0  0.0771
  H  H222  1  0.429000  0.176600  0.036900  1.0  0.0949
  H  H223  1  0.518900  0.170400  0.014500  1.0  0.0958
  H  H224  1  0.525900  0.194400  0.072300  1.0  0.0895
  H  H225  1  0.789700  0.071600  0.198300  1.0  0.0415
  H  H226  1  0.573200  0.167200  0.237000  1.0  0.0792
  H  H227  1  0.582900  0.065700  0.238500  1.0  0.0942
  H  H228  1  0.555500  0.113800  0.185800  1.0  0.0879
  H  H229  1  0.695400  0.237100  0.254300  1.0  0.079
  H  H230  1  0.764800  0.228800  0.217400  1.0  0.0815
  H  H231  1  0.784400  0.179600  0.269900  1.0  0.094
  H  H232  1  0.581900  0.921100  0.213800  1.0  0.0646
  H  H233  1  0.357000  0.896000  0.222900  1.0  0.1012
  H  H234  1  0.418400  0.976400  0.215800  1.0  0.1027
  H  H235  1  0.451800  0.911200  0.261000  1.0  0.0971
  H  H236  1  0.351300  0.805700  0.168900  1.0  0.0856
  H  H237  1  0.439800  0.751000  0.166200  1.0  0.1057
  H  H238  1  0.407900  0.825900  0.126700  1.0  0.0894
  H  H239  1  0.774000  0.889100  0.266800  1.0  0.0669
  H  H240  1  0.957000  0.705800  0.294200  1.0  0.0857
  H  H241  1  0.958900  0.762800  0.245700  1.0  0.0976
  H  H242  1  0.880000  0.694100  0.244600  1.0  0.0894
  H  H243  1  0.919700  0.764900  0.354500  1.0  0.103
  H  H244  1  0.817500  0.798300  0.347800  1.0  0.1014
  H  H245  1  0.898400  0.864700  0.348600  1.0  0.1054
  H  H246  1  0.631400  0.692300  0.166600  1.0  0.0401
  H  H247  1  0.716800  0.488400  0.193600  1.0  0.0938
  H  H248  1  0.617600  0.528400  0.175700  1.0  0.0963
  H  H249  1  0.684000  0.564100  0.225000  1.0  0.0872
  H  H250  1  0.813400  0.521200  0.150500  1.0  0.0912
  H  H251  1  0.844100  0.618900  0.151100  1.0  0.0936
  H  H252  1  0.776600  0.580700  0.102900  1.0  0.0905
  C  C253  1  0.943900  0.659900  0.645150  1.0  0.3158
  C  C254  1  0.005900  0.740600  0.585300  1.0  -0.1389
  C  C255  1  0.100700  0.703300  0.667300  1.0  -0.15
  C  C256  1  0.716600  0.727500  0.522100  1.0  0.2933
  C  C257  1  0.804100  0.672600  0.464200  1.0  -0.1563
  C  C258  1  0.753200  0.823700  0.459050  1.0  -0.145
  C  C259  1  0.838200  0.479000  0.573400  1.0  0.34
  C  C260  1  0.928200  0.373900  0.624800  1.0  -0.1679
  C  C261  1  0.960700  0.413200  0.542100  1.0  -0.1448
  C  C262  1  0.580600  0.466500  0.569620  1.0  0.331
  C  C263  1  0.417400  0.475000  0.556600  1.0  -0.1447
  C  C264  1  0.493100  0.339700  0.544200  1.0  -0.1527
  C  C265  1  0.727100  0.435400  0.698430  1.0  0.3091
  C  C266  1  0.591900  0.382700  0.720000  1.0  -0.1371
  C  C267  1  0.737000  0.301300  0.741900  1.0  -0.1525
  C  C268  1  0.549900  0.620800  0.692000  1.0  0.2867
  C  C269  1  0.419400  0.583500  0.726000  1.0  -0.1597
  C  C270  1  0.412200  0.692300  0.661500  1.0  -0.1358
  C  C271  1  0.809300  0.651000  0.753100  1.0  0.291
  C  C272  1  0.919600  0.764700  0.765600  1.0  -0.1537
  C  C273  1  0.876000  0.692400  0.838100  1.0  -0.166
  C  C274  1  0.681400  0.821700  0.651900  1.0  0.2666
  C  C275  1  0.680900  0.959100  0.691300  1.0  -0.1455
  C  C276  1  0.794000  0.921000  0.639600  1.0  -0.1345
  C  C277  1  0.056100  0.159900  0.854850  1.0  0.3151
  C  C278  1  0.994100  0.240600  0.914700  1.0  -0.1402
  C  C279  1  0.899300  0.203300  0.832700  1.0  -0.1494
  C  C280  1  0.283400  0.227500  0.977900  1.0  0.2926
  C  C281  1  0.195900  0.172600  0.035800  1.0  -0.1556
  C  C282  1  0.246800  0.323700  0.040950  1.0  -0.1449
  C  C283  1  0.161800  0.979000  0.926600  1.0  0.3407
  C  C284  1  0.071800  0.873900  0.875200  1.0  -0.169
  C  C285  1  0.039300  0.913200  0.957900  1.0  -0.1458
  C  C286  1  0.419400  0.966500  0.930380  1.0  0.3316
  C  C287  1  0.582600  0.975000  0.943400  1.0  -0.1442
  C  C288  1  0.506900  0.839700  0.955800  1.0  -0.1529
  C  C289  1  0.272900  0.935400  0.801570  1.0  0.3076
  C  C290  1  0.408100  0.882700  0.780000  1.0  -0.1381
  C  C291  1  0.263000  0.801300  0.758100  1.0  -0.1529
  C  C292  1  0.450100  0.120800  0.808000  1.0  0.2875
  C  C293  1  0.580600  0.083500  0.774000  1.0  -0.1611
  C  C294  1  0.587800  0.192300  0.838500  1.0  -0.1354
  C  C295  1  0.190700  0.151000  0.746900  1.0  0.2934
  C  C296  1  0.080400  0.264700  0.734400  1.0  -0.1541
  C  C297  1  0.124000  0.192400  0.661900  1.0  -0.1649
  C  C298  1  0.318600  0.321700  0.848100  1.0  0.2661
  C  C299  1  0.319100  0.459100  0.808700  1.0  -0.1459
  C  C300  1  0.206000  0.421000  0.860400  1.0  -0.1361
  C  C301  1  0.056100  0.340100  0.354850  1.0  0.3138
  C  C302  1  0.994100  0.259400  0.414700  1.0  -0.1402
  C  C303  1  0.899300  0.296700  0.332700  1.0  -0.1488
  C  C304  1  0.283400  0.272500  0.477900  1.0  0.293
  C  C305  1  0.195900  0.327400  0.535800  1.0  -0.1551
  C  C306  1  0.246800  0.176300  0.540950  1.0  -0.146
  C  C307  1  0.161800  0.521000  0.426600  1.0  0.3405
  C  C308  1  0.071800  0.626100  0.375200  1.0  -0.1681
  C  C309  1  0.039300  0.586800  0.457900  1.0  -0.1451
  C  C310  1  0.419400  0.533500  0.430380  1.0  0.3308
  C  C311  1  0.582600  0.525000  0.443400  1.0  -0.1448
  C  C312  1  0.506900  0.660300  0.455800  1.0  -0.1533
  C  C313  1  0.272900  0.564600  0.301570  1.0  0.3075
  C  C314  1  0.408100  0.617300  0.280000  1.0  -0.1385
  C  C315  1  0.263000  0.698700  0.258100  1.0  -0.1521
  C  C316  1  0.450100  0.379200  0.308000  1.0  0.2871
  C  C317  1  0.580600  0.416500  0.274000  1.0  -0.1601
  C  C318  1  0.587800  0.307700  0.338500  1.0  -0.1365
  C  C319  1  0.190700  0.349000  0.246900  1.0  0.2938
  C  C320  1  0.080400  0.235300  0.234400  1.0  -0.1546
  C  C321  1  0.124000  0.307600  0.161900  1.0  -0.165
  C  C322  1  0.318600  0.178300  0.348100  1.0  0.2665
  C  C323  1  0.319100  0.040900  0.308700  1.0  -0.1461
  C  C324  1  0.206000  0.079000  0.360400  1.0  -0.1363
  C  C325  1  0.943900  0.840100  0.145150  1.0  0.3146
  C  C326  1  0.005900  0.759400  0.085300  1.0  -0.1387
  C  C327  1  0.100700  0.796700  0.167300  1.0  -0.1493
  C  C328  1  0.716600  0.772500  0.022100  1.0  0.2924
  C  C329  1  0.804100  0.827400  0.964200  1.0  -0.1558
  C  C330  1  0.753200  0.676300  0.959050  1.0  -0.1458
  C  C331  1  0.838200  0.021000  0.073400  1.0  0.3401
  C  C332  1  0.928200  0.126100  0.124800  1.0  -0.1675
  C  C333  1  0.960700  0.086800  0.042100  1.0  -0.1441
  C  C334  1  0.580600  0.033500  0.069620  1.0  0.3295
  C  C335  1  0.417400  0.025000  0.056600  1.0  -0.1446
  C  C336  1  0.493100  0.160300  0.044200  1.0  -0.1537
  C  C337  1  0.727100  0.064600  0.198430  1.0  0.3087
  C  C338  1  0.591900  0.117300  0.220000  1.0  -0.1374
  C  C339  1  0.737000  0.198700  0.241900  1.0  -0.1525
  C  C340  1  0.549900  0.879200  0.192000  1.0  0.2856
  C  C341  1  0.419400  0.916500  0.226000  1.0  -0.1592
  C  C342  1  0.412200  0.807700  0.161500  1.0  -0.1369
  C  C343  1  0.809300  0.849000  0.253100  1.0  0.2914
  C  C344  1  0.919600  0.735300  0.265600  1.0  -0.1545
  C  C345  1  0.876000  0.807600  0.338100  1.0  -0.1664
  C  C346  1  0.681400  0.678300  0.151900  1.0  0.2664
  C  C347  1  0.680900  0.540900  0.191300  1.0  -0.1457
  C  C348  1  0.794000  0.579000  0.139600  1.0  -0.1348
  C  C349  1  0.836900  0.152000  0.663700  1.0  -0.1424
  C  C350  1  0.137300  0.473400  0.694200  1.0  -0.058
  C  C351  1  0.068400  0.977500  0.701900  1.0  -0.0783
  C  C352  1  0.362500  0.089600  0.672900  1.0  -0.1216
  C  C353  1  0.241100  0.841700  0.610900  1.0  0.0573
  C  C354  1  0.311400  0.356900  0.668300  1.0  -0.0653
  C  C355  1  0.540300  0.188600  0.649000  1.0  0.0396
  C  C356  1  0.226100  0.579800  0.574000  1.0  -0.0363
  C  C357  1  0.738500  0.289100  0.522100  1.0  -0.0112
  C  C358  1  0.163100  0.652000  0.836300  1.0  -0.1444
  C  C359  1  0.862700  0.973400  0.805800  1.0  -0.06
  C  C360  1  0.931600  0.477500  0.798100  1.0  -0.0815
  C  C361  1  0.637500  0.589600  0.827100  1.0  -0.1226
  C  C362  1  0.758900  0.341700  0.889100  1.0  0.0559
  C  C363  1  0.688600  0.856900  0.831700  1.0  -0.0659
  C  C364  1  0.459700  0.688600  0.851000  1.0  0.0432
  C  C365  1  0.773900  0.079800  0.926000  1.0  -0.0368
  C  C366  1  0.261500  0.789100  0.977900  1.0  -0.0124
  C  C367  1  0.163100  0.848000  0.336300  1.0  -0.145
  C  C368  1  0.862700  0.526600  0.305800  1.0  -0.0602
  C  C369  1  0.931600  0.022500  0.298100  1.0  -0.0821
  C  C370  1  0.637500  0.910400  0.327100  1.0  -0.1242
  C  C371  1  0.758900  0.158300  0.389100  1.0  0.056
  C  C372  1  0.688600  0.643100  0.331700  1.0  -0.0644
  C  C373  1  0.459700  0.811400  0.351000  1.0  0.0395
  C  C374  1  0.773900  0.420200  0.426000  1.0  -0.0357
  C  C375  1  0.261500  0.710900  0.477900  1.0  -0.0114
  C  C376  1  0.836900  0.348000  0.163700  1.0  -0.1431
  C  C377  1  0.137300  0.026600  0.194200  1.0  -0.0583
  C  C378  1  0.068400  0.522500  0.201900  1.0  -0.079
  C  C379  1  0.362500  0.410400  0.172900  1.0  -0.1223
  C  C380  1  0.241100  0.658300  0.110900  1.0  0.0572
  C  C381  1  0.311400  0.143100  0.168300  1.0  -0.0638
  C  C382  1  0.540300  0.311400  0.149000  1.0  0.0427
  C  C383  1  0.226100  0.920200  0.074000  1.0  -0.0354
  C  C384  1  0.738500  0.210900  0.022100  1.0  -0.0096
  N  N385  1  0.013500  0.698800  0.633450  1.0  -0.0514
  N  N386  1  0.756300  0.741300  0.483870  1.0  -0.0676
  N  N387  1  0.906500  0.426000  0.579510  1.0  -0.0482
  N  N388  1  0.501300  0.429600  0.557400  1.0  -0.0567
  N  N389  1  0.687000  0.374900  0.718020  1.0  -0.0287
  N  N390  1  0.465500  0.634600  0.693700  1.0  -0.0242
  N  N391  1  0.864400  0.700300  0.783680  1.0  -0.0566
  N  N392  1  0.717100  0.896900  0.660910  1.0  -0.0434
  N  N393  1  0.986500  0.198800  0.866550  1.0  -0.051
  N  N394  1  0.243700  0.241300  0.016130  1.0  -0.0661
  N  N395  1  0.093500  0.926000  0.920490  1.0  -0.0484
  N  N396  1  0.498700  0.929600  0.942600  1.0  -0.0565
  N  N397  1  0.313000  0.874900  0.781980  1.0  -0.029
  N  N398  1  0.534500  0.134600  0.806300  1.0  -0.0235
  N  N399  1  0.135600  0.200300  0.716320  1.0  -0.0571
  N  N400  1  0.282900  0.396900  0.839090  1.0  -0.0426
  N  N401  1  0.986500  0.301200  0.366550  1.0  -0.0509
  N  N402  1  0.243700  0.258700  0.516130  1.0  -0.0668
  N  N403  1  0.093500  0.574000  0.420490  1.0  -0.049
  N  N404  1  0.498700  0.570400  0.442600  1.0  -0.0562
  N  N405  1  0.313000  0.625100  0.281980  1.0  -0.0291
  N  N406  1  0.534500  0.365400  0.306300  1.0  -0.0232
  N  N407  1  0.135600  0.299700  0.216320  1.0  -0.0568
  N  N408  1  0.282900  0.103100  0.339090  1.0  -0.0436
  N  N409  1  0.013500  0.801200  0.133450  1.0  -0.0515
  N  N410  1  0.756300  0.758700  0.983870  1.0  -0.0679
  N  N411  1  0.906500  0.074000  0.079510  1.0  -0.0487
  N  N412  1  0.501300  0.070400  0.057400  1.0  -0.0567
  N  N413  1  0.687000  0.125100  0.218020  1.0  -0.029
  N  N414  1  0.465500  0.865400  0.193700  1.0  -0.0238
  N  N415  1  0.864400  0.799700  0.283680  1.0  -0.0559
  N  N416  1  0.717100  0.603100  0.160910  1.0  -0.0442
  N  N417  1  0.897500  0.117600  0.688250  1.0  -0.4349
  N  N418  1  0.088400  0.495200  0.719970  1.0  -0.4197
  N  N419  1  0.128300  0.953400  0.685090  1.0  -0.3972
  N  N420  1  0.318400  0.028500  0.669380  1.0  -0.4124
  N  N421  1  0.245800  0.784100  0.585270  1.0  -0.4292
  N  N422  1  0.359300  0.297900  0.671500  1.0  -0.5177
  N  N423  1  0.610300  0.187500  0.638150  1.0  -0.4241
  N  N424  1  0.220600  0.521200  0.599060  1.0  -0.4302
  N  N425  1  0.733600  0.262100  0.561700  1.0  -0.4135
  N  N426  1  0.102500  0.617600  0.811750  1.0  -0.4365
  N  N427  1  0.911600  0.995200  0.780030  1.0  -0.4203
  N  N428  1  0.871700  0.453400  0.814910  1.0  -0.399
  N  N429  1  0.681600  0.528500  0.830620  1.0  -0.4138
  N  N430  1  0.754200  0.284100  0.914730  1.0  -0.4289
  N  N431  1  0.640700  0.797900  0.828500  1.0  -0.519
  N  N432  1  0.389700  0.687500  0.861850  1.0  -0.4273
  N  N433  1  0.779400  0.021200  0.900940  1.0  -0.4307
  N  N434  1  0.266400  0.762100  0.938300  1.0  -0.4155
  N  N435  1  0.102500  0.882400  0.311750  1.0  -0.4369
  N  N436  1  0.911600  0.504800  0.280030  1.0  -0.4197
  N  N437  1  0.871700  0.046600  0.314910  1.0  -0.3994
  N  N438  1  0.681600  0.971500  0.330620  1.0  -0.4185
  N  N439  1  0.754200  0.215900  0.414730  1.0  -0.4295
  N  N440  1  0.640700  0.702100  0.328500  1.0  -0.519
  N  N441  1  0.389700  0.812500  0.361850  1.0  -0.4277
  N  N442  1  0.779400  0.478800  0.400940  1.0  -0.4313
  N  N443  1  0.266400  0.737900  0.438300  1.0  -0.4154
  N  N444  1  0.897500  0.382400  0.188250  1.0  -0.435
  N  N445  1  0.088400  0.004800  0.219970  1.0  -0.4193
  N  N446  1  0.128300  0.546600  0.185090  1.0  -0.3973
  N  N447  1  0.318400  0.471500  0.169380  1.0  -0.4147
  N  N448  1  0.245800  0.715900  0.085270  1.0  -0.427
  N  N449  1  0.359300  0.202100  0.171500  1.0  -0.5192
  N  N450  1  0.610300  0.312500  0.138150  1.0  -0.426
  N  N451  1  0.220600  0.978800  0.099060  1.0  -0.4311
  N  N452  1  0.733600  0.237900  0.061700  1.0  -0.4136
  O  O453  1  0.868000  0.655600  0.617440  1.0  -0.633
  O  O454  1  0.712400  0.657100  0.542800  1.0  -0.6404
  O  O455  1  0.789400  0.491700  0.604050  1.0  -0.6251
  O  O456  1  0.591600  0.544100  0.579940  1.0  -0.637
  O  O457  1  0.689600  0.502100  0.679790  1.0  -0.6322
  O  O458  1  0.592300  0.659300  0.663220  1.0  -0.6449
  O  O459  1  0.800800  0.654000  0.706550  1.0  -0.6527
  O  O460  1  0.708100  0.766800  0.625340  1.0  -0.6454
  O  O461  1  0.132000  0.155600  0.882560  1.0  -0.6327
  O  O462  1  0.287600  0.157100  0.957200  1.0  -0.6405
  O  O463  1  0.210600  0.991700  0.895950  1.0  -0.6254
  O  O464  1  0.408400  0.044100  0.920060  1.0  -0.6364
  O  O465  1  0.310400  0.002100  0.820210  1.0  -0.6339
  O  O466  1  0.407700  0.159300  0.836780  1.0  -0.6458
  O  O467  1  0.199200  0.154000  0.793450  1.0  -0.655
  O  O468  1  0.291900  0.266800  0.874660  1.0  -0.6452
  O  O469  1  0.132000  0.344400  0.382560  1.0  -0.6329
  O  O470  1  0.287600  0.342900  0.457200  1.0  -0.6407
  O  O471  1  0.210600  0.508300  0.395950  1.0  -0.6257
  O  O472  1  0.408400  0.455900  0.420060  1.0  -0.6399
  O  O473  1  0.310400  0.497900  0.320210  1.0  -0.6337
  O  O474  1  0.407700  0.340700  0.336780  1.0  -0.6453
  O  O475  1  0.199200  0.346000  0.293450  1.0  -0.6549
  O  O476  1  0.291900  0.233200  0.374660  1.0  -0.6454
  O  O477  1  0.868000  0.844400  0.117440  1.0  -0.6331
  O  O478  1  0.712400  0.842900  0.042800  1.0  -0.6406
  O  O479  1  0.789400  0.008300  0.104050  1.0  -0.6252
  O  O480  1  0.591600  0.955900  0.079940  1.0  -0.6399
  O  O481  1  0.689600  0.997900  0.179790  1.0  -0.6331
  O  O482  1  0.592300  0.840700  0.163220  1.0  -0.6449
  O  O483  1  0.800800  0.846000  0.206550  1.0  -0.6525
  O  O484  1  0.708100  0.733200  0.125340  1.0  -0.6457
