# generated using pymatgen
data_ZnH16C22NO4
_symmetry_space_group_name_H-M   'P 1'
_cell_length_a   20.13190000
_cell_length_b   20.13190000
_cell_length_c   20.42000000
_cell_angle_alpha   61.47210000
_cell_angle_beta   61.47210000
_cell_angle_gamma   65.33880000
_symmetry_Int_Tables_number   1
_chemical_formula_structural   ZnH16C22NO4
_chemical_formula_sum   'Zn8 H128 C176 N8 O32'
_cell_volume   6193.61369141
_cell_formula_units_Z   8
loop_
 _symmetry_equiv_pos_site_id
 _symmetry_equiv_pos_as_xyz
  1  'x, y, z'
loop_
 _atom_site_type_symbol
 _atom_site_label
 _atom_site_symmetry_multiplicity
 _atom_site_fract_x
 _atom_site_fract_y
 _atom_site_fract_z
 _atom_site_occupancy
 _atom_site_charge
  Zn  Zn1  1  0.824630  0.353330  0.016050  1.0  0.9259
  Zn  Zn2  1  0.956040  0.427480  0.918560  1.0  0.8975
  Zn  Zn3  1  0.353330  0.824630  0.516050  1.0  0.9273
  Zn  Zn4  1  0.427480  0.956040  0.418560  1.0  0.8974
  Zn  Zn5  1  0.646670  0.175370  0.483950  1.0  0.9269
  Zn  Zn6  1  0.572520  0.043960  0.581440  1.0  0.898
  Zn  Zn7  1  0.175370  0.646670  0.983950  1.0  0.926
  Zn  Zn8  1  0.043960  0.572520  0.081440  1.0  0.8977
  H  H9  1  0.681600  0.494000  0.859200  1.0  0.1167
  H  H10  1  0.838400  0.617600  0.770000  1.0  0.1003
  H  H11  1  0.776300  0.715700  0.684700  1.0  0.1215
  H  H12  1  0.685900  0.810100  0.593900  1.0  0.1241
  H  H13  1  0.594300  0.869500  0.531700  1.0  0.0911
  H  H14  1  0.494600  0.688800  0.669400  1.0  0.1191
  H  H15  1  0.561900  0.535700  0.729700  1.0  0.1118
  H  H16  1  0.620000  0.483000  0.776200  1.0  0.1077
  H  H17  1  0.650700  0.534700  0.686400  1.0  0.1161
  H  H18  1  0.476500  0.605300  0.827900  1.0  0.1271
  H  H19  1  0.511900  0.648700  0.845400  1.0  0.1351
  H  H20  1  0.529600  0.557400  0.880200  1.0  0.1213
  H  H21  1  0.291300  0.091300  0.256400  1.0  0.1107
  H  H22  1  0.180400  0.920800  0.413200  1.0  0.1081
  H  H23  1  0.088600  0.977200  0.355500  1.0  0.1248
  H  H24  1  0.993200  0.071200  0.270200  1.0  0.1098
  H  H25  1  0.930200  0.164200  0.183400  1.0  0.1051
  H  H26  1  0.103000  0.275000  0.067900  1.0  0.1024
  H  H27  1  0.234200  0.241400  0.181700  1.0  0.1186
  H  H28  1  0.174600  0.292600  0.136900  1.0  0.1293
  H  H29  1  0.144600  0.248400  0.229000  1.0  0.126
  H  H30  1  0.307400  0.162800  0.094500  1.0  0.1116
  H  H31  1  0.265800  0.118200  0.085900  1.0  0.1127
  H  H32  1  0.251500  0.209100  0.045300  1.0  0.1232
  H  H33  1  0.564900  0.988700  0.405100  1.0  0.0787
  H  H34  1  0.647500  0.069500  0.321700  1.0  0.1102
  H  H35  1  0.518200  0.181400  0.186100  1.0  0.1183
  H  H36  1  0.442200  0.094600  0.269500  1.0  0.0918
  H  H37  1  0.670600  0.190600  0.271900  1.0  0.1068
  H  H38  1  0.752900  0.271300  0.185800  1.0  0.0786
  H  H39  1  0.711400  0.299200  0.009300  1.0  0.0895
  H  H40  1  0.635100  0.210500  0.088000  1.0  0.1271
  H  H41  1  0.494000  0.681600  0.359200  1.0  0.1175
  H  H42  1  0.617600  0.838400  0.270000  1.0  0.1007
  H  H43  1  0.715700  0.776300  0.184700  1.0  0.1223
  H  H44  1  0.810100  0.685900  0.093900  1.0  0.124
  H  H45  1  0.869500  0.594300  0.031700  1.0  0.0916
  H  H46  1  0.688800  0.494600  0.169400  1.0  0.1181
  H  H47  1  0.535700  0.561900  0.229700  1.0  0.1124
  H  H48  1  0.483000  0.620000  0.276200  1.0  0.1121
  H  H49  1  0.534700  0.650700  0.186400  1.0  0.1149
  H  H50  1  0.605300  0.476500  0.327900  1.0  0.1237
  H  H51  1  0.648700  0.511900  0.345400  1.0  0.1357
  H  H52  1  0.557400  0.529600  0.380200  1.0  0.1214
  H  H53  1  0.091300  0.291300  0.756400  1.0  0.1104
  H  H54  1  0.920800  0.180400  0.913200  1.0  0.1089
  H  H55  1  0.977200  0.088600  0.855500  1.0  0.1239
  H  H56  1  0.071200  0.993200  0.770200  1.0  0.1097
  H  H57  1  0.164200  0.930200  0.683400  1.0  0.1054
  H  H58  1  0.275000  0.103000  0.567900  1.0  0.1025
  H  H59  1  0.241400  0.234200  0.681700  1.0  0.1186
  H  H60  1  0.292600  0.174600  0.636900  1.0  0.127
  H  H61  1  0.248400  0.144600  0.729000  1.0  0.127
  H  H62  1  0.162800  0.307400  0.594500  1.0  0.1102
  H  H63  1  0.118200  0.265800  0.585900  1.0  0.1135
  H  H64  1  0.209100  0.251500  0.545300  1.0  0.12
  H  H65  1  0.988700  0.564900  0.905100  1.0  0.0771
  H  H66  1  0.069500  0.647500  0.821700  1.0  0.1105
  H  H67  1  0.181400  0.518200  0.686100  1.0  0.1186
  H  H68  1  0.094600  0.442200  0.769500  1.0  0.0924
  H  H69  1  0.190600  0.670600  0.771900  1.0  0.1068
  H  H70  1  0.271300  0.752900  0.685800  1.0  0.0781
  H  H71  1  0.299200  0.711400  0.509300  1.0  0.09
  H  H72  1  0.210500  0.635100  0.588000  1.0  0.1269
  H  H73  1  0.506000  0.318400  0.640800  1.0  0.1176
  H  H74  1  0.382400  0.161600  0.730000  1.0  0.1006
  H  H75  1  0.284300  0.223700  0.815300  1.0  0.1224
  H  H76  1  0.189900  0.314100  0.906100  1.0  0.1231
  H  H77  1  0.130500  0.405700  0.968300  1.0  0.0915
  H  H78  1  0.311200  0.505400  0.830600  1.0  0.1182
  H  H79  1  0.464300  0.438100  0.770300  1.0  0.113
  H  H80  1  0.517000  0.380000  0.723800  1.0  0.1123
  H  H81  1  0.465300  0.349300  0.813600  1.0  0.1153
  H  H82  1  0.394700  0.523500  0.672100  1.0  0.1256
  H  H83  1  0.351300  0.488100  0.654600  1.0  0.1345
  H  H84  1  0.442600  0.470400  0.619800  1.0  0.1209
  H  H85  1  0.908700  0.708700  0.243600  1.0  0.1105
  H  H86  1  0.079200  0.819600  0.086800  1.0  0.1085
  H  H87  1  0.022800  0.911400  0.144500  1.0  0.1241
  H  H88  1  0.928800  0.006800  0.229800  1.0  0.1105
  H  H89  1  0.835800  0.069800  0.316600  1.0  0.1055
  H  H90  1  0.725000  0.897000  0.432100  1.0  0.1018
  H  H91  1  0.758600  0.765800  0.318300  1.0  0.1192
  H  H92  1  0.707400  0.825400  0.363100  1.0  0.1277
  H  H93  1  0.751600  0.855400  0.271000  1.0  0.1257
  H  H94  1  0.837200  0.692600  0.405500  1.0  0.109
  H  H95  1  0.881800  0.734200  0.414100  1.0  0.114
  H  H96  1  0.790900  0.748500  0.454700  1.0  0.1227
  H  H97  1  0.011300  0.435100  0.094900  1.0  0.077
  H  H98  1  0.930500  0.352500  0.178300  1.0  0.1109
  H  H99  1  0.818600  0.481800  0.313900  1.0  0.1184
  H  H100  1  0.905400  0.557800  0.230500  1.0  0.0923
  H  H101  1  0.809400  0.329400  0.228100  1.0  0.1071
  H  H102  1  0.728700  0.247100  0.314200  1.0  0.0781
  H  H103  1  0.700800  0.288600  0.490700  1.0  0.0904
  H  H104  1  0.789500  0.364900  0.412000  1.0  0.1268
  H  H105  1  0.318400  0.506000  0.140800  1.0  0.1174
  H  H106  1  0.161600  0.382400  0.230000  1.0  0.1008
  H  H107  1  0.223700  0.284300  0.315300  1.0  0.1206
  H  H108  1  0.314100  0.189900  0.406100  1.0  0.1232
  H  H109  1  0.405700  0.130500  0.468300  1.0  0.0912
  H  H110  1  0.505400  0.311200  0.330600  1.0  0.1188
  H  H111  1  0.438100  0.464300  0.270300  1.0  0.1124
  H  H112  1  0.380000  0.517000  0.223800  1.0  0.1106
  H  H113  1  0.349300  0.465300  0.313600  1.0  0.1159
  H  H114  1  0.523500  0.394700  0.172100  1.0  0.1282
  H  H115  1  0.488100  0.351300  0.154600  1.0  0.135
  H  H116  1  0.470400  0.442600  0.119800  1.0  0.1206
  H  H117  1  0.708700  0.908700  0.743600  1.0  0.1113
  H  H118  1  0.819600  0.079200  0.586800  1.0  0.1089
  H  H119  1  0.911400  0.022800  0.644500  1.0  0.124
  H  H120  1  0.006800  0.928800  0.729800  1.0  0.11
  H  H121  1  0.069800  0.835800  0.816600  1.0  0.1056
  H  H122  1  0.897000  0.725000  0.932100  1.0  0.1026
  H  H123  1  0.765800  0.758600  0.818300  1.0  0.1181
  H  H124  1  0.825400  0.707400  0.863100  1.0  0.1277
  H  H125  1  0.855400  0.751600  0.771000  1.0  0.1248
  H  H126  1  0.692600  0.837200  0.905500  1.0  0.1114
  H  H127  1  0.734200  0.881800  0.914100  1.0  0.1157
  H  H128  1  0.748500  0.790900  0.954700  1.0  0.1234
  H  H129  1  0.435100  0.011300  0.594900  1.0  0.0788
  H  H130  1  0.352500  0.930500  0.678300  1.0  0.1106
  H  H131  1  0.481800  0.818600  0.813900  1.0  0.1181
  H  H132  1  0.557800  0.905400  0.730500  1.0  0.0926
  H  H133  1  0.329400  0.809400  0.728100  1.0  0.1069
  H  H134  1  0.247100  0.728700  0.814200  1.0  0.0781
  H  H135  1  0.288600  0.700800  0.990700  1.0  0.0899
  H  H136  1  0.364900  0.789500  0.912000  1.0  0.1268
  C  C137  1  0.701000  0.537800  0.823100  1.0  -0.0587
  C  C138  1  0.767900  0.546300  0.821900  1.0  -0.1467
  C  C139  1  0.794500  0.612500  0.769900  1.0  -0.0051
  C  C140  1  0.758200  0.670800  0.718500  1.0  -0.123
  C  C141  1  0.648200  0.785600  0.608500  1.0  -0.1098
  C  C142  1  0.593100  0.820700  0.571600  1.0  -0.0061
  C  C143  1  0.536500  0.784900  0.592800  1.0  -0.1721
  C  C144  1  0.533100  0.712700  0.653900  1.0  -0.0861
  C  C145  1  0.593500  0.599100  0.760300  1.0  -0.0116
  C  C146  1  0.665200  0.595400  0.770200  1.0  0.0234
  C  C147  1  0.693500  0.662700  0.716900  1.0  -0.037
  C  C148  1  0.645300  0.713100  0.667400  1.0  -0.0444
  C  C149  1  0.586300  0.677500  0.690800  1.0  -0.0008
  C  C150  1  0.607900  0.531900  0.735900  1.0  -0.3489
  C  C151  1  0.521000  0.603000  0.835500  1.0  -0.3526
  C  C152  1  0.808600  0.484600  0.878300  1.0  0.7122
  C  C153  1  0.479400  0.823800  0.550600  1.0  0.68
  C  C154  1  0.251000  0.068400  0.274900  1.0  -0.0847
  C  C155  1  0.244800  0.999200  0.341100  1.0  -0.1587
  C  C156  1  0.184000  0.966800  0.369400  1.0  -0.0072
  C  C157  1  0.129400  0.000000  0.335200  1.0  -0.0962
  C  C158  1  0.014600  0.112600  0.229800  1.0  -0.0986
  C  C159  1  0.977200  0.167800  0.177900  1.0  -0.0272
  C  C160  1  0.009300  0.230100  0.116300  1.0  -0.1172
  C  C161  1  0.080600  0.234400  0.108800  1.0  -0.0863
  C  C162  1  0.192300  0.174900  0.165400  1.0  0.0068
  C  C163  1  0.197900  0.101700  0.238100  1.0  0.0175
  C  C164  1  0.134500  0.068700  0.269100  1.0  -0.0159
  C  C165  1  0.084100  0.117900  0.222600  1.0  -0.068
  C  C166  1  0.117000  0.179400  0.161500  1.0  0.0397
  C  C167  1  0.185800  0.246000  0.179600  1.0  -0.3425
  C  C168  1  0.260600  0.165400  0.090900  1.0  -0.3378
  C  C169  1  0.303200  0.962400  0.382600  1.0  0.711
  C  C170  1  0.967400  0.291200  0.060600  1.0  0.6723
  C  C171  1  0.555700  0.027700  0.359400  1.0  0.1897
  C  C172  1  0.605400  0.076600  0.309700  1.0  -0.2087
  C  C173  1  0.592800  0.135000  0.243500  1.0  0.0888
  C  C174  1  0.529900  0.141500  0.230100  1.0  -0.2123
  C  C175  1  0.483800  0.089600  0.281100  1.0  0.1767
  C  C176  1  0.644600  0.188600  0.190700  1.0  0.0767
  C  C177  1  0.679800  0.209400  0.217700  1.0  -0.2203
  C  C178  1  0.729300  0.258500  0.165300  1.0  0.1913
  C  C179  1  0.706400  0.273600  0.062700  1.0  0.1592
  C  C180  1  0.658100  0.222100  0.110300  1.0  -0.223
  C  C181  1  0.537800  0.701000  0.323100  1.0  -0.0587
  C  C182  1  0.546300  0.767900  0.321900  1.0  -0.1463
  C  C183  1  0.612500  0.794500  0.269900  1.0  -0.0102
  C  C184  1  0.670800  0.758200  0.218500  1.0  -0.1289
  C  C185  1  0.785600  0.648200  0.108500  1.0  -0.1099
  C  C186  1  0.820700  0.593100  0.071600  1.0  -0.0075
  C  C187  1  0.784900  0.536500  0.092800  1.0  -0.1743
  C  C188  1  0.712700  0.533100  0.153900  1.0  -0.084
  C  C189  1  0.599100  0.593500  0.260300  1.0  -0.0112
  C  C190  1  0.595400  0.665200  0.270200  1.0  0.0229
  C  C191  1  0.662700  0.693500  0.216900  1.0  -0.0376
  C  C192  1  0.713100  0.645300  0.167400  1.0  -0.0429
  C  C193  1  0.677500  0.586300  0.190800  1.0  -0.0013
  C  C194  1  0.531900  0.607900  0.235900  1.0  -0.3511
  C  C195  1  0.603000  0.521000  0.335500  1.0  -0.3542
  C  C196  1  0.484600  0.808600  0.378300  1.0  0.7126
  C  C197  1  0.823800  0.479400  0.050600  1.0  0.6806
  C  C198  1  0.068400  0.251000  0.774900  1.0  -0.0825
  C  C199  1  0.999200  0.244800  0.841100  1.0  -0.1594
  C  C200  1  0.966800  0.184000  0.869400  1.0  -0.0029
  C  C201  1  0.000000  0.129400  0.835200  1.0  -0.0944
  C  C202  1  0.112600  0.014600  0.729800  1.0  -0.0962
  C  C203  1  0.167800  0.977200  0.677900  1.0  -0.0286
  C  C204  1  0.230100  0.009300  0.616300  1.0  -0.1211
  C  C205  1  0.234400  0.080600  0.608800  1.0  -0.0874
  C  C206  1  0.174900  0.192300  0.665400  1.0  0.0069
  C  C207  1  0.101700  0.197900  0.738100  1.0  0.0157
  C  C208  1  0.068700  0.134500  0.769100  1.0  -0.0151
  C  C209  1  0.117900  0.084100  0.722600  1.0  -0.0674
  C  C210  1  0.179400  0.117000  0.661500  1.0  0.0405
  C  C211  1  0.246000  0.185800  0.679600  1.0  -0.3423
  C  C212  1  0.165400  0.260600  0.590900  1.0  -0.3369
  C  C213  1  0.962400  0.303200  0.882600  1.0  0.7138
  C  C214  1  0.291200  0.967400  0.560600  1.0  0.6716
  C  C215  1  0.027700  0.555700  0.859400  1.0  0.1888
  C  C216  1  0.076600  0.605400  0.809700  1.0  -0.2082
  C  C217  1  0.135000  0.592800  0.743500  1.0  0.0907
  C  C218  1  0.141500  0.529900  0.730100  1.0  -0.2149
  C  C219  1  0.089600  0.483800  0.781100  1.0  0.1764
  C  C220  1  0.188600  0.644600  0.690700  1.0  0.0755
  C  C221  1  0.209400  0.679800  0.717700  1.0  -0.2191
  C  C222  1  0.258500  0.729300  0.665300  1.0  0.1935
  C  C223  1  0.273600  0.706400  0.562700  1.0  0.1604
  C  C224  1  0.222100  0.658100  0.610300  1.0  -0.2242
  C  C225  1  0.462200  0.299000  0.676900  1.0  -0.0574
  C  C226  1  0.453700  0.232100  0.678100  1.0  -0.147
  C  C227  1  0.387500  0.205500  0.730100  1.0  -0.0091
  C  C228  1  0.329200  0.241800  0.781500  1.0  -0.1313
  C  C229  1  0.214400  0.351800  0.891500  1.0  -0.1095
  C  C230  1  0.179300  0.406900  0.928400  1.0  -0.0058
  C  C231  1  0.215100  0.463500  0.907200  1.0  -0.1741
  C  C232  1  0.287300  0.466900  0.846100  1.0  -0.0843
  C  C233  1  0.400900  0.406500  0.739700  1.0  -0.0102
  C  C234  1  0.404600  0.334800  0.729800  1.0  0.0226
  C  C235  1  0.337300  0.306500  0.783100  1.0  -0.0381
  C  C236  1  0.286900  0.354700  0.832600  1.0  -0.042
  C  C237  1  0.322500  0.413700  0.809200  1.0  -0.0021
  C  C238  1  0.468100  0.392100  0.764100  1.0  -0.3491
  C  C239  1  0.397000  0.479000  0.664500  1.0  -0.3543
  C  C240  1  0.515400  0.191400  0.621700  1.0  0.7131
  C  C241  1  0.176200  0.520600  0.949400  1.0  0.6812
  C  C242  1  0.931600  0.749000  0.225100  1.0  -0.084
  C  C243  1  0.000800  0.755200  0.158900  1.0  -0.1591
  C  C244  1  0.033200  0.816000  0.130600  1.0  -0.0019
  C  C245  1  0.000000  0.870600  0.164800  1.0  -0.0953
  C  C246  1  0.887400  0.985400  0.270200  1.0  -0.0955
  C  C247  1  0.832200  0.022800  0.322100  1.0  -0.0287
  C  C248  1  0.769900  0.990700  0.383700  1.0  -0.1213
  C  C249  1  0.765600  0.919400  0.391200  1.0  -0.0861
  C  C250  1  0.825100  0.807700  0.334600  1.0  0.0065
  C  C251  1  0.898300  0.802100  0.261900  1.0  0.0174
  C  C252  1  0.931300  0.865500  0.230900  1.0  -0.0151
  C  C253  1  0.882100  0.915900  0.277400  1.0  -0.0671
  C  C254  1  0.820600  0.883000  0.338500  1.0  0.0419
  C  C255  1  0.754000  0.814200  0.320400  1.0  -0.3416
  C  C256  1  0.834600  0.739400  0.409100  1.0  -0.3376
  C  C257  1  0.037600  0.696800  0.117400  1.0  0.7133
  C  C258  1  0.708800  0.032600  0.439400  1.0  0.6715
  C  C259  1  0.972300  0.444300  0.140600  1.0  0.1881
  C  C260  1  0.923400  0.394600  0.190300  1.0  -0.2059
  C  C261  1  0.865000  0.407200  0.256500  1.0  0.0918
  C  C262  1  0.858500  0.470100  0.269900  1.0  -0.218
  C  C263  1  0.910400  0.516200  0.218900  1.0  0.1744
  C  C264  1  0.811400  0.355400  0.309300  1.0  0.08
  C  C265  1  0.790600  0.320200  0.282300  1.0  -0.2169
  C  C266  1  0.741500  0.270700  0.334700  1.0  0.1936
  C  C267  1  0.726400  0.293600  0.437300  1.0  0.1577
  C  C268  1  0.777900  0.341900  0.389700  1.0  -0.2257
  C  C269  1  0.299000  0.462200  0.176900  1.0  -0.0576
  C  C270  1  0.232100  0.453700  0.178100  1.0  -0.146
  C  C271  1  0.205500  0.387500  0.230100  1.0  -0.0062
  C  C272  1  0.241800  0.329200  0.281500  1.0  -0.1236
  C  C273  1  0.351800  0.214400  0.391500  1.0  -0.1088
  C  C274  1  0.406900  0.179300  0.428400  1.0  -0.008
  C  C275  1  0.463500  0.215100  0.407200  1.0  -0.1729
  C  C276  1  0.466900  0.287300  0.346100  1.0  -0.0843
  C  C277  1  0.406500  0.400900  0.239700  1.0  -0.0124
  C  C278  1  0.334800  0.404600  0.229800  1.0  0.0234
  C  C279  1  0.306500  0.337300  0.283100  1.0  -0.0349
  C  C280  1  0.354700  0.286900  0.332600  1.0  -0.0437
  C  C281  1  0.413700  0.322500  0.309200  1.0  -0.0025
  C  C282  1  0.392100  0.468100  0.264100  1.0  -0.351
  C  C283  1  0.479000  0.397000  0.164500  1.0  -0.3525
  C  C284  1  0.191400  0.515400  0.121700  1.0  0.7119
  C  C285  1  0.520600  0.176200  0.449400  1.0  0.6797
  C  C286  1  0.749000  0.931600  0.725100  1.0  -0.0824
  C  C287  1  0.755200  0.000800  0.658900  1.0  -0.1587
  C  C288  1  0.816000  0.033200  0.630600  1.0  -0.0072
  C  C289  1  0.870600  0.000000  0.664800  1.0  -0.0964
  C  C290  1  0.985400  0.887400  0.770200  1.0  -0.0977
  C  C291  1  0.022800  0.832200  0.822100  1.0  -0.0288
  C  C292  1  0.990700  0.769900  0.883700  1.0  -0.1176
  C  C293  1  0.919400  0.765600  0.891200  1.0  -0.0853
  C  C294  1  0.807700  0.825100  0.834600  1.0  0.0072
  C  C295  1  0.802100  0.898300  0.761900  1.0  0.0181
  C  C296  1  0.865500  0.931300  0.730900  1.0  -0.0162
  C  C297  1  0.915900  0.882100  0.777400  1.0  -0.069
  C  C298  1  0.883000  0.820600  0.838500  1.0  0.041
  C  C299  1  0.814200  0.754000  0.820400  1.0  -0.3409
  C  C300  1  0.739400  0.834600  0.909100  1.0  -0.3398
  C  C301  1  0.696800  0.037600  0.617400  1.0  0.7114
  C  C302  1  0.032600  0.708800  0.939400  1.0  0.6705
  C  C303  1  0.444300  0.972300  0.640600  1.0  0.1889
  C  C304  1  0.394600  0.923400  0.690300  1.0  -0.2069
  C  C305  1  0.407200  0.865000  0.756500  1.0  0.0914
  C  C306  1  0.470100  0.858500  0.769900  1.0  -0.2162
  C  C307  1  0.516200  0.910400  0.718900  1.0  0.1749
  C  C308  1  0.355400  0.811400  0.809300  1.0  0.0789
  C  C309  1  0.320200  0.790600  0.782300  1.0  -0.2181
  C  C310  1  0.270700  0.741500  0.834700  1.0  0.1913
  C  C311  1  0.293600  0.726400  0.937300  1.0  0.1575
  C  C312  1  0.341900  0.777900  0.889700  1.0  -0.2275
  N  N313  1  0.495760  0.033360  0.345300  1.0  -0.3269
  N  N314  1  0.744720  0.287720  0.089000  1.0  -0.3011
  N  N315  1  0.033360  0.495760  0.845300  1.0  -0.3265
  N  N316  1  0.287720  0.744720  0.589000  1.0  -0.3006
  N  N317  1  0.966640  0.504240  0.154700  1.0  -0.3233
  N  N318  1  0.712280  0.255280  0.411000  1.0  -0.2982
  N  N319  1  0.504240  0.966640  0.654700  1.0  -0.3248
  N  N320  1  0.255280  0.712280  0.911000  1.0  -0.2994
  O  O321  1  0.774310  0.432110  0.934300  1.0  -0.58
  O  O322  1  0.872710  0.489710  0.867300  1.0  -0.6135
  O  O323  1  0.483310  0.890310  0.498800  1.0  -0.5863
  O  O324  1  0.432420  0.787220  0.569200  1.0  -0.5856
  O  O325  1  0.354270  0.995870  0.358900  1.0  -0.5697
  O  O326  1  0.296150  0.898350  0.438100  1.0  -0.6074
  O  O327  1  0.002740  0.339740  0.001000  1.0  -0.5742
  O  O328  1  0.898990  0.289590  0.079300  1.0  -0.5899
  O  O329  1  0.432110  0.774310  0.434300  1.0  -0.5798
  O  O330  1  0.489710  0.872710  0.367300  1.0  -0.6124
  O  O331  1  0.890310  0.483310  0.998800  1.0  -0.5859
  O  O332  1  0.787220  0.432420  0.069200  1.0  -0.5863
  O  O333  1  0.995870  0.354270  0.858900  1.0  -0.5731
  O  O334  1  0.898350  0.296150  0.938100  1.0  -0.61
  O  O335  1  0.339740  0.002740  0.501000  1.0  -0.5741
  O  O336  1  0.289590  0.898990  0.579300  1.0  -0.5908
  O  O337  1  0.567890  0.225690  0.565700  1.0  -0.58
  O  O338  1  0.510290  0.127290  0.632700  1.0  -0.6125
  O  O339  1  0.109690  0.516690  0.001200  1.0  -0.5852
  O  O340  1  0.212780  0.567580  0.930800  1.0  -0.5861
  O  O341  1  0.004130  0.645730  0.141100  1.0  -0.5731
  O  O342  1  0.101650  0.703850  0.061900  1.0  -0.6114
  O  O343  1  0.660260  0.997260  0.499000  1.0  -0.5746
  O  O344  1  0.710410  0.101010  0.420700  1.0  -0.5899
  O  O345  1  0.225690  0.567890  0.065700  1.0  -0.5805
  O  O346  1  0.127290  0.510290  0.132700  1.0  -0.6117
  O  O347  1  0.516690  0.109690  0.501200  1.0  -0.5866
  O  O348  1  0.567580  0.212780  0.430800  1.0  -0.5861
  O  O349  1  0.645730  0.004130  0.641100  1.0  -0.5702
  O  O350  1  0.703850  0.101650  0.561900  1.0  -0.6087
  O  O351  1  0.997260  0.660260  0.999000  1.0  -0.5741
  O  O352  1  0.101010  0.710410  0.920700  1.0  -0.59
