# generated using pymatgen
data_CuH12(CN2)12
_symmetry_space_group_name_H-M   'P 1'
_cell_length_a   8.27230000
_cell_length_b   20.34500000
_cell_length_c   8.63430000
_cell_angle_alpha   90.00000000
_cell_angle_beta   92.36000000
_cell_angle_gamma   90.00000000
_symmetry_Int_Tables_number   1
_chemical_formula_structural   CuH12(CN2)12
_chemical_formula_sum   'Cu2 H24 C24 N48'
_cell_volume   1451.91966947
_cell_formula_units_Z   2
loop_
 _symmetry_equiv_pos_site_id
 _symmetry_equiv_pos_as_xyz
  1  'x, y, z'
loop_
 _atom_site_type_symbol
 _atom_site_label
 _atom_site_symmetry_multiplicity
 _atom_site_fract_x
 _atom_site_fract_y
 _atom_site_fract_z
 _atom_site_occupancy
 _atom_site_charge
  Cu  Cu1  1  0.000000  0.000000  0.000000  1.0  0.7493
  Cu  Cu2  1  0.500000  0.500000  0.500000  1.0  0.7493
  H  H3  1  0.058600  0.143400  0.147900  1.0  0.1252
  H  H4  1  0.577500  0.155100  0.161900  1.0  0.1014
  H  H5  1  0.983300  0.339800  0.370100  1.0  0.101
  H  H6  1  0.516400  0.368400  0.254300  1.0  0.1166
  H  H7  1  0.384000  0.997700  0.132400  1.0  0.1142
  H  H8  1  0.186200  0.004200  0.547800  1.0  0.1004
  H  H9  1  0.941400  0.856600  0.852100  1.0  0.1257
  H  H10  1  0.422500  0.844900  0.838100  1.0  0.101
  H  H11  1  0.016700  0.660200  0.629900  1.0  0.1018
  H  H12  1  0.483600  0.631600  0.745700  1.0  0.1164
  H  H13  1  0.616000  0.002300  0.867600  1.0  0.1139
  H  H14  1  0.813800  0.995800  0.452200  1.0  0.0998
  H  H15  1  0.441400  0.643400  0.352100  1.0  0.126
  H  H16  1  0.922500  0.655100  0.338100  1.0  0.1012
  H  H17  1  0.516700  0.839800  0.129900  1.0  0.1019
  H  H18  1  0.983600  0.868400  0.245700  1.0  0.116
  H  H19  1  0.116000  0.497700  0.367600  1.0  0.1142
  H  H20  1  0.313800  0.504200  0.952200  1.0  0.0998
  H  H21  1  0.558600  0.356600  0.647900  1.0  0.1251
  H  H22  1  0.077500  0.344900  0.661900  1.0  0.1013
  H  H23  1  0.483300  0.160200  0.870100  1.0  0.1012
  H  H24  1  0.016400  0.131600  0.754300  1.0  0.1165
  H  H25  1  0.884000  0.502300  0.632400  1.0  0.1142
  H  H26  1  0.686200  0.495800  0.047800  1.0  0.1005
  C  C27  1  0.946600  0.133320  0.137900  1.0  0.1228
  C  C28  1  0.683300  0.139110  0.145400  1.0  0.1259
  C  C29  1  0.879100  0.359240  0.358600  1.0  0.1221
  C  C30  1  0.623600  0.374650  0.295200  1.0  0.1403
  C  C31  1  0.307700  0.999290  0.211700  1.0  0.1478
  C  C32  1  0.198200  0.003050  0.438900  1.0  0.109
  C  C33  1  0.053400  0.866680  0.862100  1.0  0.1218
  C  C34  1  0.316700  0.860890  0.854600  1.0  0.1255
  C  C35  1  0.120900  0.640760  0.641400  1.0  0.1226
  C  C36  1  0.376400  0.625350  0.704800  1.0  0.1404
  C  C37  1  0.692300  0.000710  0.788300  1.0  0.1482
  C  C38  1  0.801800  0.996950  0.561100  1.0  0.1102
  C  C39  1  0.553400  0.633320  0.362100  1.0  0.1216
  C  C40  1  0.816700  0.639110  0.354600  1.0  0.1243
  C  C41  1  0.620900  0.859240  0.141400  1.0  0.1221
  C  C42  1  0.876400  0.874650  0.204800  1.0  0.1407
  C  C43  1  0.192300  0.499290  0.288300  1.0  0.1482
  C  C44  1  0.301800  0.503050  0.061100  1.0  0.1103
  C  C45  1  0.446600  0.366680  0.637900  1.0  0.1229
  C  C46  1  0.183300  0.360890  0.645400  1.0  0.1265
  C  C47  1  0.379100  0.140760  0.858600  1.0  0.1207
  C  C48  1  0.123600  0.125350  0.795200  1.0  0.1406
  C  C49  1  0.807700  0.500710  0.711700  1.0  0.1478
  C  C50  1  0.698200  0.496950  0.938900  1.0  0.1089
  N  N51  1  0.824400  0.173700  0.174970  1.0  0.1662
  N  N52  1  0.885130  0.078280  0.086360  1.0  -0.1634
  N  N53  1  0.716930  0.081320  0.091590  1.0  -0.2732
  N  N54  1  0.851300  0.236870  0.232000  1.0  -0.2851
  N  N55  1  0.723300  0.268750  0.221600  1.0  -0.2748
  N  N56  1  0.746800  0.330940  0.283260  1.0  0.1643
  N  N57  1  0.840000  0.416470  0.411500  1.0  -0.2604
  N  N58  1  0.674760  0.426270  0.371180  1.0  -0.2383
  N  N59  1  0.343480  0.000470  0.366590  1.0  0.1423
  N  N60  1  0.150700  0.000790  0.190380  1.0  -0.1823
  N  N61  1  0.080400  0.003600  0.335360  1.0  -0.2716
  N  N62  1  0.500500  0.999400  0.427900  1.0  -0.3249
  N  N63  1  0.175600  0.826300  0.825030  1.0  0.1658
  N  N64  1  0.114870  0.921720  0.913640  1.0  -0.163
  N  N65  1  0.283070  0.918680  0.908410  1.0  -0.2731
  N  N66  1  0.148700  0.763130  0.768000  1.0  -0.2846
  N  N67  1  0.276700  0.731250  0.778400  1.0  -0.2759
  N  N68  1  0.253200  0.669060  0.716740  1.0  0.1634
  N  N69  1  0.160000  0.583530  0.588500  1.0  -0.2613
  N  N70  1  0.325240  0.573730  0.628820  1.0  -0.2369
  N  N71  1  0.656520  0.999530  0.633410  1.0  0.1412
  N  N72  1  0.849300  0.999210  0.809620  1.0  -0.1821
  N  N73  1  0.919600  0.996400  0.664640  1.0  -0.2713
  N  N74  1  0.499500  0.000600  0.572100  1.0  -0.3261
  N  N75  1  0.675600  0.673700  0.325030  1.0  0.1671
  N  N76  1  0.614870  0.578280  0.413640  1.0  -0.1638
  N  N77  1  0.783070  0.581320  0.408410  1.0  -0.2732
  N  N78  1  0.648700  0.736870  0.268000  1.0  -0.2841
  N  N79  1  0.776700  0.768750  0.278400  1.0  -0.2757
  N  N80  1  0.753200  0.830940  0.216740  1.0  0.1644
  N  N81  1  0.660000  0.916470  0.088500  1.0  -0.2614
  N  N82  1  0.825240  0.926270  0.128820  1.0  -0.2376
  N  N83  1  0.156520  0.500470  0.133410  1.0  0.1415
  N  N84  1  0.349300  0.500790  0.309620  1.0  -0.1825
  N  N85  1  0.419600  0.503600  0.164640  1.0  -0.2714
  N  N86  1  0.999500  0.499400  0.072100  1.0  -0.3261
  N  N87  1  0.324400  0.326300  0.674970  1.0  0.1656
  N  N88  1  0.385130  0.421720  0.586360  1.0  -0.1624
  N  N89  1  0.216930  0.418680  0.591590  1.0  -0.2735
  N  N90  1  0.351300  0.263130  0.732000  1.0  -0.2843
  N  N91  1  0.223300  0.231250  0.721600  1.0  -0.2736
  N  N92  1  0.246800  0.169060  0.783260  1.0  0.1646
  N  N93  1  0.340000  0.083530  0.911500  1.0  -0.2605
  N  N94  1  0.174760  0.073730  0.871180  1.0  -0.2367
  N  N95  1  0.843480  0.499530  0.866590  1.0  0.1419
  N  N96  1  0.650700  0.499210  0.690380  1.0  -0.182
  N  N97  1  0.580400  0.496400  0.835360  1.0  -0.2717
  N  N98  1  0.000500  0.500600  0.927900  1.0  -0.3248
