# generated using pymatgen
data_Co5H22C32(N2O9)2
_symmetry_space_group_name_H-M   'P 1'
_cell_length_a   11.18320000
_cell_length_b   18.57750000
_cell_length_c   21.47500000
_cell_angle_alpha   94.61120000
_cell_angle_beta   90.00000000
_cell_angle_gamma   107.51700000
_symmetry_Int_Tables_number   1
_chemical_formula_structural   Co5H22C32(N2O9)2
_chemical_formula_sum   'Co20 H88 C128 N16 O72'
_cell_volume   4239.51921417
_cell_formula_units_Z   4
loop_
 _symmetry_equiv_pos_site_id
 _symmetry_equiv_pos_as_xyz
  1  'x, y, z'
loop_
 _atom_site_type_symbol
 _atom_site_label
 _atom_site_symmetry_multiplicity
 _atom_site_fract_x
 _atom_site_fract_y
 _atom_site_fract_z
 _atom_site_occupancy
 _atom_site_charge
  Co  Co1  1  0.245310  0.651960  0.239960  1.0  0.9855
  Co  Co2  1  0.179680  0.804540  0.180160  1.0  0.9963
  Co  Co3  1  0.680700  0.257440  0.373420  1.0  0.9887
  Co  Co4  1  0.746210  0.721040  0.563760  1.0  1.0618
  Co  Co5  1  0.685130  0.859400  0.504600  1.0  0.9323
  Co  Co6  1  0.593350  0.348040  0.260040  1.0  0.9852
  Co  Co7  1  0.375140  0.195460  0.319840  1.0  0.9939
  Co  Co8  1  0.423260  0.742560  0.126580  1.0  0.9879
  Co  Co9  1  0.025170  0.278960  0.936240  1.0  1.0618
  Co  Co10  1  0.825730  0.140600  0.995400  1.0  0.9314
  Co  Co11  1  0.754690  0.348040  0.760040  1.0  0.9845
  Co  Co12  1  0.820320  0.195460  0.819840  1.0  0.9921
  Co  Co13  1  0.319300  0.742560  0.626580  1.0  0.9879
  Co  Co14  1  0.253790  0.278960  0.436240  1.0  1.0595
  Co  Co15  1  0.314870  0.140600  0.495400  1.0  0.9331
  Co  Co16  1  0.406650  0.651960  0.739960  1.0  0.9848
  Co  Co17  1  0.624860  0.804540  0.680160  1.0  0.9978
  Co  Co18  1  0.576740  0.257440  0.873420  1.0  0.9897
  Co  Co19  1  0.974830  0.721040  0.063760  1.0  1.0596
  Co  Co20  1  0.174270  0.859400  0.004600  1.0  0.9349
  H  H21  1  0.198300  0.677000  0.129900  1.0  0.346
  H  H22  1  0.194700  0.757000  0.069300  1.0  0.215
  H  H23  1  0.768900  0.876000  0.390700  1.0  0.3314
  H  H24  1  0.800500  0.953000  0.423000  1.0  0.3066
  H  H25  1  0.715200  0.467200  0.340400  1.0  0.3198
  H  H26  1  0.583000  0.466600  0.339100  1.0  0.2864
  H  H27  1  0.813700  0.961800  0.589100  1.0  0.3298
  H  H28  1  0.680600  0.959000  0.596300  1.0  0.3243
  H  H29  1  0.181800  0.650600  0.356300  1.0  0.3437
  H  H30  1  0.134700  0.571400  0.328700  1.0  0.3164
  H  H31  1  0.379200  0.968400  0.298000  1.0  0.1255
  H  H32  1  0.716300  0.040000  0.389700  1.0  0.1208
  H  H33  1  0.539600  0.815200  0.354800  1.0  0.1225
  H  H34  1  0.770100  0.706800  0.194900  1.0  0.1219
  H  H35  1  0.506000  0.538800  0.271200  1.0  0.1234
  H  H36  1  0.873000  0.551000  0.285900  1.0  0.1266
  H  H37  1  0.840900  0.209600  0.458600  1.0  0.1221
  H  H38  1  0.953500  0.044600  0.530000  1.0  0.1272
  H  H39  1  0.589700  0.040600  0.540500  1.0  0.1237
  H  H40  1  0.556400  0.544000  0.444800  1.0  0.1251
  H  H41  1  0.215200  0.480600  0.357200  1.0  0.121
  H  H42  1  0.412200  0.703200  0.385700  1.0  0.1234
  H  H43  1  0.521300  0.323000  0.370100  1.0  0.3463
  H  H44  1  0.437700  0.243000  0.430700  1.0  0.2164
  H  H45  1  0.892900  0.124000  0.109300  1.0  0.3303
  H  H46  1  0.847500  0.047000  0.077000  1.0  0.3078
  H  H47  1  0.248000  0.532800  0.159600  1.0  0.3218
  H  H48  1  0.116400  0.533400  0.160900  1.0  0.2859
  H  H49  1  0.851900  0.038200  0.910900  1.0  0.3315
  H  H50  1  0.721600  0.041000  0.903700  1.0  0.324
  H  H51  1  0.531200  0.349400  0.143700  1.0  0.3436
  H  H52  1  0.563300  0.428600  0.171300  1.0  0.3164
  H  H53  1  0.410800  0.031600  0.202000  1.0  0.1257
  H  H54  1  0.676300  0.960000  0.110300  1.0  0.1205
  H  H55  1  0.724400  0.184800  0.145200  1.0  0.1232
  H  H56  1  0.063300  0.293200  0.305100  1.0  0.1217
  H  H57  1  0.967200  0.461200  0.228800  1.0  0.1236
  H  H58  1  0.322000  0.449000  0.214100  1.0  0.1259
  H  H59  1  0.631300  0.790400  0.041400  1.0  0.1217
  H  H60  1  0.908900  0.955400  0.970000  1.0  0.1269
  H  H61  1  0.549100  0.959400  0.959500  1.0  0.1232
  H  H62  1  0.012400  0.456000  0.055200  1.0  0.1247
  H  H63  1  0.734600  0.519400  0.142800  1.0  0.1218
  H  H64  1  0.709000  0.296800  0.114300  1.0  0.1229
  H  H65  1  0.801700  0.323000  0.870100  1.0  0.3467
  H  H66  1  0.805300  0.243000  0.930700  1.0  0.2171
  H  H67  1  0.231100  0.124000  0.609300  1.0  0.3327
  H  H68  1  0.199500  0.047000  0.577000  1.0  0.3072
  H  H69  1  0.284800  0.532800  0.659600  1.0  0.3182
  H  H70  1  0.417000  0.533400  0.660900  1.0  0.2891
  H  H71  1  0.186300  0.038200  0.410900  1.0  0.3279
  H  H72  1  0.319400  0.041000  0.403700  1.0  0.3254
  H  H73  1  0.818200  0.349400  0.643700  1.0  0.3443
  H  H74  1  0.865300  0.428600  0.671300  1.0  0.3156
  H  H75  1  0.620800  0.031600  0.702000  1.0  0.1254
  H  H76  1  0.283700  0.960000  0.610300  1.0  0.1216
  H  H77  1  0.460400  0.184800  0.645200  1.0  0.1234
  H  H78  1  0.229900  0.293200  0.805100  1.0  0.1218
  H  H79  1  0.494000  0.461200  0.728800  1.0  0.1234
  H  H80  1  0.127000  0.449000  0.714100  1.0  0.1257
  H  H81  1  0.159100  0.790400  0.541400  1.0  0.1216
  H  H82  1  0.046500  0.955400  0.470000  1.0  0.1265
  H  H83  1  0.410300  0.959400  0.459500  1.0  0.1229
  H  H84  1  0.443600  0.456000  0.555200  1.0  0.1249
  H  H85  1  0.784800  0.519400  0.642800  1.0  0.1224
  H  H86  1  0.587800  0.296800  0.614300  1.0  0.1227
  H  H87  1  0.478700  0.677000  0.629900  1.0  0.3468
  H  H88  1  0.562300  0.757000  0.569300  1.0  0.2167
  H  H89  1  0.107100  0.876000  0.890700  1.0  0.3322
  H  H90  1  0.152500  0.953000  0.923000  1.0  0.3074
  H  H91  1  0.752000  0.467200  0.840400  1.0  0.3168
  H  H92  1  0.883600  0.466600  0.839100  1.0  0.2894
  H  H93  1  0.148100  0.961800  0.089100  1.0  0.3266
  H  H94  1  0.278400  0.959000  0.096300  1.0  0.3264
  H  H95  1  0.468800  0.650600  0.856300  1.0  0.3431
  H  H96  1  0.436700  0.571400  0.828700  1.0  0.3156
  H  H97  1  0.589200  0.968400  0.798000  1.0  0.1251
  H  H98  1  0.323700  0.040000  0.889700  1.0  0.1215
  H  H99  1  0.275600  0.815200  0.854800  1.0  0.1227
  H  H100  1  0.936700  0.706800  0.694900  1.0  0.1219
  H  H101  1  0.032800  0.538800  0.771200  1.0  0.1228
  H  H102  1  0.678000  0.551000  0.785900  1.0  0.1258
  H  H103  1  0.368700  0.209600  0.958600  1.0  0.1221
  H  H104  1  0.091100  0.044600  0.030000  1.0  0.1265
  H  H105  1  0.450900  0.040600  0.040500  1.0  0.1238
  H  H106  1  0.987600  0.544000  0.944800  1.0  0.1251
  H  H107  1  0.265400  0.480600  0.857200  1.0  0.1221
  H  H108  1  0.291000  0.703200  0.885700  1.0  0.123
  C  C109  1  0.443270  0.882540  0.322400  1.0  -0.1087
  C  C110  1  0.446480  0.957360  0.318100  1.0  -0.0574
  C  C111  1  0.548220  0.016040  0.343100  1.0  -0.1028
  C  C112  1  0.646760  0.999920  0.372500  1.0  -0.141
  C  C113  1  0.643550  0.925100  0.376900  1.0  0.2231
  C  C114  1  0.541810  0.866420  0.351800  1.0  -0.103
  C  C115  1  0.335980  0.817960  0.292900  1.0  0.7185
  C  C116  1  0.551080  0.095960  0.339900  1.0  0.7005
  C  C117  1  0.841390  0.634580  0.238500  1.0  -0.0697
  C  C118  1  0.748290  0.662980  0.217600  1.0  -0.0559
  C  C119  1  0.623330  0.627260  0.229800  1.0  -0.1213
  C  C120  1  0.591370  0.563140  0.262900  1.0  -0.1935
  C  C121  1  0.684470  0.534740  0.283800  1.0  0.2099
  C  C122  1  0.809420  0.570440  0.271600  1.0  -0.1931
  C  C123  1  0.977750  0.674100  0.226000  1.0  0.6839
  C  C124  1  0.520070  0.657140  0.208600  1.0  0.6967
  C  C125  1  0.700380  0.130160  0.497700  1.0  -0.0834
  C  C126  1  0.822110  0.164420  0.479400  1.0  -0.0585
  C  C127  1  0.916450  0.132500  0.491400  1.0  -0.1391
  C  C128  1  0.888970  0.066340  0.521800  1.0  -0.1997
  C  C129  1  0.767240  0.032080  0.540100  1.0  0.2258
  C  C130  1  0.672890  0.063980  0.528000  1.0  -0.1882
  C  C131  1  0.593870  0.160740  0.483000  1.0  0.6856
  C  C132  1  0.050190  0.167980  0.473900  1.0  0.6884
  C  C133  1  0.501170  0.632540  0.418900  1.0  -0.1163
  C  C134  1  0.490790  0.556980  0.424900  1.0  -0.0525
  C  C135  1  0.384180  0.500360  0.401900  1.0  -0.0909
  C  C136  1  0.288060  0.519320  0.372900  1.0  -0.2091
  C  C137  1  0.298440  0.594880  0.366800  1.0  0.2134
  C  C138  1  0.405050  0.651500  0.389800  1.0  -0.1239
  C  C139  1  0.609310  0.694420  0.448600  1.0  0.6991
  C  C140  1  0.367930  0.419460  0.410100  1.0  0.6627
  C  C141  1  0.560730  0.117460  0.177600  1.0  -0.1076
  C  C142  1  0.489120  0.042640  0.181900  1.0  -0.0574
  C  C143  1  0.532180  0.983960  0.156900  1.0  -0.1024
  C  C144  1  0.646840  0.000080  0.127500  1.0  -0.1382
  C  C145  1  0.718450  0.074900  0.123100  1.0  0.2252
  C  C146  1  0.675390  0.133580  0.148200  1.0  -0.1052
  C  C147  1  0.518020  0.182040  0.207100  1.0  0.7196
  C  C148  1  0.455120  0.904040  0.160100  1.0  0.7019
  C  C149  1  0.206810  0.365420  0.261500  1.0  -0.0668
  C  C150  1  0.085310  0.337020  0.282400  1.0  -0.0573
  C  C151  1  0.996070  0.372740  0.270200  1.0  -0.1219
  C  C152  1  0.028230  0.436860  0.237100  1.0  -0.1934
  C  C153  1  0.149730  0.465260  0.216200  1.0  0.2101
  C  C154  1  0.238980  0.429560  0.228400  1.0  -0.1947
  C  C155  1  0.303650  0.325900  0.274000  1.0  0.6816
  C  C156  1  0.862930  0.342860  0.291400  1.0  0.6972
  C  C157  1  0.570220  0.869840  0.002300  1.0  -0.0836
  C  C158  1  0.657690  0.835580  0.020600  1.0  -0.0578
  C  C159  1  0.783950  0.867500  0.008600  1.0  -0.1411
  C  C160  1  0.822630  0.933660  0.978200  1.0  -0.2007
  C  C161  1  0.735160  0.967920  0.959900  1.0  0.2255
  C  C162  1  0.608910  0.936020  0.972000  1.0  -0.188
  C  C163  1  0.433130  0.839260  0.017000  1.0  0.6862
  C  C164  1  0.882210  0.832020  0.026100  1.0  0.6878
  C  C165  1  0.868630  0.367460  0.081100  1.0  -0.1165
  C  C166  1  0.933810  0.443020  0.075100  1.0  -0.053
  C  C167  1  0.883820  0.499640  0.098100  1.0  -0.0903
  C  C168  1  0.768740  0.480680  0.127100  1.0  -0.2131
  C  C169  1  0.703560  0.405120  0.133200  1.0  0.2114
  C  C170  1  0.753550  0.348500  0.110200  1.0  -0.1259
  C  C171  1  0.914890  0.305580  0.051400  1.0  0.6995
  C  C172  1  0.948470  0.580540  0.089900  1.0  0.6641
  C  C173  1  0.556730  0.117460  0.677600  1.0  -0.1078
  C  C174  1  0.553520  0.042640  0.681900  1.0  -0.0568
  C  C175  1  0.451780  0.983960  0.656900  1.0  -0.1017
  C  C176  1  0.353240  0.000080  0.627500  1.0  -0.1401
  C  C177  1  0.356450  0.074900  0.623100  1.0  0.2261
  C  C178  1  0.458190  0.133580  0.648200  1.0  -0.1055
  C  C179  1  0.664020  0.182040  0.707100  1.0  0.7199
  C  C180  1  0.448920  0.904040  0.660100  1.0  0.7012
  C  C181  1  0.158610  0.365420  0.761500  1.0  -0.067
  C  C182  1  0.251710  0.337020  0.782400  1.0  -0.0569
  C  C183  1  0.376670  0.372740  0.770200  1.0  -0.122
  C  C184  1  0.408630  0.436860  0.737100  1.0  -0.1896
  C  C185  1  0.315530  0.465260  0.716200  1.0  0.2094
  C  C186  1  0.190580  0.429560  0.728400  1.0  -0.1969
  C  C187  1  0.022250  0.325900  0.774000  1.0  0.6808
  C  C188  1  0.479930  0.342860  0.791400  1.0  0.6977
  C  C189  1  0.299620  0.869840  0.502300  1.0  -0.0856
  C  C190  1  0.177890  0.835580  0.520600  1.0  -0.0585
  C  C191  1  0.083550  0.867500  0.508600  1.0  -0.1417
  C  C192  1  0.111030  0.933660  0.478200  1.0  -0.2038
  C  C193  1  0.232760  0.967920  0.459900  1.0  0.2243
  C  C194  1  0.327110  0.936020  0.472000  1.0  -0.184
  C  C195  1  0.406130  0.839260  0.517000  1.0  0.6866
  C  C196  1  0.949810  0.832020  0.526100  1.0  0.6876
  C  C197  1  0.498830  0.367460  0.581100  1.0  -0.1166
  C  C198  1  0.509210  0.443020  0.575100  1.0  -0.0541
  C  C199  1  0.615820  0.499640  0.598100  1.0  -0.0904
  C  C200  1  0.711940  0.480680  0.627100  1.0  -0.213
  C  C201  1  0.701560  0.405120  0.633200  1.0  0.2119
  C  C202  1  0.594950  0.348500  0.610200  1.0  -0.1249
  C  C203  1  0.390690  0.305580  0.551400  1.0  0.6991
  C  C204  1  0.632070  0.580540  0.589900  1.0  0.6639
  C  C205  1  0.439270  0.882540  0.822400  1.0  -0.1085
  C  C206  1  0.510880  0.957360  0.818100  1.0  -0.0573
  C  C207  1  0.467820  0.016040  0.843100  1.0  -0.1021
  C  C208  1  0.353160  0.999920  0.872500  1.0  -0.1414
  C  C209  1  0.281550  0.925100  0.876900  1.0  0.2239
  C  C210  1  0.324610  0.866420  0.851800  1.0  -0.1038
  C  C211  1  0.481980  0.817960  0.792900  1.0  0.7187
  C  C212  1  0.544880  0.095960  0.839900  1.0  0.7004
  C  C213  1  0.793190  0.634580  0.738500  1.0  -0.0688
  C  C214  1  0.914690  0.662980  0.717600  1.0  -0.0556
  C  C215  1  0.003930  0.627260  0.729800  1.0  -0.122
  C  C216  1  0.971770  0.563140  0.762900  1.0  -0.1894
  C  C217  1  0.850270  0.534740  0.783800  1.0  0.2098
  C  C218  1  0.761020  0.570440  0.771600  1.0  -0.197
  C  C219  1  0.696350  0.674100  0.726000  1.0  0.6827
  C  C220  1  0.137070  0.657140  0.708600  1.0  0.6981
  C  C221  1  0.429780  0.130160  0.997700  1.0  -0.0854
  C  C222  1  0.342310  0.164420  0.979400  1.0  -0.0587
  C  C223  1  0.216050  0.132500  0.991400  1.0  -0.1394
  C  C224  1  0.177370  0.066340  0.021800  1.0  -0.2034
  C  C225  1  0.264840  0.032080  0.040100  1.0  0.2249
  C  C226  1  0.391090  0.063980  0.028000  1.0  -0.1835
  C  C227  1  0.566870  0.160740  0.983000  1.0  0.6865
  C  C228  1  0.117790  0.167980  0.973900  1.0  0.6874
  C  C229  1  0.131370  0.632540  0.918900  1.0  -0.1156
  C  C230  1  0.066190  0.556980  0.924900  1.0  -0.0538
  C  C231  1  0.116180  0.500360  0.901900  1.0  -0.0912
  C  C232  1  0.231260  0.519320  0.872900  1.0  -0.2088
  C  C233  1  0.296440  0.594880  0.866800  1.0  0.2138
  C  C234  1  0.246450  0.651500  0.889800  1.0  -0.1228
  C  C235  1  0.085110  0.694420  0.948600  1.0  0.6993
  C  C236  1  0.051530  0.419460  0.910100  1.0  0.6633
  N  N237  1  0.736370  0.908540  0.414800  1.0  -0.5726
  N  N238  1  0.649200  0.465200  0.314000  1.0  -0.613
  N  N239  1  0.742380  0.961560  0.567500  1.0  -0.6127
  N  N240  1  0.204170  0.613540  0.332400  1.0  -0.5867
  N  N241  1  0.827830  0.091460  0.085200  1.0  -0.575
  N  N242  1  0.184000  0.534800  0.186000  1.0  -0.6127
  N  N243  1  0.780820  0.038440  0.932500  1.0  -0.6138
  N  N244  1  0.590630  0.386460  0.167600  1.0  -0.5857
  N  N245  1  0.263630  0.091460  0.585200  1.0  -0.5772
  N  N246  1  0.350800  0.534800  0.686000  1.0  -0.6114
  N  N247  1  0.257620  0.038440  0.432500  1.0  -0.6124
  N  N248  1  0.795830  0.386460  0.667600  1.0  -0.5848
  N  N249  1  0.172170  0.908540  0.914800  1.0  -0.5754
  N  N250  1  0.816000  0.465200  0.814000  1.0  -0.6116
  N  N251  1  0.219180  0.961560  0.067500  1.0  -0.6111
  N  N252  1  0.409370  0.613540  0.832400  1.0  -0.5878
  O  O253  1  0.349390  0.753580  0.289500  1.0  -0.566
  O  O254  1  0.239650  0.833100  0.273500  1.0  -0.6113
  O  O255  1  0.446550  0.108500  0.338700  1.0  -0.6081
  O  O256  1  0.655370  0.146940  0.339700  1.0  -0.5631
  O  O257  1  0.055230  0.643660  0.245100  1.0  -0.599
  O  O258  1  0.004010  0.732820  0.197700  1.0  -0.6261
  O  O259  1  0.548700  0.705400  0.168000  1.0  -0.6014
  O  O260  1  0.415610  0.632220  0.231100  1.0  -0.5858
  O  O261  1  0.487840  0.122680  0.497700  1.0  -0.5725
  O  O262  1  0.616950  0.221900  0.457100  1.0  -0.606
  O  O263  1  0.072410  0.220020  0.437100  1.0  -0.6036
  O  O264  1  0.130260  0.143320  0.496300  1.0  -0.6239
  O  O265  1  0.604810  0.761020  0.447600  1.0  -0.5786
  O  O266  1  0.695570  0.676540  0.474900  1.0  -0.5666
  O  O267  1  0.460940  0.396080  0.415400  1.0  -0.6244
  O  O268  1  0.255610  0.376620  0.409400  1.0  -0.5788
  O  O269  1  0.254740  0.712480  0.162600  1.0  -0.8305
  O  O270  1  0.143480  0.791160  0.082200  1.0  -0.8328
  O  O271  1  0.595810  0.246420  0.210500  1.0  -0.5659
  O  O272  1  0.406550  0.166900  0.226500  1.0  -0.6111
  O  O273  1  0.338050  0.891500  0.161300  1.0  -0.6078
  O  O274  1  0.508430  0.853060  0.160300  1.0  -0.564
  O  O275  1  0.411570  0.356340  0.254900  1.0  -0.5959
  O  O276  1  0.271190  0.267180  0.302300  1.0  -0.6259
  O  O277  1  0.843300  0.294600  0.332000  1.0  -0.5986
  O  O278  1  0.783390  0.367780  0.268900  1.0  -0.5854
  O  O279  1  0.365160  0.877320  0.002300  1.0  -0.5718
  O  O280  1  0.395050  0.778100  0.042900  1.0  -0.6064
  O  O281  1  0.852390  0.779980  0.062900  1.0  -0.6006
  O  O282  1  0.986940  0.856680  0.003700  1.0  -0.6251
  O  O283  1  0.843790  0.238980  0.052400  1.0  -0.5786
  O  O284  1  0.019030  0.323460  0.025100  1.0  -0.5662
  O  O285  1  0.064860  0.603920  0.084600  1.0  -0.6243
  O  O286  1  0.878990  0.623380  0.090600  1.0  -0.5803
  O  O287  1  0.542260  0.287520  0.337400  1.0  -0.8324
  O  O288  1  0.352320  0.208840  0.417800  1.0  -0.8329
  O  O289  1  0.650610  0.246420  0.710500  1.0  -0.5658
  O  O290  1  0.760350  0.166900  0.726500  1.0  -0.6135
  O  O291  1  0.553450  0.891500  0.661300  1.0  -0.6065
  O  O292  1  0.344630  0.853060  0.660300  1.0  -0.565
  O  O293  1  0.944770  0.356340  0.754900  1.0  -0.5964
  O  O294  1  0.995990  0.267180  0.802300  1.0  -0.6262
  O  O295  1  0.451300  0.294600  0.832000  1.0  -0.6009
  O  O296  1  0.584390  0.367780  0.768900  1.0  -0.5859
  O  O297  1  0.512160  0.877320  0.502300  1.0  -0.5726
  O  O298  1  0.383050  0.778100  0.542900  1.0  -0.6066
  O  O299  1  0.927590  0.779980  0.562900  1.0  -0.6004
  O  O300  1  0.869740  0.856680  0.503700  1.0  -0.6243
  O  O301  1  0.395190  0.238980  0.552400  1.0  -0.5794
  O  O302  1  0.304430  0.323460  0.525100  1.0  -0.565
  O  O303  1  0.539060  0.603920  0.584600  1.0  -0.6227
  O  O304  1  0.744390  0.623380  0.590600  1.0  -0.5804
  O  O305  1  0.745260  0.287520  0.837400  1.0  -0.8331
  O  O306  1  0.856520  0.208840  0.917800  1.0  -0.834
  O  O307  1  0.404190  0.753580  0.789500  1.0  -0.5659
  O  O308  1  0.593450  0.833100  0.773500  1.0  -0.6125
  O  O309  1  0.661950  0.108500  0.838700  1.0  -0.6068
  O  O310  1  0.491570  0.146940  0.839700  1.0  -0.564
  O  O311  1  0.588430  0.643660  0.745100  1.0  -0.5983
  O  O312  1  0.728810  0.732820  0.697700  1.0  -0.6258
  O  O313  1  0.156700  0.705400  0.668000  1.0  -0.6003
  O  O314  1  0.216610  0.632220  0.731100  1.0  -0.5862
  O  O315  1  0.634840  0.122680  0.997700  1.0  -0.5731
  O  O316  1  0.604950  0.221900  0.957100  1.0  -0.6075
  O  O317  1  0.147610  0.220020  0.937100  1.0  -0.6028
  O  O318  1  0.013060  0.143320  0.996300  1.0  -0.6243
  O  O319  1  0.156210  0.761020  0.947600  1.0  -0.5799
  O  O320  1  0.980970  0.676540  0.974900  1.0  -0.5648
  O  O321  1  0.935140  0.396080  0.915400  1.0  -0.6228
  O  O322  1  0.121010  0.376620  0.909400  1.0  -0.5788
  O  O323  1  0.457740  0.712480  0.662600  1.0  -0.8309
  O  O324  1  0.647680  0.791160  0.582200  1.0  -0.8345
