# generated using pymatgen
data_Cu4H16C32N16ClO8
_symmetry_space_group_name_H-M   'P 1'
_cell_length_a   13.17800000
_cell_length_b   13.17900000
_cell_length_c   13.87790000
_cell_angle_alpha   118.34800000
_cell_angle_beta   118.34500000
_cell_angle_gamma   89.99990000
_symmetry_Int_Tables_number   1
_chemical_formula_structural   Cu4H16C32N16ClO8
_chemical_formula_sum   'Cu4 H16 C32 N16 Cl1 O8'
_cell_volume   1786.04174391
_cell_formula_units_Z   1
loop_
 _symmetry_equiv_pos_site_id
 _symmetry_equiv_pos_as_xyz
  1  'x, y, z'
loop_
 _atom_site_type_symbol
 _atom_site_label
 _atom_site_symmetry_multiplicity
 _atom_site_fract_x
 _atom_site_fract_y
 _atom_site_fract_z
 _atom_site_occupancy
 _atom_site_charge
  Cu  Cu1  1  0.910590  0.715420  0.821180  1.0  0.8598
  Cu  Cu2  1  0.910590  0.105760  0.821180  1.0  0.8574
  Cu  Cu3  1  0.105710  0.910550  0.821100  1.0  0.8649
  Cu  Cu4  1  0.715390  0.910550  0.821100  1.0  0.8635
  H  H5  1  0.764300  0.292500  0.267200  1.0  0.1127
  H  H6  1  0.976100  0.502400  0.268200  1.0  0.1008
  H  H7  1  0.835400  0.428300  0.476400  1.0  0.0977
  H  H8  1  0.053300  0.640300  0.478200  1.0  0.0995
  H  H9  1  0.502900  0.974700  0.267200  1.0  0.1085
  H  H10  1  0.292100  0.765800  0.268200  1.0  0.0975
  H  H11  1  0.641000  0.048100  0.476400  1.0  0.0991
  H  H12  1  0.424900  0.837900  0.478200  1.0  0.1013
  H  H13  1  0.502900  0.292500  0.267200  1.0  0.1114
  H  H14  1  0.292100  0.502400  0.268200  1.0  0.0979
  H  H15  1  0.641000  0.428300  0.476400  1.0  0.1005
  H  H16  1  0.424900  0.640300  0.478200  1.0  0.1006
  H  H17  1  0.764300  0.974700  0.267200  1.0  0.1081
  H  H18  1  0.976100  0.765800  0.268200  1.0  0.101
  H  H19  1  0.835400  0.048100  0.476400  1.0  0.0991
  H  H20  1  0.053300  0.837900  0.478200  1.0  0.1032
  C  C21  1  0.870400  0.266300  0.137200  1.0  0.2364
  C  C22  1  0.988300  0.645500  0.633400  1.0  0.7887
  C  C23  1  0.889400  0.361000  0.251200  1.0  -0.0056
  C  C24  1  0.833400  0.358300  0.314400  1.0  -0.1049
  C  C25  1  0.957500  0.481100  0.315600  1.0  -0.0889
  C  C26  1  0.871600  0.443400  0.437600  1.0  -0.072
  C  C27  1  0.997300  0.566300  0.438600  1.0  -0.1132
  C  C28  1  0.960600  0.552400  0.513000  1.0  -0.0414
  C  C29  1  0.266800  0.870900  0.137200  1.0  0.2245
  C  C30  1  0.645100  0.987900  0.633400  1.0  0.788
  C  C31  1  0.361800  0.890200  0.251200  1.0  0.0002
  C  C32  1  0.481000  0.956100  0.314400  1.0  -0.1041
  C  C33  1  0.358100  0.834500  0.315600  1.0  -0.0883
  C  C34  1  0.566000  0.994200  0.437600  1.0  -0.0709
  C  C35  1  0.441300  0.872300  0.438600  1.0  -0.115
  C  C36  1  0.552400  0.960600  0.513000  1.0  -0.042
  C  C37  1  0.266800  0.266300  0.137200  1.0  0.2429
  C  C38  1  0.645100  0.645500  0.633400  1.0  0.7905
  C  C39  1  0.361800  0.361000  0.251200  1.0  -0.0048
  C  C40  1  0.481000  0.358300  0.314400  1.0  -0.1062
  C  C41  1  0.358100  0.481100  0.315600  1.0  -0.087
  C  C42  1  0.566000  0.443400  0.437600  1.0  -0.074
  C  C43  1  0.441300  0.566300  0.438600  1.0  -0.1152
  C  C44  1  0.552400  0.552400  0.513000  1.0  -0.0391
  C  C45  1  0.870400  0.870900  0.137200  1.0  0.243
  C  C46  1  0.988300  0.987900  0.633400  1.0  0.792
  C  C47  1  0.889400  0.890200  0.251200  1.0  -0.0018
  C  C48  1  0.833400  0.956100  0.314400  1.0  -0.1056
  C  C49  1  0.957500  0.834500  0.315600  1.0  -0.0858
  C  C50  1  0.871600  0.994200  0.437600  1.0  -0.0712
  C  C51  1  0.997300  0.872300  0.438600  1.0  -0.113
  C  C52  1  0.960600  0.960600  0.513000  1.0  -0.0379
  N  N53  1  0.792900  0.092700  0.960400  1.0  -0.0628
  N  N54  1  0.868000  0.165300  0.959800  1.0  -0.0977
  N  N55  1  0.790230  0.152630  0.061060  1.0  -0.1836
  N  N56  1  0.909410  0.269910  0.061020  1.0  -0.1978
  N  N57  1  0.167500  0.867700  0.960400  1.0  -0.0498
  N  N58  1  0.091800  0.794500  0.959800  1.0  -0.0918
  N  N59  1  0.270830  0.908430  0.061060  1.0  -0.182
  N  N60  1  0.151610  0.791110  0.061020  1.0  -0.2023
  N  N61  1  0.167500  0.092700  0.960400  1.0  -0.0629
  N  N62  1  0.091800  0.165300  0.959800  1.0  -0.0889
  N  N63  1  0.270830  0.152630  0.061060  1.0  -0.186
  N  N64  1  0.151610  0.269910  0.061020  1.0  -0.198
  N  N65  1  0.792900  0.867700  0.960400  1.0  -0.0554
  N  N66  1  0.868000  0.794500  0.959800  1.0  -0.0915
  N  N67  1  0.790230  0.908430  0.061060  1.0  -0.18
  N  N68  1  0.909410  0.791110  0.061020  1.0  -0.1988
  Cl  Cl69  1  0.902220  0.902220  0.804440  1.0  -0.3782
  O  O70  1  0.938700  0.630200  0.683200  1.0  -0.6304
  O  O71  1  0.052700  0.745800  0.684200  1.0  -0.6182
  O  O72  1  0.744500  0.053000  0.683200  1.0  -0.6314
  O  O73  1  0.631500  0.938400  0.684200  1.0  -0.6179
  O  O74  1  0.744500  0.630200  0.683200  1.0  -0.6227
  O  O75  1  0.631500  0.745800  0.684200  1.0  -0.6197
  O  O76  1  0.938700  0.053000  0.683200  1.0  -0.6409
  O  O77  1  0.052700  0.938400  0.684200  1.0  -0.6141
