# generated using pymatgen
data_CdH14C20(NO)4
_symmetry_space_group_name_H-M   'P 1'
_cell_length_a   16.72000000
_cell_length_b   17.08100000
_cell_length_c   18.43200000
_cell_angle_alpha   90.00000000
_cell_angle_beta   90.00000000
_cell_angle_gamma   90.00000000
_symmetry_Int_Tables_number   1
_chemical_formula_structural   CdH14C20(NO)4
_chemical_formula_sum   'Cd8 H112 C160 N32 O32'
_cell_volume   5264.07450624
_cell_formula_units_Z   8
loop_
 _symmetry_equiv_pos_site_id
 _symmetry_equiv_pos_as_xyz
  1  'x, y, z'
loop_
 _atom_site_type_symbol
 _atom_site_label
 _atom_site_symmetry_multiplicity
 _atom_site_fract_x
 _atom_site_fract_y
 _atom_site_fract_z
 _atom_site_occupancy
 _atom_site_charge
  Cd  Cd1  1  0.776870  0.991500  0.519100  1.0  0.9581
  Cd  Cd2  1  0.276870  0.508500  0.480900  1.0  0.9577
  Cd  Cd3  1  0.276870  0.991500  0.980900  1.0  0.958
  Cd  Cd4  1  0.776870  0.508500  0.019100  1.0  0.9585
  Cd  Cd5  1  0.723130  0.008500  0.019100  1.0  0.9583
  Cd  Cd6  1  0.223130  0.491500  0.980900  1.0  0.9582
  Cd  Cd7  1  0.223130  0.008500  0.480900  1.0  0.9579
  Cd  Cd8  1  0.723130  0.491500  0.519100  1.0  0.9583
  H  H9  1  0.597500  0.939200  0.613600  1.0  0.1162
  H  H10  1  0.478600  0.022300  0.619000  1.0  0.1366
  H  H11  1  0.640800  0.123100  0.492800  1.0  0.1033
  H  H12  1  0.387300  0.113400  0.553200  1.0  0.1006
  H  H13  1  0.310800  0.224100  0.534900  1.0  0.0892
  H  H14  1  0.510500  0.351600  0.509600  1.0  0.1077
  H  H15  1  0.587000  0.242300  0.530600  1.0  0.1134
  H  H16  1  0.689700  0.046100  0.358200  1.0  0.1094
  H  H17  1  0.687200  0.969400  0.245300  1.0  0.1466
  H  H18  1  0.813900  0.855300  0.393700  1.0  0.1012
  H  H19  1  0.773900  0.739600  0.331400  1.0  0.1257
  H  H20  1  0.791600  0.636800  0.250200  1.0  0.0901
  H  H21  1  0.776600  0.784600  0.082700  1.0  0.0909
  H  H22  1  0.764400  0.889300  0.161600  1.0  0.1195
  H  H23  1  0.097500  0.560800  0.386400  1.0  0.1151
  H  H24  1  0.978600  0.477700  0.381000  1.0  0.137
  H  H25  1  0.140800  0.376900  0.507200  1.0  0.1039
  H  H26  1  0.887300  0.386600  0.446800  1.0  0.1028
  H  H27  1  0.810800  0.275900  0.465100  1.0  0.0889
  H  H28  1  0.010500  0.148400  0.490400  1.0  0.1077
  H  H29  1  0.087000  0.257700  0.469400  1.0  0.1132
  H  H30  1  0.189700  0.453900  0.641800  1.0  0.1089
  H  H31  1  0.187200  0.530600  0.754700  1.0  0.1472
  H  H32  1  0.313900  0.644700  0.606300  1.0  0.103
  H  H33  1  0.273900  0.760400  0.668600  1.0  0.1266
  H  H34  1  0.291600  0.863200  0.749800  1.0  0.0905
  H  H35  1  0.276600  0.715400  0.917300  1.0  0.0913
  H  H36  1  0.264400  0.610700  0.838400  1.0  0.12
  H  H37  1  0.097500  0.939200  0.886400  1.0  0.1157
  H  H38  1  0.978600  0.022300  0.881000  1.0  0.1367
  H  H39  1  0.140800  0.123100  0.007200  1.0  0.1054
  H  H40  1  0.887300  0.113400  0.946800  1.0  0.1025
  H  H41  1  0.810800  0.224100  0.965100  1.0  0.0892
  H  H42  1  0.010500  0.351600  0.990400  1.0  0.1075
  H  H43  1  0.087000  0.242300  0.969400  1.0  0.1132
  H  H44  1  0.189700  0.046100  0.141800  1.0  0.1092
  H  H45  1  0.187200  0.969400  0.254700  1.0  0.1469
  H  H46  1  0.313900  0.855300  0.106300  1.0  0.1023
  H  H47  1  0.273900  0.739600  0.168600  1.0  0.1261
  H  H48  1  0.291600  0.636800  0.249800  1.0  0.0901
  H  H49  1  0.276600  0.784600  0.417300  1.0  0.0912
  H  H50  1  0.264400  0.889300  0.338400  1.0  0.1193
  H  H51  1  0.597500  0.560800  0.113600  1.0  0.1158
  H  H52  1  0.478600  0.477700  0.119000  1.0  0.1368
  H  H53  1  0.640800  0.376900  0.992800  1.0  0.103
  H  H54  1  0.387300  0.386600  0.053200  1.0  0.1029
  H  H55  1  0.310800  0.275900  0.034900  1.0  0.0889
  H  H56  1  0.510500  0.148400  0.009600  1.0  0.1079
  H  H57  1  0.587000  0.257700  0.030600  1.0  0.1119
  H  H58  1  0.689700  0.453900  0.858200  1.0  0.1089
  H  H59  1  0.687200  0.530600  0.745300  1.0  0.1468
  H  H60  1  0.813900  0.644700  0.893700  1.0  0.1025
  H  H61  1  0.773900  0.760400  0.831400  1.0  0.1272
  H  H62  1  0.791600  0.863200  0.750200  1.0  0.0899
  H  H63  1  0.776600  0.715400  0.582700  1.0  0.0911
  H  H64  1  0.764400  0.610700  0.661600  1.0  0.1198
  H  H65  1  0.902500  0.060800  0.113600  1.0  0.1154
  H  H66  1  0.021400  0.977700  0.119000  1.0  0.1366
  H  H67  1  0.859200  0.876900  0.992800  1.0  0.1029
  H  H68  1  0.112700  0.886600  0.053200  1.0  0.1028
  H  H69  1  0.189200  0.775900  0.034900  1.0  0.0895
  H  H70  1  0.989500  0.648400  0.009600  1.0  0.1079
  H  H71  1  0.913000  0.757700  0.030600  1.0  0.1139
  H  H72  1  0.810300  0.953900  0.858200  1.0  0.1093
  H  H73  1  0.812800  0.030600  0.745300  1.0  0.1468
  H  H74  1  0.686100  0.144700  0.893700  1.0  0.1038
  H  H75  1  0.726100  0.260400  0.831400  1.0  0.1261
  H  H76  1  0.708400  0.363200  0.750200  1.0  0.0899
  H  H77  1  0.723400  0.215400  0.582700  1.0  0.0911
  H  H78  1  0.735600  0.110700  0.661600  1.0  0.1196
  H  H79  1  0.402500  0.439200  0.886400  1.0  0.1165
  H  H80  1  0.521400  0.522300  0.881000  1.0  0.1365
  H  H81  1  0.359200  0.623100  0.007200  1.0  0.1037
  H  H82  1  0.612700  0.613400  0.946800  1.0  0.1022
  H  H83  1  0.689200  0.724100  0.965100  1.0  0.0896
  H  H84  1  0.489500  0.851600  0.990400  1.0  0.1077
  H  H85  1  0.413000  0.742300  0.969400  1.0  0.114
  H  H86  1  0.310300  0.546100  0.141800  1.0  0.1094
  H  H87  1  0.312800  0.469400  0.254700  1.0  0.1465
  H  H88  1  0.186100  0.355300  0.106300  1.0  0.1037
  H  H89  1  0.226100  0.239600  0.168600  1.0  0.1251
  H  H90  1  0.208400  0.136800  0.249800  1.0  0.0901
  H  H91  1  0.223400  0.284600  0.417300  1.0  0.0912
  H  H92  1  0.235600  0.389300  0.338400  1.0  0.1192
  H  H93  1  0.402500  0.060800  0.386400  1.0  0.1156
  H  H94  1  0.521400  0.977700  0.381000  1.0  0.1367
  H  H95  1  0.359200  0.876900  0.507200  1.0  0.1036
  H  H96  1  0.612700  0.886600  0.446800  1.0  0.1027
  H  H97  1  0.689200  0.775900  0.465100  1.0  0.0896
  H  H98  1  0.489500  0.648400  0.490400  1.0  0.1077
  H  H99  1  0.413000  0.757700  0.469400  1.0  0.1138
  H  H100  1  0.310300  0.953900  0.641800  1.0  0.1092
  H  H101  1  0.312800  0.030600  0.754700  1.0  0.1469
  H  H102  1  0.186100  0.144700  0.606300  1.0  0.1046
  H  H103  1  0.226100  0.260400  0.668600  1.0  0.1258
  H  H104  1  0.208400  0.363200  0.749800  1.0  0.0905
  H  H105  1  0.223400  0.215400  0.917300  1.0  0.0912
  H  H106  1  0.235600  0.110700  0.838400  1.0  0.1198
  H  H107  1  0.902500  0.439200  0.613600  1.0  0.1157
  H  H108  1  0.021400  0.522300  0.619000  1.0  0.1367
  H  H109  1  0.859200  0.623100  0.492800  1.0  0.1033
  H  H110  1  0.112700  0.613400  0.553200  1.0  0.1023
  H  H111  1  0.189200  0.724100  0.534900  1.0  0.0896
  H  H112  1  0.989500  0.851600  0.509600  1.0  0.1079
  H  H113  1  0.913000  0.742300  0.530600  1.0  0.1144
  H  H114  1  0.810300  0.546100  0.358200  1.0  0.1096
  H  H115  1  0.812800  0.469400  0.245300  1.0  0.1466
  H  H116  1  0.686100  0.355300  0.393700  1.0  0.1021
  H  H117  1  0.726100  0.239600  0.331400  1.0  0.1256
  H  H118  1  0.708400  0.136800  0.250200  1.0  0.0902
  H  H119  1  0.723400  0.284600  0.082700  1.0  0.091
  H  H120  1  0.735600  0.389300  0.161600  1.0  0.1194
  C  C121  1  0.591400  0.986900  0.590000  1.0  0.0408
  C  C122  1  0.525600  0.032600  0.593800  1.0  -0.1414
  C  C123  1  0.615900  0.087900  0.524000  1.0  0.1539
  C  C124  1  0.494000  0.166100  0.541700  1.0  0.1232
  C  C125  1  0.412000  0.161200  0.544200  1.0  -0.1785
  C  C126  1  0.366300  0.227600  0.533400  1.0  -0.0129
  C  C127  1  0.402400  0.299600  0.520300  1.0  -0.1446
  C  C128  1  0.485800  0.303900  0.518700  1.0  -0.0043
  C  C129  1  0.531600  0.238600  0.530300  1.0  -0.1846
  C  C130  1  0.352400  0.370500  0.508400  1.0  0.6658
  C  C131  1  0.714600  0.998100  0.351000  1.0  0.0231
  C  C132  1  0.712700  0.955800  0.288400  1.0  -0.1374
  C  C133  1  0.782900  0.893300  0.371000  1.0  0.1591
  C  C134  1  0.768200  0.824700  0.252700  1.0  0.1309
  C  C135  1  0.775600  0.748500  0.281700  1.0  -0.1975
  C  C136  1  0.785300  0.687400  0.232600  1.0  0.001
  C  C137  1  0.786000  0.699700  0.159000  1.0  -0.1524
  C  C138  1  0.777100  0.776000  0.132500  1.0  0.0037
  C  C139  1  0.769100  0.838600  0.179400  1.0  -0.1779
  C  C140  1  0.792800  0.631000  0.108400  1.0  0.649
  C  C141  1  0.091400  0.513100  0.410000  1.0  0.042
  C  C142  1  0.025600  0.467400  0.406200  1.0  -0.1419
  C  C143  1  0.115900  0.412100  0.476000  1.0  0.1539
  C  C144  1  0.994000  0.333900  0.458300  1.0  0.123
  C  C145  1  0.912000  0.338800  0.455800  1.0  -0.1791
  C  C146  1  0.866300  0.272400  0.466600  1.0  0.0046
  C  C147  1  0.902400  0.200400  0.479700  1.0  -0.1447
  C  C148  1  0.985800  0.196100  0.481300  1.0  -0.0019
  C  C149  1  0.031600  0.261400  0.469700  1.0  -0.1841
  C  C150  1  0.852400  0.129500  0.491600  1.0  0.6659
  C  C151  1  0.214600  0.501900  0.649000  1.0  0.0227
  C  C152  1  0.212700  0.544200  0.711600  1.0  -0.1375
  C  C153  1  0.282900  0.606700  0.629000  1.0  0.1582
  C  C154  1  0.268200  0.675300  0.747300  1.0  0.1312
  C  C155  1  0.275600  0.751500  0.718300  1.0  -0.1992
  C  C156  1  0.285300  0.812600  0.767400  1.0  0.0023
  C  C157  1  0.286000  0.800300  0.841000  1.0  -0.1523
  C  C158  1  0.277100  0.724000  0.867500  1.0  -0.0059
  C  C159  1  0.269100  0.661400  0.820600  1.0  -0.1775
  C  C160  1  0.292800  0.869000  0.891600  1.0  0.6501
  C  C161  1  0.091400  0.986900  0.910000  1.0  0.0409
  C  C162  1  0.025600  0.032600  0.906200  1.0  -0.1404
  C  C163  1  0.115900  0.087900  0.976000  1.0  0.1538
  C  C164  1  0.994000  0.166100  0.958300  1.0  0.1231
  C  C165  1  0.912000  0.161200  0.955800  1.0  -0.179
  C  C166  1  0.866300  0.227600  0.966600  1.0  -0.0126
  C  C167  1  0.902400  0.299600  0.979700  1.0  -0.1446
  C  C168  1  0.985800  0.303900  0.981300  1.0  -0.0043
  C  C169  1  0.031600  0.238600  0.969700  1.0  -0.1847
  C  C170  1  0.852400  0.370500  0.991600  1.0  0.6667
  C  C171  1  0.214600  0.998100  0.149000  1.0  0.023
  C  C172  1  0.212700  0.955800  0.211600  1.0  -0.1377
  C  C173  1  0.282900  0.893300  0.129000  1.0  0.1588
  C  C174  1  0.268200  0.824700  0.247300  1.0  0.1313
  C  C175  1  0.275600  0.748500  0.218300  1.0  -0.1969
  C  C176  1  0.285300  0.687400  0.267400  1.0  0.0011
  C  C177  1  0.286000  0.699700  0.341000  1.0  -0.1526
  C  C178  1  0.277100  0.776000  0.367500  1.0  0.0009
  C  C179  1  0.269100  0.838600  0.320600  1.0  -0.1779
  C  C180  1  0.292800  0.631000  0.391600  1.0  0.65
  C  C181  1  0.591400  0.513100  0.090000  1.0  0.041
  C  C182  1  0.525600  0.467400  0.093800  1.0  -0.1434
  C  C183  1  0.615900  0.412100  0.024000  1.0  0.1539
  C  C184  1  0.494000  0.333900  0.041700  1.0  0.1231
  C  C185  1  0.412000  0.338800  0.044200  1.0  -0.1784
  C  C186  1  0.366300  0.272400  0.033400  1.0  0.0044
  C  C187  1  0.402400  0.200400  0.020300  1.0  -0.1446
  C  C188  1  0.485800  0.196100  0.018700  1.0  -0.0015
  C  C189  1  0.531600  0.261400  0.030300  1.0  -0.1841
  C  C190  1  0.352400  0.129500  0.008400  1.0  0.6649
  C  C191  1  0.714600  0.501900  0.851000  1.0  0.023
  C  C192  1  0.712700  0.544200  0.788400  1.0  -0.1375
  C  C193  1  0.782900  0.606700  0.871000  1.0  0.1586
  C  C194  1  0.768200  0.675300  0.752700  1.0  0.1308
  C  C195  1  0.775600  0.751500  0.781700  1.0  -0.1994
  C  C196  1  0.785300  0.812600  0.732600  1.0  0.0024
  C  C197  1  0.786000  0.800300  0.659000  1.0  -0.1524
  C  C198  1  0.777100  0.724000  0.632500  1.0  -0.0082
  C  C199  1  0.769100  0.661400  0.679400  1.0  -0.1781
  C  C200  1  0.792800  0.869000  0.608400  1.0  0.6491
  C  C201  1  0.908600  0.013100  0.090000  1.0  0.0402
  C  C202  1  0.974400  0.967400  0.093800  1.0  -0.1428
  C  C203  1  0.884100  0.912100  0.024000  1.0  0.1538
  C  C204  1  0.006000  0.833900  0.041700  1.0  0.1232
  C  C205  1  0.088000  0.838800  0.044200  1.0  -0.1799
  C  C206  1  0.133700  0.772400  0.033400  1.0  -0.0037
  C  C207  1  0.097600  0.700400  0.020300  1.0  -0.1446
  C  C208  1  0.014200  0.696100  0.018700  1.0  -0.0041
  C  C209  1  0.968400  0.761400  0.030300  1.0  -0.184
  C  C210  1  0.147600  0.629500  0.008400  1.0  0.6638
  C  C211  1  0.785400  0.001900  0.851000  1.0  0.0232
  C  C212  1  0.787300  0.044200  0.788400  1.0  -0.1365
  C  C213  1  0.717100  0.106700  0.871000  1.0  0.1571
  C  C214  1  0.731800  0.175300  0.752700  1.0  0.131
  C  C215  1  0.724400  0.251500  0.781700  1.0  -0.1987
  C  C216  1  0.714700  0.312600  0.732600  1.0  0.0021
  C  C217  1  0.714000  0.300300  0.659000  1.0  -0.1521
  C  C218  1  0.722900  0.224000  0.632500  1.0  -0.0006
  C  C219  1  0.730900  0.161400  0.679400  1.0  -0.1774
  C  C220  1  0.707200  0.369000  0.608400  1.0  0.6479
  C  C221  1  0.408600  0.486900  0.910000  1.0  0.0401
  C  C222  1  0.474400  0.532600  0.906200  1.0  -0.1411
  C  C223  1  0.384100  0.587900  0.976000  1.0  0.1535
  C  C224  1  0.506000  0.666100  0.958300  1.0  0.1231
  C  C225  1  0.588000  0.661200  0.955800  1.0  -0.1804
  C  C226  1  0.633700  0.727600  0.966600  1.0  -0.0017
  C  C227  1  0.597600  0.799600  0.979700  1.0  -0.1448
  C  C228  1  0.514200  0.803900  0.981300  1.0  -0.0017
  C  C229  1  0.468400  0.738600  0.969700  1.0  -0.1845
  C  C230  1  0.647600  0.870500  0.991600  1.0  0.6654
  C  C231  1  0.285400  0.498100  0.149000  1.0  0.0234
  C  C232  1  0.287300  0.455800  0.211600  1.0  -0.1378
  C  C233  1  0.217100  0.393300  0.129000  1.0  0.1582
  C  C234  1  0.231800  0.324700  0.247300  1.0  0.1315
  C  C235  1  0.224400  0.248500  0.218300  1.0  -0.1959
  C  C236  1  0.214700  0.187400  0.267400  1.0  0.001
  C  C237  1  0.214000  0.199700  0.341000  1.0  -0.1524
  C  C238  1  0.222900  0.276000  0.367500  1.0  -0.0003
  C  C239  1  0.230900  0.338600  0.320600  1.0  -0.1773
  C  C240  1  0.207200  0.131000  0.391600  1.0  0.6495
  C  C241  1  0.408600  0.013100  0.410000  1.0  0.0424
  C  C242  1  0.474400  0.967400  0.406200  1.0  -0.1425
  C  C243  1  0.384100  0.912100  0.476000  1.0  0.1535
  C  C244  1  0.506000  0.833900  0.458300  1.0  0.123
  C  C245  1  0.588000  0.838800  0.455800  1.0  -0.1801
  C  C246  1  0.633700  0.772400  0.466600  1.0  -0.0031
  C  C247  1  0.597600  0.700400  0.479700  1.0  -0.1448
  C  C248  1  0.514200  0.696100  0.481300  1.0  -0.0043
  C  C249  1  0.468400  0.761400  0.469700  1.0  -0.1841
  C  C250  1  0.647600  0.629500  0.491600  1.0  0.6639
  C  C251  1  0.285400  0.001900  0.649000  1.0  0.0233
  C  C252  1  0.287300  0.044200  0.711600  1.0  -0.1361
  C  C253  1  0.217100  0.106700  0.629000  1.0  0.1576
  C  C254  1  0.231800  0.175300  0.747300  1.0  0.1315
  C  C255  1  0.224400  0.251500  0.718300  1.0  -0.1982
  C  C256  1  0.214700  0.312600  0.767400  1.0  0.0019
  C  C257  1  0.214000  0.300300  0.841000  1.0  -0.152
  C  C258  1  0.222900  0.224000  0.867500  1.0  -1e-04
  C  C259  1  0.230900  0.161400  0.820600  1.0  -0.1769
  C  C260  1  0.207200  0.369000  0.891600  1.0  0.6488
  C  C261  1  0.908600  0.486900  0.590000  1.0  0.0416
  C  C262  1  0.974400  0.532600  0.593800  1.0  -0.141
  C  C263  1  0.884100  0.587900  0.524000  1.0  0.1539
  C  C264  1  0.006000  0.666100  0.541700  1.0  0.1233
  C  C265  1  0.088000  0.661200  0.544200  1.0  -0.1801
  C  C266  1  0.133700  0.727600  0.533400  1.0  -0.0019
  C  C267  1  0.097600  0.799600  0.520300  1.0  -0.1447
  C  C268  1  0.014200  0.803900  0.518700  1.0  -0.0016
  C  C269  1  0.968400  0.738600  0.530300  1.0  -0.1842
  C  C270  1  0.147600  0.870500  0.508400  1.0  0.6653
  C  C271  1  0.785400  0.498100  0.351000  1.0  0.0231
  C  C272  1  0.787300  0.455800  0.288400  1.0  -0.138
  C  C273  1  0.717100  0.393300  0.371000  1.0  0.1575
  C  C274  1  0.731800  0.324700  0.252700  1.0  0.1311
  C  C275  1  0.724400  0.248500  0.281700  1.0  -0.1967
  C  C276  1  0.714700  0.187400  0.232600  1.0  0.0009
  C  C277  1  0.714000  0.199700  0.159000  1.0  -0.1523
  C  C278  1  0.722900  0.276000  0.132500  1.0  -0.0004
  C  C279  1  0.730900  0.338600  0.179400  1.0  -0.1772
  C  C280  1  0.707200  0.131000  0.108400  1.0  0.6483
  N  N281  1  0.648700  0.021300  0.545900  1.0  -0.402
  N  N282  1  0.542600  0.098600  0.551900  1.0  0.0392
  N  N283  1  0.759400  0.958400  0.402000  1.0  -0.3829
  N  N284  1  0.756400  0.888500  0.301900  1.0  0.0374
  N  N285  1  0.148700  0.478700  0.454100  1.0  -0.4029
  N  N286  1  0.042600  0.401400  0.448100  1.0  0.0392
  N  N287  1  0.259400  0.541600  0.598000  1.0  -0.3837
  N  N288  1  0.256400  0.611500  0.698100  1.0  0.0373
  N  N289  1  0.148700  0.021300  0.954100  1.0  -0.4023
  N  N290  1  0.042600  0.098600  0.948100  1.0  0.0392
  N  N291  1  0.259400  0.958400  0.098000  1.0  -0.3827
  N  N292  1  0.256400  0.888500  0.198100  1.0  0.0375
  N  N293  1  0.648700  0.478700  0.045900  1.0  -0.4027
  N  N294  1  0.542600  0.401400  0.051900  1.0  0.0395
  N  N295  1  0.759400  0.541600  0.902000  1.0  -0.383
  N  N296  1  0.756400  0.611500  0.801900  1.0  0.0377
  N  N297  1  0.851300  0.978700  0.045900  1.0  -0.4029
  N  N298  1  0.957400  0.901400  0.051900  1.0  0.0392
  N  N299  1  0.740600  0.041600  0.902000  1.0  -0.3835
  N  N300  1  0.743600  0.111500  0.801900  1.0  0.0371
  N  N301  1  0.351300  0.521300  0.954100  1.0  -0.4032
  N  N302  1  0.457400  0.598600  0.948100  1.0  0.0389
  N  N303  1  0.240600  0.458400  0.098000  1.0  -0.3823
  N  N304  1  0.243600  0.388500  0.198100  1.0  0.0375
  N  N305  1  0.351300  0.978700  0.454100  1.0  -0.4033
  N  N306  1  0.457400  0.901400  0.448100  1.0  0.0392
  N  N307  1  0.240600  0.041600  0.598000  1.0  -0.3838
  N  N308  1  0.243600  0.111500  0.698100  1.0  0.0374
  N  N309  1  0.851300  0.521300  0.545900  1.0  -0.4028
  N  N310  1  0.957400  0.598600  0.551900  1.0  0.0388
  N  N311  1  0.740600  0.458400  0.402000  1.0  -0.3834
  N  N312  1  0.743600  0.388500  0.301900  1.0  0.0367
  O  O313  1  0.384700  0.431900  0.483400  1.0  -0.5997
  O  O314  1  0.279000  0.368000  0.522200  1.0  -0.6246
  O  O315  1  0.798700  0.644500  0.040700  1.0  -0.6004
  O  O316  1  0.790000  0.563400  0.133700  1.0  -0.6016
  O  O317  1  0.884700  0.068100  0.516600  1.0  -0.6001
  O  O318  1  0.779000  0.132000  0.477800  1.0  -0.6215
  O  O319  1  0.298700  0.855500  0.959300  1.0  -0.6032
  O  O320  1  0.290000  0.936600  0.866300  1.0  -0.6019
  O  O321  1  0.884700  0.431900  0.016600  1.0  -0.5992
  O  O322  1  0.779000  0.368000  0.977800  1.0  -0.6209
  O  O323  1  0.298700  0.644500  0.459300  1.0  -0.6003
  O  O324  1  0.290000  0.563400  0.366300  1.0  -0.6025
  O  O325  1  0.384700  0.068100  0.983400  1.0  -0.6
  O  O326  1  0.279000  0.132000  0.022200  1.0  -0.6214
  O  O327  1  0.798700  0.855500  0.540700  1.0  -0.6035
  O  O328  1  0.790000  0.936600  0.633700  1.0  -0.6004
  O  O329  1  0.115300  0.568100  0.983400  1.0  -0.5997
  O  O330  1  0.221000  0.632000  0.022200  1.0  -0.6257
  O  O331  1  0.701300  0.355500  0.540700  1.0  -0.6049
  O  O332  1  0.710000  0.436600  0.633700  1.0  -0.5974
  O  O333  1  0.615300  0.931900  0.016600  1.0  -0.5989
  O  O334  1  0.721000  0.868000  0.977800  1.0  -0.6268
  O  O335  1  0.201300  0.144500  0.459300  1.0  -0.6023
  O  O336  1  0.210000  0.063400  0.366300  1.0  -0.6
  O  O337  1  0.615300  0.568100  0.516600  1.0  -0.599
  O  O338  1  0.721000  0.632000  0.477800  1.0  -0.6237
  O  O339  1  0.201300  0.355500  0.959300  1.0  -0.6046
  O  O340  1  0.210000  0.436600  0.866300  1.0  -0.6025
  O  O341  1  0.115300  0.931900  0.483400  1.0  -0.5994
  O  O342  1  0.221000  0.868000  0.522200  1.0  -0.6275
  O  O343  1  0.701300  0.144500  0.040700  1.0  -0.6029
  O  O344  1  0.710000  0.063400  0.133700  1.0  -0.5988
