# generated using pymatgen
data_CdH14C20(NO)4
_symmetry_space_group_name_H-M   'P 1'
_cell_length_a   8.25400000
_cell_length_b   18.00600000
_cell_length_c   18.89600000
_cell_angle_alpha   90.00000000
_cell_angle_beta   90.00000000
_cell_angle_gamma   90.00000000
_symmetry_Int_Tables_number   1
_chemical_formula_structural   CdH14C20(NO)4
_chemical_formula_sum   'Cd4 H56 C80 N16 O16'
_cell_volume   2808.35231750
_cell_formula_units_Z   4
loop_
 _symmetry_equiv_pos_site_id
 _symmetry_equiv_pos_as_xyz
  1  'x, y, z'
loop_
 _atom_site_type_symbol
 _atom_site_label
 _atom_site_symmetry_multiplicity
 _atom_site_fract_x
 _atom_site_fract_y
 _atom_site_fract_z
 _atom_site_occupancy
 _atom_site_charge
  Cd  Cd1  1  0.487310  0.093370  0.027270  1.0  0.9575
  Cd  Cd2  1  0.512690  0.593370  0.972730  1.0  0.9581
  Cd  Cd3  1  0.512690  0.093370  0.527270  1.0  0.9588
  Cd  Cd4  1  0.487310  0.593370  0.472730  1.0  0.9581
  H  H5  1  0.648900  0.084900  0.864100  1.0  0.1047
  H  H6  1  0.501300  0.071900  0.750500  1.0  0.1328
  H  H7  1  0.184000  0.108500  0.905400  1.0  0.1078
  H  H8  1  0.001500  0.034200  0.828000  1.0  0.11
  H  H9  1  0.784200  0.037000  0.750600  1.0  0.0992
  H  H10  1  0.066400  0.131500  0.602200  1.0  0.0902
  H  H11  1  0.284100  0.129800  0.680100  1.0  0.1078
  H  H12  1  0.418000  0.252500  0.130100  1.0  0.1127
  H  H13  1  0.600500  0.360800  0.134900  1.0  0.1415
  H  H14  1  0.786300  0.210700  0.003600  1.0  0.0992
  H  H15  1  0.742000  0.444400  0.038700  1.0  0.1137
  H  H16  1  0.957600  0.523300  0.012600  1.0  0.0952
  H  H17  1  0.266100  0.351300  0.024000  1.0  0.0937
  H  H18  1  0.052400  0.271300  0.049800  1.0  0.1247
  H  H19  1  0.351100  0.584900  0.135900  1.0  0.1048
  H  H20  1  0.498700  0.571900  0.249500  1.0  0.1332
  H  H21  1  0.816000  0.608500  0.094600  1.0  0.1081
  H  H22  1  0.998500  0.534200  0.172000  1.0  0.1099
  H  H23  1  0.215800  0.537000  0.249400  1.0  0.0991
  H  H24  1  0.933600  0.631500  0.397800  1.0  0.0904
  H  H25  1  0.715900  0.629800  0.319900  1.0  0.1074
  H  H26  1  0.582000  0.752500  0.869900  1.0  0.1126
  H  H27  1  0.399500  0.860800  0.865100  1.0  0.1414
  H  H28  1  0.213700  0.710700  0.996400  1.0  0.099
  H  H29  1  0.258000  0.944400  0.961300  1.0  0.1142
  H  H30  1  0.042400  0.023300  0.987400  1.0  0.0956
  H  H31  1  0.733900  0.851300  0.976000  1.0  0.0947
  H  H32  1  0.947600  0.771300  0.950200  1.0  0.1247
  H  H33  1  0.351100  0.084900  0.364100  1.0  0.105
  H  H34  1  0.498700  0.071900  0.250500  1.0  0.1329
  H  H35  1  0.816000  0.108500  0.405400  1.0  0.1079
  H  H36  1  0.998500  0.034200  0.328000  1.0  0.1101
  H  H37  1  0.215800  0.037000  0.250600  1.0  0.0993
  H  H38  1  0.933600  0.131500  0.102200  1.0  0.0905
  H  H39  1  0.715900  0.129800  0.180100  1.0  0.1075
  H  H40  1  0.582000  0.252500  0.630100  1.0  0.1131
  H  H41  1  0.399500  0.360800  0.634900  1.0  0.1414
  H  H42  1  0.213700  0.210700  0.503600  1.0  0.1
  H  H43  1  0.258000  0.444400  0.538700  1.0  0.1141
  H  H44  1  0.042400  0.523300  0.512600  1.0  0.0953
  H  H45  1  0.733900  0.351300  0.524000  1.0  0.0943
  H  H46  1  0.947600  0.271300  0.549800  1.0  0.1247
  H  H47  1  0.648900  0.584900  0.635900  1.0  0.1047
  H  H48  1  0.501300  0.571900  0.749500  1.0  0.1332
  H  H49  1  0.184000  0.608500  0.594600  1.0  0.1081
  H  H50  1  0.001500  0.534200  0.672000  1.0  0.1099
  H  H51  1  0.784200  0.537000  0.749400  1.0  0.0991
  H  H52  1  0.066400  0.631500  0.897800  1.0  0.0903
  H  H53  1  0.284100  0.629800  0.819900  1.0  0.1077
  H  H54  1  0.418000  0.752500  0.369900  1.0  0.1125
  H  H55  1  0.600500  0.860800  0.365100  1.0  0.1412
  H  H56  1  0.786300  0.710700  0.496400  1.0  0.1011
  H  H57  1  0.742000  0.944400  0.461300  1.0  0.1135
  H  H58  1  0.957600  0.023300  0.487400  1.0  0.0955
  H  H59  1  0.266100  0.851300  0.476000  1.0  0.0941
  H  H60  1  0.052400  0.771300  0.450200  1.0  0.1248
  C  C61  1  0.537300  0.087900  0.858100  1.0  0.018
  C  C62  1  0.456100  0.080200  0.794900  1.0  -0.1345
  C  C63  1  0.280900  0.100600  0.881500  1.0  0.1482
  C  C64  1  0.161500  0.085800  0.762500  1.0  0.1292
  C  C65  1  0.013200  0.054900  0.783200  1.0  -0.1893
  C  C66  1  0.884200  0.055500  0.736400  1.0  -0.015
  C  C67  1  0.902500  0.083700  0.668100  1.0  -0.1479
  C  C68  1  0.053200  0.112300  0.647500  1.0  -0.0056
  C  C69  1  0.183300  0.112200  0.694400  1.0  -0.1704
  C  C70  1  0.763000  0.088200  0.617200  1.0  0.6539
  C  C71  1  0.514600  0.257900  0.105300  1.0  0.0154
  C  C72  1  0.615400  0.318100  0.108000  1.0  -0.1256
  C  C73  1  0.717400  0.234500  0.035200  1.0  0.1665
  C  C74  1  0.878000  0.351100  0.047800  1.0  0.1297
  C  C75  1  0.847100  0.425900  0.036100  1.0  -0.1814
  C  C76  1  0.976600  0.473100  0.020300  1.0  -0.01
  C  C77  1  0.134000  0.445500  0.016100  1.0  -0.1353
  C  C78  1  0.161200  0.369900  0.027100  1.0  -0.012
  C  C79  1  0.033900  0.321700  0.042800  1.0  -0.1895
  C  C80  1  0.272500  0.497300  0.000200  1.0  0.6473
  C  C81  1  0.462700  0.587900  0.141900  1.0  0.0182
  C  C82  1  0.543900  0.580200  0.205100  1.0  -0.1347
  C  C83  1  0.719100  0.600600  0.118500  1.0  0.1484
  C  C84  1  0.838500  0.585800  0.237500  1.0  0.1297
  C  C85  1  0.986800  0.554900  0.216800  1.0  -0.1892
  C  C86  1  0.115800  0.555500  0.263600  1.0  -0.0141
  C  C87  1  0.097500  0.583700  0.331900  1.0  -0.1472
  C  C88  1  0.946800  0.612300  0.352500  1.0  -0.0055
  C  C89  1  0.816700  0.612200  0.305600  1.0  -0.17
  C  C90  1  0.237000  0.588200  0.382800  1.0  0.6557
  C  C91  1  0.485400  0.757900  0.894700  1.0  0.0137
  C  C92  1  0.384600  0.818100  0.892000  1.0  -0.1257
  C  C93  1  0.282600  0.734500  0.964800  1.0  0.1669
  C  C94  1  0.122000  0.851100  0.952200  1.0  0.1295
  C  C95  1  0.152900  0.925900  0.963900  1.0  -0.1814
  C  C96  1  0.023400  0.973100  0.979700  1.0  -0.0102
  C  C97  1  0.866000  0.945500  0.983900  1.0  -0.1372
  C  C98  1  0.838800  0.869900  0.972900  1.0  -0.0117
  C  C99  1  0.966100  0.821700  0.957200  1.0  -0.1888
  C  C100  1  0.727500  0.997300  0.999800  1.0  0.6469
  C  C101  1  0.462700  0.087900  0.358100  1.0  0.0171
  C  C102  1  0.543900  0.080200  0.294900  1.0  -0.1348
  C  C103  1  0.719100  0.100600  0.381500  1.0  0.1478
  C  C104  1  0.838500  0.085800  0.262500  1.0  0.1293
  C  C105  1  0.986800  0.054900  0.283200  1.0  -0.1892
  C  C106  1  0.115800  0.055500  0.236400  1.0  -0.0142
  C  C107  1  0.097500  0.083700  0.168100  1.0  -0.1468
  C  C108  1  0.946800  0.112300  0.147500  1.0  -0.0057
  C  C109  1  0.816700  0.112200  0.194400  1.0  -0.1695
  C  C110  1  0.237000  0.088200  0.117200  1.0  0.6543
  C  C111  1  0.485400  0.257900  0.605300  1.0  0.0158
  C  C112  1  0.384600  0.318100  0.608000  1.0  -0.1247
  C  C113  1  0.282600  0.234500  0.535200  1.0  0.1672
  C  C114  1  0.122000  0.351100  0.547800  1.0  0.1293
  C  C115  1  0.152900  0.425900  0.536100  1.0  -0.1807
  C  C116  1  0.023400  0.473100  0.520300  1.0  -0.0099
  C  C117  1  0.866000  0.445500  0.516100  1.0  -0.1362
  C  C118  1  0.838800  0.369900  0.527100  1.0  -0.0119
  C  C119  1  0.966100  0.321700  0.542800  1.0  -0.1892
  C  C120  1  0.727500  0.497300  0.500200  1.0  0.6476
  C  C121  1  0.537300  0.587900  0.641900  1.0  0.0191
  C  C122  1  0.456100  0.580200  0.705100  1.0  -0.1344
  C  C123  1  0.280900  0.600600  0.618500  1.0  0.1488
  C  C124  1  0.161500  0.585800  0.737500  1.0  0.1296
  C  C125  1  0.013200  0.554900  0.716800  1.0  -0.1895
  C  C126  1  0.884200  0.555500  0.763600  1.0  -0.0151
  C  C127  1  0.902500  0.583700  0.831900  1.0  -0.1477
  C  C128  1  0.053200  0.612300  0.852500  1.0  -0.0054
  C  C129  1  0.183300  0.612200  0.805600  1.0  -0.1706
  C  C130  1  0.763000  0.588200  0.882800  1.0  0.655
  C  C131  1  0.514600  0.757900  0.394700  1.0  0.0136
  C  C132  1  0.615400  0.818100  0.392000  1.0  -0.1252
  C  C133  1  0.717400  0.734500  0.464800  1.0  0.1665
  C  C134  1  0.878000  0.851100  0.452200  1.0  0.1298
  C  C135  1  0.847100  0.925900  0.463900  1.0  -0.182
  C  C136  1  0.976600  0.973100  0.479700  1.0  -0.0105
  C  C137  1  0.134000  0.945500  0.483900  1.0  -0.1367
  C  C138  1  0.161200  0.869900  0.472900  1.0  -0.0121
  C  C139  1  0.033900  0.821700  0.457200  1.0  -0.189
  C  C140  1  0.272500  0.997300  0.499800  1.0  0.6467
  N  N141  1  0.424900  0.101000  0.911100  1.0  -0.3771
  N  N142  1  0.293200  0.087200  0.811100  1.0  0.0439
  N  N143  1  0.581600  0.206000  0.058800  1.0  -0.3809
  N  N144  1  0.745100  0.303200  0.062600  1.0  0.0236
  N  N145  1  0.575100  0.601000  0.088900  1.0  -0.3715
  N  N146  1  0.706800  0.587200  0.188900  1.0  0.0437
  N  N147  1  0.418400  0.706000  0.941200  1.0  -0.3824
  N  N148  1  0.254900  0.803200  0.937400  1.0  0.0238
  N  N149  1  0.575100  0.101000  0.411100  1.0  -0.3775
  N  N150  1  0.706800  0.087200  0.311100  1.0  0.0435
  N  N151  1  0.418400  0.206000  0.558800  1.0  -0.3823
  N  N152  1  0.254900  0.303200  0.562600  1.0  0.0243
  N  N153  1  0.424900  0.601000  0.588900  1.0  -0.3722
  N  N154  1  0.293200  0.587200  0.688900  1.0  0.0441
  N  N155  1  0.581600  0.706000  0.441200  1.0  -0.3808
  N  N156  1  0.745100  0.803200  0.437400  1.0  0.0231
  O  O157  1  0.626800  0.061200  0.636100  1.0  -0.61
  O  O158  1  0.785200  0.117700  0.557400  1.0  -0.5915
  O  O159  1  0.241700  0.566100  0.998400  1.0  -0.5977
  O  O160  1  0.413200  0.472000  0.989000  1.0  -0.5966
  O  O161  1  0.373200  0.561200  0.363900  1.0  -0.61
  O  O162  1  0.214800  0.617700  0.442600  1.0  -0.5929
  O  O163  1  0.758300  0.066100  0.001600  1.0  -0.5975
  O  O164  1  0.586800  0.972000  0.011000  1.0  -0.5968
  O  O165  1  0.373200  0.061200  0.136100  1.0  -0.6108
  O  O166  1  0.214800  0.117700  0.057400  1.0  -0.5939
  O  O167  1  0.758300  0.566100  0.498400  1.0  -0.5977
  O  O168  1  0.586800  0.472000  0.489000  1.0  -0.5968
  O  O169  1  0.626800  0.561200  0.863900  1.0  -0.6097
  O  O170  1  0.785200  0.617700  0.942600  1.0  -0.5938
  O  O171  1  0.241700  0.066100  0.501600  1.0  -0.5975
  O  O172  1  0.413200  0.972000  0.511000  1.0  -0.5964
