# generated using pymatgen
data_NbFe2(CN)8
_symmetry_space_group_name_H-M   'P 1'
_cell_length_a   10.75510000
_cell_length_b   10.75510000
_cell_length_c   10.75510000
_cell_angle_alpha   104.04100000
_cell_angle_beta   112.25300000
_cell_angle_gamma   112.25300000
_symmetry_Int_Tables_number   1
_chemical_formula_structural   NbFe2(CN)8
_chemical_formula_sum   'Nb2 Fe4 C16 N16'
_cell_volume   951.30497663
_cell_formula_units_Z   2
loop_
 _symmetry_equiv_pos_site_id
 _symmetry_equiv_pos_as_xyz
  1  'x, y, z'
loop_
 _atom_site_type_symbol
 _atom_site_label
 _atom_site_symmetry_multiplicity
 _atom_site_fract_x
 _atom_site_fract_y
 _atom_site_fract_z
 _atom_site_occupancy
 _atom_site_charge
  Nb  Nb1  1  0.000000  0.249640  0.249640  1.0  0.3891
  Nb  Nb2  1  0.000000  0.750360  0.750360  1.0  0.3882
  Fe  Fe3  1  0.492020  0.801150  0.690870  1.0  0.9663
  Fe  Fe4  1  0.507980  0.198850  0.309130  1.0  0.9645
  Fe  Fe5  1  0.889720  0.690870  0.198850  1.0  0.9722
  Fe  Fe6  1  0.110280  0.309130  0.801150  1.0  0.9679
  C  C7  1  0.780800  0.076410  0.023810  1.0  0.1042
  C  C8  1  0.800010  0.190420  0.292230  1.0  0.0976
  C  C9  1  0.219200  0.243010  0.295610  1.0  0.0974
  C  C10  1  0.199990  0.492220  0.390410  1.0  0.1016
  C  C11  1  0.947400  0.023810  0.243010  1.0  0.1048
  C  C12  1  0.101810  0.292230  0.492220  1.0  0.1008
  C  C13  1  0.052600  0.295610  0.076410  1.0  0.113
  C  C14  1  0.898190  0.390410  0.190420  1.0  0.1079
  C  C15  1  0.219200  0.923590  0.976190  1.0  0.1027
  C  C16  1  0.199990  0.809580  0.707770  1.0  0.0971
  C  C17  1  0.780800  0.756990  0.704390  1.0  0.0978
  C  C18  1  0.800010  0.507780  0.609590  1.0  0.1016
  C  C19  1  0.052600  0.976190  0.756990  1.0  0.1037
  C  C20  1  0.898190  0.707770  0.507780  1.0  0.1014
  C  C21  1  0.947400  0.704390  0.923590  1.0  0.1127
  C  C22  1  0.101810  0.609590  0.809580  1.0  0.1085
  N  N23  1  0.668070  0.983490  0.911760  1.0  -0.3883
  N  N24  1  0.693930  0.164780  0.306430  1.0  -0.398
  N  N25  1  0.331930  0.243690  0.315420  1.0  -0.3782
  N  N26  1  0.306070  0.612500  0.470850  1.0  -0.4143
  N  N27  1  0.928270  0.911760  0.243690  1.0  -0.3884
  N  N28  1  0.141650  0.306430  0.612500  1.0  -0.3976
  N  N29  1  0.071730  0.315420  0.983490  1.0  -0.3896
  N  N30  1  0.858350  0.470850  0.164780  1.0  -0.3967
  N  N31  1  0.331930  0.016510  0.088240  1.0  -0.3908
  N  N32  1  0.306070  0.835220  0.693570  1.0  -0.3968
  N  N33  1  0.668070  0.756310  0.684580  1.0  -0.3763
  N  N34  1  0.693930  0.387500  0.529150  1.0  -0.4126
  N  N35  1  0.071730  0.088240  0.756310  1.0  -0.3886
  N  N36  1  0.858350  0.693570  0.387500  1.0  -0.3964
  N  N37  1  0.928270  0.684580  0.016510  1.0  -0.3896
  N  N38  1  0.141650  0.529150  0.835220  1.0  -0.3989
