# generated using pymatgen
data_GdH12C12(NO3)3
_symmetry_space_group_name_H-M   'P 1'
_cell_length_a   7.96260000
_cell_length_b   12.13310000
_cell_length_c   13.31820000
_cell_angle_alpha   111.95100000
_cell_angle_beta   104.93800000
_cell_angle_gamma   91.57600000
_symmetry_Int_Tables_number   1
_chemical_formula_structural   GdH12C12(NO3)3
_chemical_formula_sum   'Gd2 H24 C24 N6 O18'
_cell_volume   1142.00767426
_cell_formula_units_Z   2
loop_
 _symmetry_equiv_pos_site_id
 _symmetry_equiv_pos_as_xyz
  1  'x, y, z'
loop_
 _atom_site_type_symbol
 _atom_site_label
 _atom_site_symmetry_multiplicity
 _atom_site_fract_x
 _atom_site_fract_y
 _atom_site_fract_z
 _atom_site_occupancy
 _atom_site_charge
  Gd  Gd1  1  0.748700  0.981280  0.010580  1.0  2.2078
  Gd  Gd2  1  0.251300  0.018720  0.989420  1.0  2.211
  H  H3  1  0.076500  0.152900  0.415700  1.0  0.0932
  H  H4  1  0.067900  0.275200  0.401300  1.0  0.0868
  H  H5  1  0.291500  0.112300  0.314800  1.0  0.1285
  H  H6  1  0.256000  0.227900  0.290400  1.0  0.1235
  H  H7  1  0.586300  0.109500  0.673500  1.0  0.0925
  H  H8  1  0.690100  0.226000  0.776400  1.0  0.0871
  H  H9  1  0.352700  0.120200  0.751400  1.0  0.1364
  H  H10  1  0.448200  0.240800  0.851800  1.0  0.1322
  H  H11  1  0.613900  0.601400  0.770300  1.0  0.085
  H  H12  1  0.503300  0.610800  0.658400  1.0  0.0889
  H  H13  1  0.347600  0.591500  0.820100  1.0  0.1404
  H  H14  1  0.250900  0.617200  0.714500  1.0  0.1388
  H  H15  1  0.923500  0.847100  0.584300  1.0  0.0923
  H  H16  1  0.932100  0.724800  0.598700  1.0  0.087
  H  H17  1  0.708500  0.887700  0.685200  1.0  0.1311
  H  H18  1  0.744000  0.772100  0.709600  1.0  0.1239
  H  H19  1  0.413700  0.890500  0.326500  1.0  0.0925
  H  H20  1  0.309900  0.774000  0.223600  1.0  0.0882
  H  H21  1  0.647300  0.879800  0.248600  1.0  0.1364
  H  H22  1  0.551800  0.759200  0.148200  1.0  0.1352
  H  H23  1  0.386100  0.398600  0.229700  1.0  0.0857
  H  H24  1  0.496700  0.389200  0.341600  1.0  0.0875
  H  H25  1  0.652400  0.408500  0.179900  1.0  0.1386
  H  H26  1  0.749100  0.382800  0.285500  1.0  0.1386
  C  C27  1  0.336200  0.396800  0.555200  1.0  0.6148
  C  C28  1  0.364000  0.201800  0.567000  1.0  0.6161
  C  C29  1  0.532900  0.381700  0.722500  1.0  0.6212
  C  C30  1  0.144400  0.216200  0.409200  1.0  0.0712
  C  C31  1  0.203400  0.163700  0.304000  1.0  -0.3942
  C  C32  1  0.050800  0.092200  0.203500  1.0  0.8029
  C  C33  1  0.573800  0.185800  0.728500  1.0  0.0874
  C  C34  1  0.466700  0.164200  0.800100  1.0  -0.3936
  C  C35  1  0.555800  0.094700  0.866900  1.0  0.7924
  C  C36  1  0.499400  0.578900  0.714800  1.0  0.0881
  C  C37  1  0.362100  0.632300  0.772100  1.0  -0.3971
  C  C38  1  0.404900  0.765100  0.842600  1.0  0.8183
  C  C39  1  0.663800  0.603200  0.444800  1.0  0.6144
  C  C40  1  0.636000  0.798200  0.433000  1.0  0.6138
  C  C41  1  0.467100  0.618300  0.277500  1.0  0.6228
  C  C42  1  0.855600  0.783800  0.590800  1.0  0.0718
  C  C43  1  0.796600  0.836300  0.696000  1.0  -0.3935
  C  C44  1  0.949200  0.907800  0.796500  1.0  0.8009
  C  C45  1  0.426200  0.814200  0.271500  1.0  0.0883
  C  C46  1  0.533300  0.835800  0.199900  1.0  -0.3949
  C  C47  1  0.444200  0.905300  0.133100  1.0  0.7974
  C  C48  1  0.500600  0.421100  0.285200  1.0  0.0893
  C  C49  1  0.637900  0.367700  0.227900  1.0  -0.3986
  C  C50  1  0.595100  0.234900  0.157400  1.0  0.8174
  N  N51  1  0.458700  0.446900  0.660100  1.0  -0.321
  N  N52  1  0.290100  0.273500  0.513500  1.0  -0.3221
  N  N53  1  0.489300  0.259600  0.669400  1.0  -0.3169
  N  N54  1  0.541300  0.553100  0.339900  1.0  -0.3207
  N  N55  1  0.709900  0.726500  0.486500  1.0  -0.3222
  N  N56  1  0.510700  0.740400  0.330600  1.0  -0.3174
  O  O57  1  0.923100  0.043800  0.214600  1.0  -0.6251
  O  O58  1  0.054800  0.086800  0.105400  1.0  -0.8567
  O  O59  1  0.556100  0.815500  0.859900  1.0  -0.7329
  O  O60  1  0.284800  0.815000  0.880000  1.0  -0.7008
  O  O61  1  0.468000  0.051100  0.913800  1.0  -0.8313
  O  O62  1  0.714100  0.082800  0.878100  1.0  -0.6287
  O  O63  1  0.632700  0.430200  0.816500  1.0  -0.5076
  O  O64  1  0.272200  0.455900  0.503900  1.0  -0.5091
  O  O65  1  0.321800  0.094100  0.525400  1.0  -0.515
  O  O66  1  0.076900  0.956200  0.785400  1.0  -0.6259
  O  O67  1  0.945200  0.913200  0.894600  1.0  -0.8562
  O  O68  1  0.443900  0.184500  0.140100  1.0  -0.7352
  O  O69  1  0.715200  0.185000  0.120000  1.0  -0.7034
  O  O70  1  0.532000  0.948900  0.086200  1.0  -0.8361
  O  O71  1  0.285900  0.917200  0.121900  1.0  -0.6324
  O  O72  1  0.367300  0.569800  0.183500  1.0  -0.506
  O  O73  1  0.727800  0.544100  0.496100  1.0  -0.5101
  O  O74  1  0.678200  0.905900  0.474600  1.0  -0.5129
