# generated using pymatgen
data_Zn3As3H2(CO8)2
_symmetry_space_group_name_H-M   'P 1'
_cell_length_a   16.08570000
_cell_length_b   9.19730000
_cell_length_c   15.42160000
_cell_angle_alpha   90.00000000
_cell_angle_beta   112.03300000
_cell_angle_gamma   90.00000000
_symmetry_Int_Tables_number   1
_chemical_formula_structural   Zn3As3H2(CO8)2
_chemical_formula_sum   'Zn12 As12 H8 C8 O64'
_cell_volume   2114.92254654
_cell_formula_units_Z   4
loop_
 _symmetry_equiv_pos_site_id
 _symmetry_equiv_pos_as_xyz
  1  'x, y, z'
loop_
 _atom_site_type_symbol
 _atom_site_label
 _atom_site_symmetry_multiplicity
 _atom_site_fract_x
 _atom_site_fract_y
 _atom_site_fract_z
 _atom_site_occupancy
 _atom_site_charge
  Zn  Zn1  1  0.893580  0.250850  0.974650  1.0  1.0991
  Zn  Zn2  1  0.646650  0.469040  0.012690  1.0  1.1805
  Zn  Zn3  1  0.592490  0.433460  0.629340  1.0  1.1657
  Zn  Zn4  1  0.106420  0.750850  0.525350  1.0  1.0982
  Zn  Zn5  1  0.353350  0.969040  0.487310  1.0  1.1803
  Zn  Zn6  1  0.407510  0.933460  0.870660  1.0  1.1651
  Zn  Zn7  1  0.106420  0.749150  0.025350  1.0  1.0984
  Zn  Zn8  1  0.353350  0.530960  0.987310  1.0  1.1796
  Zn  Zn9  1  0.407510  0.566540  0.370660  1.0  1.1651
  Zn  Zn10  1  0.893580  0.249150  0.474650  1.0  1.0995
  Zn  Zn11  1  0.646650  0.030960  0.512690  1.0  1.18
  Zn  Zn12  1  0.592490  0.066540  0.129340  1.0  1.1657
  As  As13  1  0.719170  0.449570  0.840550  1.0  1.6956
  As  As14  1  0.777300  0.203360  0.118570  1.0  1.6828
  As  As15  1  0.529120  0.729670  0.040770  1.0  1.5304
  As  As16  1  0.280830  0.949570  0.659450  1.0  1.6951
  As  As17  1  0.222700  0.703360  0.381430  1.0  1.6828
  As  As18  1  0.470880  0.229670  0.459230  1.0  1.5307
  As  As19  1  0.280830  0.550430  0.159450  1.0  1.6956
  As  As20  1  0.222700  0.796640  0.881430  1.0  1.683
  As  As21  1  0.470880  0.270330  0.959230  1.0  1.5305
  As  As22  1  0.719170  0.050430  0.340550  1.0  1.6954
  As  As23  1  0.777300  0.296640  0.618570  1.0  1.6832
  As  As24  1  0.529120  0.770330  0.540770  1.0  1.5307
  H  H25  1  0.760200  0.567600  0.742400  1.0  0.4389
  H  H26  1  0.857900  0.213100  0.265000  1.0  0.4605
  H  H27  1  0.239800  0.067600  0.757600  1.0  0.4373
  H  H28  1  0.142100  0.713100  0.235000  1.0  0.4602
  H  H29  1  0.239800  0.432400  0.257600  1.0  0.4371
  H  H30  1  0.142100  0.786900  0.735000  1.0  0.46
  H  H31  1  0.760200  0.932400  0.242400  1.0  0.4377
  H  H32  1  0.857900  0.286900  0.765000  1.0  0.4611
  C  C33  1  0.985300  0.523400  0.039800  1.0  0.6125
  C  C34  1  0.025500  0.021200  0.052200  1.0  0.5826
  C  C35  1  0.014700  0.023400  0.460200  1.0  0.6125
  C  C36  1  0.974500  0.521200  0.447800  1.0  0.5818
  C  C37  1  0.014700  0.476600  0.960200  1.0  0.6114
  C  C38  1  0.974500  0.978800  0.947800  1.0  0.5813
  C  C39  1  0.985300  0.976600  0.539800  1.0  0.6116
  C  C40  1  0.025500  0.478800  0.552200  1.0  0.5826
  O  O41  1  0.715500  0.523900  0.937200  1.0  -0.6927
  O  O42  1  0.792100  0.314700  0.854700  1.0  -0.8051
  O  O43  1  0.617000  0.404300  0.763900  1.0  -0.6649
  O  O44  1  0.756100  0.594000  0.791400  1.0  -0.6532
  O  O45  1  0.727900  0.362000  0.119500  1.0  -0.6998
  O  O46  1  0.809300  0.168900  0.030800  1.0  -0.769
  O  O47  1  0.712100  0.059600  0.122400  1.0  -0.7678
  O  O48  1  0.871700  0.196300  0.220000  1.0  -0.6666
  O  O49  1  0.534800  0.878200  0.105200  1.0  -0.7397
  O  O50  1  0.632600  0.662700  0.061600  1.0  -0.6537
  O  O51  1  0.481900  0.767700  0.925700  1.0  -0.6694
  O  O52  1  0.466700  0.607800  0.070300  1.0  -0.6797
  O  O53  1  0.931300  0.440300  0.058200  1.0  -0.5145
  O  O54  1  0.002200  0.136500  0.079700  1.0  -0.4697
  O  O55  1  0.086800  0.934700  0.100600  1.0  -0.4768
  O  O56  1  0.015300  0.640000  0.080600  1.0  -0.5215
  O  O57  1  0.284500  0.023900  0.562800  1.0  -0.6912
  O  O58  1  0.207900  0.814700  0.645300  1.0  -0.8039
  O  O59  1  0.383000  0.904300  0.736100  1.0  -0.665
  O  O60  1  0.243900  0.094000  0.708600  1.0  -0.6533
  O  O61  1  0.272100  0.862000  0.380500  1.0  -0.7002
  O  O62  1  0.190700  0.668900  0.469200  1.0  -0.7687
  O  O63  1  0.287900  0.559600  0.377600  1.0  -0.7681
  O  O64  1  0.128300  0.696300  0.280000  1.0  -0.6666
  O  O65  1  0.465200  0.378200  0.394800  1.0  -0.7397
  O  O66  1  0.367400  0.162700  0.438400  1.0  -0.6535
  O  O67  1  0.518100  0.267700  0.574300  1.0  -0.6693
  O  O68  1  0.533300  0.107800  0.429700  1.0  -0.68
  O  O69  1  0.068700  0.940300  0.441800  1.0  -0.5161
  O  O70  1  0.997800  0.636500  0.420300  1.0  -0.4714
  O  O71  1  0.913200  0.434700  0.399400  1.0  -0.4783
  O  O72  1  0.984700  0.140000  0.419400  1.0  -0.5227
  O  O73  1  0.284500  0.476100  0.062800  1.0  -0.6911
  O  O74  1  0.207900  0.685300  0.145300  1.0  -0.8044
  O  O75  1  0.383000  0.595700  0.236100  1.0  -0.664
  O  O76  1  0.243900  0.406000  0.208600  1.0  -0.6522
  O  O77  1  0.272100  0.638000  0.880500  1.0  -0.7016
  O  O78  1  0.190700  0.831100  0.969200  1.0  -0.769
  O  O79  1  0.287900  0.940400  0.877600  1.0  -0.7682
  O  O80  1  0.128300  0.803700  0.780000  1.0  -0.6665
  O  O81  1  0.465200  0.121800  0.894800  1.0  -0.7394
  O  O82  1  0.367400  0.337300  0.938400  1.0  -0.6534
  O  O83  1  0.518100  0.232300  0.074300  1.0  -0.6693
  O  O84  1  0.533300  0.392200  0.929700  1.0  -0.6802
  O  O85  1  0.068700  0.559700  0.941800  1.0  -0.5154
  O  O86  1  0.997800  0.863500  0.920300  1.0  -0.4723
  O  O87  1  0.913200  0.065300  0.899400  1.0  -0.4774
  O  O88  1  0.984700  0.360000  0.919400  1.0  -0.5228
  O  O89  1  0.715500  0.976100  0.437200  1.0  -0.6926
  O  O90  1  0.792100  0.185300  0.354700  1.0  -0.8054
  O  O91  1  0.617000  0.095700  0.263900  1.0  -0.6638
  O  O92  1  0.756100  0.906000  0.291400  1.0  -0.652
  O  O93  1  0.727900  0.138000  0.619500  1.0  -0.701
  O  O94  1  0.809300  0.331100  0.530800  1.0  -0.7693
  O  O95  1  0.712100  0.440400  0.622400  1.0  -0.7686
  O  O96  1  0.871700  0.303700  0.720000  1.0  -0.6654
  O  O97  1  0.534800  0.621800  0.605200  1.0  -0.7394
  O  O98  1  0.632600  0.837300  0.561600  1.0  -0.6534
  O  O99  1  0.481900  0.732300  0.425700  1.0  -0.6692
  O  O100  1  0.466700  0.892200  0.570300  1.0  -0.6792
  O  O101  1  0.931300  0.059700  0.558200  1.0  -0.5145
  O  O102  1  0.002200  0.363500  0.579700  1.0  -0.4717
  O  O103  1  0.086800  0.565300  0.600600  1.0  -0.4755
  O  O104  1  0.015300  0.860000  0.580600  1.0  -0.5214
