# generated using pymatgen
data_AgH8C5(NO)2
_symmetry_space_group_name_H-M   'P 1'
_cell_length_a   5.45900000
_cell_length_b   18.46700000
_cell_length_c   11.63400000
_cell_angle_alpha   90.00000000
_cell_angle_beta   94.86000000
_cell_angle_gamma   90.00000000
_symmetry_Int_Tables_number   1
_chemical_formula_structural   AgH8C5(NO)2
_chemical_formula_sum   'Ag4 H32 C20 N8 O8'
_cell_volume   1168.62255490
_cell_formula_units_Z   4
loop_
 _symmetry_equiv_pos_site_id
 _symmetry_equiv_pos_as_xyz
  1  'x, y, z'
loop_
 _atom_site_type_symbol
 _atom_site_label
 _atom_site_symmetry_multiplicity
 _atom_site_fract_x
 _atom_site_fract_y
 _atom_site_fract_z
 _atom_site_occupancy
 _atom_site_charge
  Ag  Ag1  1  0.208490  0.046230  0.492470  1.0  0.4401
  Ag  Ag2  1  0.791510  0.953770  0.507530  1.0  0.44
  Ag  Ag3  1  0.791510  0.546230  0.007530  1.0  0.4406
  Ag  Ag4  1  0.208490  0.453770  0.992470  1.0  0.4395
  H  H5  1  0.427800  0.836600  0.296400  1.0  0.0909
  H  H6  1  0.541800  0.813600  0.419300  1.0  0.0827
  H  H7  1  0.552200  0.697300  0.321300  1.0  0.0609
  H  H8  1  0.359600  0.709000  0.215100  1.0  0.0695
  H  H9  1  0.390300  0.586000  0.285200  1.0  0.1116
  H  H10  1  0.268800  0.612300  0.395000  1.0  0.1121
  H  H11  1  0.092000  0.761400  0.323900  1.0  0.0657
  H  H12  1  0.231300  0.734290  0.437600  1.0  0.0773
  H  H13  1  0.572200  0.163400  0.703600  1.0  0.0905
  H  H14  1  0.458200  0.186400  0.580700  1.0  0.0841
  H  H15  1  0.447800  0.302700  0.678700  1.0  0.0623
  H  H16  1  0.640400  0.291000  0.784900  1.0  0.0701
  H  H17  1  0.609700  0.414000  0.714800  1.0  0.111
  H  H18  1  0.731200  0.387700  0.605000  1.0  0.1111
  H  H19  1  0.908000  0.238600  0.676100  1.0  0.0656
  H  H20  1  0.768700  0.265710  0.562400  1.0  0.0755
  H  H21  1  0.572200  0.336600  0.203600  1.0  0.0898
  H  H22  1  0.458200  0.313600  0.080700  1.0  0.0848
  H  H23  1  0.447800  0.197300  0.178700  1.0  0.062
  H  H24  1  0.640400  0.209000  0.284900  1.0  0.07
  H  H25  1  0.609700  0.086000  0.214800  1.0  0.1119
  H  H26  1  0.731200  0.112300  0.105000  1.0  0.1115
  H  H27  1  0.908000  0.261400  0.176100  1.0  0.0655
  H  H28  1  0.768700  0.234290  0.062400  1.0  0.0755
  H  H29  1  0.427800  0.663400  0.796400  1.0  0.0908
  H  H30  1  0.541800  0.686400  0.919300  1.0  0.0826
  H  H31  1  0.552200  0.802700  0.821300  1.0  0.0611
  H  H32  1  0.359600  0.791000  0.715100  1.0  0.07
  H  H33  1  0.390300  0.914000  0.785200  1.0  0.1103
  H  H34  1  0.268800  0.887700  0.895000  1.0  0.1115
  H  H35  1  0.092000  0.738600  0.823900  1.0  0.0652
  H  H36  1  0.231300  0.765710  0.937600  1.0  0.0763
  C  C37  1  0.241300  0.880000  0.426600  1.0  0.7257
  C  C38  1  0.388400  0.821200  0.372400  1.0  -0.0507
  C  C39  1  0.378000  0.696800  0.296500  1.0  0.0213
  C  C40  1  0.276900  0.620900  0.313100  1.0  -0.3233
  C  C41  1  0.033000  0.608900  0.253600  1.0  0.3241
  C  C42  1  0.758700  0.120000  0.573400  1.0  0.7252
  C  C43  1  0.611600  0.178800  0.627600  1.0  -0.0509
  C  C44  1  0.622000  0.303200  0.703500  1.0  0.0216
  C  C45  1  0.723100  0.379100  0.686900  1.0  -0.3238
  C  C46  1  0.967000  0.391100  0.746400  1.0  0.3225
  C  C47  1  0.758700  0.380000  0.073400  1.0  0.7259
  C  C48  1  0.611600  0.321200  0.127600  1.0  -0.0528
  C  C49  1  0.622000  0.196800  0.203500  1.0  0.022
  C  C50  1  0.723100  0.120900  0.186900  1.0  -0.3247
  C  C51  1  0.967000  0.108900  0.246400  1.0  0.3237
  C  C52  1  0.241300  0.620000  0.926600  1.0  0.7257
  C  C53  1  0.388400  0.678800  0.872400  1.0  -0.051
  C  C54  1  0.378000  0.803200  0.796500  1.0  0.0221
  C  C55  1  0.276900  0.879100  0.813100  1.0  -0.3238
  C  C56  1  0.033000  0.891100  0.753600  1.0  0.3234
  N  N57  1  0.252300  0.752550  0.361800  1.0  -0.0802
  N  N58  1  0.845700  0.597400  0.207700  1.0  -0.4886
  N  N59  1  0.747700  0.247450  0.638200  1.0  -0.0807
  N  N60  1  0.154300  0.402600  0.792300  1.0  -0.4906
  N  N61  1  0.747700  0.252550  0.138200  1.0  -0.0804
  N  N62  1  0.154300  0.097400  0.292300  1.0  -0.4884
  N  N63  1  0.252300  0.747450  0.861800  1.0  -0.0801
  N  N64  1  0.845700  0.902600  0.707700  1.0  -0.4897
  O  O65  1  0.021100  0.868690  0.434100  1.0  -0.5865
  O  O66  1  0.358200  0.936440  0.455800  1.0  -0.6498
  O  O67  1  0.978900  0.131310  0.565900  1.0  -0.5863
  O  O68  1  0.641800  0.063560  0.544200  1.0  -0.6495
  O  O69  1  0.978900  0.368690  0.065900  1.0  -0.5861
  O  O70  1  0.641800  0.436440  0.044200  1.0  -0.6492
  O  O71  1  0.021100  0.631310  0.934100  1.0  -0.5864
  O  O72  1  0.358200  0.563560  0.955800  1.0  -0.6496
