# generated using pymatgen
data_ZnH16(C13N3)2
_symmetry_space_group_name_H-M   'P 1'
_cell_length_a   13.98220000
_cell_length_b   13.98220000
_cell_length_c   6.22330000
_cell_angle_alpha   90.00000000
_cell_angle_beta   90.00000000
_cell_angle_gamma   90.00000000
_symmetry_Int_Tables_number   1
_chemical_formula_structural   ZnH16(C13N3)2
_chemical_formula_sum   'Zn2 H32 C52 N12'
_cell_volume   1216.66707907
_cell_formula_units_Z   2
loop_
 _symmetry_equiv_pos_site_id
 _symmetry_equiv_pos_as_xyz
  1  'x, y, z'
loop_
 _atom_site_type_symbol
 _atom_site_label
 _atom_site_symmetry_multiplicity
 _atom_site_fract_x
 _atom_site_fract_y
 _atom_site_fract_z
 _atom_site_occupancy
 _atom_site_charge
  Zn  Zn1  1  0.750000  0.750000  0.250000  1.0  0.7572
  Zn  Zn2  1  0.250000  0.250000  0.750000  1.0  0.7572
  H  H3  1  0.592300  0.444900  0.782300  1.0  0.0912
  H  H4  1  0.447300  0.656100  0.495900  1.0  0.0798
  H  H5  1  0.699000  0.597000  0.919000  1.0  0.0599
  H  H6  1  0.541000  0.793000  0.155000  1.0  0.0377
  H  H7  1  0.907700  0.055100  0.782300  1.0  0.0917
  H  H8  1  0.052700  0.843900  0.495900  1.0  0.0807
  H  H9  1  0.801000  0.903000  0.919000  1.0  0.0594
  H  H10  1  0.959000  0.707000  0.155000  1.0  0.0371
  H  H11  1  0.555100  0.092300  0.282300  1.0  0.0915
  H  H12  1  0.343900  0.947300  0.995900  1.0  0.0823
  H  H13  1  0.403000  0.199000  0.419000  1.0  0.0597
  H  H14  1  0.207000  0.041000  0.655000  1.0  0.0361
  H  H15  1  0.944900  0.407700  0.282300  1.0  0.0919
  H  H16  1  0.156100  0.552700  0.995900  1.0  0.0817
  H  H17  1  0.097000  0.301000  0.419000  1.0  0.0601
  H  H18  1  0.293000  0.459000  0.655000  1.0  0.0352
  H  H19  1  0.407700  0.555100  0.217700  1.0  0.0918
  H  H20  1  0.552700  0.343900  0.504100  1.0  0.0807
  H  H21  1  0.301000  0.403000  0.081000  1.0  0.0599
  H  H22  1  0.459000  0.207000  0.845000  1.0  0.0373
  H  H23  1  0.092300  0.944900  0.217700  1.0  0.0913
  H  H24  1  0.947300  0.156100  0.504100  1.0  0.0796
  H  H25  1  0.199000  0.097000  0.081000  1.0  0.0602
  H  H26  1  0.041000  0.293000  0.845000  1.0  0.0376
  H  H27  1  0.444900  0.907700  0.717700  1.0  0.0917
  H  H28  1  0.656100  0.052700  0.004100  1.0  0.0816
  H  H29  1  0.597000  0.801000  0.581000  1.0  0.0602
  H  H30  1  0.793000  0.959000  0.345000  1.0  0.0353
  H  H31  1  0.055100  0.592300  0.717700  1.0  0.0917
  H  H32  1  0.843900  0.447300  0.004100  1.0  0.0822
  H  H33  1  0.903000  0.699000  0.581000  1.0  0.0601
  H  H34  1  0.707000  0.541000  0.345000  1.0  0.0358
  C  C35  1  0.554900  0.627500  0.835500  1.0  0.1188
  C  C36  1  0.497000  0.697600  0.915400  1.0  0.051
  C  C37  1  0.640600  0.632800  0.929500  1.0  -0.0532
  C  C38  1  0.552800  0.741800  0.062600  1.0  0.0703
  C  C39  1  0.524700  0.561900  0.664600  1.0  -0.0769
  C  C40  1  0.555500  0.467200  0.668400  1.0  -0.1227
  C  C41  1  0.468900  0.593200  0.497300  1.0  -0.0919
  C  C42  1  0.945100  0.872500  0.835500  1.0  0.1182
  C  C43  1  0.003000  0.802400  0.915400  1.0  0.0534
  C  C44  1  0.859400  0.867200  0.929500  1.0  -0.0546
  C  C45  1  0.947200  0.758200  0.062600  1.0  0.0707
  C  C46  1  0.975300  0.938100  0.664600  1.0  -0.0764
  C  C47  1  0.944500  0.032800  0.668400  1.0  -0.1203
  C  C48  1  0.031100  0.906800  0.497300  1.0  -0.0936
  C  C49  1  0.372500  0.054900  0.335500  1.0  0.1207
  C  C50  1  0.302400  0.997000  0.415400  1.0  0.0504
  C  C51  1  0.367200  0.140600  0.429500  1.0  -0.055
  C  C52  1  0.258200  0.052800  0.562600  1.0  0.0682
  C  C53  1  0.438100  0.024700  0.164600  1.0  -0.0752
  C  C54  1  0.532800  0.055500  0.168400  1.0  -0.1223
  C  C55  1  0.406800  0.968900  0.997300  1.0  -0.092
  C  C56  1  0.127500  0.445100  0.335500  1.0  0.121
  C  C57  1  0.197600  0.503000  0.415400  1.0  0.0488
  C  C58  1  0.132800  0.359400  0.429500  1.0  -0.0559
  C  C59  1  0.241800  0.447200  0.562600  1.0  0.0692
  C  C60  1  0.061900  0.475300  0.164600  1.0  -0.0759
  C  C61  1  0.967200  0.444500  0.168400  1.0  -0.1205
  C  C62  1  0.093200  0.531100  0.997300  1.0  -0.0957
  C  C63  1  0.503000  0.302400  0.084600  1.0  0.0671
  C  C64  1  0.359400  0.367200  0.070500  1.0  0.0912
  C  C65  1  0.447200  0.258200  0.937400  1.0  0.0695
  C  C66  1  0.475300  0.438100  0.335400  1.0  0.014
  C  C67  1  0.444500  0.532800  0.331600  1.0  -0.1188
  C  C68  1  0.531100  0.406800  0.502700  1.0  -0.0926
  C  C69  1  0.997000  0.197600  0.084600  1.0  0.0678
  C  C70  1  0.140600  0.132800  0.070500  1.0  0.0923
  C  C71  1  0.052800  0.241800  0.937400  1.0  0.0698
  C  C72  1  0.024700  0.061900  0.335400  1.0  0.0132
  C  C73  1  0.055500  0.967200  0.331600  1.0  -0.1217
  C  C74  1  0.968900  0.093200  0.502700  1.0  -0.0915
  C  C75  1  0.697600  0.003000  0.584600  1.0  0.0656
  C  C76  1  0.632800  0.859400  0.570500  1.0  0.0913
  C  C77  1  0.741800  0.947200  0.437400  1.0  0.0686
  C  C78  1  0.561900  0.975300  0.835400  1.0  0.0137
  C  C79  1  0.467200  0.944500  0.831600  1.0  -0.1193
  C  C80  1  0.593200  0.031100  0.002700  1.0  -0.0952
  C  C81  1  0.802400  0.497000  0.584600  1.0  0.0679
  C  C82  1  0.867200  0.640600  0.570500  1.0  0.0913
  C  C83  1  0.758200  0.552800  0.437400  1.0  0.0672
  C  C84  1  0.938100  0.524700  0.835400  1.0  0.0145
  C  C85  1  0.032800  0.555500  0.831600  1.0  -0.121
  C  C86  1  0.906800  0.468900  0.002700  1.0  -0.0912
  N  N87  1  0.640900  0.704400  0.073700  1.0  -0.4266
  N  N88  1  0.445100  0.372500  0.164500  1.0  0.0128
  N  N89  1  0.859100  0.795600  0.073700  1.0  -0.4273
  N  N90  1  0.054900  0.127500  0.164500  1.0  0.0129
  N  N91  1  0.295600  0.140900  0.573700  1.0  -0.4267
  N  N92  1  0.627500  0.945100  0.664500  1.0  0.0153
  N  N93  1  0.204400  0.359100  0.573700  1.0  -0.4254
  N  N94  1  0.872500  0.554900  0.664500  1.0  0.0151
  N  N95  1  0.359100  0.295600  0.926300  1.0  -0.4284
  N  N96  1  0.140900  0.204400  0.926300  1.0  -0.4268
  N  N97  1  0.704400  0.859100  0.426300  1.0  -0.4267
  N  N98  1  0.795600  0.640900  0.426300  1.0  -0.4275
