# generated using pymatgen
data_TbH8(C2O)8
_symmetry_space_group_name_H-M   'P 1'
_cell_length_a   9.98700000
_cell_length_b   13.17200000
_cell_length_c   14.29000000
_cell_angle_alpha   90.00000000
_cell_angle_beta   90.00000000
_cell_angle_gamma   90.00000000
_symmetry_Int_Tables_number   1
_chemical_formula_structural   TbH8(C2O)8
_chemical_formula_sum   'Tb4 H32 C64 O32'
_cell_volume   1879.83183756
_cell_formula_units_Z   4
loop_
 _symmetry_equiv_pos_site_id
 _symmetry_equiv_pos_as_xyz
  1  'x, y, z'
loop_
 _atom_site_type_symbol
 _atom_site_label
 _atom_site_symmetry_multiplicity
 _atom_site_fract_x
 _atom_site_fract_y
 _atom_site_fract_z
 _atom_site_occupancy
 _atom_site_charge
  Tb  Tb1  1  0.000890  0.843880  0.696390  1.0  2.2476
  Tb  Tb2  1  0.999110  0.156120  0.196390  1.0  2.2475
  Tb  Tb3  1  0.500890  0.656120  0.696390  1.0  2.2475
  Tb  Tb4  1  0.499110  0.343880  0.196390  1.0  2.2477
  H  H5  1  0.147700  0.101000  0.927600  1.0  0.1283
  H  H6  1  0.477900  0.271200  0.943300  1.0  0.1245
  H  H7  1  0.537800  0.222300  0.795000  1.0  0.125
  H  H8  1  0.405200  0.110700  0.712000  1.0  0.1227
  H  H9  1  0.634100  0.604600  0.953000  1.0  0.1376
  H  H10  1  0.805900  0.650300  0.201000  1.0  0.1172
  H  H11  1  0.929100  0.784900  0.141400  1.0  0.139
  H  H12  1  0.905300  0.827900  0.985400  1.0  0.1146
  H  H13  1  0.852300  0.899000  0.427600  1.0  0.1276
  H  H14  1  0.522100  0.728800  0.443300  1.0  0.1249
  H  H15  1  0.462200  0.777700  0.295000  1.0  0.1258
  H  H16  1  0.594800  0.889300  0.212000  1.0  0.1228
  H  H17  1  0.365900  0.395400  0.453000  1.0  0.1374
  H  H18  1  0.194100  0.349700  0.701000  1.0  0.1172
  H  H19  1  0.070900  0.215100  0.641400  1.0  0.1389
  H  H20  1  0.094700  0.172100  0.485400  1.0  0.1145
  H  H21  1  0.647700  0.399000  0.927600  1.0  0.1278
  H  H22  1  0.977900  0.228800  0.943300  1.0  0.1251
  H  H23  1  0.037800  0.277700  0.795000  1.0  0.1253
  H  H24  1  0.905200  0.389300  0.712000  1.0  0.1228
  H  H25  1  0.134100  0.895400  0.953000  1.0  0.1374
  H  H26  1  0.305900  0.849700  0.201000  1.0  0.1174
  H  H27  1  0.429100  0.715100  0.141400  1.0  0.1388
  H  H28  1  0.405300  0.672100  0.985400  1.0  0.1152
  H  H29  1  0.352300  0.601000  0.427600  1.0  0.1279
  H  H30  1  0.022100  0.771200  0.443300  1.0  0.1245
  H  H31  1  0.962200  0.722300  0.295000  1.0  0.1256
  H  H32  1  0.094800  0.610700  0.212000  1.0  0.1227
  H  H33  1  0.865900  0.104600  0.453000  1.0  0.1377
  H  H34  1  0.694100  0.150300  0.701000  1.0  0.1172
  H  H35  1  0.570900  0.284900  0.641400  1.0  0.1381
  H  H36  1  0.594700  0.327900  0.485400  1.0  0.1153
  C  C37  1  0.264900  0.092400  0.811400  1.0  -0.1313
  C  C38  1  0.226700  0.124700  0.901000  1.0  0.0031
  C  C39  1  0.307000  0.192000  0.949500  1.0  -0.1246
  C  C40  1  0.423300  0.226900  0.909900  1.0  -0.0209
  C  C41  1  0.459600  0.197200  0.821700  1.0  -0.0851
  C  C42  1  0.380500  0.130300  0.772100  1.0  -0.0486
  C  C43  1  0.181800  0.014800  0.760600  1.0  0.6996
  C  C44  1  0.266400  0.229500  0.047000  1.0  0.7351
  C  C45  1  0.771700  0.718700  0.950500  1.0  -0.1416
  C  C46  1  0.695600  0.639400  0.989900  1.0  -0.0051
  C  C47  1  0.711500  0.612700  0.082500  1.0  -0.0867
  C  C48  1  0.797200  0.667600  0.138200  1.0  -0.0507
  C  C49  1  0.871300  0.748500  0.103000  1.0  -0.1008
  C  C50  1  0.857100  0.773500  0.009600  1.0  0.0086
  C  C51  1  0.757200  0.747700  0.852100  1.0  0.6989
  C  C52  1  0.636900  0.523500  0.125000  1.0  0.7164
  C  C53  1  0.735100  0.907600  0.311400  1.0  -0.1317
  C  C54  1  0.773300  0.875300  0.401000  1.0  0.0016
  C  C55  1  0.693000  0.808000  0.449500  1.0  -0.1246
  C  C56  1  0.576700  0.773100  0.409900  1.0  -0.0209
  C  C57  1  0.540400  0.802800  0.321700  1.0  -0.0858
  C  C58  1  0.619500  0.869700  0.272100  1.0  -0.0468
  C  C59  1  0.818200  0.985200  0.260600  1.0  0.6987
  C  C60  1  0.733600  0.770500  0.547000  1.0  0.7347
  C  C61  1  0.228300  0.281300  0.450500  1.0  -0.1418
  C  C62  1  0.304400  0.360600  0.489900  1.0  -0.0052
  C  C63  1  0.288500  0.387300  0.582500  1.0  -0.086
  C  C64  1  0.202800  0.332400  0.638200  1.0  -0.0509
  C  C65  1  0.128700  0.251500  0.603000  1.0  -0.1007
  C  C66  1  0.142900  0.226500  0.509600  1.0  0.0092
  C  C67  1  0.242800  0.252300  0.352100  1.0  0.6985
  C  C68  1  0.363100  0.476500  0.625000  1.0  0.7161
  C  C69  1  0.764900  0.407600  0.811400  1.0  -0.1308
  C  C70  1  0.726700  0.375300  0.901000  1.0  0.0028
  C  C71  1  0.807000  0.308000  0.949500  1.0  -0.1243
  C  C72  1  0.923300  0.273100  0.909900  1.0  -0.0208
  C  C73  1  0.959600  0.302800  0.821700  1.0  -0.0847
  C  C74  1  0.880500  0.369700  0.772100  1.0  -0.0479
  C  C75  1  0.681800  0.485200  0.760600  1.0  0.6994
  C  C76  1  0.766400  0.270500  0.047000  1.0  0.7375
  C  C77  1  0.271700  0.781300  0.950500  1.0  -0.142
  C  C78  1  0.195600  0.860600  0.989900  1.0  -0.0048
  C  C79  1  0.211500  0.887300  0.082500  1.0  -0.086
  C  C80  1  0.297200  0.832400  0.138200  1.0  -0.0502
  C  C81  1  0.371300  0.751500  0.103000  1.0  -0.1013
  C  C82  1  0.357100  0.726500  0.009600  1.0  0.0088
  C  C83  1  0.257200  0.752300  0.852100  1.0  0.6986
  C  C84  1  0.136900  0.976500  0.125000  1.0  0.7159
  C  C85  1  0.235100  0.592400  0.311400  1.0  -0.1319
  C  C86  1  0.273300  0.624700  0.401000  1.0  0.0013
  C  C87  1  0.193000  0.692000  0.449500  1.0  -0.1246
  C  C88  1  0.076700  0.726900  0.409900  1.0  -0.0209
  C  C89  1  0.040400  0.697200  0.321700  1.0  -0.0861
  C  C90  1  0.119500  0.630300  0.272100  1.0  -0.0474
  C  C91  1  0.318200  0.514800  0.260600  1.0  0.6984
  C  C92  1  0.233600  0.729500  0.547000  1.0  0.7358
  C  C93  1  0.728300  0.218700  0.450500  1.0  -0.1413
  C  C94  1  0.804400  0.139400  0.489900  1.0  -0.0057
  C  C95  1  0.788500  0.112700  0.582500  1.0  -0.0866
  C  C96  1  0.702800  0.167600  0.638200  1.0  -0.0509
  C  C97  1  0.628700  0.248500  0.603000  1.0  -0.1003
  C  C98  1  0.642900  0.273500  0.509600  1.0  0.0088
  C  C99  1  0.742800  0.247700  0.352100  1.0  0.6988
  C  C100  1  0.863100  0.023500  0.625000  1.0  0.7166
  O  O101  1  0.229100  0.971900  0.689000  1.0  -0.5762
  O  O102  1  0.067300  0.993300  0.792500  1.0  -0.6383
  O  O103  1  0.345300  0.288600  0.084800  1.0  -0.6788
  O  O104  1  0.155400  0.203500  0.077700  1.0  -0.7136
  O  O105  1  0.847100  0.804100  0.815700  1.0  -0.7312
  O  O106  1  0.659200  0.714900  0.805000  1.0  -0.732
  O  O107  1  0.529900  0.493600  0.085800  1.0  -0.6273
  O  O108  1  0.682300  0.480800  0.196300  1.0  -0.6249
  O  O109  1  0.770900  0.028100  0.189000  1.0  -0.5759
  O  O110  1  0.932700  0.006700  0.292500  1.0  -0.6391
  O  O111  1  0.654700  0.711400  0.584800  1.0  -0.6782
  O  O112  1  0.844600  0.796500  0.577700  1.0  -0.7133
  O  O113  1  0.152900  0.195900  0.315700  1.0  -0.7318
  O  O114  1  0.340800  0.285100  0.305000  1.0  -0.7311
  O  O115  1  0.470100  0.506400  0.585800  1.0  -0.6278
  O  O116  1  0.317700  0.519200  0.696300  1.0  -0.626
  O  O117  1  0.729100  0.528100  0.689000  1.0  -0.5754
  O  O118  1  0.567300  0.506700  0.792500  1.0  -0.6383
  O  O119  1  0.845300  0.211400  0.084800  1.0  -0.6783
  O  O120  1  0.655400  0.296500  0.077700  1.0  -0.7135
  O  O121  1  0.347100  0.695900  0.815700  1.0  -0.7313
  O  O122  1  0.159200  0.785100  0.805000  1.0  -0.7309
  O  O123  1  0.029900  0.006400  0.085800  1.0  -0.6284
  O  O124  1  0.182300  0.019200  0.196300  1.0  -0.6256
  O  O125  1  0.270900  0.471900  0.189000  1.0  -0.5768
  O  O126  1  0.432700  0.493300  0.292500  1.0  -0.6387
  O  O127  1  0.154700  0.788600  0.584800  1.0  -0.6787
  O  O128  1  0.344600  0.703500  0.577700  1.0  -0.7133
  O  O129  1  0.652900  0.304100  0.315700  1.0  -0.7316
  O  O130  1  0.840800  0.214900  0.305000  1.0  -0.732
  O  O131  1  0.970100  0.993600  0.585800  1.0  -0.6282
  O  O132  1  0.817700  0.980800  0.696300  1.0  -0.6255
