# generated using pymatgen
data_LaH8(C2O)8
_symmetry_space_group_name_H-M   'P 1'
_cell_length_a   10.15800000
_cell_length_b   13.26900000
_cell_length_c   14.47000000
_cell_angle_alpha   90.00000000
_cell_angle_beta   90.00000000
_cell_angle_gamma   90.00000000
_symmetry_Int_Tables_number   1
_chemical_formula_structural   LaH8(C2O)8
_chemical_formula_sum   'La4 H32 C64 O32'
_cell_volume   1950.36068394
_cell_formula_units_Z   4
loop_
 _symmetry_equiv_pos_site_id
 _symmetry_equiv_pos_as_xyz
  1  'x, y, z'
loop_
 _atom_site_type_symbol
 _atom_site_label
 _atom_site_symmetry_multiplicity
 _atom_site_fract_x
 _atom_site_fract_y
 _atom_site_fract_z
 _atom_site_occupancy
 _atom_site_charge
  La  La1  1  0.001350  0.842360  0.696210  1.0  2.1903
  La  La2  1  0.998650  0.157640  0.196210  1.0  2.1894
  La  La3  1  0.501350  0.657640  0.696210  1.0  2.1894
  La  La4  1  0.498650  0.342360  0.196210  1.0  2.1903
  H  H5  1  0.147400  0.102500  0.924300  1.0  0.1253
  H  H6  1  0.471500  0.273900  0.939500  1.0  0.1284
  H  H7  1  0.529700  0.225200  0.792000  1.0  0.1281
  H  H8  1  0.400800  0.113500  0.711000  1.0  0.1267
  H  H9  1  0.639700  0.607200  0.955900  1.0  0.1229
  H  H10  1  0.819800  0.647200  0.199500  1.0  0.1288
  H  H11  1  0.942800  0.775700  0.137700  1.0  0.1265
  H  H12  1  0.915200  0.822000  0.984000  1.0  0.123
  H  H13  1  0.852600  0.897500  0.424300  1.0  0.1251
  H  H14  1  0.528500  0.726100  0.439500  1.0  0.1283
  H  H15  1  0.470300  0.774800  0.292000  1.0  0.1286
  H  H16  1  0.599200  0.886500  0.211000  1.0  0.1262
  H  H17  1  0.360300  0.392800  0.455900  1.0  0.1234
  H  H18  1  0.180200  0.352800  0.699500  1.0  0.1286
  H  H19  1  0.057200  0.224300  0.637700  1.0  0.1262
  H  H20  1  0.084800  0.178000  0.484000  1.0  0.1226
  H  H21  1  0.647400  0.397500  0.924300  1.0  0.1249
  H  H22  1  0.971500  0.226100  0.939500  1.0  0.1285
  H  H23  1  0.029700  0.274800  0.792000  1.0  0.1284
  H  H24  1  0.900800  0.386500  0.711000  1.0  0.1265
  H  H25  1  0.139700  0.892800  0.955900  1.0  0.123
  H  H26  1  0.319800  0.852800  0.199500  1.0  0.129
  H  H27  1  0.442800  0.724300  0.137700  1.0  0.1263
  H  H28  1  0.415200  0.678000  0.984000  1.0  0.123
  H  H29  1  0.352600  0.602500  0.424300  1.0  0.1252
  H  H30  1  0.028500  0.773900  0.439500  1.0  0.1283
  H  H31  1  0.970300  0.725200  0.292000  1.0  0.1284
  H  H32  1  0.099200  0.613500  0.211000  1.0  0.1263
  H  H33  1  0.860300  0.107200  0.455900  1.0  0.1234
  H  H34  1  0.680200  0.147200  0.699500  1.0  0.1286
  H  H35  1  0.557200  0.275700  0.637700  1.0  0.1263
  H  H36  1  0.584800  0.322000  0.484000  1.0  0.1229
  C  C37  1  0.261500  0.094700  0.809900  1.0  -0.1327
  C  C38  1  0.224600  0.126700  0.897800  1.0  0.0131
  C  C39  1  0.302300  0.194500  0.946200  1.0  -0.1377
  C  C40  1  0.417800  0.229900  0.906700  1.0  -0.0057
  C  C41  1  0.453200  0.199900  0.818600  1.0  -0.0822
  C  C42  1  0.376400  0.133200  0.770300  1.0  -0.0319
  C  C43  1  0.178400  0.017600  0.761300  1.0  0.7142
  C  C44  1  0.262100  0.231500  0.041800  1.0  0.7366
  C  C45  1  0.776000  0.717400  0.953100  1.0  -0.1585
  C  C46  1  0.702100  0.640100  0.991800  1.0  0.0037
  C  C47  1  0.719600  0.611000  0.083400  1.0  -0.1523
  C  C48  1  0.809300  0.664300  0.137600  1.0  -0.0503
  C  C49  1  0.882400  0.741600  0.100900  1.0  -0.0614
  C  C50  1  0.866200  0.769200  0.008600  1.0  0.0077
  C  C51  1  0.758000  0.746400  0.854100  1.0  0.7134
  C  C52  1  0.644200  0.525000  0.125900  1.0  0.7309
  C  C53  1  0.738500  0.905300  0.309900  1.0  -0.1324
  C  C54  1  0.775400  0.873300  0.397800  1.0  0.0123
  C  C55  1  0.697700  0.805500  0.446200  1.0  -0.1376
  C  C56  1  0.582200  0.770100  0.406700  1.0  -0.0063
  C  C57  1  0.546800  0.800100  0.318600  1.0  -0.083
  C  C58  1  0.623600  0.866800  0.270300  1.0  -0.03
  C  C59  1  0.821600  0.982400  0.261300  1.0  0.7132
  C  C60  1  0.737900  0.768500  0.541800  1.0  0.7353
  C  C61  1  0.224000  0.282600  0.453100  1.0  -0.1583
  C  C62  1  0.297900  0.359900  0.491800  1.0  0.0032
  C  C63  1  0.280400  0.389000  0.583400  1.0  -0.1514
  C  C64  1  0.190700  0.335700  0.637600  1.0  -0.0493
  C  C65  1  0.117600  0.258400  0.600900  1.0  -0.061
  C  C66  1  0.133800  0.230800  0.508600  1.0  0.008
  C  C67  1  0.242000  0.253600  0.354100  1.0  0.7114
  C  C68  1  0.355800  0.475000  0.625900  1.0  0.7301
  C  C69  1  0.761500  0.405300  0.809900  1.0  -0.1312
  C  C70  1  0.724600  0.373300  0.897800  1.0  0.0133
  C  C71  1  0.802300  0.305500  0.946200  1.0  -0.1373
  C  C72  1  0.917800  0.270100  0.906700  1.0  -0.006
  C  C73  1  0.953200  0.300100  0.818600  1.0  -0.0821
  C  C74  1  0.876400  0.366800  0.770300  1.0  -0.0314
  C  C75  1  0.678400  0.482400  0.761300  1.0  0.7147
  C  C76  1  0.762100  0.268500  0.041800  1.0  0.7349
  C  C77  1  0.276000  0.782600  0.953100  1.0  -0.1595
  C  C78  1  0.202100  0.859900  0.991800  1.0  0.0038
  C  C79  1  0.219600  0.889000  0.083400  1.0  -0.1508
  C  C80  1  0.309300  0.835700  0.137600  1.0  -0.0486
  C  C81  1  0.382400  0.758400  0.100900  1.0  -0.0617
  C  C82  1  0.366200  0.730800  0.008600  1.0  0.0079
  C  C83  1  0.258000  0.753600  0.854100  1.0  0.7123
  C  C84  1  0.144200  0.975000  0.125900  1.0  0.7302
  C  C85  1  0.238500  0.594700  0.309900  1.0  -0.1338
  C  C86  1  0.275400  0.626700  0.397800  1.0  0.0118
  C  C87  1  0.197700  0.694500  0.446200  1.0  -0.1381
  C  C88  1  0.082200  0.729900  0.406700  1.0  -0.0062
  C  C89  1  0.046800  0.699900  0.318600  1.0  -0.083
  C  C90  1  0.123600  0.633200  0.270300  1.0  -0.0306
  C  C91  1  0.321600  0.517600  0.261300  1.0  0.7124
  C  C92  1  0.237900  0.731500  0.541800  1.0  0.7344
  C  C93  1  0.724000  0.217400  0.453100  1.0  -0.1574
  C  C94  1  0.797900  0.140100  0.491800  1.0  0.0027
  C  C95  1  0.780400  0.111000  0.583400  1.0  -0.1526
  C  C96  1  0.690700  0.164300  0.637600  1.0  -0.0504
  C  C97  1  0.617600  0.241600  0.600900  1.0  -0.0607
  C  C98  1  0.633800  0.269200  0.508600  1.0  0.0082
  C  C99  1  0.742000  0.246400  0.354100  1.0  0.7126
  C  C100  1  0.855800  0.025000  0.625900  1.0  0.7308
  O  O101  1  0.225200  0.974000  0.688600  1.0  -0.5606
  O  O102  1  0.066300  0.997100  0.792300  1.0  -0.6065
  O  O103  1  0.340700  0.287600  0.082900  1.0  -0.6469
  O  O104  1  0.153500  0.204500  0.072000  1.0  -0.7238
  O  O105  1  0.845100  0.803600  0.819500  1.0  -0.7259
  O  O106  1  0.659300  0.715700  0.811700  1.0  -0.739
  O  O107  1  0.537900  0.497700  0.087700  1.0  -0.6595
  O  O108  1  0.687700  0.482100  0.196600  1.0  -0.6421
  O  O109  1  0.774800  0.026000  0.188600  1.0  -0.5615
  O  O110  1  0.933700  0.002900  0.292300  1.0  -0.6066
  O  O111  1  0.659300  0.712400  0.582900  1.0  -0.6447
  O  O112  1  0.846500  0.795500  0.572000  1.0  -0.723
  O  O113  1  0.154900  0.196400  0.319500  1.0  -0.7263
  O  O114  1  0.340700  0.284300  0.311700  1.0  -0.7383
  O  O115  1  0.462100  0.502300  0.587700  1.0  -0.6602
  O  O116  1  0.312300  0.517900  0.696600  1.0  -0.6432
  O  O117  1  0.725200  0.526000  0.688600  1.0  -0.5613
  O  O118  1  0.566300  0.502900  0.792300  1.0  -0.6071
  O  O119  1  0.840700  0.212400  0.082900  1.0  -0.6458
  O  O120  1  0.653500  0.295500  0.072000  1.0  -0.7235
  O  O121  1  0.345100  0.696400  0.819500  1.0  -0.7265
  O  O122  1  0.159300  0.784300  0.811700  1.0  -0.7384
  O  O123  1  0.037900  0.002300  0.087700  1.0  -0.6606
  O  O124  1  0.187700  0.017900  0.196600  1.0  -0.6432
  O  O125  1  0.274800  0.474000  0.188600  1.0  -0.5607
  O  O126  1  0.433700  0.497100  0.292300  1.0  -0.6059
  O  O127  1  0.159300  0.787600  0.582900  1.0  -0.646
  O  O128  1  0.346500  0.704500  0.572000  1.0  -0.7229
  O  O129  1  0.654900  0.303600  0.319500  1.0  -0.7256
  O  O130  1  0.840700  0.215700  0.311700  1.0  -0.7383
  O  O131  1  0.962100  0.997700  0.587700  1.0  -0.6603
  O  O132  1  0.812300  0.982100  0.696600  1.0  -0.6421
