# generated using pymatgen
data_Cu2H3C9O7
_symmetry_space_group_name_H-M   'P 1'
_cell_length_a   3.49260000
_cell_length_b   9.82800000
_cell_length_c   17.18500000
_cell_angle_alpha   90.00000000
_cell_angle_beta   93.75300000
_cell_angle_gamma   90.00000000
_symmetry_Int_Tables_number   1
_chemical_formula_structural   Cu2H3C9O7
_chemical_formula_sum   'Cu4 H6 C18 O14'
_cell_volume   588.61481426
_cell_formula_units_Z   2
loop_
 _symmetry_equiv_pos_site_id
 _symmetry_equiv_pos_as_xyz
  1  'x, y, z'
loop_
 _atom_site_type_symbol
 _atom_site_label
 _atom_site_symmetry_multiplicity
 _atom_site_fract_x
 _atom_site_fract_y
 _atom_site_fract_z
 _atom_site_occupancy
 _atom_site_charge
  Cu  Cu1  1  0.581120  0.240950  0.728020  1.0  1.0861
  Cu  Cu2  1  0.129300  0.455350  0.606640  1.0  0.9904
  Cu  Cu3  1  0.081120  0.759050  0.228020  1.0  1.0863
  Cu  Cu4  1  0.629300  0.544650  0.106640  1.0  0.9892
  H  H5  1  0.610900  0.783000  0.715800  1.0  0.1255
  H  H6  1  0.946100  0.542500  0.897000  1.0  0.1259
  H  H7  1  0.088000  0.950200  0.912800  1.0  0.1226
  H  H8  1  0.110900  0.217000  0.215800  1.0  0.1254
  H  H9  1  0.446100  0.457500  0.397000  1.0  0.1243
  H  H10  1  0.588000  0.049800  0.412800  1.0  0.123
  C  C11  1  0.839500  0.887100  0.808900  1.0  -0.1402
  C  C12  1  0.717000  0.773500  0.766600  1.0  0.0312
  C  C13  1  0.752000  0.645500  0.800400  1.0  -0.1695
  C  C14  1  0.919000  0.629000  0.875400  1.0  0.0364
  C  C15  1  0.047000  0.743200  0.918200  1.0  -0.1587
  C  C16  1  0.005300  0.873600  0.884700  1.0  0.0338
  C  C17  1  0.770000  0.025200  0.775500  1.0  0.6058
  C  C18  1  0.608000  0.525400  0.752600  1.0  0.6929
  C  C19  1  0.239000  0.731000  0.998700  1.0  0.6671
  C  C20  1  0.339500  0.112900  0.308900  1.0  -0.1411
  C  C21  1  0.217000  0.226500  0.266600  1.0  0.0324
  C  C22  1  0.252000  0.354500  0.300400  1.0  -0.1683
  C  C23  1  0.419000  0.371000  0.375400  1.0  0.034
  C  C24  1  0.547000  0.256800  0.418200  1.0  -0.159
  C  C25  1  0.505300  0.126400  0.384700  1.0  0.0332
  C  C26  1  0.270000  0.974800  0.275500  1.0  0.6046
  C  C27  1  0.108000  0.474600  0.252600  1.0  0.6937
  C  C28  1  0.739000  0.269000  0.498700  1.0  0.6671
  O  O29  1  0.581100  0.040200  0.710400  1.0  -0.4727
  O  O30  1  0.886600  0.131700  0.812200  1.0  -0.5278
  O  O31  1  0.630200  0.409000  0.785600  1.0  -0.556
  O  O32  1  0.138200  0.287800  0.663100  1.0  -0.7314
  O  O33  1  0.493200  0.546100  0.683300  1.0  -0.6583
  O  O34  1  0.248900  0.609200  0.027000  1.0  -0.6719
  O  O35  1  0.376500  0.831800  0.031900  1.0  -0.4283
  O  O36  1  0.081100  0.959800  0.210400  1.0  -0.4722
  O  O37  1  0.386600  0.868300  0.312200  1.0  -0.528
  O  O38  1  0.130200  0.591000  0.285600  1.0  -0.5574
  O  O39  1  0.638200  0.712200  0.163100  1.0  -0.7306
  O  O40  1  0.993200  0.453900  0.183300  1.0  -0.6584
  O  O41  1  0.748900  0.390800  0.527000  1.0  -0.6733
  O  O42  1  0.876500  0.168200  0.531900  1.0  -0.4277
