# generated using pymatgen
data_Zn4Mo12H7(CO2)15
_symmetry_space_group_name_H-M   'P 1'
_cell_length_a   28.88180000
_cell_length_b   27.40170000
_cell_length_c   26.78890000
_cell_angle_alpha   90.00000000
_cell_angle_beta   104.86000000
_cell_angle_gamma   90.00000000
_symmetry_Int_Tables_number   1
_chemical_formula_structural   Zn4Mo12H7(CO2)15
_chemical_formula_sum   'Zn32 Mo96 H56 C120 O240'
_cell_volume   20491.95419790
_cell_formula_units_Z   8
loop_
 _symmetry_equiv_pos_site_id
 _symmetry_equiv_pos_as_xyz
  1  'x, y, z'
loop_
 _atom_site_type_symbol
 _atom_site_label
 _atom_site_symmetry_multiplicity
 _atom_site_fract_x
 _atom_site_fract_y
 _atom_site_fract_z
 _atom_site_occupancy
 _atom_site_charge
  Zn  Zn1  1  0.238860  0.351420  0.249330  1.0  1.1597
  Zn  Zn2  1  0.198790  0.464910  0.044870  1.0  1.0588
  Zn  Zn3  1  0.066080  0.312280  0.067020  1.0  1.044
  Zn  Zn4  1  0.226340  0.247190  0.929640  1.0  1.0125
  Zn  Zn5  1  0.738860  0.851420  0.249330  1.0  1.1597
  Zn  Zn6  1  0.698790  0.964910  0.044870  1.0  1.0588
  Zn  Zn7  1  0.566080  0.812280  0.067020  1.0  1.044
  Zn  Zn8  1  0.726340  0.747190  0.929640  1.0  1.0125
  Zn  Zn9  1  0.761140  0.351420  0.250670  1.0  1.1586
  Zn  Zn10  1  0.801210  0.464910  0.455130  1.0  1.059
  Zn  Zn11  1  0.933920  0.312280  0.432980  1.0  1.0451
  Zn  Zn12  1  0.773660  0.247190  0.570360  1.0  1.014
  Zn  Zn13  1  0.261140  0.851420  0.250670  1.0  1.1586
  Zn  Zn14  1  0.301210  0.964910  0.455130  1.0  1.059
  Zn  Zn15  1  0.433920  0.812280  0.432980  1.0  1.0451
  Zn  Zn16  1  0.273660  0.747190  0.570360  1.0  1.014
  Zn  Zn17  1  0.761140  0.648580  0.750670  1.0  1.1592
  Zn  Zn18  1  0.801210  0.535090  0.955130  1.0  1.0596
  Zn  Zn19  1  0.933920  0.687720  0.932980  1.0  1.0396
  Zn  Zn20  1  0.773660  0.752810  0.070360  1.0  1.0143
  Zn  Zn21  1  0.261140  0.148580  0.750670  1.0  1.1592
  Zn  Zn22  1  0.301210  0.035090  0.955130  1.0  1.0596
  Zn  Zn23  1  0.433920  0.187720  0.932980  1.0  1.0396
  Zn  Zn24  1  0.273660  0.252810  0.070360  1.0  1.0143
  Zn  Zn25  1  0.238860  0.648580  0.749330  1.0  1.16
  Zn  Zn26  1  0.198790  0.535090  0.544870  1.0  1.0593
  Zn  Zn27  1  0.066080  0.687720  0.567020  1.0  1.0388
  Zn  Zn28  1  0.226340  0.752810  0.429640  1.0  1.0128
  Zn  Zn29  1  0.738860  0.148580  0.749330  1.0  1.16
  Zn  Zn30  1  0.698790  0.035090  0.544870  1.0  1.0593
  Zn  Zn31  1  0.566080  0.187720  0.567020  1.0  1.0388
  Zn  Zn32  1  0.726340  0.252810  0.429640  1.0  1.0128
  Mo  Mo33  1  0.278720  0.439890  0.172880  1.0  1.1133
  Mo  Mo34  1  0.192540  0.463210  0.177540  1.0  1.1072
  Mo  Mo35  1  0.109980  0.369040  0.190610  1.0  1.0273
  Mo  Mo36  1  0.137910  0.278160  0.196260  1.0  1.0614
  Mo  Mo37  1  0.250580  0.239960  0.192150  1.0  1.1284
  Mo  Mo38  1  0.323620  0.323630  0.180350  1.0  1.1489
  Mo  Mo39  1  0.299990  0.379610  0.061520  1.0  1.1058
  Mo  Mo40  1  0.158630  0.216820  0.085110  1.0  1.1422
  Mo  Mo41  1  0.092700  0.437930  0.080610  1.0  1.1309
  Mo  Mo42  1  0.110150  0.383590  0.981930  1.0  1.1194
  Mo  Mo43  1  0.146890  0.264720  0.998460  1.0  1.1654
  Mo  Mo44  1  0.227060  0.357010  0.984370  1.0  1.1484
  Mo  Mo45  1  0.778720  0.939890  0.172880  1.0  1.1133
  Mo  Mo46  1  0.692540  0.963210  0.177540  1.0  1.1072
  Mo  Mo47  1  0.609980  0.869040  0.190610  1.0  1.0273
  Mo  Mo48  1  0.637910  0.778160  0.196260  1.0  1.0614
  Mo  Mo49  1  0.750580  0.739960  0.192150  1.0  1.1284
  Mo  Mo50  1  0.823620  0.823630  0.180350  1.0  1.1489
  Mo  Mo51  1  0.799990  0.879610  0.061520  1.0  1.1058
  Mo  Mo52  1  0.658630  0.716820  0.085110  1.0  1.1422
  Mo  Mo53  1  0.592700  0.937930  0.080610  1.0  1.1309
  Mo  Mo54  1  0.610150  0.883590  0.981930  1.0  1.1194
  Mo  Mo55  1  0.646890  0.764720  0.998460  1.0  1.1654
  Mo  Mo56  1  0.727060  0.857010  0.984370  1.0  1.1484
  Mo  Mo57  1  0.721280  0.439890  0.327120  1.0  1.1123
  Mo  Mo58  1  0.807460  0.463210  0.322460  1.0  1.107
  Mo  Mo59  1  0.890020  0.369040  0.309390  1.0  1.0278
  Mo  Mo60  1  0.862090  0.278160  0.303740  1.0  1.0668
  Mo  Mo61  1  0.749420  0.239960  0.307850  1.0  1.1307
  Mo  Mo62  1  0.676380  0.323630  0.319650  1.0  1.1505
  Mo  Mo63  1  0.700010  0.379610  0.438480  1.0  1.1054
  Mo  Mo64  1  0.841370  0.216820  0.414890  1.0  1.1415
  Mo  Mo65  1  0.907300  0.437930  0.419390  1.0  1.1307
  Mo  Mo66  1  0.889850  0.383590  0.518070  1.0  1.1166
  Mo  Mo67  1  0.853110  0.264720  0.501540  1.0  1.1649
  Mo  Mo68  1  0.772940  0.357010  0.515630  1.0  1.1483
  Mo  Mo69  1  0.221280  0.939890  0.327120  1.0  1.112
  Mo  Mo70  1  0.307460  0.963210  0.322460  1.0  1.107
  Mo  Mo71  1  0.390020  0.869040  0.309390  1.0  1.0278
  Mo  Mo72  1  0.362090  0.778160  0.303740  1.0  1.0668
  Mo  Mo73  1  0.249420  0.739960  0.307850  1.0  1.1307
  Mo  Mo74  1  0.176380  0.823630  0.319650  1.0  1.1505
  Mo  Mo75  1  0.200010  0.879610  0.438480  1.0  1.1054
  Mo  Mo76  1  0.341370  0.716820  0.414890  1.0  1.1415
  Mo  Mo77  1  0.407300  0.937930  0.419390  1.0  1.1307
  Mo  Mo78  1  0.389850  0.883590  0.518070  1.0  1.1166
  Mo  Mo79  1  0.353110  0.764720  0.501540  1.0  1.1649
  Mo  Mo80  1  0.272940  0.857010  0.515630  1.0  1.1483
  Mo  Mo81  1  0.721280  0.560110  0.827120  1.0  1.1124
  Mo  Mo82  1  0.807460  0.536790  0.822460  1.0  1.1089
  Mo  Mo83  1  0.890020  0.630960  0.809390  1.0  1.0285
  Mo  Mo84  1  0.862090  0.721840  0.803740  1.0  1.0668
  Mo  Mo85  1  0.749420  0.760040  0.807850  1.0  1.131
  Mo  Mo86  1  0.676380  0.676370  0.819650  1.0  1.1506
  Mo  Mo87  1  0.700010  0.620390  0.938480  1.0  1.1055
  Mo  Mo88  1  0.841370  0.783180  0.914890  1.0  1.1413
  Mo  Mo89  1  0.907300  0.562070  0.919390  1.0  1.1322
  Mo  Mo90  1  0.889850  0.616410  0.018070  1.0  1.1168
  Mo  Mo91  1  0.853110  0.735280  0.001540  1.0  1.1654
  Mo  Mo92  1  0.772940  0.642990  0.015630  1.0  1.1485
  Mo  Mo93  1  0.221280  0.060110  0.827120  1.0  1.1124
  Mo  Mo94  1  0.307460  0.036790  0.822460  1.0  1.1089
  Mo  Mo95  1  0.390020  0.130960  0.809390  1.0  1.0285
  Mo  Mo96  1  0.362090  0.221840  0.803740  1.0  1.0668
  Mo  Mo97  1  0.249420  0.260040  0.807850  1.0  1.131
  Mo  Mo98  1  0.176380  0.176370  0.819650  1.0  1.1506
  Mo  Mo99  1  0.200010  0.120390  0.938480  1.0  1.1055
  Mo  Mo100  1  0.341370  0.283180  0.914890  1.0  1.1413
  Mo  Mo101  1  0.407300  0.062070  0.919390  1.0  1.1322
  Mo  Mo102  1  0.389850  0.116410  0.018070  1.0  1.1168
  Mo  Mo103  1  0.353110  0.235280  0.001540  1.0  1.1654
  Mo  Mo104  1  0.272940  0.142990  0.015630  1.0  1.1485
  Mo  Mo105  1  0.278720  0.560110  0.672880  1.0  1.1131
  Mo  Mo106  1  0.192540  0.536790  0.677540  1.0  1.1071
  Mo  Mo107  1  0.109980  0.630960  0.690610  1.0  1.0272
  Mo  Mo108  1  0.137910  0.721840  0.696260  1.0  1.0625
  Mo  Mo109  1  0.250580  0.760040  0.692150  1.0  1.1291
  Mo  Mo110  1  0.323620  0.676370  0.680350  1.0  1.1489
  Mo  Mo111  1  0.299990  0.620390  0.561520  1.0  1.1057
  Mo  Mo112  1  0.158630  0.783180  0.585110  1.0  1.1419
  Mo  Mo113  1  0.092700  0.562070  0.580610  1.0  1.1327
  Mo  Mo114  1  0.110150  0.616410  0.481930  1.0  1.1196
  Mo  Mo115  1  0.146890  0.735280  0.498460  1.0  1.1665
  Mo  Mo116  1  0.227060  0.642990  0.484370  1.0  1.1483
  Mo  Mo117  1  0.778720  0.060110  0.672880  1.0  1.1127
  Mo  Mo118  1  0.692540  0.036790  0.677540  1.0  1.1071
  Mo  Mo119  1  0.609980  0.130960  0.690610  1.0  1.0272
  Mo  Mo120  1  0.637910  0.221840  0.696260  1.0  1.0625
  Mo  Mo121  1  0.750580  0.260040  0.692150  1.0  1.1291
  Mo  Mo122  1  0.823620  0.176370  0.680350  1.0  1.1489
  Mo  Mo123  1  0.799990  0.120390  0.561520  1.0  1.1057
  Mo  Mo124  1  0.658630  0.283180  0.585110  1.0  1.1419
  Mo  Mo125  1  0.592700  0.062070  0.580610  1.0  1.1327
  Mo  Mo126  1  0.610150  0.116410  0.481930  1.0  1.1196
  Mo  Mo127  1  0.646890  0.235280  0.498460  1.0  1.1665
  Mo  Mo128  1  0.727060  0.142990  0.484370  1.0  1.1483
  H  H129  1  0.312200  0.338000  0.405700  1.0  0.1386
  H  H130  1  0.321300  0.402800  0.541000  1.0  0.1348
  H  H131  1  0.215800  0.439900  0.418300  1.0  0.1508
  H  H132  1  0.401100  0.387400  0.550900  1.0  0.1418
  H  H133  1  0.469000  0.344400  0.586500  1.0  0.139
  H  H134  1  0.419200  0.231500  0.495000  1.0  0.136
  H  H135  1  0.349400  0.274100  0.459800  1.0  0.149
  H  H136  1  0.812200  0.838000  0.405700  1.0  0.1386
  H  H137  1  0.821300  0.902800  0.541000  1.0  0.1348
  H  H138  1  0.715800  0.939900  0.418300  1.0  0.1508
  H  H139  1  0.901100  0.887400  0.550900  1.0  0.1422
  H  H140  1  0.969000  0.844400  0.586500  1.0  0.1417
  H  H141  1  0.919200  0.731500  0.495000  1.0  0.136
  H  H142  1  0.849400  0.774100  0.459800  1.0  0.149
  H  H143  1  0.687800  0.338000  0.094300  1.0  0.1385
  H  H144  1  0.678700  0.402800  0.959000  1.0  0.1351
  H  H145  1  0.784200  0.439900  0.081700  1.0  0.1503
  H  H146  1  0.598900  0.387400  0.949100  1.0  0.1416
  H  H147  1  0.531000  0.344400  0.913500  1.0  0.1389
  H  H148  1  0.580800  0.231500  0.005000  1.0  0.1364
  H  H149  1  0.650600  0.274100  0.040200  1.0  0.1496
  H  H150  1  0.187800  0.838000  0.094300  1.0  0.1387
  H  H151  1  0.178700  0.902800  0.959000  1.0  0.1351
  H  H152  1  0.284200  0.939900  0.081700  1.0  0.1503
  H  H153  1  0.098900  0.887400  0.949100  1.0  0.1421
  H  H154  1  0.031000  0.844400  0.913500  1.0  0.142
  H  H155  1  0.080800  0.731500  0.005000  1.0  0.1364
  H  H156  1  0.150600  0.774100  0.040200  1.0  0.1496
  H  H157  1  0.687800  0.662000  0.594300  1.0  0.1382
  H  H158  1  0.678700  0.597200  0.459000  1.0  0.1352
  H  H159  1  0.784200  0.560100  0.581700  1.0  0.1503
  H  H160  1  0.598900  0.612600  0.449100  1.0  0.1417
  H  H161  1  0.531000  0.655600  0.413500  1.0  0.1388
  H  H162  1  0.580800  0.768500  0.505000  1.0  0.1365
  H  H163  1  0.650600  0.725900  0.540200  1.0  0.1494
  H  H164  1  0.187800  0.162000  0.594300  1.0  0.1382
  H  H165  1  0.178700  0.097200  0.459000  1.0  0.1352
  H  H166  1  0.284200  0.060100  0.581700  1.0  0.1503
  H  H167  1  0.098900  0.112600  0.449100  1.0  0.142
  H  H168  1  0.031000  0.155600  0.413500  1.0  0.1415
  H  H169  1  0.080800  0.268500  0.505000  1.0  0.1365
  H  H170  1  0.150600  0.225900  0.540200  1.0  0.1494
  H  H171  1  0.312200  0.662000  0.905700  1.0  0.1385
  H  H172  1  0.321300  0.597200  0.041000  1.0  0.1348
  H  H173  1  0.215800  0.560100  0.918300  1.0  0.1504
  H  H174  1  0.401100  0.612600  0.050900  1.0  0.1419
  H  H175  1  0.469000  0.655600  0.086500  1.0  0.139
  H  H176  1  0.419200  0.768500  0.995000  1.0  0.1362
  H  H177  1  0.349400  0.725900  0.959800  1.0  0.1492
  H  H178  1  0.812200  0.162000  0.905700  1.0  0.1389
  H  H179  1  0.821300  0.097200  0.041000  1.0  0.1348
  H  H180  1  0.715800  0.060100  0.918300  1.0  0.1504
  H  H181  1  0.901100  0.112600  0.050900  1.0  0.142
  H  H182  1  0.969000  0.155600  0.086500  1.0  0.1417
  H  H183  1  0.919200  0.268500  0.995000  1.0  0.1362
  H  H184  1  0.849400  0.225900  0.959800  1.0  0.1492
  C  C185  1  0.238800  0.384300  0.345700  1.0  0.6951
  C  C186  1  0.260800  0.387700  0.403100  1.0  -0.1556
  C  C187  1  0.300500  0.360200  0.425700  1.0  -0.006
  C  C188  1  0.323600  0.364800  0.477800  1.0  0.0542
  C  C189  1  0.305800  0.398700  0.506300  1.0  -0.0316
  C  C190  1  0.266300  0.426600  0.485200  1.0  -0.1199
  C  C191  1  0.242800  0.421400  0.433000  1.0  0.0587
  C  C192  1  0.250700  0.464100  0.518800  1.0  0.7088
  C  C193  1  0.367700  0.336100  0.501200  1.0  0.0925
  C  C194  1  0.404300  0.355900  0.539300  1.0  -0.1008
  C  C195  1  0.445300  0.330300  0.560300  1.0  -0.0065
  C  C196  1  0.452400  0.283500  0.543200  1.0  -0.0678
  C  C197  1  0.415800  0.263100  0.506200  1.0  -0.0044
  C  C198  1  0.373700  0.288700  0.484900  1.0  -0.0851
  C  C199  1  0.498900  0.258500  0.564500  1.0  0.7097
  C  C200  1  0.738800  0.884300  0.345700  1.0  0.6951
  C  C201  1  0.760800  0.887700  0.403100  1.0  -0.1556
  C  C202  1  0.800500  0.860200  0.425700  1.0  -0.006
  C  C203  1  0.823600  0.864800  0.477800  1.0  0.0542
  C  C204  1  0.805800  0.898700  0.506300  1.0  -0.0316
  C  C205  1  0.766300  0.926600  0.485200  1.0  -0.1199
  C  C206  1  0.742800  0.921400  0.433000  1.0  0.0587
  C  C207  1  0.750700  0.964100  0.518800  1.0  0.7088
  C  C208  1  0.867700  0.836100  0.501200  1.0  0.0925
  C  C209  1  0.904300  0.855900  0.539300  1.0  -0.1008
  C  C210  1  0.945300  0.830300  0.560300  1.0  -0.0065
  C  C211  1  0.952400  0.783500  0.543200  1.0  -0.0678
  C  C212  1  0.915800  0.763100  0.506200  1.0  -0.0044
  C  C213  1  0.873700  0.788700  0.484900  1.0  -0.0851
  C  C214  1  0.998900  0.758500  0.564500  1.0  0.7097
  C  C215  1  0.761200  0.384300  0.154300  1.0  0.6958
  C  C216  1  0.739200  0.387700  0.096900  1.0  -0.1559
  C  C217  1  0.699500  0.360200  0.074300  1.0  -0.0069
  C  C218  1  0.676400  0.364800  0.022200  1.0  0.0535
  C  C219  1  0.694200  0.398700  0.993700  1.0  -0.0302
  C  C220  1  0.733700  0.426600  0.014800  1.0  -0.12
  C  C221  1  0.757200  0.421400  0.067000  1.0  0.0606
  C  C222  1  0.749300  0.464100  0.981200  1.0  0.7098
  C  C223  1  0.632300  0.336100  0.998800  1.0  0.0919
  C  C224  1  0.595700  0.355900  0.960700  1.0  -0.101
  C  C225  1  0.554700  0.330300  0.939700  1.0  -0.0078
  C  C226  1  0.547600  0.283500  0.956800  1.0  -0.068
  C  C227  1  0.584200  0.263100  0.993800  1.0  -0.0057
  C  C228  1  0.626300  0.288700  0.015100  1.0  -0.0847
  C  C229  1  0.501100  0.258500  0.935500  1.0  0.7093
  C  C230  1  0.261200  0.884300  0.154300  1.0  0.6958
  C  C231  1  0.239200  0.887700  0.096900  1.0  -0.1527
  C  C232  1  0.199500  0.860200  0.074300  1.0  -0.0
  C  C233  1  0.176400  0.864800  0.022200  1.0  0.0535
  C  C234  1  0.194200  0.898700  0.993700  1.0  -0.0302
  C  C235  1  0.233700  0.926600  0.014800  1.0  -0.1165
  C  C236  1  0.257200  0.921400  0.067000  1.0  0.0583
  C  C237  1  0.249300  0.964100  0.981200  1.0  0.7098
  C  C238  1  0.132300  0.836100  0.998800  1.0  0.0919
  C  C239  1  0.095700  0.855900  0.960700  1.0  -0.101
  C  C240  1  0.054700  0.830300  0.939700  1.0  -0.0078
  C  C241  1  0.047600  0.783500  0.956800  1.0  -0.068
  C  C242  1  0.084200  0.763100  0.993800  1.0  -0.0057
  C  C243  1  0.126300  0.788700  0.015100  1.0  -0.0847
  C  C244  1  0.001100  0.758500  0.935500  1.0  0.7093
  C  C245  1  0.761200  0.615700  0.654300  1.0  0.6958
  C  C246  1  0.739200  0.612300  0.596900  1.0  -0.1559
  C  C247  1  0.699500  0.639800  0.574300  1.0  -0.0082
  C  C248  1  0.676400  0.635200  0.522200  1.0  0.0534
  C  C249  1  0.694200  0.601300  0.493700  1.0  -0.03
  C  C250  1  0.733700  0.573400  0.514800  1.0  -0.1202
  C  C251  1  0.757200  0.578600  0.567000  1.0  0.06
  C  C252  1  0.749300  0.535900  0.481200  1.0  0.7092
  C  C253  1  0.632300  0.663900  0.498800  1.0  0.0921
  C  C254  1  0.595700  0.644100  0.460700  1.0  -0.1018
  C  C255  1  0.554700  0.669700  0.439700  1.0  -0.0079
  C  C256  1  0.547600  0.716500  0.456800  1.0  -0.0686
  C  C257  1  0.584200  0.736900  0.493800  1.0  -0.004
  C  C258  1  0.626300  0.711300  0.515100  1.0  -0.0858
  C  C259  1  0.501100  0.741500  0.435500  1.0  0.7096
  C  C260  1  0.261200  0.115700  0.654300  1.0  0.6958
  C  C261  1  0.239200  0.112300  0.596900  1.0  -0.1559
  C  C262  1  0.199500  0.139800  0.574300  1.0  -0.0082
  C  C263  1  0.176400  0.135200  0.522200  1.0  0.0534
  C  C264  1  0.194200  0.101300  0.493700  1.0  -0.03
  C  C265  1  0.233700  0.073400  0.514800  1.0  -0.1202
  C  C266  1  0.257200  0.078600  0.567000  1.0  0.06
  C  C267  1  0.249300  0.035900  0.481200  1.0  0.7092
  C  C268  1  0.132300  0.163900  0.498800  1.0  0.0921
  C  C269  1  0.095700  0.144100  0.460700  1.0  -0.1018
  C  C270  1  0.054700  0.169700  0.439700  1.0  -0.0079
  C  C271  1  0.047600  0.216500  0.456800  1.0  -0.0686
  C  C272  1  0.084200  0.236900  0.493800  1.0  -0.004
  C  C273  1  0.126300  0.211300  0.515100  1.0  -0.0858
  C  C274  1  0.001100  0.241500  0.435500  1.0  0.7096
  C  C275  1  0.238800  0.615700  0.845700  1.0  0.6951
  C  C276  1  0.260800  0.612300  0.903100  1.0  -0.1555
  C  C277  1  0.300500  0.639800  0.925700  1.0  -0.007
  C  C278  1  0.323600  0.635200  0.977800  1.0  0.054
  C  C279  1  0.305800  0.601300  0.006300  1.0  -0.0318
  C  C280  1  0.266300  0.573400  0.985200  1.0  -0.1198
  C  C281  1  0.242800  0.578600  0.933000  1.0  0.0577
  C  C282  1  0.250700  0.535900  0.018800  1.0  0.709
  C  C283  1  0.367700  0.663900  0.001200  1.0  0.0926
  C  C284  1  0.404300  0.644100  0.039300  1.0  -0.1012
  C  C285  1  0.445300  0.669700  0.060300  1.0  -0.0064
  C  C286  1  0.452400  0.716500  0.043200  1.0  -0.0686
  C  C287  1  0.415800  0.736900  0.006200  1.0  -0.0048
  C  C288  1  0.373700  0.711300  0.984900  1.0  -0.087
  C  C289  1  0.498900  0.741500  0.064500  1.0  0.7102
  C  C290  1  0.738800  0.115700  0.845700  1.0  0.6951
  C  C291  1  0.760800  0.112300  0.903100  1.0  -0.1514
  C  C292  1  0.800500  0.139800  0.925700  1.0  0.0005
  C  C293  1  0.823600  0.135200  0.977800  1.0  0.054
  C  C294  1  0.805800  0.101300  0.006300  1.0  -0.0318
  C  C295  1  0.766300  0.073400  0.985200  1.0  -0.1157
  C  C296  1  0.742800  0.078600  0.933000  1.0  0.0562
  C  C297  1  0.750700  0.035900  0.018800  1.0  0.709
  C  C298  1  0.867700  0.163900  0.001200  1.0  0.0926
  C  C299  1  0.904300  0.144100  0.039300  1.0  -0.1012
  C  C300  1  0.945300  0.169700  0.060300  1.0  -0.0064
  C  C301  1  0.952400  0.216500  0.043200  1.0  -0.0686
  C  C302  1  0.915800  0.236900  0.006200  1.0  -0.0048
  C  C303  1  0.873700  0.211300  0.984900  1.0  -0.087
  C  C304  1  0.998900  0.241500  0.064500  1.0  0.7102
  O  O305  1  0.261600  0.355400  0.322500  1.0  -0.5466
  O  O306  1  0.203300  0.408900  0.324300  1.0  -0.4316
  O  O307  1  0.207660  0.480020  0.503100  1.0  -0.5469
  O  O308  1  0.280400  0.478400  0.558100  1.0  -0.4371
  O  O309  1  0.502500  0.215200  0.546900  1.0  -0.5607
  O  O310  1  0.530800  0.280300  0.596200  1.0  -0.4363
  O  O311  1  0.322950  0.386000  0.205300  1.0  -0.6517
  O  O312  1  0.275950  0.305400  0.219840  1.0  -0.7901
  O  O313  1  0.202000  0.247800  0.224400  1.0  -0.6777
  O  O314  1  0.238860  0.416280  0.217100  1.0  -0.7841
  O  O315  1  0.169440  0.337500  0.228000  1.0  -0.7857
  O  O316  1  0.148000  0.432200  0.218500  1.0  -0.6176
  O  O317  1  0.338560  0.339900  0.120800  1.0  -0.6571
  O  O318  1  0.289760  0.264130  0.145000  1.0  -0.7328
  O  O319  1  0.310580  0.438240  0.112400  1.0  -0.6193
  O  O320  1  0.217360  0.201110  0.140660  1.0  -0.676
  O  O321  1  0.223860  0.467760  0.121300  1.0  -0.8158
  O  O322  1  0.124190  0.221710  0.144200  1.0  -0.6266
  O  O323  1  0.133740  0.479940  0.122700  1.0  -0.6731
  O  O324  1  0.090860  0.314000  0.143600  1.0  -0.7773
  O  O325  1  0.071110  0.408610  0.131700  1.0  -0.6345
  O  O326  1  0.271810  0.316900  0.035190  1.0  -0.8354
  O  O327  1  0.241850  0.415470  0.027510  1.0  -0.8009
  O  O328  1  0.204300  0.238920  0.047150  1.0  -0.8006
  O  O329  1  0.109240  0.263040  0.049630  1.0  -0.825
  O  O330  1  0.133340  0.440220  0.030980  1.0  -0.7462
  O  O331  1  0.078610  0.375900  0.040500  1.0  -0.7567
  O  O332  1  0.191940  0.294650  0.961110  1.0  -0.7826
  O  O333  1  0.163170  0.390480  0.958100  1.0  -0.691
  O  O334  1  0.100670  0.319140  0.968610  1.0  -0.6827
  O  O335  1  0.761600  0.855400  0.322500  1.0  -0.5466
  O  O336  1  0.703300  0.908900  0.324300  1.0  -0.4316
  O  O337  1  0.707660  0.980020  0.503100  1.0  -0.5469
  O  O338  1  0.780400  0.978400  0.558100  1.0  -0.4371
  O  O339  1  0.002500  0.715200  0.546900  1.0  -0.5607
  O  O340  1  0.030800  0.780300  0.596200  1.0  -0.4363
  O  O341  1  0.822950  0.886000  0.205300  1.0  -0.6517
  O  O342  1  0.775950  0.805400  0.219840  1.0  -0.7901
  O  O343  1  0.702000  0.747800  0.224400  1.0  -0.6777
  O  O344  1  0.738860  0.916280  0.217100  1.0  -0.7841
  O  O345  1  0.669440  0.837500  0.228000  1.0  -0.7857
  O  O346  1  0.648000  0.932200  0.218500  1.0  -0.6176
  O  O347  1  0.838560  0.839900  0.120800  1.0  -0.6571
  O  O348  1  0.789760  0.764130  0.145000  1.0  -0.7328
  O  O349  1  0.810580  0.938240  0.112400  1.0  -0.6193
  O  O350  1  0.717360  0.701110  0.140660  1.0  -0.676
  O  O351  1  0.723860  0.967760  0.121300  1.0  -0.8158
  O  O352  1  0.624190  0.721710  0.144200  1.0  -0.6266
  O  O353  1  0.633740  0.979940  0.122700  1.0  -0.6731
  O  O354  1  0.590860  0.814000  0.143600  1.0  -0.7773
  O  O355  1  0.571110  0.908610  0.131700  1.0  -0.6345
  O  O356  1  0.771810  0.816900  0.035190  1.0  -0.8354
  O  O357  1  0.741850  0.915470  0.027510  1.0  -0.8009
  O  O358  1  0.704300  0.738920  0.047150  1.0  -0.8006
  O  O359  1  0.609240  0.763040  0.049630  1.0  -0.825
  O  O360  1  0.633340  0.940220  0.030980  1.0  -0.7462
  O  O361  1  0.578610  0.875900  0.040500  1.0  -0.7567
  O  O362  1  0.691940  0.794650  0.961110  1.0  -0.7826
  O  O363  1  0.663170  0.890480  0.958100  1.0  -0.691
  O  O364  1  0.600670  0.819140  0.968610  1.0  -0.6837
  O  O365  1  0.738400  0.355400  0.177500  1.0  -0.5472
  O  O366  1  0.796700  0.408900  0.175700  1.0  -0.4304
  O  O367  1  0.792340  0.480020  0.996900  1.0  -0.5474
  O  O368  1  0.719600  0.478400  0.941900  1.0  -0.438
  O  O369  1  0.497500  0.215200  0.953100  1.0  -0.5608
  O  O370  1  0.469200  0.280300  0.903800  1.0  -0.4386
  O  O371  1  0.677050  0.386000  0.294700  1.0  -0.6498
  O  O372  1  0.724050  0.305400  0.280160  1.0  -0.7916
  O  O373  1  0.798000  0.247800  0.275600  1.0  -0.6778
  O  O374  1  0.761140  0.416280  0.282900  1.0  -0.7844
  O  O375  1  0.830560  0.337500  0.272000  1.0  -0.7875
  O  O376  1  0.852000  0.432200  0.281500  1.0  -0.6186
  O  O377  1  0.661440  0.339900  0.379200  1.0  -0.6583
  O  O378  1  0.710240  0.264130  0.355000  1.0  -0.7324
  O  O379  1  0.689420  0.438240  0.387600  1.0  -0.6203
  O  O380  1  0.782640  0.201110  0.359340  1.0  -0.6748
  O  O381  1  0.776140  0.467760  0.378700  1.0  -0.8175
  O  O382  1  0.875810  0.221710  0.355800  1.0  -0.6273
  O  O383  1  0.866260  0.479940  0.377300  1.0  -0.672
  O  O384  1  0.909140  0.314000  0.356400  1.0  -0.7786
  O  O385  1  0.928890  0.408610  0.368300  1.0  -0.6354
  O  O386  1  0.728190  0.316900  0.464810  1.0  -0.8346
  O  O387  1  0.758150  0.415470  0.472490  1.0  -0.8005
  O  O388  1  0.795700  0.238920  0.452850  1.0  -0.8009
  O  O389  1  0.890760  0.263040  0.450370  1.0  -0.8259
  O  O390  1  0.866660  0.440220  0.469020  1.0  -0.7451
  O  O391  1  0.921390  0.375900  0.459500  1.0  -0.7557
  O  O392  1  0.808060  0.294650  0.538890  1.0  -0.7837
  O  O393  1  0.836830  0.390480  0.541900  1.0  -0.6896
  O  O394  1  0.899330  0.319140  0.531390  1.0  -0.6834
  O  O395  1  0.238400  0.855400  0.177500  1.0  -0.5472
  O  O396  1  0.296700  0.908900  0.175700  1.0  -0.4304
  O  O397  1  0.292340  0.980020  0.996900  1.0  -0.5474
  O  O398  1  0.219600  0.978400  0.941900  1.0  -0.438
  O  O399  1  0.997500  0.715200  0.953100  1.0  -0.5608
  O  O400  1  0.969200  0.780300  0.903800  1.0  -0.4386
  O  O401  1  0.177050  0.886000  0.294700  1.0  -0.665
  O  O402  1  0.224050  0.805400  0.280160  1.0  -0.7916
  O  O403  1  0.298000  0.747800  0.275600  1.0  -0.6778
  O  O404  1  0.261140  0.916280  0.282900  1.0  -0.7844
  O  O405  1  0.330560  0.837500  0.272000  1.0  -0.7875
  O  O406  1  0.352000  0.932200  0.281500  1.0  -0.6186
  O  O407  1  0.161440  0.839900  0.379200  1.0  -0.6583
  O  O408  1  0.210240  0.764130  0.355000  1.0  -0.7324
  O  O409  1  0.189420  0.938240  0.387600  1.0  -0.6227
  O  O410  1  0.282640  0.701110  0.359340  1.0  -0.6748
  O  O411  1  0.276140  0.967760  0.378700  1.0  -0.8175
  O  O412  1  0.375810  0.721710  0.355800  1.0  -0.6273
  O  O413  1  0.366260  0.979940  0.377300  1.0  -0.672
  O  O414  1  0.409140  0.814000  0.356400  1.0  -0.7786
  O  O415  1  0.428890  0.908610  0.368300  1.0  -0.6354
  O  O416  1  0.228190  0.816900  0.464810  1.0  -0.8346
  O  O417  1  0.258150  0.915470  0.472490  1.0  -0.8005
  O  O418  1  0.295700  0.738920  0.452850  1.0  -0.8009
  O  O419  1  0.390760  0.763040  0.450370  1.0  -0.8259
  O  O420  1  0.366660  0.940220  0.469020  1.0  -0.7451
  O  O421  1  0.421390  0.875900  0.459500  1.0  -0.7557
  O  O422  1  0.308060  0.794650  0.538890  1.0  -0.7837
  O  O423  1  0.336830  0.890480  0.541900  1.0  -0.6896
  O  O424  1  0.399330  0.819140  0.531390  1.0  -0.6844
  O  O425  1  0.738400  0.644600  0.677500  1.0  -0.5482
  O  O426  1  0.796700  0.591100  0.675700  1.0  -0.4306
  O  O427  1  0.792340  0.519980  0.496900  1.0  -0.5479
  O  O428  1  0.719600  0.521600  0.441900  1.0  -0.4381
  O  O429  1  0.497500  0.784800  0.453100  1.0  -0.5603
  O  O430  1  0.469200  0.719700  0.403800  1.0  -0.4383
  O  O431  1  0.677050  0.614000  0.794700  1.0  -0.6493
  O  O432  1  0.724050  0.694600  0.780160  1.0  -0.7921
  O  O433  1  0.798000  0.752200  0.775600  1.0  -0.6795
  O  O434  1  0.761140  0.583720  0.782900  1.0  -0.7852
  O  O435  1  0.830560  0.662500  0.772000  1.0  -0.7877
  O  O436  1  0.852000  0.567800  0.781500  1.0  -0.6184
  O  O437  1  0.661440  0.660100  0.879200  1.0  -0.6578
  O  O438  1  0.710240  0.735870  0.855000  1.0  -0.7314
  O  O439  1  0.689420  0.561760  0.887600  1.0  -0.6217
  O  O440  1  0.782640  0.798890  0.859340  1.0  -0.6771
  O  O441  1  0.776140  0.532240  0.878700  1.0  -0.8181
  O  O442  1  0.875810  0.778290  0.855800  1.0  -0.6266
  O  O443  1  0.866260  0.520060  0.877300  1.0  -0.6716
  O  O444  1  0.909140  0.686000  0.856400  1.0  -0.7785
  O  O445  1  0.928890  0.591390  0.868300  1.0  -0.635
  O  O446  1  0.728190  0.683100  0.964810  1.0  -0.8354
  O  O447  1  0.758150  0.584530  0.972490  1.0  -0.8
  O  O448  1  0.795700  0.761080  0.952850  1.0  -0.8002
  O  O449  1  0.890760  0.736960  0.950370  1.0  -0.8247
  O  O450  1  0.866660  0.559780  0.969020  1.0  -0.7462
  O  O451  1  0.921390  0.624100  0.959500  1.0  -0.7554
  O  O452  1  0.808060  0.705350  0.038890  1.0  -0.7837
  O  O453  1  0.836830  0.609520  0.041900  1.0  -0.6891
  O  O454  1  0.899330  0.680860  0.031390  1.0  -0.6831
  O  O455  1  0.238400  0.144600  0.677500  1.0  -0.5482
  O  O456  1  0.296700  0.091100  0.675700  1.0  -0.4306
  O  O457  1  0.292340  0.019980  0.496900  1.0  -0.5479
  O  O458  1  0.219600  0.021600  0.441900  1.0  -0.4381
  O  O459  1  0.997500  0.284800  0.453100  1.0  -0.5603
  O  O460  1  0.969200  0.219700  0.403800  1.0  -0.4383
  O  O461  1  0.177050  0.114000  0.794700  1.0  -0.6493
  O  O462  1  0.224050  0.194600  0.780160  1.0  -0.7921
  O  O463  1  0.298000  0.252200  0.775600  1.0  -0.6795
  O  O464  1  0.261140  0.083720  0.782900  1.0  -0.7852
  O  O465  1  0.330560  0.162500  0.772000  1.0  -0.7877
  O  O466  1  0.352000  0.067800  0.781500  1.0  -0.6184
  O  O467  1  0.161440  0.160100  0.879200  1.0  -0.6578
  O  O468  1  0.210240  0.235870  0.855000  1.0  -0.7314
  O  O469  1  0.189420  0.061760  0.887600  1.0  -0.6217
  O  O470  1  0.282640  0.298890  0.859340  1.0  -0.6771
  O  O471  1  0.276140  0.032240  0.878700  1.0  -0.8181
  O  O472  1  0.375810  0.278290  0.855800  1.0  -0.6266
  O  O473  1  0.366260  0.020060  0.877300  1.0  -0.6716
  O  O474  1  0.409140  0.186000  0.856400  1.0  -0.7785
  O  O475  1  0.428890  0.091390  0.868300  1.0  -0.635
  O  O476  1  0.228190  0.183100  0.964810  1.0  -0.8354
  O  O477  1  0.258150  0.084530  0.972490  1.0  -0.8
  O  O478  1  0.295700  0.261080  0.952850  1.0  -0.8002
  O  O479  1  0.390760  0.236960  0.950370  1.0  -0.8247
  O  O480  1  0.366660  0.059780  0.969020  1.0  -0.7462
  O  O481  1  0.421390  0.124100  0.959500  1.0  -0.7554
  O  O482  1  0.308060  0.205350  0.038890  1.0  -0.7837
  O  O483  1  0.336830  0.109520  0.041900  1.0  -0.6891
  O  O484  1  0.399330  0.180860  0.031390  1.0  -0.6837
  O  O485  1  0.261600  0.644600  0.822500  1.0  -0.548
  O  O486  1  0.203300  0.591100  0.824300  1.0  -0.4321
  O  O487  1  0.207660  0.519980  0.003100  1.0  -0.5477
  O  O488  1  0.280400  0.521600  0.058100  1.0  -0.4373
  O  O489  1  0.502500  0.784800  0.046900  1.0  -0.5613
  O  O490  1  0.530800  0.719700  0.096200  1.0  -0.4364
  O  O491  1  0.322950  0.614000  0.705300  1.0  -0.6518
  O  O492  1  0.275950  0.694600  0.719840  1.0  -0.7912
  O  O493  1  0.202000  0.752200  0.724400  1.0  -0.6755
  O  O494  1  0.238860  0.583720  0.717100  1.0  -0.7856
  O  O495  1  0.169440  0.662500  0.728000  1.0  -0.7857
  O  O496  1  0.148000  0.567800  0.718500  1.0  -0.6179
  O  O497  1  0.338560  0.660100  0.620800  1.0  -0.6567
  O  O498  1  0.289760  0.735870  0.645000  1.0  -0.7308
  O  O499  1  0.310580  0.561760  0.612400  1.0  -0.6212
  O  O500  1  0.217360  0.798890  0.640660  1.0  -0.6779
  O  O501  1  0.223860  0.532240  0.621300  1.0  -0.8167
  O  O502  1  0.124190  0.778290  0.644200  1.0  -0.626
  O  O503  1  0.133740  0.520060  0.622700  1.0  -0.6731
  O  O504  1  0.090860  0.686000  0.643600  1.0  -0.7774
  O  O505  1  0.071110  0.591390  0.631700  1.0  -0.6345
  O  O506  1  0.271810  0.683100  0.535190  1.0  -0.8359
  O  O507  1  0.241850  0.584530  0.527510  1.0  -0.8009
  O  O508  1  0.204300  0.761080  0.547150  1.0  -0.8003
  O  O509  1  0.109240  0.736960  0.549630  1.0  -0.8242
  O  O510  1  0.133340  0.559780  0.530980  1.0  -0.7474
  O  O511  1  0.078610  0.624100  0.540500  1.0  -0.7561
  O  O512  1  0.191940  0.705350  0.461110  1.0  -0.7829
  O  O513  1  0.163170  0.609520  0.458100  1.0  -0.6903
  O  O514  1  0.100670  0.680860  0.468610  1.0  -0.6821
  O  O515  1  0.761600  0.144600  0.822500  1.0  -0.548
  O  O516  1  0.703300  0.091100  0.824300  1.0  -0.4321
  O  O517  1  0.707660  0.019980  0.003100  1.0  -0.5477
  O  O518  1  0.780400  0.021600  0.058100  1.0  -0.4373
  O  O519  1  0.002500  0.284800  0.046900  1.0  -0.5613
  O  O520  1  0.030800  0.219700  0.096200  1.0  -0.4364
  O  O521  1  0.822950  0.114000  0.705300  1.0  -0.6667
  O  O522  1  0.775950  0.194600  0.719840  1.0  -0.7912
  O  O523  1  0.702000  0.252200  0.724400  1.0  -0.6755
  O  O524  1  0.738860  0.083720  0.717100  1.0  -0.7856
  O  O525  1  0.669440  0.162500  0.728000  1.0  -0.7857
  O  O526  1  0.648000  0.067800  0.718500  1.0  -0.6179
  O  O527  1  0.838560  0.160100  0.620800  1.0  -0.6567
  O  O528  1  0.789760  0.235870  0.645000  1.0  -0.7308
  O  O529  1  0.810580  0.061760  0.612400  1.0  -0.6233
  O  O530  1  0.717360  0.298890  0.640660  1.0  -0.6779
  O  O531  1  0.723860  0.032240  0.621300  1.0  -0.8167
  O  O532  1  0.624190  0.278290  0.644200  1.0  -0.626
  O  O533  1  0.633740  0.020060  0.622700  1.0  -0.6731
  O  O534  1  0.590860  0.186000  0.643600  1.0  -0.7774
  O  O535  1  0.571110  0.091390  0.631700  1.0  -0.6345
  O  O536  1  0.771810  0.183100  0.535190  1.0  -0.8359
  O  O537  1  0.741850  0.084530  0.527510  1.0  -0.8009
  O  O538  1  0.704300  0.261080  0.547150  1.0  -0.8003
  O  O539  1  0.609240  0.236960  0.549630  1.0  -0.8242
  O  O540  1  0.633340  0.059780  0.530980  1.0  -0.7474
  O  O541  1  0.578610  0.124100  0.540500  1.0  -0.7561
  O  O542  1  0.691940  0.205350  0.461110  1.0  -0.7829
  O  O543  1  0.663170  0.109520  0.458100  1.0  -0.6903
  O  O544  1  0.600670  0.180860  0.468610  1.0  -0.6838
