# generated using pymatgen
data_EuH13C21O11
_symmetry_space_group_name_H-M   'P 1'
_cell_length_a   8.95320000
_cell_length_b   15.15370000
_cell_length_c   16.46600000
_cell_angle_alpha   90.00000000
_cell_angle_beta   90.00000000
_cell_angle_gamma   103.58700000
_symmetry_Int_Tables_number   1
_chemical_formula_structural   EuH13C21O11
_chemical_formula_sum   'Eu4 H52 C84 O44'
_cell_volume   2171.48957564
_cell_formula_units_Z   4
loop_
 _symmetry_equiv_pos_site_id
 _symmetry_equiv_pos_as_xyz
  1  'x, y, z'
loop_
 _atom_site_type_symbol
 _atom_site_label
 _atom_site_symmetry_multiplicity
 _atom_site_fract_x
 _atom_site_fract_y
 _atom_site_fract_z
 _atom_site_occupancy
 _atom_site_charge
  Eu  Eu1  1  0.436380  0.043320  0.893540  1.0  2.1399
  Eu  Eu2  1  0.063620  0.956680  0.393540  1.0  2.1393
  Eu  Eu3  1  0.563620  0.956680  0.106460  1.0  2.1394
  Eu  Eu4  1  0.936380  0.043320  0.606460  1.0  2.1402
  H  H5  1  0.993600  0.861000  0.987000  1.0  0.0967
  H  H6  1  0.968900  0.912200  0.066600  1.0  0.1197
  H  H7  1  0.148100  0.781800  0.941300  1.0  0.1304
  H  H8  1  0.241200  0.660600  0.896000  1.0  0.0992
  H  H9  1  0.130600  0.531400  0.105600  1.0  0.1314
  H  H10  1  0.034200  0.649700  0.151600  1.0  0.0811
  H  H11  1  0.150900  0.421800  0.043800  1.0  0.1077
  H  H12  1  0.653600  0.360200  0.758100  1.0  0.109
  H  H13  1  0.577300  0.490000  0.790600  1.0  0.1077
  H  H14  1  0.445800  0.268700  0.057600  1.0  0.1118
  H  H15  1  0.281300  0.203100  0.060100  1.0  0.1162
  H  H16  1  0.650000  0.235200  0.718600  1.0  0.0863
  H  H17  1  0.778900  0.224800  0.780000  1.0  0.0928
  H  H18  1  0.506400  0.139000  0.487000  1.0  0.0963
  H  H19  1  0.531100  0.087800  0.566600  1.0  0.119
  H  H20  1  0.351900  0.218200  0.441300  1.0  0.1304
  H  H21  1  0.258800  0.339400  0.396000  1.0  0.0992
  H  H22  1  0.369400  0.468600  0.605600  1.0  0.1311
  H  H23  1  0.465800  0.350300  0.651600  1.0  0.081
  H  H24  1  0.349100  0.578200  0.543800  1.0  0.1074
  H  H25  1  0.846400  0.639800  0.258100  1.0  0.1086
  H  H26  1  0.922700  0.510000  0.290600  1.0  0.1086
  H  H27  1  0.054200  0.731300  0.557600  1.0  0.1117
  H  H28  1  0.218700  0.796900  0.560100  1.0  0.1141
  H  H29  1  0.850000  0.764800  0.218600  1.0  0.0864
  H  H30  1  0.721100  0.775200  0.280000  1.0  0.0919
  H  H31  1  0.006400  0.139000  0.013000  1.0  0.0964
  H  H32  1  0.031100  0.087800  0.933400  1.0  0.1186
  H  H33  1  0.851900  0.218200  0.058700  1.0  0.13
  H  H34  1  0.758800  0.339400  0.104000  1.0  0.0978
  H  H35  1  0.869400  0.468600  0.894400  1.0  0.1322
  H  H36  1  0.965800  0.350300  0.848400  1.0  0.0812
  H  H37  1  0.849100  0.578200  0.956200  1.0  0.1087
  H  H38  1  0.346400  0.639800  0.241900  1.0  0.1097
  H  H39  1  0.422700  0.510000  0.209400  1.0  0.1093
  H  H40  1  0.554200  0.731300  0.942400  1.0  0.1124
  H  H41  1  0.718700  0.796900  0.939900  1.0  0.1151
  H  H42  1  0.350000  0.764800  0.281400  1.0  0.0862
  H  H43  1  0.221100  0.775200  0.220000  1.0  0.0919
  H  H44  1  0.493600  0.861000  0.513000  1.0  0.0958
  H  H45  1  0.468900  0.912200  0.433400  1.0  0.1199
  H  H46  1  0.648100  0.781800  0.558700  1.0  0.1297
  H  H47  1  0.741200  0.660600  0.604000  1.0  0.0973
  H  H48  1  0.630600  0.531400  0.394400  1.0  0.1318
  H  H49  1  0.534200  0.649700  0.348400  1.0  0.0811
  H  H50  1  0.650900  0.421800  0.456200  1.0  0.1079
  H  H51  1  0.153600  0.360200  0.741900  1.0  0.1101
  H  H52  1  0.077300  0.490000  0.709400  1.0  0.1073
  H  H53  1  0.945800  0.268700  0.442400  1.0  0.1126
  H  H54  1  0.781300  0.203100  0.439900  1.0  0.1146
  H  H55  1  0.150000  0.235200  0.781400  1.0  0.086
  H  H56  1  0.278900  0.224800  0.720000  1.0  0.0927
  C  C57  1  0.196800  0.935400  0.034500  1.0  0.7114
  C  C58  1  0.033200  0.876800  0.041200  1.0  -0.0656
  C  C59  1  0.082600  0.728700  0.052600  1.0  0.257
  C  C60  1  0.144900  0.732000  0.974900  1.0  -0.26
  C  C61  1  0.202100  0.659100  0.948500  1.0  -0.1197
  C  C62  1  0.203500  0.585800  0.995600  1.0  -0.0138
  C  C63  1  0.136000  0.582000  0.072800  1.0  -0.1594
  C  C64  1  0.077700  0.652900  0.100100  1.0  -0.2028
  C  C65  1  0.380800  0.518500  0.903700  1.0  0.2363
  C  C66  1  0.268600  0.508500  0.968400  1.0  -0.0055
  C  C67  1  0.224400  0.427200  0.003100  1.0  0.1199
  C  C68  1  0.378800  0.357100  0.925500  1.0  0.2246
  C  C69  1  0.429500  0.278100  0.909000  1.0  0.2261
  C  C70  1  0.534200  0.282900  0.845100  1.0  0.2267
  C  C71  1  0.585600  0.359900  0.800900  1.0  -0.183
  C  C72  1  0.537700  0.436700  0.819100  1.0  -0.0431
  C  C73  1  0.429300  0.435500  0.880500  1.0  -0.0363
  C  C74  1  0.386200  0.209100  0.041700  1.0  -0.1476
  C  C75  1  0.452600  0.136600  0.080500  1.0  0.7149
  C  C76  1  0.674000  0.199000  0.763100  1.0  -0.0331
  C  C77  1  0.659300  0.103300  0.735200  1.0  0.7442
  C  C78  1  0.303200  0.064600  0.534500  1.0  0.7113
  C  C79  1  0.466800  0.123200  0.541200  1.0  -0.0639
  C  C80  1  0.417400  0.271300  0.552600  1.0  0.2575
  C  C81  1  0.355100  0.268000  0.474900  1.0  -0.2597
  C  C82  1  0.297900  0.340900  0.448500  1.0  -0.12
  C  C83  1  0.296500  0.414200  0.495600  1.0  -0.0125
  C  C84  1  0.364000  0.418000  0.572800  1.0  -0.1603
  C  C85  1  0.422300  0.347100  0.600100  1.0  -0.2019
  C  C86  1  0.119200  0.481500  0.403700  1.0  0.2366
  C  C87  1  0.231400  0.491500  0.468400  1.0  -0.0061
  C  C88  1  0.275600  0.572800  0.503100  1.0  0.1203
  C  C89  1  0.121200  0.642900  0.425500  1.0  0.2244
  C  C90  1  0.070500  0.721900  0.409000  1.0  0.2265
  C  C91  1  0.965800  0.717100  0.345100  1.0  0.2262
  C  C92  1  0.914400  0.640100  0.300900  1.0  -0.1829
  C  C93  1  0.962300  0.563300  0.319100  1.0  -0.0428
  C  C94  1  0.070700  0.564500  0.380500  1.0  -0.0365
  C  C95  1  0.113800  0.790900  0.541700  1.0  -0.1474
  C  C96  1  0.047400  0.863400  0.580500  1.0  0.7131
  C  C97  1  0.826000  0.801000  0.263100  1.0  -0.0335
  C  C98  1  0.840700  0.896700  0.235200  1.0  0.7476
  C  C99  1  0.803200  0.064600  0.965500  1.0  0.712
  C  C100  1  0.966800  0.123200  0.958800  1.0  -0.0627
  C  C101  1  0.917400  0.271300  0.947400  1.0  0.258
  C  C102  1  0.855100  0.268000  0.025100  1.0  -0.262
  C  C103  1  0.797900  0.340900  0.051500  1.0  -0.1248
  C  C104  1  0.796500  0.414200  0.004400  1.0  -0.0116
  C  C105  1  0.864000  0.418000  0.927200  1.0  -0.1599
  C  C106  1  0.922300  0.347100  0.899900  1.0  -0.2003
  C  C107  1  0.619200  0.481500  0.096300  1.0  0.2366
  C  C108  1  0.731400  0.491500  0.031600  1.0  -0.0047
  C  C109  1  0.775600  0.572800  0.996900  1.0  0.1209
  C  C110  1  0.621200  0.642900  0.074500  1.0  0.2244
  C  C111  1  0.570500  0.721900  0.091000  1.0  0.2265
  C  C112  1  0.465800  0.717100  0.154900  1.0  0.2268
  C  C113  1  0.414400  0.640100  0.199100  1.0  -0.1822
  C  C114  1  0.462300  0.563300  0.180900  1.0  -0.0423
  C  C115  1  0.570700  0.564500  0.119500  1.0  -0.0361
  C  C116  1  0.613800  0.790900  0.958300  1.0  -0.1427
  C  C117  1  0.547400  0.863400  0.919500  1.0  0.7144
  C  C118  1  0.326000  0.801000  0.236900  1.0  -0.0334
  C  C119  1  0.340700  0.896700  0.264800  1.0  0.7477
  C  C120  1  0.696800  0.935400  0.465500  1.0  0.7124
  C  C121  1  0.533200  0.876800  0.458800  1.0  -0.0646
  C  C122  1  0.582600  0.728700  0.447400  1.0  0.2578
  C  C123  1  0.644900  0.732000  0.525100  1.0  -0.2625
  C  C124  1  0.702100  0.659100  0.551500  1.0  -0.1229
  C  C125  1  0.703500  0.585800  0.504400  1.0  -0.0121
  C  C126  1  0.636000  0.582000  0.427200  1.0  -0.1588
  C  C127  1  0.577700  0.652900  0.399900  1.0  -0.2009
  C  C128  1  0.880800  0.518500  0.596300  1.0  0.2358
  C  C129  1  0.768600  0.508500  0.531600  1.0  -0.0041
  C  C130  1  0.724400  0.427200  0.496900  1.0  0.1202
  C  C131  1  0.878800  0.357100  0.574500  1.0  0.2246
  C  C132  1  0.929500  0.278100  0.591000  1.0  0.226
  C  C133  1  0.034200  0.282900  0.654900  1.0  0.2272
  C  C134  1  0.085600  0.359900  0.699100  1.0  -0.1816
  C  C135  1  0.037700  0.436700  0.680900  1.0  -0.0422
  C  C136  1  0.929300  0.435500  0.619500  1.0  -0.0367
  C  C137  1  0.886200  0.209100  0.458300  1.0  -0.1437
  C  C138  1  0.952600  0.136600  0.419500  1.0  0.714
  C  C139  1  0.174000  0.199000  0.736900  1.0  -0.0324
  C  C140  1  0.159300  0.103300  0.764800  1.0  0.7444
  O  O141  1  0.220100  0.990900  0.978600  1.0  -0.6191
  O  O142  1  0.291700  0.923900  0.088500  1.0  -0.7138
  O  O143  1  0.021500  0.795400  0.086500  1.0  -0.2518
  O  O144  1  0.436900  0.590400  0.869000  1.0  -0.5335
  O  O145  1  0.273900  0.351300  0.986200  1.0  -0.2906
  O  O146  1  0.388900  0.199800  0.952100  1.0  -0.3672
  O  O147  1  0.448800  0.130000  0.153600  1.0  -0.558
  O  O148  1  0.509600  0.085100  0.035200  1.0  -0.736
  O  O149  1  0.572200  0.201300  0.829200  1.0  -0.3373
  O  O150  1  0.753000  0.095500  0.680900  1.0  -0.6892
  O  O151  1  0.552800  0.042000  0.762300  1.0  -0.6349
  O  O152  1  0.279900  0.009100  0.478600  1.0  -0.6191
  O  O153  1  0.208300  0.076100  0.588500  1.0  -0.7127
  O  O154  1  0.478500  0.204600  0.586500  1.0  -0.2502
  O  O155  1  0.063100  0.409600  0.369000  1.0  -0.5349
  O  O156  1  0.226100  0.648700  0.486200  1.0  -0.2895
  O  O157  1  0.111100  0.800200  0.452100  1.0  -0.3683
  O  O158  1  0.051200  0.870000  0.653600  1.0  -0.5585
  O  O159  1  0.990400  0.914900  0.535200  1.0  -0.7352
  O  O160  1  0.927800  0.798700  0.329200  1.0  -0.3363
  O  O161  1  0.747000  0.904500  0.180900  1.0  -0.6874
  O  O162  1  0.947200  0.958000  0.262300  1.0  -0.6342
  O  O163  1  0.779900  0.009100  0.021400  1.0  -0.6186
  O  O164  1  0.708300  0.076100  0.911500  1.0  -0.7128
  O  O165  1  0.978500  0.204600  0.913500  1.0  -0.2492
  O  O166  1  0.563100  0.409600  0.131000  1.0  -0.5335
  O  O167  1  0.726100  0.648700  0.013800  1.0  -0.2888
  O  O168  1  0.611100  0.800200  0.047900  1.0  -0.3683
  O  O169  1  0.551200  0.870000  0.846400  1.0  -0.5564
  O  O170  1  0.490400  0.914900  0.964800  1.0  -0.7363
  O  O171  1  0.427800  0.798700  0.170800  1.0  -0.3355
  O  O172  1  0.247000  0.904500  0.319100  1.0  -0.6883
  O  O173  1  0.447200  0.958000  0.237700  1.0  -0.6342
  O  O174  1  0.720100  0.990900  0.521400  1.0  -0.6184
  O  O175  1  0.791700  0.923900  0.411500  1.0  -0.7131
  O  O176  1  0.521500  0.795400  0.413500  1.0  -0.2503
  O  O177  1  0.936900  0.590400  0.631000  1.0  -0.5316
  O  O178  1  0.773900  0.351300  0.513800  1.0  -0.2905
  O  O179  1  0.888900  0.199800  0.547900  1.0  -0.3674
  O  O180  1  0.948800  0.130000  0.346400  1.0  -0.5563
  O  O181  1  0.009600  0.085100  0.464800  1.0  -0.7367
  O  O182  1  0.072200  0.201300  0.670800  1.0  -0.3367
  O  O183  1  0.253000  0.095500  0.819100  1.0  -0.6871
  O  O184  1  0.052800  0.042000  0.737700  1.0  -0.6351
