# generated using pymatgen
data_PrH13C21O11
_symmetry_space_group_name_H-M   'P 1'
_cell_length_a   9.01670000
_cell_length_b   15.13130000
_cell_length_c   16.82840000
_cell_angle_alpha   90.00000000
_cell_angle_beta   90.00000000
_cell_angle_gamma   103.84100000
_symmetry_Int_Tables_number   1
_chemical_formula_structural   PrH13C21O11
_chemical_formula_sum   'Pr4 H52 C84 O44'
_cell_volume   2229.30516117
_cell_formula_units_Z   4
loop_
 _symmetry_equiv_pos_site_id
 _symmetry_equiv_pos_as_xyz
  1  'x, y, z'
loop_
 _atom_site_type_symbol
 _atom_site_label
 _atom_site_symmetry_multiplicity
 _atom_site_fract_x
 _atom_site_fract_y
 _atom_site_fract_z
 _atom_site_occupancy
 _atom_site_charge
  Pr  Pr1  1  0.432710  0.038540  0.890870  1.0  2.2142
  Pr  Pr2  1  0.067290  0.961460  0.390870  1.0  2.214
  Pr  Pr3  1  0.567290  0.961460  0.109130  1.0  2.2153
  Pr  Pr4  1  0.932710  0.038540  0.609130  1.0  2.2152
  H  H5  1  0.995600  0.861500  0.991200  1.0  0.0883
  H  H6  1  0.966900  0.911900  0.069000  1.0  0.1211
  H  H7  1  0.146300  0.783700  0.946700  1.0  0.1227
  H  H8  1  0.242300  0.665600  0.900000  1.0  0.1061
  H  H9  1  0.134600  0.532200  0.105100  1.0  0.1192
  H  H10  1  0.034800  0.648700  0.151000  1.0  0.0837
  H  H11  1  0.151200  0.420500  0.043600  1.0  0.0805
  H  H12  1  0.651600  0.365700  0.760000  1.0  0.1082
  H  H13  1  0.568200  0.492700  0.791700  1.0  0.0976
  H  H14  1  0.450300  0.269600  0.053100  1.0  0.1093
  H  H15  1  0.288600  0.201800  0.058400  1.0  0.1174
  H  H16  1  0.652100  0.240200  0.721600  1.0  0.0907
  H  H17  1  0.778100  0.225500  0.781200  1.0  0.0936
  H  H18  1  0.504400  0.138500  0.491200  1.0  0.0882
  H  H19  1  0.533100  0.088100  0.569000  1.0  0.1213
  H  H20  1  0.353700  0.216300  0.446700  1.0  0.1227
  H  H21  1  0.257700  0.334400  0.400000  1.0  0.1056
  H  H22  1  0.365400  0.467800  0.605100  1.0  0.1188
  H  H23  1  0.465200  0.351300  0.651000  1.0  0.084
  H  H24  1  0.348800  0.579500  0.543600  1.0  0.0804
  H  H25  1  0.848400  0.634300  0.260000  1.0  0.1081
  H  H26  1  0.931800  0.507300  0.291700  1.0  0.0972
  H  H27  1  0.049700  0.730400  0.553100  1.0  0.1095
  H  H28  1  0.211400  0.798200  0.558400  1.0  0.116
  H  H29  1  0.847900  0.759800  0.221600  1.0  0.0905
  H  H30  1  0.721900  0.774500  0.281200  1.0  0.0928
  H  H31  1  0.004400  0.138500  0.008800  1.0  0.088
  H  H32  1  0.033100  0.088100  0.931000  1.0  0.1209
  H  H33  1  0.853700  0.216300  0.053300  1.0  0.1223
  H  H34  1  0.757700  0.334400  0.100000  1.0  0.1044
  H  H35  1  0.865400  0.467800  0.894900  1.0  0.1208
  H  H36  1  0.965200  0.351300  0.849000  1.0  0.0835
  H  H37  1  0.848800  0.579500  0.956400  1.0  0.0801
  H  H38  1  0.348400  0.634300  0.240000  1.0  0.1089
  H  H39  1  0.431800  0.507300  0.208300  1.0  0.0978
  H  H40  1  0.549700  0.730400  0.946900  1.0  0.1104
  H  H41  1  0.711400  0.798200  0.941600  1.0  0.1166
  H  H42  1  0.347900  0.759800  0.278400  1.0  0.0909
  H  H43  1  0.221900  0.774500  0.218800  1.0  0.0927
  H  H44  1  0.495600  0.861500  0.508800  1.0  0.0876
  H  H45  1  0.466900  0.911900  0.431000  1.0  0.1216
  H  H46  1  0.646300  0.783700  0.553300  1.0  0.1218
  H  H47  1  0.742300  0.665600  0.600000  1.0  0.1049
  H  H48  1  0.634600  0.532200  0.394900  1.0  0.1198
  H  H49  1  0.534800  0.648700  0.349000  1.0  0.0832
  H  H50  1  0.651200  0.420500  0.456400  1.0  0.0795
  H  H51  1  0.151600  0.365700  0.740000  1.0  0.1088
  H  H52  1  0.068200  0.492700  0.708300  1.0  0.0972
  H  H53  1  0.950300  0.269600  0.446900  1.0  0.1101
  H  H54  1  0.788600  0.201800  0.441600  1.0  0.1157
  H  H55  1  0.152100  0.240200  0.778400  1.0  0.0911
  H  H56  1  0.278100  0.225500  0.718800  1.0  0.093
  C  C57  1  0.194000  0.937700  0.039700  1.0  0.7529
  C  C58  1  0.032800  0.877400  0.044700  1.0  -0.0529
  C  C59  1  0.082900  0.729600  0.054600  1.0  0.2916
  C  C60  1  0.144100  0.733400  0.978900  1.0  -0.2423
  C  C61  1  0.202100  0.662100  0.951100  1.0  -0.0943
  C  C62  1  0.202200  0.585600  0.996900  1.0  0.01
  C  C63  1  0.137700  0.582400  0.072800  1.0  -0.1321
  C  C64  1  0.078400  0.652800  0.100600  1.0  -0.2055
  C  C65  1  0.377700  0.520500  0.903900  1.0  0.2857
  C  C66  1  0.266400  0.509100  0.968400  1.0  -0.0259
  C  C67  1  0.223200  0.426800  0.003100  1.0  0.1327
  C  C68  1  0.377800  0.357700  0.924800  1.0  0.1857
  C  C69  1  0.431900  0.280100  0.908900  1.0  0.2166
  C  C70  1  0.530400  0.283100  0.844900  1.0  0.1798
  C  C71  1  0.582800  0.363700  0.801500  1.0  -0.2197
  C  C72  1  0.532300  0.439400  0.820500  1.0  -0.0281
  C  C73  1  0.428500  0.438400  0.881700  1.0  -0.0496
  C  C74  1  0.391700  0.209400  0.038200  1.0  -0.1283
  C  C75  1  0.463700  0.137700  0.073700  1.0  0.7228
  C  C76  1  0.673500  0.201700  0.764100  1.0  -0.0416
  C  C77  1  0.654600  0.105900  0.733700  1.0  0.7269
  C  C78  1  0.306000  0.062300  0.539700  1.0  0.7502
  C  C79  1  0.467200  0.122600  0.544700  1.0  -0.0518
  C  C80  1  0.417100  0.270400  0.554600  1.0  0.2913
  C  C81  1  0.355900  0.266600  0.478900  1.0  -0.241
  C  C82  1  0.297900  0.337900  0.451100  1.0  -0.0936
  C  C83  1  0.297800  0.414400  0.496900  1.0  0.0111
  C  C84  1  0.362300  0.417600  0.572800  1.0  -0.1318
  C  C85  1  0.421600  0.347200  0.600600  1.0  -0.2069
  C  C86  1  0.122300  0.479500  0.403900  1.0  0.2857
  C  C87  1  0.233600  0.490900  0.468400  1.0  -0.0273
  C  C88  1  0.276800  0.573200  0.503100  1.0  0.1321
  C  C89  1  0.122200  0.642300  0.424800  1.0  0.1856
  C  C90  1  0.068100  0.719900  0.408900  1.0  0.2168
  C  C91  1  0.969600  0.716900  0.344900  1.0  0.1797
  C  C92  1  0.917200  0.636300  0.301500  1.0  -0.2205
  C  C93  1  0.967700  0.560600  0.320500  1.0  -0.0286
  C  C94  1  0.071500  0.561600  0.381700  1.0  -0.0496
  C  C95  1  0.108300  0.790600  0.538200  1.0  -0.1273
  C  C96  1  0.036300  0.862300  0.573700  1.0  0.7214
  C  C97  1  0.826500  0.798300  0.264100  1.0  -0.0423
  C  C98  1  0.845400  0.894100  0.233700  1.0  0.7282
  C  C99  1  0.806000  0.062300  0.960300  1.0  0.7541
  C  C100  1  0.967200  0.122600  0.955300  1.0  -0.0511
  C  C101  1  0.917100  0.270400  0.945400  1.0  0.2919
  C  C102  1  0.855900  0.266600  0.021100  1.0  -0.2427
  C  C103  1  0.797900  0.337900  0.048900  1.0  -0.0976
  C  C104  1  0.797800  0.414400  0.003100  1.0  0.012
  C  C105  1  0.862300  0.417600  0.927200  1.0  -0.1317
  C  C106  1  0.921600  0.347200  0.899400  1.0  -0.2056
  C  C107  1  0.622300  0.479500  0.096100  1.0  0.2861
  C  C108  1  0.733600  0.490900  0.031600  1.0  -0.0256
  C  C109  1  0.776800  0.573200  0.996900  1.0  0.1321
  C  C110  1  0.622200  0.642300  0.075200  1.0  0.1856
  C  C111  1  0.568100  0.719900  0.091100  1.0  0.217
  C  C112  1  0.469600  0.716900  0.155100  1.0  0.1805
  C  C113  1  0.417200  0.636300  0.198500  1.0  -0.2211
  C  C114  1  0.467700  0.560600  0.179500  1.0  -0.028
  C  C115  1  0.571500  0.561600  0.118300  1.0  -0.0508
  C  C116  1  0.608300  0.790600  0.961800  1.0  -0.1242
  C  C117  1  0.536300  0.862300  0.926300  1.0  0.7229
  C  C118  1  0.326500  0.798300  0.235900  1.0  -0.0422
  C  C119  1  0.345400  0.894100  0.266300  1.0  0.7286
  C  C120  1  0.694000  0.937700  0.460300  1.0  0.7575
  C  C121  1  0.532800  0.877400  0.455300  1.0  -0.0524
  C  C122  1  0.582900  0.729600  0.445400  1.0  0.2918
  C  C123  1  0.644100  0.733400  0.521100  1.0  -0.2437
  C  C124  1  0.702100  0.662100  0.548900  1.0  -0.0974
  C  C125  1  0.702200  0.585600  0.503100  1.0  0.0117
  C  C126  1  0.637700  0.582400  0.427200  1.0  -0.1312
  C  C127  1  0.578400  0.652800  0.399400  1.0  -0.204
  C  C128  1  0.877700  0.520500  0.596100  1.0  0.2859
  C  C129  1  0.766400  0.509100  0.531600  1.0  -0.0247
  C  C130  1  0.723200  0.426800  0.496900  1.0  0.1323
  C  C131  1  0.877800  0.357700  0.575200  1.0  0.1857
  C  C132  1  0.931900  0.280100  0.591100  1.0  0.2167
  C  C133  1  0.030400  0.283100  0.655100  1.0  0.1804
  C  C134  1  0.082800  0.363700  0.698500  1.0  -0.2209
  C  C135  1  0.032300  0.439400  0.679500  1.0  -0.0273
  C  C136  1  0.928500  0.438400  0.618300  1.0  -0.0507
  C  C137  1  0.891700  0.209400  0.461800  1.0  -0.1249
  C  C138  1  0.963700  0.137700  0.426300  1.0  0.7219
  C  C139  1  0.173500  0.201700  0.735900  1.0  -0.0411
  C  C140  1  0.154600  0.105900  0.766300  1.0  0.727
  O  O141  1  0.218200  0.992700  0.982900  1.0  -0.6546
  O  O142  1  0.286700  0.930100  0.093300  1.0  -0.7021
  O  O143  1  0.022100  0.795300  0.089250  1.0  -0.2614
  O  O144  1  0.429600  0.592900  0.869100  1.0  -0.548
  O  O145  1  0.274600  0.352000  0.984530  1.0  -0.3045
  O  O146  1  0.388000  0.200800  0.951400  1.0  -0.3629
  O  O147  1  0.463000  0.129300  0.145600  1.0  -0.5913
  O  O148  1  0.522100  0.090400  0.027300  1.0  -0.7606
  O  O149  1  0.572100  0.203450  0.829350  1.0  -0.3347
  O  O150  1  0.748000  0.098900  0.680400  1.0  -0.6945
  O  O151  1  0.548200  0.044200  0.758410  1.0  -0.627
  O  O152  1  0.281800  0.007300  0.482900  1.0  -0.655
  O  O153  1  0.213300  0.069900  0.593300  1.0  -0.701
  O  O154  1  0.477900  0.204700  0.589250  1.0  -0.2592
  O  O155  1  0.070400  0.407100  0.369100  1.0  -0.5489
  O  O156  1  0.225400  0.648000  0.484530  1.0  -0.303
  O  O157  1  0.112000  0.799200  0.451400  1.0  -0.3634
  O  O158  1  0.037000  0.870700  0.645600  1.0  -0.5924
  O  O159  1  0.977900  0.909600  0.527300  1.0  -0.7597
  O  O160  1  0.927900  0.796550  0.329350  1.0  -0.3353
  O  O161  1  0.752000  0.901100  0.180400  1.0  -0.6951
  O  O162  1  0.951800  0.955800  0.258410  1.0  -0.6284
  O  O163  1  0.781800  0.007300  0.017100  1.0  -0.6541
  O  O164  1  0.713300  0.069900  0.906700  1.0  -0.7023
  O  O165  1  0.977900  0.204700  0.910750  1.0  -0.258
  O  O166  1  0.570400  0.407100  0.130900  1.0  -0.5511
  O  O167  1  0.725400  0.648000  0.015470  1.0  -0.3008
  O  O168  1  0.612000  0.799200  0.048600  1.0  -0.3633
  O  O169  1  0.537000  0.870700  0.854400  1.0  -0.5875
  O  O170  1  0.477900  0.909600  0.972700  1.0  -0.7596
  O  O171  1  0.427900  0.796550  0.170650  1.0  -0.3349
  O  O172  1  0.252000  0.901100  0.319600  1.0  -0.6952
  O  O173  1  0.451800  0.955800  0.241590  1.0  -0.6283
  O  O174  1  0.718200  0.992700  0.517100  1.0  -0.6538
  O  O175  1  0.786700  0.930100  0.406700  1.0  -0.7026
  O  O176  1  0.522100  0.795300  0.410750  1.0  -0.2595
  O  O177  1  0.929600  0.592900  0.630900  1.0  -0.5487
  O  O178  1  0.774600  0.352000  0.515470  1.0  -0.3035
  O  O179  1  0.888000  0.200800  0.548600  1.0  -0.3628
  O  O180  1  0.963000  0.129300  0.354400  1.0  -0.587
  O  O181  1  0.022100  0.090400  0.472700  1.0  -0.76
  O  O182  1  0.072100  0.203450  0.670650  1.0  -0.3342
  O  O183  1  0.248000  0.098900  0.819600  1.0  -0.6944
  O  O184  1  0.048200  0.044200  0.741590  1.0  -0.6277
