# generated using pymatgen
data_Zn3H120C98S6(NO7)6
_symmetry_space_group_name_H-M   'P 1'
_cell_length_a   21.75440000
_cell_length_b   21.75440000
_cell_length_c   21.95600000
_cell_angle_alpha   90.00000000
_cell_angle_beta   90.00000000
_cell_angle_gamma   111.11700000
_symmetry_Int_Tables_number   1
_chemical_formula_structural   Zn3H120C98S6(NO7)6
_chemical_formula_sum   'Zn6 H240 C196 S12 N12 O84'
_cell_volume   9692.98882289
_cell_formula_units_Z   2
loop_
 _symmetry_equiv_pos_site_id
 _symmetry_equiv_pos_as_xyz
  1  'x, y, z'
loop_
 _atom_site_type_symbol
 _atom_site_label
 _atom_site_symmetry_multiplicity
 _atom_site_fract_x
 _atom_site_fract_y
 _atom_site_fract_z
 _atom_site_occupancy
 _atom_site_charge
  Zn  Zn1  1  0.926200  0.072780  0.005000  1.0  0.9824
  Zn  Zn2  1  0.073800  0.927220  0.505000  1.0  0.982
  Zn  Zn3  1  0.927220  0.073800  0.505000  1.0  0.9816
  Zn  Zn4  1  0.072780  0.926200  0.005000  1.0  0.9781
  Zn  Zn5  1  0.978600  0.978600  0.256900  1.0  0.6307
  Zn  Zn6  1  0.021400  0.021400  0.756900  1.0  0.6294
  H  H7  1  0.924600  0.182400  0.967800  1.0  0.3443
  H  H8  1  0.864500  0.185500  0.893900  1.0  0.1002
  H  H9  1  0.841700  0.106900  0.891000  1.0  0.0746
  H  H10  1  0.825200  0.141600  0.949800  1.0  0.0788
  H  H11  1  0.841000  0.055000  0.078100  1.0  0.3038
  H  H12  1  0.820900  0.121500  0.127000  1.0  0.113
  H  H13  1  0.892500  0.118100  0.137000  1.0  0.1155
  H  H14  1  0.884100  0.175500  0.096300  1.0  0.1121
  H  H15  1  0.820000  0.011800  0.955900  1.0  0.2001
  H  H16  1  0.878000  0.005400  0.914400  1.0  0.196
  H  H17  1  0.858000  0.947800  0.167200  1.0  0.0589
  H  H18  1  0.752200  0.937800  0.165900  1.0  0.1111
  H  H19  1  0.755000  0.963000  0.348300  1.0  0.1174
  H  H20  1  0.866800  0.978800  0.346300  1.0  0.0965
  H  H21  1  0.655700  0.945300  0.161700  1.0  0.1266
  H  H22  1  0.553000  0.954600  0.167000  1.0  0.1076
  H  H23  1  0.566700  0.963900  0.350000  1.0  0.1145
  H  H24  1  0.668500  0.955700  0.344100  1.0  0.1784
  H  H25  1  0.457900  0.943900  0.224300  1.0  0.0771
  H  H26  1  0.463200  0.941400  0.297000  1.0  0.0776
  H  H27  1  0.517300  0.065300  0.229600  1.0  0.0912
  H  H28  1  0.512200  0.059800  0.302600  1.0  0.0706
  H  H29  1  0.410400  0.053800  0.164400  1.0  0.1078
  H  H30  1  0.307200  0.050600  0.168500  1.0  0.0812
  H  H31  1  0.298500  0.025300  0.347200  1.0  0.1205
  H  H32  1  0.407800  0.032600  0.347400  1.0  0.1029
  H  H33  1  0.218300  0.073300  0.184700  1.0  0.105
  H  H34  1  0.104700  0.045100  0.180000  1.0  0.0834
  H  H35  1  0.086900  0.953900  0.335800  1.0  0.131
  H  H36  1  0.198400  0.980000  0.336100  1.0  0.1102
  H  H37  1  0.075400  0.817600  0.467800  1.0  0.3459
  H  H38  1  0.135500  0.814500  0.393900  1.0  0.0994
  H  H39  1  0.158300  0.893100  0.391000  1.0  0.0755
  H  H40  1  0.174800  0.858400  0.449800  1.0  0.0791
  H  H41  1  0.159000  0.945000  0.578100  1.0  0.3062
  H  H42  1  0.179100  0.878500  0.627000  1.0  0.1147
  H  H43  1  0.107500  0.881900  0.637000  1.0  0.1154
  H  H44  1  0.115900  0.824500  0.596300  1.0  0.1129
  H  H45  1  0.180000  0.988200  0.455900  1.0  0.1989
  H  H46  1  0.122000  0.994600  0.414400  1.0  0.1961
  H  H47  1  0.142000  0.052200  0.667200  1.0  0.0583
  H  H48  1  0.247800  0.062200  0.665900  1.0  0.1121
  H  H49  1  0.245000  0.037000  0.848300  1.0  0.1174
  H  H50  1  0.133200  0.021200  0.846300  1.0  0.0962
  H  H51  1  0.344300  0.054700  0.661700  1.0  0.1277
  H  H52  1  0.447000  0.045400  0.667000  1.0  0.1078
  H  H53  1  0.433300  0.036100  0.850000  1.0  0.114
  H  H54  1  0.331500  0.044300  0.844100  1.0  0.1769
  H  H55  1  0.542100  0.056100  0.724300  1.0  0.077
  H  H56  1  0.536800  0.058600  0.797000  1.0  0.0768
  H  H57  1  0.482700  0.934700  0.729600  1.0  0.0944
  H  H58  1  0.487800  0.940200  0.802600  1.0  0.071
  H  H59  1  0.589600  0.946200  0.664400  1.0  0.1082
  H  H60  1  0.692800  0.949400  0.668500  1.0  0.0808
  H  H61  1  0.701500  0.974700  0.847200  1.0  0.1209
  H  H62  1  0.592200  0.967400  0.847400  1.0  0.1032
  H  H63  1  0.781700  0.926700  0.684700  1.0  0.1048
  H  H64  1  0.895300  0.954900  0.680000  1.0  0.0834
  H  H65  1  0.913100  0.046100  0.835800  1.0  0.1297
  H  H66  1  0.801600  0.020000  0.836100  1.0  0.1098
  H  H67  1  0.817600  0.075400  0.467800  1.0  0.3443
  H  H68  1  0.814500  0.135500  0.393900  1.0  0.0965
  H  H69  1  0.893100  0.158300  0.391000  1.0  0.0724
  H  H70  1  0.858400  0.174800  0.449800  1.0  0.0795
  H  H71  1  0.945000  0.159000  0.578100  1.0  0.3101
  H  H72  1  0.878500  0.179100  0.627000  1.0  0.1159
  H  H73  1  0.881900  0.107500  0.637000  1.0  0.1174
  H  H74  1  0.824500  0.115900  0.596300  1.0  0.1117
  H  H75  1  0.988200  0.180000  0.455900  1.0  0.1997
  H  H76  1  0.994600  0.122000  0.414400  1.0  0.1999
  H  H77  1  0.052200  0.142000  0.667200  1.0  0.0578
  H  H78  1  0.062200  0.247800  0.665900  1.0  0.1118
  H  H79  1  0.037000  0.245000  0.848300  1.0  0.1172
  H  H80  1  0.021200  0.133200  0.846300  1.0  0.0955
  H  H81  1  0.054700  0.344300  0.661700  1.0  0.1257
  H  H82  1  0.045400  0.447000  0.667000  1.0  0.1083
  H  H83  1  0.036100  0.433300  0.850000  1.0  0.1141
  H  H84  1  0.044300  0.331500  0.844100  1.0  0.1783
  H  H85  1  0.056100  0.542100  0.724300  1.0  0.077
  H  H86  1  0.058600  0.536800  0.797000  1.0  0.0765
  H  H87  1  0.934700  0.482700  0.729600  1.0  0.0936
  H  H88  1  0.940200  0.487800  0.802600  1.0  0.0723
  H  H89  1  0.946200  0.589600  0.664400  1.0  0.1084
  H  H90  1  0.949400  0.692800  0.668500  1.0  0.0809
  H  H91  1  0.974700  0.701500  0.847200  1.0  0.1213
  H  H92  1  0.967400  0.592200  0.847400  1.0  0.1032
  H  H93  1  0.926700  0.781700  0.684700  1.0  0.105
  H  H94  1  0.954900  0.895300  0.680000  1.0  0.0828
  H  H95  1  0.046100  0.913100  0.835800  1.0  0.1291
  H  H96  1  0.020000  0.801600  0.836100  1.0  0.1109
  H  H97  1  0.182400  0.924600  0.967800  1.0  0.3449
  H  H98  1  0.185500  0.864500  0.893900  1.0  0.0973
  H  H99  1  0.106900  0.841700  0.891000  1.0  0.0732
  H  H100  1  0.141600  0.825200  0.949800  1.0  0.0802
  H  H101  1  0.055000  0.841000  0.078100  1.0  0.3087
  H  H102  1  0.121500  0.820900  0.127000  1.0  0.117
  H  H103  1  0.118100  0.892500  0.137000  1.0  0.1174
  H  H104  1  0.175500  0.884100  0.096300  1.0  0.1126
  H  H105  1  0.011800  0.820000  0.955900  1.0  0.2011
  H  H106  1  0.005400  0.878000  0.914400  1.0  0.1994
  H  H107  1  0.947800  0.858000  0.167200  1.0  0.0571
  H  H108  1  0.937800  0.752200  0.165900  1.0  0.1104
  H  H109  1  0.963000  0.755000  0.348300  1.0  0.1179
  H  H110  1  0.978800  0.866800  0.346300  1.0  0.0962
  H  H111  1  0.945300  0.655700  0.161700  1.0  0.1273
  H  H112  1  0.954600  0.553000  0.167000  1.0  0.1081
  H  H113  1  0.963900  0.566700  0.350000  1.0  0.1138
  H  H114  1  0.955700  0.668500  0.344100  1.0  0.1767
  H  H115  1  0.943900  0.457900  0.224300  1.0  0.0778
  H  H116  1  0.941400  0.463200  0.297000  1.0  0.0772
  H  H117  1  0.065300  0.517300  0.229600  1.0  0.0931
  H  H118  1  0.059800  0.512200  0.302600  1.0  0.071
  H  H119  1  0.053800  0.410400  0.164400  1.0  0.1075
  H  H120  1  0.050600  0.307200  0.168500  1.0  0.0808
  H  H121  1  0.025300  0.298500  0.347200  1.0  0.1212
  H  H122  1  0.032600  0.407800  0.347400  1.0  0.1037
  H  H123  1  0.073300  0.218300  0.184700  1.0  0.1045
  H  H124  1  0.045100  0.104700  0.180000  1.0  0.0826
  H  H125  1  0.953900  0.086900  0.335800  1.0  0.1294
  H  H126  1  0.980000  0.198400  0.336100  1.0  0.111
  H  H127  1  0.938800  0.359400  0.044100  1.0  0.1097
  H  H128  1  0.136200  0.427400  0.015600  1.0  0.1114
  H  H129  1  0.145100  0.528900  0.057900  1.0  0.1132
  H  H130  1  0.144400  0.600800  0.133500  1.0  0.0622
  H  H131  1  0.127100  0.625500  0.069100  1.0  0.0612
  H  H132  1  0.058800  0.673800  0.125300  1.0  0.0882
  H  H133  1  0.136600  0.710000  0.135000  1.0  0.0769
  H  H134  1  0.170400  0.637800  0.232000  1.0  0.0762
  H  H135  1  0.183000  0.714600  0.222500  1.0  0.0704
  H  H136  1  0.102100  0.695300  0.309400  1.0  0.0788
  H  H137  1  0.178400  0.710200  0.323900  1.0  0.0842
  H  H138  1  0.167200  0.642200  0.412100  1.0  0.0814
  H  H139  1  0.093300  0.641900  0.411500  1.0  0.0746
  H  H140  1  0.110500  0.549500  0.464800  1.0  0.0694
  H  H141  1  0.116100  0.521700  0.398200  1.0  0.063
  H  H142  1  0.080700  0.438700  0.478100  1.0  0.1155
  H  H143  1  0.911100  0.279700  0.486400  1.0  0.1045
  H  H144  1  0.854900  0.339900  0.438400  1.0  0.1176
  H  H145  1  0.813800  0.388000  0.388900  1.0  0.1014
  H  H146  1  0.815600  0.432400  0.447700  1.0  0.0759
  H  H147  1  0.831400  0.524000  0.377700  1.0  0.0918
  H  H148  1  0.759400  0.467600  0.375800  1.0  0.0614
  H  H149  1  0.746000  0.501800  0.283700  1.0  0.0518
  H  H150  1  0.816800  0.543400  0.255600  1.0  0.0798
  H  H151  1  0.745700  0.481100  0.178400  1.0  0.0644
  H  H152  1  0.735600  0.414600  0.215400  1.0  0.0769
  H  H153  1  0.774400  0.406600  0.107800  1.0  0.0782
  H  H154  1  0.820700  0.481100  0.092600  1.0  0.0883
  H  H155  1  0.864500  0.402700  0.053100  1.0  0.0618
  H  H156  1  0.871300  0.380100  0.121600  1.0  0.084
  H  H157  1  0.061200  0.640600  0.544100  1.0  0.1098
  H  H158  1  0.863800  0.572600  0.515600  1.0  0.1108
  H  H159  1  0.854900  0.471100  0.557900  1.0  0.1132
  H  H160  1  0.855600  0.399200  0.633500  1.0  0.0623
  H  H161  1  0.872900  0.374500  0.569100  1.0  0.0621
  H  H162  1  0.941200  0.326200  0.625300  1.0  0.0877
  H  H163  1  0.863400  0.290000  0.635000  1.0  0.0751
  H  H164  1  0.829600  0.362200  0.732000  1.0  0.0765
  H  H165  1  0.817000  0.285400  0.722500  1.0  0.0696
  H  H166  1  0.897900  0.304700  0.809400  1.0  0.079
  H  H167  1  0.821600  0.289800  0.823900  1.0  0.0846
  H  H168  1  0.832800  0.357800  0.912100  1.0  0.0816
  H  H169  1  0.906700  0.358100  0.911500  1.0  0.0769
  H  H170  1  0.889500  0.450500  0.964800  1.0  0.0702
  H  H171  1  0.883900  0.478300  0.898200  1.0  0.0633
  H  H172  1  0.919300  0.561300  0.978100  1.0  0.1161
  H  H173  1  0.088900  0.720300  0.986400  1.0  0.1055
  H  H174  1  0.145100  0.660100  0.938400  1.0  0.1199
  H  H175  1  0.186200  0.612000  0.888900  1.0  0.1034
  H  H176  1  0.184400  0.567600  0.947700  1.0  0.0747
  H  H177  1  0.168600  0.476000  0.877700  1.0  0.0903
  H  H178  1  0.240600  0.532400  0.875800  1.0  0.0613
  H  H179  1  0.254000  0.498200  0.783700  1.0  0.0505
  H  H180  1  0.183200  0.456600  0.755600  1.0  0.0819
  H  H181  1  0.254300  0.518900  0.678400  1.0  0.0643
  H  H182  1  0.264400  0.585400  0.715400  1.0  0.0765
  H  H183  1  0.225600  0.593400  0.607800  1.0  0.078
  H  H184  1  0.179300  0.518900  0.592600  1.0  0.0878
  H  H185  1  0.135500  0.597300  0.553100  1.0  0.0626
  H  H186  1  0.128700  0.619900  0.621600  1.0  0.0827
  H  H187  1  0.640600  0.061200  0.544100  1.0  0.11
  H  H188  1  0.572600  0.863800  0.515600  1.0  0.1118
  H  H189  1  0.471100  0.854900  0.557900  1.0  0.1134
  H  H190  1  0.399200  0.855600  0.633500  1.0  0.0603
  H  H191  1  0.374500  0.872900  0.569100  1.0  0.0611
  H  H192  1  0.326200  0.941200  0.625300  1.0  0.0864
  H  H193  1  0.290000  0.863400  0.635000  1.0  0.0758
  H  H194  1  0.362200  0.829600  0.732000  1.0  0.0664
  H  H195  1  0.285400  0.817000  0.722500  1.0  0.0731
  H  H196  1  0.304700  0.897900  0.809400  1.0  0.0795
  H  H197  1  0.289800  0.821600  0.823900  1.0  0.0842
  H  H198  1  0.357800  0.832800  0.912100  1.0  0.0789
  H  H199  1  0.358100  0.906700  0.911500  1.0  0.0755
  H  H200  1  0.450500  0.889500  0.964800  1.0  0.0687
  H  H201  1  0.478300  0.883900  0.898200  1.0  0.0627
  H  H202  1  0.561300  0.919300  0.978100  1.0  0.1167
  H  H203  1  0.720300  0.088900  0.986400  1.0  0.1041
  H  H204  1  0.660100  0.145100  0.938400  1.0  0.1196
  H  H205  1  0.612000  0.186200  0.888900  1.0  0.1095
  H  H206  1  0.567600  0.184400  0.947700  1.0  0.076
  H  H207  1  0.476000  0.168600  0.877700  1.0  0.0913
  H  H208  1  0.532400  0.240600  0.875800  1.0  0.0639
  H  H209  1  0.498200  0.254000  0.783700  1.0  0.0543
  H  H210  1  0.456600  0.183200  0.755600  1.0  0.0839
  H  H211  1  0.518900  0.254300  0.678400  1.0  0.0662
  H  H212  1  0.585400  0.264400  0.715400  1.0  0.0765
  H  H213  1  0.593400  0.225600  0.607800  1.0  0.0777
  H  H214  1  0.518900  0.179300  0.592600  1.0  0.0766
  H  H215  1  0.597300  0.135500  0.553100  1.0  0.0638
  H  H216  1  0.619900  0.128700  0.621600  1.0  0.0827
  H  H217  1  0.359400  0.938800  0.044100  1.0  0.1104
  H  H218  1  0.427400  0.136200  0.015600  1.0  0.1117
  H  H219  1  0.528900  0.145100  0.057900  1.0  0.1128
  H  H220  1  0.600800  0.144400  0.133500  1.0  0.0609
  H  H221  1  0.625500  0.127100  0.069100  1.0  0.0617
  H  H222  1  0.673800  0.058800  0.125300  1.0  0.0874
  H  H223  1  0.710000  0.136600  0.135000  1.0  0.0758
  H  H224  1  0.637800  0.170400  0.232000  1.0  0.0698
  H  H225  1  0.714600  0.183000  0.222500  1.0  0.0733
  H  H226  1  0.695300  0.102100  0.309400  1.0  0.0802
  H  H227  1  0.710200  0.178400  0.323900  1.0  0.0829
  H  H228  1  0.642200  0.167200  0.412100  1.0  0.0808
  H  H229  1  0.641900  0.093300  0.411500  1.0  0.0751
  H  H230  1  0.549500  0.110500  0.464800  1.0  0.0688
  H  H231  1  0.521700  0.116100  0.398200  1.0  0.0647
  H  H232  1  0.438700  0.080700  0.478100  1.0  0.1169
  H  H233  1  0.279700  0.911100  0.486400  1.0  0.1039
  H  H234  1  0.339900  0.854900  0.438400  1.0  0.1201
  H  H235  1  0.388000  0.813800  0.388900  1.0  0.1073
  H  H236  1  0.432400  0.815600  0.447700  1.0  0.076
  H  H237  1  0.524000  0.831400  0.377700  1.0  0.0912
  H  H238  1  0.467600  0.759400  0.375800  1.0  0.0607
  H  H239  1  0.501800  0.746000  0.283700  1.0  0.0541
  H  H240  1  0.543400  0.816800  0.255600  1.0  0.0819
  H  H241  1  0.481100  0.745700  0.178400  1.0  0.065
  H  H242  1  0.414600  0.735600  0.215400  1.0  0.0764
  H  H243  1  0.406600  0.774400  0.107800  1.0  0.0742
  H  H244  1  0.481100  0.820700  0.092600  1.0  0.0709
  H  H245  1  0.402700  0.864500  0.053100  1.0  0.063
  H  H246  1  0.380100  0.871300  0.121600  1.0  0.0836
  C  C247  1  0.857700  0.145500  0.917800  1.0  -0.09
  C  C248  1  0.863900  0.129100  0.108000  1.0  -0.2571
  C  C249  1  0.838400  0.951600  0.205000  1.0  0.1948
  C  C250  1  0.775600  0.947000  0.203400  1.0  -0.1672
  C  C251  1  0.743300  0.955900  0.256500  1.0  -0.026
  C  C252  1  0.776600  0.962600  0.310700  1.0  -0.1555
  C  C253  1  0.842100  0.968900  0.309600  1.0  0.1294
  C  C254  1  0.674400  0.957200  0.259900  1.0  0.1105
  C  C255  1  0.637300  0.951300  0.199600  1.0  -0.1402
  C  C256  1  0.576400  0.955200  0.203600  1.0  0.0636
  C  C257  1  0.585400  0.961000  0.311500  1.0  -0.0053
  C  C258  1  0.646300  0.957700  0.307200  1.0  -0.1047
  C  C259  1  0.485300  0.965100  0.259900  1.0  -0.0186
  C  C260  1  0.490900  0.039700  0.263900  1.0  -0.2381
  C  C261  1  0.419100  0.039100  0.261000  1.0  0.1321
  C  C262  1  0.387200  0.046800  0.202000  1.0  -0.0863
  C  C263  1  0.326500  0.043300  0.205300  1.0  -0.0804
  C  C264  1  0.288300  0.030500  0.254400  1.0  0.0931
  C  C265  1  0.321300  0.029300  0.309700  1.0  -0.1696
  C  C266  1  0.386800  0.033600  0.309600  1.0  -0.1363
  C  C267  1  0.215500  0.017100  0.252700  1.0  0.2544
  C  C268  1  0.190900  0.043900  0.213900  1.0  -0.1346
  C  C269  1  0.122500  0.030100  0.213900  1.0  0.139
  C  C270  1  0.112200  0.977800  0.302400  1.0  0.1076
  C  C271  1  0.178200  0.990400  0.301200  1.0  -0.1726
  C  C272  1  0.142300  0.854500  0.417800  1.0  -0.091
  C  C273  1  0.136100  0.870900  0.608000  1.0  -0.2559
  C  C274  1  0.161600  0.048400  0.705000  1.0  0.1954
  C  C275  1  0.224400  0.053000  0.703400  1.0  -0.168
  C  C276  1  0.256700  0.044100  0.756500  1.0  -0.0251
  C  C277  1  0.223400  0.037400  0.810700  1.0  -0.1556
  C  C278  1  0.157900  0.031100  0.809600  1.0  0.128
  C  C279  1  0.325600  0.042800  0.759900  1.0  0.1085
  C  C280  1  0.362700  0.048700  0.699600  1.0  -0.1449
  C  C281  1  0.423600  0.044800  0.703600  1.0  0.065
  C  C282  1  0.414600  0.039000  0.811500  1.0  -0.0043
  C  C283  1  0.353700  0.042300  0.807200  1.0  -0.1075
  C  C284  1  0.514700  0.034900  0.759900  1.0  -0.0189
  C  C285  1  0.509100  0.960300  0.763900  1.0  -0.2395
  C  C286  1  0.580900  0.960900  0.761000  1.0  0.1348
  C  C287  1  0.612800  0.953200  0.702000  1.0  -0.0844
  C  C288  1  0.673500  0.956700  0.705300  1.0  -0.0789
  C  C289  1  0.711700  0.969500  0.754400  1.0  0.0917
  C  C290  1  0.678700  0.970700  0.809700  1.0  -0.1711
  C  C291  1  0.613200  0.966400  0.809600  1.0  -0.1368
  C  C292  1  0.784500  0.982900  0.752700  1.0  0.2504
  C  C293  1  0.809100  0.956100  0.713900  1.0  -0.1371
  C  C294  1  0.877500  0.969900  0.713900  1.0  0.1389
  C  C295  1  0.887800  0.022200  0.802400  1.0  0.109
  C  C296  1  0.821800  0.009600  0.801200  1.0  -0.1734
  C  C297  1  0.854500  0.142300  0.417800  1.0  -0.0915
  C  C298  1  0.870900  0.136100  0.608000  1.0  -0.2569
  C  C299  1  0.048400  0.161600  0.705000  1.0  0.1969
  C  C300  1  0.053000  0.224400  0.703400  1.0  -0.1645
  C  C301  1  0.044100  0.256700  0.756500  1.0  -0.0224
  C  C302  1  0.037400  0.223400  0.810700  1.0  -0.153
  C  C303  1  0.031100  0.157900  0.809600  1.0  0.1316
  C  C304  1  0.042800  0.325600  0.759900  1.0  0.1143
  C  C305  1  0.048700  0.362700  0.699600  1.0  -0.1419
  C  C306  1  0.044800  0.423600  0.703600  1.0  0.0672
  C  C307  1  0.039000  0.414600  0.811500  1.0  -0.0059
  C  C308  1  0.042300  0.353700  0.807200  1.0  -0.104
  C  C309  1  0.034900  0.514700  0.759900  1.0  -0.0179
  C  C310  1  0.960300  0.509100  0.763900  1.0  -0.24
  C  C311  1  0.960900  0.580900  0.761000  1.0  0.1343
  C  C312  1  0.953200  0.612800  0.702000  1.0  -0.0863
  C  C313  1  0.956700  0.673500  0.705300  1.0  -0.079
  C  C314  1  0.969500  0.711700  0.754400  1.0  0.0926
  C  C315  1  0.970700  0.678700  0.809700  1.0  -0.1687
  C  C316  1  0.966400  0.613200  0.809600  1.0  -0.1351
  C  C317  1  0.982900  0.784500  0.752700  1.0  0.2543
  C  C318  1  0.956100  0.809100  0.713900  1.0  -0.1332
  C  C319  1  0.969900  0.877500  0.713900  1.0  0.1386
  C  C320  1  0.022200  0.887800  0.802400  1.0  0.1092
  C  C321  1  0.009600  0.821800  0.801200  1.0  -0.1718
  C  C322  1  0.145500  0.857700  0.917800  1.0  -0.0919
  C  C323  1  0.129100  0.863900  0.108000  1.0  -0.2582
  C  C324  1  0.951600  0.838400  0.205000  1.0  0.1959
  C  C325  1  0.947000  0.775600  0.203400  1.0  -0.1633
  C  C326  1  0.955900  0.743300  0.256500  1.0  -0.0215
  C  C327  1  0.962600  0.776600  0.310700  1.0  -0.1527
  C  C328  1  0.968900  0.842100  0.309600  1.0  0.1322
  C  C329  1  0.957200  0.674400  0.259900  1.0  0.1127
  C  C330  1  0.951300  0.637300  0.199600  1.0  -0.1444
  C  C331  1  0.955200  0.576400  0.203600  1.0  0.0655
  C  C332  1  0.961000  0.585400  0.311500  1.0  -0.0051
  C  C333  1  0.957700  0.646300  0.307200  1.0  -0.1099
  C  C334  1  0.965100  0.485300  0.259900  1.0  -0.0183
  C  C335  1  0.039700  0.490900  0.263900  1.0  -0.2398
  C  C336  1  0.039100  0.419100  0.261000  1.0  0.135
  C  C337  1  0.046800  0.387200  0.202000  1.0  -0.0852
  C  C338  1  0.043300  0.326500  0.205300  1.0  -0.078
  C  C339  1  0.030500  0.288300  0.254400  1.0  0.0924
  C  C340  1  0.029300  0.321300  0.309700  1.0  -0.1697
  C  C341  1  0.033600  0.386800  0.309600  1.0  -0.1373
  C  C342  1  0.017100  0.215500  0.252700  1.0  0.2536
  C  C343  1  0.043900  0.190900  0.213900  1.0  -0.1326
  C  C344  1  0.030100  0.122500  0.213900  1.0  0.1374
  C  C345  1  0.977800  0.112200  0.302400  1.0  0.1085
  C  C346  1  0.990400  0.178200  0.301200  1.0  -0.1739
  C  C347  1  0.986000  0.454200  0.072000  1.0  0.068
  C  C348  1  0.980700  0.393900  0.046900  1.0  -0.1162
  C  C349  1  0.036600  0.383800  0.025800  1.0  -0.1706
  C  C350  1  0.098000  0.434200  0.029900  1.0  -0.0695
  C  C351  1  0.103200  0.494600  0.055100  1.0  -0.2248
  C  C352  1  0.047300  0.504500  0.076100  1.0  0.2806
  C  C353  1  0.110600  0.612400  0.110900  1.0  0.0907
  C  C354  1  0.098900  0.668500  0.142100  1.0  0.0776
  C  C355  1  0.151200  0.672400  0.238000  1.0  0.0585
  C  C356  1  0.138500  0.678500  0.304400  1.0  0.0768
  C  C357  1  0.121800  0.618200  0.397200  1.0  0.0797
  C  C358  1  0.097000  0.549200  0.421800  1.0  0.0638
  C  C359  1  0.001500  0.454500  0.441500  1.0  0.101
  C  C360  1  0.034900  0.418700  0.470000  1.0  -0.0669
  C  C361  1  0.001100  0.353500  0.486800  1.0  -0.1789
  C  C362  1  0.934000  0.324200  0.475000  1.0  -0.0696
  C  C363  1  0.900800  0.360000  0.446400  1.0  -0.1924
  C  C364  1  0.934500  0.425100  0.429700  1.0  0.2656
  C  C365  1  0.831100  0.433500  0.405200  1.0  0.0869
  C  C366  1  0.806700  0.477300  0.367300  1.0  0.0885
  C  C367  1  0.785700  0.498300  0.264500  1.0  0.0925
  C  C368  1  0.767200  0.459600  0.206600  1.0  0.0954
  C  C369  1  0.818000  0.441200  0.115900  1.0  0.0965
  C  C370  1  0.871800  0.417800  0.096000  1.0  0.0945
  C  C371  1  0.014000  0.545800  0.572000  1.0  0.0671
  C  C372  1  0.019300  0.606100  0.546900  1.0  -0.1188
  C  C373  1  0.963400  0.616200  0.525800  1.0  -0.1713
  C  C374  1  0.902000  0.565800  0.529900  1.0  -0.0692
  C  C375  1  0.896800  0.505400  0.555100  1.0  -0.2288
  C  C376  1  0.952700  0.495500  0.576100  1.0  0.2803
  C  C377  1  0.889400  0.387600  0.610900  1.0  0.0923
  C  C378  1  0.901100  0.331500  0.642100  1.0  0.0733
  C  C379  1  0.848800  0.327600  0.738000  1.0  0.0563
  C  C380  1  0.861500  0.321500  0.804400  1.0  0.074
  C  C381  1  0.878200  0.381800  0.897200  1.0  0.0806
  C  C382  1  0.903000  0.450800  0.921800  1.0  0.0649
  C  C383  1  0.998500  0.545500  0.941500  1.0  0.1
  C  C384  1  0.965100  0.581300  0.970000  1.0  -0.0676
  C  C385  1  0.998900  0.646500  0.986800  1.0  -0.1794
  C  C386  1  0.066000  0.675800  0.975000  1.0  -0.0699
  C  C387  1  0.099200  0.640000  0.946400  1.0  -0.1935
  C  C388  1  0.065500  0.574900  0.929700  1.0  0.2667
  C  C389  1  0.168900  0.566500  0.905200  1.0  0.0861
  C  C390  1  0.193300  0.522700  0.867300  1.0  0.0903
  C  C391  1  0.214300  0.501700  0.764500  1.0  0.0914
  C  C392  1  0.232800  0.540400  0.706600  1.0  0.0911
  C  C393  1  0.182000  0.558800  0.615900  1.0  0.095
  C  C394  1  0.128200  0.582200  0.596000  1.0  0.0961
  C  C395  1  0.545800  0.014000  0.572000  1.0  0.0658
  C  C396  1  0.606100  0.019300  0.546900  1.0  -0.1158
  C  C397  1  0.616200  0.963400  0.525800  1.0  -0.1732
  C  C398  1  0.565800  0.902000  0.529900  1.0  -0.0716
  C  C399  1  0.505400  0.896800  0.555100  1.0  -0.2281
  C  C400  1  0.495500  0.952700  0.576100  1.0  0.2795
  C  C401  1  0.387600  0.889400  0.610900  1.0  0.0911
  C  C402  1  0.331500  0.901100  0.642100  1.0  0.074
  C  C403  1  0.327600  0.848800  0.738000  1.0  0.0523
  C  C404  1  0.321500  0.861500  0.804400  1.0  0.0752
  C  C405  1  0.381800  0.878200  0.897200  1.0  0.0821
  C  C406  1  0.450800  0.903000  0.921800  1.0  0.0683
  C  C407  1  0.545500  0.998500  0.941500  1.0  0.1006
  C  C408  1  0.581300  0.965100  0.970000  1.0  -0.0682
  C  C409  1  0.646500  0.998900  0.986800  1.0  -0.1784
  C  C410  1  0.675800  0.066000  0.975000  1.0  -0.0693
  C  C411  1  0.640000  0.099200  0.946400  1.0  -0.1923
  C  C412  1  0.574900  0.065500  0.929700  1.0  0.2667
  C  C413  1  0.566500  0.168900  0.905200  1.0  0.091
  C  C414  1  0.522700  0.193300  0.867300  1.0  0.09
  C  C415  1  0.501700  0.214300  0.764500  1.0  0.0982
  C  C416  1  0.540400  0.232800  0.706600  1.0  0.0918
  C  C417  1  0.558800  0.182000  0.615900  1.0  0.0948
  C  C418  1  0.582200  0.128200  0.596000  1.0  0.0959
  C  C419  1  0.454200  0.986000  0.072000  1.0  0.065
  C  C420  1  0.393900  0.980700  0.046900  1.0  -0.1122
  C  C421  1  0.383800  0.036600  0.025800  1.0  -0.177
  C  C422  1  0.434200  0.098000  0.029900  1.0  -0.0723
  C  C423  1  0.494600  0.103200  0.055100  1.0  -0.2288
  C  C424  1  0.504500  0.047300  0.076100  1.0  0.2799
  C  C425  1  0.612400  0.110600  0.110900  1.0  0.093
  C  C426  1  0.668500  0.098900  0.142100  1.0  0.073
  C  C427  1  0.672400  0.151200  0.238000  1.0  0.053
  C  C428  1  0.678500  0.138500  0.304400  1.0  0.0767
  C  C429  1  0.618200  0.121800  0.397200  1.0  0.0816
  C  C430  1  0.549200  0.097000  0.421800  1.0  0.0667
  C  C431  1  0.454500  0.001500  0.441500  1.0  0.0995
  C  C432  1  0.418700  0.034900  0.470000  1.0  -0.0688
  C  C433  1  0.353500  0.001100  0.486800  1.0  -0.1803
  C  C434  1  0.324200  0.934000  0.475000  1.0  -0.0671
  C  C435  1  0.360000  0.900800  0.446400  1.0  -0.1915
  C  C436  1  0.425100  0.934500  0.429700  1.0  0.2665
  C  C437  1  0.433500  0.831100  0.405200  1.0  0.09
  C  C438  1  0.477300  0.806700  0.367300  1.0  0.0903
  C  C439  1  0.498300  0.785700  0.264500  1.0  0.0969
  C  C440  1  0.459600  0.767200  0.206600  1.0  0.0921
  C  C441  1  0.441200  0.818000  0.115900  1.0  0.0947
  C  C442  1  0.417800  0.871800  0.096000  1.0  0.0961
  S  S443  1  0.994600  0.994600  0.093700  1.0  1.3507
  S  S444  1  0.991600  0.991600  0.415400  1.0  1.4618
  S  S445  1  0.005400  0.005400  0.593700  1.0  1.3506
  S  S446  1  0.008400  0.008400  0.915400  1.0  1.4615
  S  S447  1  0.039770  0.310430  0.993200  1.0  1.2565
  S  S448  1  0.052130  0.313670  0.519600  1.0  1.3886
  S  S449  1  0.960230  0.689570  0.493200  1.0  1.255
  S  S450  1  0.947870  0.686330  0.019600  1.0  1.388
  S  S451  1  0.689570  0.960230  0.493200  1.0  1.2549
  S  S452  1  0.686330  0.947870  0.019600  1.0  1.3932
  S  S453  1  0.310430  0.039770  0.993200  1.0  1.2543
  S  S454  1  0.313670  0.052130  0.519600  1.0  1.3957
  N  N455  1  0.874900  0.960700  0.252300  1.0  -0.3747
  N  N456  1  0.548900  0.959700  0.254200  1.0  -0.0895
  N  N457  1  0.081510  0.998090  0.257200  1.0  -0.3319
  N  N458  1  0.125100  0.039300  0.752300  1.0  -0.3748
  N  N459  1  0.451100  0.040300  0.754200  1.0  -0.0906
  N  N460  1  0.918490  0.001910  0.757200  1.0  -0.3317
  N  N461  1  0.039300  0.125100  0.752300  1.0  -0.3751
  N  N462  1  0.040300  0.451100  0.754200  1.0  -0.0906
  N  N463  1  0.001910  0.918490  0.757200  1.0  -0.3323
  N  N464  1  0.960700  0.874900  0.252300  1.0  -0.3742
  N  N465  1  0.959700  0.548900  0.254200  1.0  -0.091
  N  N466  1  0.998090  0.081510  0.257200  1.0  -0.3318
  O  O467  1  0.932200  0.004800  0.065300  1.0  -0.8268
  O  O468  1  0.001800  0.938600  0.445000  1.0  -0.6736
  O  O469  1  0.918700  0.149100  0.944900  1.0  -0.5902
  O  O470  1  0.855000  0.088600  0.055000  1.0  -0.6025
  O  O471  1  0.861500  0.003500  0.956200  1.0  -0.6799
  O  O472  1  0.067800  0.995200  0.565300  1.0  -0.8266
  O  O473  1  0.998200  0.061400  0.945000  1.0  -0.674
  O  O474  1  0.081300  0.850900  0.444900  1.0  -0.5985
  O  O475  1  0.145000  0.911400  0.555000  1.0  -0.6025
  O  O476  1  0.138500  0.996500  0.456200  1.0  -0.6816
  O  O477  1  0.995200  0.067800  0.565300  1.0  -0.8256
  O  O478  1  0.061400  0.998200  0.945000  1.0  -0.6735
  O  O479  1  0.850900  0.081300  0.444900  1.0  -0.5949
  O  O480  1  0.911400  0.145000  0.555000  1.0  -0.6033
  O  O481  1  0.996500  0.138500  0.456200  1.0  -0.6747
  O  O482  1  0.004800  0.932200  0.065300  1.0  -0.8266
  O  O483  1  0.938600  0.001800  0.445000  1.0  -0.6739
  O  O484  1  0.149100  0.918700  0.944900  1.0  -0.5933
  O  O485  1  0.088600  0.855000  0.055000  1.0  -0.6039
  O  O486  1  0.003500  0.861500  0.956200  1.0  -0.6764
  O  O487  1  0.976900  0.976900  0.160700  1.0  -0.8015
  O  O488  1  0.053300  0.053300  0.090200  1.0  -0.6434
  O  O489  1  0.047400  0.047400  0.421700  1.0  -0.5545
  O  O490  1  0.973300  0.973300  0.354800  1.0  -0.6531
  O  O491  1  0.023100  0.023100  0.660700  1.0  -0.8012
  O  O492  1  0.946700  0.946700  0.590200  1.0  -0.6421
  O  O493  1  0.952600  0.952600  0.921700  1.0  -0.5553
  O  O494  1  0.026700  0.026700  0.854800  1.0  -0.653
  O  O495  1  0.050700  0.557300  0.108800  1.0  -0.2668
  O  O496  1  0.090900  0.655500  0.205600  1.0  -0.2811
  O  O497  1  0.121600  0.615800  0.332500  1.0  -0.294
  O  O498  1  0.027200  0.522800  0.417300  1.0  -0.3066
  O  O499  1  0.901200  0.458000  0.403900  1.0  -0.2543
  O  O500  1  0.815500  0.466300  0.304700  1.0  -0.2919
  O  O501  1  0.824800  0.455800  0.179100  1.0  -0.3094
  O  O502  1  0.933400  0.470200  0.101600  1.0  -0.3342
  O  O503  1  0.977900  0.280700  0.964200  1.0  -0.5963
  O  O504  1  0.095600  0.335400  0.955300  1.0  -0.5503
  O  O505  1  0.049200  0.270200  0.044200  1.0  -0.6635
  O  O506  1  0.068800  0.276600  0.473300  1.0  -0.5667
  O  O507  1  0.010600  0.274600  0.563800  1.0  -0.5531
  O  O508  1  0.110600  0.363200  0.544000  1.0  -0.6238
  O  O509  1  0.949300  0.442700  0.608800  1.0  -0.2683
  O  O510  1  0.909100  0.344500  0.705600  1.0  -0.2827
  O  O511  1  0.878400  0.384200  0.832500  1.0  -0.2971
  O  O512  1  0.972800  0.477200  0.917300  1.0  -0.3059
  O  O513  1  0.098800  0.542000  0.903900  1.0  -0.2522
  O  O514  1  0.184500  0.533700  0.804700  1.0  -0.2912
  O  O515  1  0.175200  0.544200  0.679100  1.0  -0.3093
  O  O516  1  0.066600  0.529800  0.601600  1.0  -0.3354
  O  O517  1  0.022100  0.719300  0.464200  1.0  -0.5957
  O  O518  1  0.904400  0.664600  0.455300  1.0  -0.5511
  O  O519  1  0.950800  0.729800  0.544200  1.0  -0.6648
  O  O520  1  0.931200  0.723400  0.973300  1.0  -0.5676
  O  O521  1  0.989400  0.725400  0.063800  1.0  -0.5523
  O  O522  1  0.889400  0.636800  0.044000  1.0  -0.6235
  O  O523  1  0.442700  0.949300  0.608800  1.0  -0.2664
  O  O524  1  0.344500  0.909100  0.705600  1.0  -0.2832
  O  O525  1  0.384200  0.878400  0.832500  1.0  -0.2951
  O  O526  1  0.477200  0.972800  0.917300  1.0  -0.3057
  O  O527  1  0.542000  0.098800  0.903900  1.0  -0.2529
  O  O528  1  0.533700  0.184500  0.804700  1.0  -0.2941
  O  O529  1  0.544200  0.175200  0.679100  1.0  -0.3103
  O  O530  1  0.529800  0.066600  0.601600  1.0  -0.334
  O  O531  1  0.719300  0.022100  0.464200  1.0  -0.5968
  O  O532  1  0.664600  0.904400  0.455300  1.0  -0.5531
  O  O533  1  0.729800  0.950800  0.544200  1.0  -0.667
  O  O534  1  0.723400  0.931200  0.973300  1.0  -0.567
  O  O535  1  0.725400  0.989400  0.063800  1.0  -0.5524
  O  O536  1  0.636800  0.889400  0.044000  1.0  -0.6282
  O  O537  1  0.557300  0.050700  0.108800  1.0  -0.2662
  O  O538  1  0.655500  0.090900  0.205600  1.0  -0.2807
  O  O539  1  0.615800  0.121600  0.332500  1.0  -0.2968
  O  O540  1  0.522800  0.027200  0.417300  1.0  -0.3058
  O  O541  1  0.458000  0.901200  0.403900  1.0  -0.2559
  O  O542  1  0.466300  0.815500  0.304700  1.0  -0.294
  O  O543  1  0.455800  0.824800  0.179100  1.0  -0.3105
  O  O544  1  0.470200  0.933400  0.101600  1.0  -0.3359
  O  O545  1  0.280700  0.977900  0.964200  1.0  -0.5954
  O  O546  1  0.335400  0.095600  0.955300  1.0  -0.5555
  O  O547  1  0.270200  0.049200  0.044200  1.0  -0.665
  O  O548  1  0.276600  0.068800  0.473300  1.0  -0.5682
  O  O549  1  0.274600  0.010600  0.563800  1.0  -0.5534
  O  O550  1  0.363200  0.110600  0.544000  1.0  -0.6274
