# generated using pymatgen
data_Sc3H12C24O13
_symmetry_space_group_name_H-M   'P 1'
_cell_length_a   14.05600000
_cell_length_b   14.05600000
_cell_length_c   18.09900000
_cell_angle_alpha   90.00000000
_cell_angle_beta   90.00000000
_cell_angle_gamma   120.00000000
_symmetry_Int_Tables_number   1
_chemical_formula_structural   Sc3H12C24O13
_chemical_formula_sum   'Sc6 H24 C48 O26'
_cell_volume   3096.76827161
_cell_formula_units_Z   2
loop_
 _symmetry_equiv_pos_site_id
 _symmetry_equiv_pos_as_xyz
  1  'x, y, z'
loop_
 _atom_site_type_symbol
 _atom_site_label
 _atom_site_symmetry_multiplicity
 _atom_site_fract_x
 _atom_site_fract_y
 _atom_site_fract_z
 _atom_site_occupancy
 _atom_site_charge
  Sc  Sc1  1  0.749860  0.499720  0.750000  1.0  2.0714
  Sc  Sc2  1  0.749860  0.250140  0.750000  1.0  2.0728
  Sc  Sc3  1  0.500280  0.250140  0.750000  1.0  2.0724
  Sc  Sc4  1  0.250140  0.500280  0.250000  1.0  2.0707
  Sc  Sc5  1  0.250140  0.749860  0.250000  1.0  2.0719
  Sc  Sc6  1  0.499720  0.749860  0.250000  1.0  2.073
  H  H7  1  0.379100  0.332900  0.943300  1.0  0.0931
  H  H8  1  0.953800  0.620900  0.943300  1.0  0.094
  H  H9  1  0.667100  0.046200  0.943300  1.0  0.0935
  H  H10  1  0.620900  0.667100  0.443300  1.0  0.0937
  H  H11  1  0.046200  0.379100  0.443300  1.0  0.0937
  H  H12  1  0.332900  0.953800  0.443300  1.0  0.0931
  H  H13  1  0.046200  0.667100  0.056700  1.0  0.0933
  H  H14  1  0.332900  0.379100  0.056700  1.0  0.0934
  H  H15  1  0.620900  0.953800  0.056700  1.0  0.0931
  H  H16  1  0.953800  0.332900  0.556700  1.0  0.0933
  H  H17  1  0.667100  0.620900  0.556700  1.0  0.0939
  H  H18  1  0.379100  0.046200  0.556700  1.0  0.0929
  H  H19  1  0.620900  0.667100  0.056700  1.0  0.0934
  H  H20  1  0.046200  0.379100  0.056700  1.0  0.0938
  H  H21  1  0.332900  0.953800  0.056700  1.0  0.0929
  H  H22  1  0.379100  0.332900  0.556700  1.0  0.0933
  H  H23  1  0.953800  0.620900  0.556700  1.0  0.0936
  H  H24  1  0.667100  0.046200  0.556700  1.0  0.0932
  H  H25  1  0.953800  0.332900  0.943300  1.0  0.0935
  H  H26  1  0.667100  0.620900  0.943300  1.0  0.0941
  H  H27  1  0.379100  0.046200  0.943300  1.0  0.093
  H  H28  1  0.046200  0.667100  0.443300  1.0  0.0936
  H  H29  1  0.332900  0.379100  0.443300  1.0  0.0932
  H  H30  1  0.620900  0.953800  0.443300  1.0  0.0935
  C  C31  1  0.428300  0.400700  0.966380  1.0  -0.0727
  C  C32  1  0.972400  0.571700  0.966380  1.0  -0.0729
  C  C33  1  0.599300  0.027600  0.966380  1.0  -0.0736
  C  C34  1  0.571700  0.599300  0.466380  1.0  -0.0716
  C  C35  1  0.027600  0.428300  0.466380  1.0  -0.0732
  C  C36  1  0.400700  0.972400  0.466380  1.0  -0.0732
  C  C37  1  0.027600  0.599300  0.033620  1.0  -0.0728
  C  C38  1  0.400700  0.428300  0.033620  1.0  -0.0723
  C  C39  1  0.571700  0.972400  0.033620  1.0  -0.0731
  C  C40  1  0.972400  0.400700  0.533620  1.0  -0.0728
  C  C41  1  0.599300  0.571700  0.533620  1.0  -0.073
  C  C42  1  0.428300  0.027600  0.533620  1.0  -0.0735
  C  C43  1  0.571700  0.599300  0.033620  1.0  -0.0719
  C  C44  1  0.027600  0.428300  0.033620  1.0  -0.0733
  C  C45  1  0.400700  0.972400  0.033620  1.0  -0.0734
  C  C46  1  0.428300  0.400700  0.533620  1.0  -0.073
  C  C47  1  0.972400  0.571700  0.533620  1.0  -0.0731
  C  C48  1  0.599300  0.027600  0.533620  1.0  -0.0733
  C  C49  1  0.972400  0.400700  0.966380  1.0  -0.0725
  C  C50  1  0.599300  0.571700  0.966380  1.0  -0.0728
  C  C51  1  0.428300  0.027600  0.966380  1.0  -0.0732
  C  C52  1  0.027600  0.599300  0.466380  1.0  -0.0725
  C  C53  1  0.400700  0.428300  0.466380  1.0  -0.0723
  C  C54  1  0.571700  0.972400  0.466380  1.0  -0.0735
  C  C55  1  0.558200  0.441800  0.861180  1.0  0.7642
  C  C56  1  0.527700  0.472300  0.932940  1.0  -0.1446
  C  C57  1  0.883600  0.441800  0.861180  1.0  0.7636
  C  C58  1  0.944600  0.472300  0.932940  1.0  -0.1441
  C  C59  1  0.558200  0.116400  0.861180  1.0  0.7613
  C  C60  1  0.527700  0.055400  0.932940  1.0  -0.142
  C  C61  1  0.441800  0.558200  0.361180  1.0  0.7629
  C  C62  1  0.472300  0.527700  0.432940  1.0  -0.1439
  C  C63  1  0.116400  0.558200  0.361180  1.0  0.7633
  C  C64  1  0.055400  0.527700  0.432940  1.0  -0.1443
  C  C65  1  0.441800  0.883600  0.361180  1.0  0.7627
  C  C66  1  0.472300  0.944600  0.432940  1.0  -0.1426
  C  C67  1  0.116400  0.558200  0.138820  1.0  0.7651
  C  C68  1  0.055400  0.527700  0.067060  1.0  -0.1447
  C  C69  1  0.441800  0.558200  0.138820  1.0  0.7647
  C  C70  1  0.472300  0.527700  0.067060  1.0  -0.1438
  C  C71  1  0.441800  0.883600  0.138820  1.0  0.7636
  C  C72  1  0.472300  0.944600  0.067060  1.0  -0.1426
  C  C73  1  0.883600  0.441800  0.638820  1.0  0.7648
  C  C74  1  0.944600  0.472300  0.567060  1.0  -0.1439
  C  C75  1  0.558200  0.441800  0.638820  1.0  0.7653
  C  C76  1  0.527700  0.472300  0.567060  1.0  -0.1449
  C  C77  1  0.558200  0.116400  0.638820  1.0  0.7626
  C  C78  1  0.527700  0.055400  0.567060  1.0  -0.1425
  O  O79  1  0.650630  0.509300  0.833410  1.0  -0.7509
  O  O80  1  0.858670  0.349370  0.833410  1.0  -0.7506
  O  O81  1  0.490700  0.141330  0.833410  1.0  -0.7499
  O  O82  1  0.349370  0.490700  0.333410  1.0  -0.7493
  O  O83  1  0.141330  0.650630  0.333410  1.0  -0.7535
  O  O84  1  0.509300  0.858670  0.333410  1.0  -0.748
  O  O85  1  0.141330  0.490700  0.166590  1.0  -0.7496
  O  O86  1  0.509300  0.650630  0.166590  1.0  -0.7513
  O  O87  1  0.349370  0.858670  0.166590  1.0  -0.749
  O  O88  1  0.858670  0.509300  0.666590  1.0  -0.7481
  O  O89  1  0.490700  0.349370  0.666590  1.0  -0.7519
  O  O90  1  0.650630  0.141330  0.666590  1.0  -0.7481
  O  O91  1  0.349370  0.490700  0.166590  1.0  -0.7488
  O  O92  1  0.141330  0.650630  0.166590  1.0  -0.7525
  O  O93  1  0.509300  0.858670  0.166590  1.0  -0.7472
  O  O94  1  0.650630  0.509300  0.666590  1.0  -0.7499
  O  O95  1  0.858670  0.349370  0.666590  1.0  -0.7502
  O  O96  1  0.490700  0.141330  0.666590  1.0  -0.749
  O  O97  1  0.858670  0.509300  0.833410  1.0  -0.7492
  O  O98  1  0.490700  0.349370  0.833410  1.0  -0.7529
  O  O99  1  0.650630  0.141330  0.833410  1.0  -0.7488
  O  O100  1  0.141330  0.490700  0.333410  1.0  -0.7501
  O  O101  1  0.509300  0.650630  0.333410  1.0  -0.7517
  O  O102  1  0.349370  0.858670  0.333410  1.0  -0.75
  O  O103  1  0.666667  0.333333  0.750000  1.0  -1.1823
  O  O104  1  0.333333  0.666667  0.250000  1.0  -1.1823
