# generated using pymatgen
data_Sc3H30C54O13
_symmetry_space_group_name_H-M   'P 1'
_cell_length_a   16.84300000
_cell_length_b   31.47000000
_cell_length_c   31.47000000
_cell_angle_alpha   120.00000000
_cell_angle_beta   90.00000000
_cell_angle_gamma   90.00000000
_symmetry_Int_Tables_number   1
_chemical_formula_structural   Sc3H30C54O13
_chemical_formula_sum   'Sc18 H180 C324 O78'
_cell_volume   14445.86547272
_cell_formula_units_Z   6
loop_
 _symmetry_equiv_pos_site_id
 _symmetry_equiv_pos_as_xyz
  1  'x, y, z'
loop_
 _atom_site_type_symbol
 _atom_site_label
 _atom_site_symmetry_multiplicity
 _atom_site_fract_x
 _atom_site_fract_y
 _atom_site_fract_z
 _atom_site_occupancy
 _atom_site_charge
  Sc  Sc1  1  0.647260  0.570590  0.498630  1.0  2.0158
  Sc  Sc2  1  0.647260  0.928040  0.429410  1.0  2.0179
  Sc  Sc3  1  0.647260  0.501370  0.071960  1.0  2.0158
  Sc  Sc4  1  0.852740  0.570590  0.498630  1.0  2.0162
  Sc  Sc5  1  0.852740  0.928040  0.429410  1.0  2.0183
  Sc  Sc6  1  0.852740  0.501370  0.071960  1.0  2.0161
  Sc  Sc7  1  0.352740  0.071960  0.501370  1.0  2.018
  Sc  Sc8  1  0.352740  0.498630  0.570590  1.0  2.0164
  Sc  Sc9  1  0.352740  0.429410  0.928040  1.0  2.0165
  Sc  Sc10  1  0.147260  0.071960  0.501370  1.0  2.0174
  Sc  Sc11  1  0.147260  0.498630  0.570590  1.0  2.0163
  Sc  Sc12  1  0.147260  0.429410  0.928040  1.0  2.0163
  Sc  Sc13  1  0.750000  0.642120  0.460960  1.0  2.0125
  Sc  Sc14  1  0.750000  0.818840  0.357880  1.0  2.0131
  Sc  Sc15  1  0.750000  0.539040  0.181160  1.0  2.0077
  Sc  Sc16  1  0.250000  0.181160  0.539040  1.0  2.0137
  Sc  Sc17  1  0.250000  0.460960  0.642120  1.0  2.0083
  Sc  Sc18  1  0.250000  0.357880  0.818840  1.0  2.0127
  H  H19  1  0.366000  0.519900  0.159900  1.0  0.125
  H  H20  1  0.371200  0.734000  0.610000  1.0  0.0765
  H  H21  1  0.368900  0.549200  0.232400  1.0  0.1003
  H  H22  1  0.469700  0.599600  0.292700  1.0  0.0838
  H  H23  1  0.367100  0.475600  0.074600  1.0  0.1001
  H  H24  1  0.478400  0.682800  0.587600  1.0  0.104
  H  H25  1  0.367600  0.852200  0.577800  1.0  0.089
  H  H26  1  0.567600  0.744400  0.513300  1.0  0.1007
  H  H27  1  0.582400  0.603600  0.336100  1.0  0.0872
  H  H28  1  0.453100  0.791500  0.531100  1.0  0.0851
  H  H29  1  0.457500  0.553700  0.410600  1.0  0.0906
  H  H30  1  0.346800  0.549400  0.367100  1.0  0.0827
  H  H31  1  0.347000  0.939100  0.616000  1.0  0.1066
  H  H32  1  0.354700  0.996700  0.591400  1.0  0.0898
  H  H33  1  0.366000  0.640000  0.480100  1.0  0.1257
  H  H34  1  0.371200  0.876000  0.266000  1.0  0.0793
  H  H35  1  0.368900  0.683200  0.450800  1.0  0.101
  H  H36  1  0.469700  0.693100  0.400400  1.0  0.0832
  H  H37  1  0.367100  0.599000  0.524400  1.0  0.1002
  H  H38  1  0.478400  0.904800  0.317200  1.0  0.1025
  H  H39  1  0.367600  0.725600  0.147800  1.0  0.0899
  H  H40  1  0.567600  0.768900  0.255600  1.0  0.0997
  H  H41  1  0.582400  0.732500  0.396400  1.0  0.0881
  H  H42  1  0.453100  0.739600  0.208500  1.0  0.087
  H  H43  1  0.457500  0.856900  0.446300  1.0  0.0901
  H  H44  1  0.346800  0.817700  0.450600  1.0  0.0839
  H  H45  1  0.347000  0.676900  0.060900  1.0  0.1064
  H  H46  1  0.354700  0.594700  0.003300  1.0  0.089
  H  H47  1  0.366000  0.840100  0.360000  1.0  0.1244
  H  H48  1  0.371200  0.390000  0.124000  1.0  0.0763
  H  H49  1  0.368900  0.767600  0.316800  1.0  0.101
  H  H50  1  0.469700  0.707300  0.306900  1.0  0.082
  H  H51  1  0.367100  0.925400  0.401000  1.0  0.1001
  H  H52  1  0.478400  0.412400  0.095200  1.0  0.1036
  H  H53  1  0.367600  0.422200  0.274400  1.0  0.0882
  H  H54  1  0.567600  0.486700  0.231100  1.0  0.1007
  H  H55  1  0.582400  0.663900  0.267500  1.0  0.0875
  H  H56  1  0.453100  0.468900  0.260400  1.0  0.0851
  H  H57  1  0.457500  0.589400  0.143100  1.0  0.091
  H  H58  1  0.346800  0.632900  0.182300  1.0  0.0832
  H  H59  1  0.347000  0.384000  0.323100  1.0  0.1063
  H  H60  1  0.354700  0.408600  0.405300  1.0  0.0885
  H  H61  1  0.134000  0.519900  0.159900  1.0  0.1255
  H  H62  1  0.128800  0.734000  0.610000  1.0  0.0763
  H  H63  1  0.131100  0.549200  0.232400  1.0  0.0992
  H  H64  1  0.030300  0.599600  0.292700  1.0  0.0839
  H  H65  1  0.132900  0.475600  0.074600  1.0  0.0998
  H  H66  1  0.021600  0.682800  0.587600  1.0  0.1041
  H  H67  1  0.132400  0.852200  0.577800  1.0  0.089
  H  H68  1  0.932400  0.744400  0.513300  1.0  0.1005
  H  H69  1  0.917600  0.603600  0.336100  1.0  0.0867
  H  H70  1  0.046900  0.791500  0.531100  1.0  0.0852
  H  H71  1  0.042500  0.553700  0.410600  1.0  0.0908
  H  H72  1  0.153200  0.549400  0.367100  1.0  0.0842
  H  H73  1  0.153000  0.939100  0.616000  1.0  0.1071
  H  H74  1  0.145300  0.996700  0.591400  1.0  0.0899
  H  H75  1  0.134000  0.640000  0.480100  1.0  0.1259
  H  H76  1  0.128800  0.876000  0.266000  1.0  0.0789
  H  H77  1  0.131100  0.683200  0.450800  1.0  0.0995
  H  H78  1  0.030300  0.693100  0.400400  1.0  0.083
  H  H79  1  0.132900  0.599000  0.524400  1.0  0.1003
  H  H80  1  0.021600  0.904800  0.317200  1.0  0.1025
  H  H81  1  0.132400  0.725600  0.147800  1.0  0.0889
  H  H82  1  0.932400  0.768900  0.255600  1.0  0.0994
  H  H83  1  0.917600  0.732500  0.396400  1.0  0.0875
  H  H84  1  0.046900  0.739600  0.208500  1.0  0.0858
  H  H85  1  0.042500  0.856900  0.446300  1.0  0.0901
  H  H86  1  0.153200  0.817700  0.450600  1.0  0.0837
  H  H87  1  0.153000  0.676900  0.060900  1.0  0.1065
  H  H88  1  0.145300  0.594700  0.003300  1.0  0.0891
  H  H89  1  0.134000  0.840100  0.360000  1.0  0.1251
  H  H90  1  0.128800  0.390000  0.124000  1.0  0.0777
  H  H91  1  0.131100  0.767600  0.316800  1.0  0.0996
  H  H92  1  0.030300  0.707300  0.306900  1.0  0.0821
  H  H93  1  0.132900  0.925400  0.401000  1.0  0.0998
  H  H94  1  0.021600  0.412400  0.095200  1.0  0.1037
  H  H95  1  0.132400  0.422200  0.274400  1.0  0.0885
  H  H96  1  0.932400  0.486700  0.231100  1.0  0.1006
  H  H97  1  0.917600  0.663900  0.267500  1.0  0.0868
  H  H98  1  0.046900  0.468900  0.260400  1.0  0.0854
  H  H99  1  0.042500  0.589400  0.143100  1.0  0.0907
  H  H100  1  0.153200  0.632900  0.182300  1.0  0.0839
  H  H101  1  0.153000  0.384000  0.323100  1.0  0.1056
  H  H102  1  0.145300  0.408600  0.405300  1.0  0.0891
  H  H103  1  0.634000  0.360000  0.840100  1.0  0.1257
  H  H104  1  0.628800  0.124000  0.390000  1.0  0.0774
  H  H105  1  0.631100  0.316800  0.767600  1.0  0.0996
  H  H106  1  0.530300  0.306900  0.707300  1.0  0.083
  H  H107  1  0.632900  0.401000  0.925400  1.0  0.1
  H  H108  1  0.521600  0.095200  0.412400  1.0  0.1027
  H  H109  1  0.632400  0.274400  0.422200  1.0  0.0887
  H  H110  1  0.432400  0.231100  0.486700  1.0  0.1
  H  H111  1  0.417600  0.267500  0.663900  1.0  0.0873
  H  H112  1  0.546900  0.260400  0.468900  1.0  0.0853
  H  H113  1  0.542500  0.143100  0.589400  1.0  0.0905
  H  H114  1  0.653200  0.182300  0.632900  1.0  0.0836
  H  H115  1  0.653000  0.323100  0.384000  1.0  0.1056
  H  H116  1  0.645300  0.405300  0.408600  1.0  0.0887
  H  H117  1  0.634000  0.159900  0.519900  1.0  0.1246
  H  H118  1  0.628800  0.610000  0.734000  1.0  0.0772
  H  H119  1  0.631100  0.232400  0.549200  1.0  0.0994
  H  H120  1  0.530300  0.292700  0.599600  1.0  0.0824
  H  H121  1  0.632900  0.074600  0.475600  1.0  0.0998
  H  H122  1  0.521600  0.587600  0.682800  1.0  0.1041
  H  H123  1  0.632400  0.577800  0.852200  1.0  0.0888
  H  H124  1  0.432400  0.513300  0.744400  1.0  0.1004
  H  H125  1  0.417600  0.336100  0.603600  1.0  0.0869
  H  H126  1  0.546900  0.531100  0.791500  1.0  0.0843
  H  H127  1  0.542500  0.410600  0.553700  1.0  0.0907
  H  H128  1  0.653200  0.367100  0.549400  1.0  0.0839
  H  H129  1  0.653000  0.616000  0.939100  1.0  0.1069
  H  H130  1  0.645300  0.591400  0.996700  1.0  0.0883
  H  H131  1  0.634000  0.480100  0.640000  1.0  0.1258
  H  H132  1  0.628800  0.266000  0.876000  1.0  0.0777
  H  H133  1  0.631100  0.450800  0.683200  1.0  0.0992
  H  H134  1  0.530300  0.400400  0.693100  1.0  0.0839
  H  H135  1  0.632900  0.524400  0.599000  1.0  0.0997
  H  H136  1  0.521600  0.317200  0.904800  1.0  0.1039
  H  H137  1  0.632400  0.147800  0.725600  1.0  0.0891
  H  H138  1  0.432400  0.255600  0.768900  1.0  0.1004
  H  H139  1  0.417600  0.396400  0.732500  1.0  0.0865
  H  H140  1  0.546900  0.208500  0.739600  1.0  0.0861
  H  H141  1  0.542500  0.446300  0.856900  1.0  0.0906
  H  H142  1  0.653200  0.450600  0.817700  1.0  0.0837
  H  H143  1  0.653000  0.060900  0.676900  1.0  0.1066
  H  H144  1  0.645300  0.003300  0.594700  1.0  0.0901
  H  H145  1  0.866000  0.360000  0.840100  1.0  0.1251
  H  H146  1  0.871200  0.124000  0.390000  1.0  0.0787
  H  H147  1  0.868900  0.316800  0.767600  1.0  0.1009
  H  H148  1  0.969700  0.306900  0.707300  1.0  0.0831
  H  H149  1  0.867100  0.401000  0.925400  1.0  0.1
  H  H150  1  0.978400  0.095200  0.412400  1.0  0.1028
  H  H151  1  0.867600  0.274400  0.422200  1.0  0.0897
  H  H152  1  0.067600  0.231100  0.486700  1.0  0.1001
  H  H153  1  0.082400  0.267500  0.663900  1.0  0.0881
  H  H154  1  0.953100  0.260400  0.468900  1.0  0.086
  H  H155  1  0.957500  0.143100  0.589400  1.0  0.0912
  H  H156  1  0.846800  0.182300  0.632900  1.0  0.0831
  H  H157  1  0.847000  0.323100  0.384000  1.0  0.1064
  H  H158  1  0.854700  0.405300  0.408600  1.0  0.0889
  H  H159  1  0.866000  0.159900  0.519900  1.0  0.1244
  H  H160  1  0.871200  0.610000  0.734000  1.0  0.0778
  H  H161  1  0.868900  0.232400  0.549200  1.0  0.101
  H  H162  1  0.969700  0.292700  0.599600  1.0  0.0823
  H  H163  1  0.867100  0.074600  0.475600  1.0  0.0998
  H  H164  1  0.978400  0.587600  0.682800  1.0  0.1039
  H  H165  1  0.867600  0.577800  0.852200  1.0  0.0884
  H  H166  1  0.067600  0.513300  0.744400  1.0  0.1004
  H  H167  1  0.082400  0.336100  0.603600  1.0  0.0877
  H  H168  1  0.953100  0.531100  0.791500  1.0  0.0842
  H  H169  1  0.957500  0.410600  0.553700  1.0  0.0909
  H  H170  1  0.846800  0.367100  0.549400  1.0  0.0837
  H  H171  1  0.847000  0.616000  0.939100  1.0  0.1067
  H  H172  1  0.854700  0.591400  0.996700  1.0  0.0885
  H  H173  1  0.866000  0.480100  0.640000  1.0  0.1252
  H  H174  1  0.871200  0.266000  0.876000  1.0  0.0773
  H  H175  1  0.868900  0.450800  0.683200  1.0  0.1007
  H  H176  1  0.969700  0.400400  0.693100  1.0  0.0837
  H  H177  1  0.867100  0.524400  0.599000  1.0  0.1
  H  H178  1  0.978400  0.317200  0.904800  1.0  0.1037
  H  H179  1  0.867600  0.147800  0.725600  1.0  0.0891
  H  H180  1  0.067600  0.255600  0.768900  1.0  0.1005
  H  H181  1  0.082400  0.396400  0.732500  1.0  0.0873
  H  H182  1  0.953100  0.208500  0.739600  1.0  0.0861
  H  H183  1  0.957500  0.446300  0.856900  1.0  0.0907
  H  H184  1  0.846800  0.450600  0.817700  1.0  0.0832
  H  H185  1  0.847000  0.060900  0.676900  1.0  0.1065
  H  H186  1  0.854700  0.003300  0.594700  1.0  0.0895
  H  H187  1  0.250000  0.592100  0.356800  1.0  0.0697
  H  H188  1  0.250000  0.740700  0.571800  1.0  0.0713
  H  H189  1  0.250000  0.764700  0.407900  1.0  0.0701
  H  H190  1  0.250000  0.831100  0.259300  1.0  0.0703
  H  H191  1  0.250000  0.643200  0.235300  1.0  0.0705
  H  H192  1  0.250000  0.428200  0.168900  1.0  0.0712
  H  H193  1  0.750000  0.235300  0.643200  1.0  0.0699
  H  H194  1  0.750000  0.168900  0.428200  1.0  0.0695
  H  H195  1  0.750000  0.356800  0.592100  1.0  0.0703
  H  H196  1  0.750000  0.571800  0.740700  1.0  0.0705
  H  H197  1  0.750000  0.407900  0.764700  1.0  0.0702
  H  H198  1  0.750000  0.259300  0.831100  1.0  0.0708
  C  C199  1  0.321400  0.571100  0.299900  1.0  0.004
  C  C200  1  0.395800  0.574400  0.326300  1.0  0.023
  C  C201  1  0.532000  0.580100  0.379500  1.0  -0.1076
  C  C202  1  0.317800  0.510400  0.143300  1.0  -0.1406
  C  C203  1  0.394700  0.766800  0.571400  1.0  0.0425
  C  C204  1  0.408600  0.735300  0.588900  1.0  -0.0694
  C  C205  1  0.321100  0.554400  0.249000  1.0  -0.1294
  C  C206  1  0.467500  0.590600  0.316700  1.0  -0.1191
  C  C207  1  0.319200  0.483700  0.091600  1.0  -0.1484
  C  C208  1  0.321300  0.793400  0.577100  1.0  0.0441
  C  C209  1  0.474200  0.705700  0.577300  1.0  -0.1139
  C  C210  1  0.319800  0.837400  0.577700  1.0  -0.1689
  C  C211  1  0.527600  0.741700  0.532200  1.0  -0.1109
  C  C212  1  0.534700  0.593100  0.342700  1.0  -0.0575
  C  C213  1  0.458100  0.769900  0.543000  1.0  -0.1416
  C  C214  1  0.602100  0.676900  0.532100  1.0  0.7343
  C  C215  1  0.601700  0.583000  0.408300  1.0  0.6879
  C  C216  1  0.460500  0.563400  0.387200  1.0  -0.047
  C  C217  1  0.394000  0.560700  0.361000  1.0  -0.1802
  C  C218  1  0.534800  0.710700  0.549600  1.0  -0.0999
  C  C219  1  0.308900  0.940200  0.595100  1.0  -0.2235
  C  C220  1  0.310100  0.976700  0.582600  1.0  -0.167
  C  C221  1  0.321400  0.728800  0.428900  1.0  0.0044
  C  C222  1  0.395800  0.751900  0.425600  1.0  0.0237
  C  C223  1  0.532000  0.799400  0.419900  1.0  -0.1089
  C  C224  1  0.317800  0.632900  0.489600  1.0  -0.1381
  C  C225  1  0.394700  0.804600  0.233200  1.0  0.0439
  C  C226  1  0.408600  0.853600  0.264700  1.0  -0.0682
  C  C227  1  0.321100  0.694600  0.445600  1.0  -0.13
  C  C228  1  0.467500  0.726100  0.409400  1.0  -0.1186
  C  C229  1  0.319200  0.607900  0.516300  1.0  -0.1485
  C  C230  1  0.321300  0.783700  0.206600  1.0  0.0386
  C  C231  1  0.474200  0.871600  0.294300  1.0  -0.1125
  C  C232  1  0.319800  0.740300  0.162600  1.0  -0.1688
  C  C233  1  0.527600  0.790500  0.258300  1.0  -0.1117
  C  C234  1  0.534700  0.749600  0.406900  1.0  -0.0571
  C  C235  1  0.458100  0.773100  0.230100  1.0  -0.1388
  C  C236  1  0.602100  0.855200  0.323100  1.0  0.7328
  C  C237  1  0.601700  0.825300  0.417000  1.0  0.6886
  C  C238  1  0.460500  0.823800  0.436600  1.0  -0.0478
  C  C239  1  0.394000  0.800300  0.439300  1.0  -0.1822
  C  C240  1  0.534800  0.838900  0.289300  1.0  -0.0991
  C  C241  1  0.308900  0.654900  0.059800  1.0  -0.2259
  C  C242  1  0.310100  0.605900  0.023300  1.0  -0.1685
  C  C243  1  0.321400  0.700100  0.271200  1.0  0.0053
  C  C244  1  0.395800  0.673700  0.248100  1.0  0.0241
  C  C245  1  0.532000  0.620500  0.200600  1.0  -0.1077
  C  C246  1  0.317800  0.856700  0.367100  1.0  -0.1372
  C  C247  1  0.394700  0.428600  0.195400  1.0  0.0385
  C  C248  1  0.408600  0.411100  0.146400  1.0  -0.0691
  C  C249  1  0.321100  0.751000  0.305400  1.0  -0.1305
  C  C250  1  0.467500  0.683300  0.273900  1.0  -0.1192
  C  C251  1  0.319200  0.908400  0.392100  1.0  -0.1491
  C  C252  1  0.321300  0.422900  0.216300  1.0  0.0424
  C  C253  1  0.474200  0.422700  0.128400  1.0  -0.1112
  C  C254  1  0.319800  0.422300  0.259700  1.0  -0.1688
  C  C255  1  0.527600  0.467800  0.209500  1.0  -0.1104
  C  C256  1  0.534700  0.657300  0.250400  1.0  -0.0585
  C  C257  1  0.458100  0.457000  0.226900  1.0  -0.1409
  C  C258  1  0.602100  0.467900  0.144800  1.0  0.7338
  C  C259  1  0.601700  0.591700  0.174700  1.0  0.6887
  C  C260  1  0.460500  0.612800  0.176200  1.0  -0.0418
  C  C261  1  0.394000  0.639000  0.199700  1.0  -0.1785
  C  C262  1  0.534800  0.450400  0.161100  1.0  -0.0991
  C  C263  1  0.308900  0.404900  0.345100  1.0  -0.2245
  C  C264  1  0.310100  0.417400  0.394100  1.0  -0.1682
  C  C265  1  0.178600  0.571100  0.299900  1.0  0.0043
  C  C266  1  0.104200  0.574400  0.326300  1.0  0.0232
  C  C267  1  0.968000  0.580100  0.379500  1.0  -0.1095
  C  C268  1  0.182200  0.510400  0.143300  1.0  -0.1385
  C  C269  1  0.105300  0.766800  0.571400  1.0  0.0423
  C  C270  1  0.091400  0.735300  0.588900  1.0  -0.069
  C  C271  1  0.178900  0.554400  0.249000  1.0  -0.1314
  C  C272  1  0.032500  0.590600  0.316700  1.0  -0.1175
  C  C273  1  0.180800  0.483700  0.091600  1.0  -0.1492
  C  C274  1  0.178700  0.793400  0.577100  1.0  0.0422
  C  C275  1  0.025800  0.705700  0.577300  1.0  -0.1147
  C  C276  1  0.180200  0.837400  0.577700  1.0  -0.1719
  C  C277  1  0.972400  0.741700  0.532200  1.0  -0.1118
  C  C278  1  0.965300  0.593100  0.342700  1.0  -0.0578
  C  C279  1  0.041900  0.769900  0.543000  1.0  -0.1412
  C  C280  1  0.897900  0.676900  0.532100  1.0  0.7349
  C  C281  1  0.898300  0.583000  0.408300  1.0  0.6872
  C  C282  1  0.039500  0.563400  0.387200  1.0  -0.0482
  C  C283  1  0.106000  0.560700  0.361000  1.0  -0.1826
  C  C284  1  0.965200  0.710700  0.549600  1.0  -0.1017
  C  C285  1  0.191100  0.940200  0.595100  1.0  -0.2241
  C  C286  1  0.189900  0.976700  0.582600  1.0  -0.1684
  C  C287  1  0.178600  0.728800  0.428900  1.0  0.0048
  C  C288  1  0.104200  0.751900  0.425600  1.0  0.0237
  C  C289  1  0.968000  0.799400  0.419900  1.0  -0.1101
  C  C290  1  0.182200  0.632900  0.489600  1.0  -0.1362
  C  C291  1  0.105300  0.804600  0.233200  1.0  0.0446
  C  C292  1  0.091400  0.853600  0.264700  1.0  -0.0676
  C  C293  1  0.178900  0.694600  0.445600  1.0  -0.1318
  C  C294  1  0.032500  0.726100  0.409400  1.0  -0.1174
  C  C295  1  0.180800  0.607900  0.516300  1.0  -0.15
  C  C296  1  0.178700  0.783700  0.206600  1.0  0.0385
  C  C297  1  0.025800  0.871600  0.294300  1.0  -0.1102
  C  C298  1  0.180200  0.740300  0.162600  1.0  -0.1713
  C  C299  1  0.972400  0.790500  0.258300  1.0  -0.112
  C  C300  1  0.965300  0.749600  0.406900  1.0  -0.0573
  C  C301  1  0.041900  0.773100  0.230100  1.0  -0.1374
  C  C302  1  0.897900  0.855200  0.323100  1.0  0.7339
  C  C303  1  0.898300  0.825300  0.417000  1.0  0.6879
  C  C304  1  0.039500  0.823800  0.436600  1.0  -0.047
  C  C305  1  0.106000  0.800300  0.439300  1.0  -0.1831
  C  C306  1  0.965200  0.838900  0.289300  1.0  -0.1015
  C  C307  1  0.191100  0.654900  0.059800  1.0  -0.2265
  C  C308  1  0.189900  0.605900  0.023300  1.0  -0.1688
  C  C309  1  0.178600  0.700100  0.271200  1.0  0.0053
  C  C310  1  0.104200  0.673700  0.248100  1.0  0.024
  C  C311  1  0.968000  0.620500  0.200600  1.0  -0.1089
  C  C312  1  0.182200  0.856700  0.367100  1.0  -0.1349
  C  C313  1  0.105300  0.428600  0.195400  1.0  0.0387
  C  C314  1  0.091400  0.411100  0.146400  1.0  -0.0692
  C  C315  1  0.178900  0.751000  0.305400  1.0  -0.1325
  C  C316  1  0.032500  0.683300  0.273900  1.0  -0.1182
  C  C317  1  0.180800  0.908400  0.392100  1.0  -0.149
  C  C318  1  0.178700  0.422900  0.216300  1.0  0.0423
  C  C319  1  0.025800  0.422700  0.128400  1.0  -0.1108
  C  C320  1  0.180200  0.422300  0.259700  1.0  -0.1713
  C  C321  1  0.972400  0.467800  0.209500  1.0  -0.1111
  C  C322  1  0.965300  0.657300  0.250400  1.0  -0.0586
  C  C323  1  0.041900  0.457000  0.226900  1.0  -0.1405
  C  C324  1  0.897900  0.467900  0.144800  1.0  0.7347
  C  C325  1  0.898300  0.591700  0.174700  1.0  0.6886
  C  C326  1  0.039500  0.612800  0.176200  1.0  -0.042
  C  C327  1  0.106000  0.639000  0.199700  1.0  -0.1799
  C  C328  1  0.965200  0.450400  0.161100  1.0  -0.1025
  C  C329  1  0.191100  0.404900  0.345100  1.0  -0.2246
  C  C330  1  0.189900  0.417400  0.394100  1.0  -0.169
  C  C331  1  0.678600  0.271200  0.700100  1.0  0.0046
  C  C332  1  0.604200  0.248100  0.673700  1.0  0.0239
  C  C333  1  0.468000  0.200600  0.620500  1.0  -0.1104
  C  C334  1  0.682200  0.367100  0.856700  1.0  -0.1357
  C  C335  1  0.605300  0.195400  0.428600  1.0  0.0451
  C  C336  1  0.591400  0.146400  0.411100  1.0  -0.0663
  C  C337  1  0.678900  0.305400  0.751000  1.0  -0.1321
  C  C338  1  0.532500  0.273900  0.683300  1.0  -0.1179
  C  C339  1  0.680800  0.392100  0.908400  1.0  -0.1509
  C  C340  1  0.678700  0.216300  0.422900  1.0  0.0364
  C  C341  1  0.525800  0.128400  0.422700  1.0  -0.1107
  C  C342  1  0.680200  0.259700  0.422300  1.0  -0.171
  C  C343  1  0.472400  0.209500  0.467800  1.0  -0.112
  C  C344  1  0.465300  0.250400  0.657300  1.0  -0.0576
  C  C345  1  0.541900  0.226900  0.457000  1.0  -0.1382
  C  C346  1  0.397900  0.144800  0.467900  1.0  0.7345
  C  C347  1  0.398300  0.174700  0.591700  1.0  0.6884
  C  C348  1  0.539500  0.176200  0.612800  1.0  -0.0494
  C  C349  1  0.606000  0.199700  0.639000  1.0  -0.1831
  C  C350  1  0.465200  0.161100  0.450400  1.0  -0.1018
  C  C351  1  0.691100  0.345100  0.404900  1.0  -0.2257
  C  C352  1  0.689900  0.394100  0.417400  1.0  -0.1701
  C  C353  1  0.678600  0.299900  0.571100  1.0  0.0047
  C  C354  1  0.604200  0.326300  0.574400  1.0  0.0236
  C  C355  1  0.468000  0.379500  0.580100  1.0  -0.1083
  C  C356  1  0.682200  0.143300  0.510400  1.0  -0.1342
  C  C357  1  0.605300  0.571400  0.766800  1.0  0.04
  C  C358  1  0.591400  0.588900  0.735300  1.0  -0.0662
  C  C359  1  0.678900  0.249000  0.554400  1.0  -0.1328
  C  C360  1  0.532500  0.316700  0.590600  1.0  -0.1186
  C  C361  1  0.680800  0.091600  0.483700  1.0  -0.1483
  C  C362  1  0.678700  0.577100  0.793400  1.0  0.0443
  C  C363  1  0.525800  0.577300  0.705700  1.0  -0.1132
  C  C364  1  0.680200  0.577700  0.837400  1.0  -0.1714
  C  C365  1  0.472400  0.532200  0.741700  1.0  -0.1107
  C  C366  1  0.465300  0.342700  0.593100  1.0  -0.0591
  C  C367  1  0.541900  0.543000  0.769900  1.0  -0.1402
  C  C368  1  0.397900  0.532100  0.676900  1.0  0.7355
  C  C369  1  0.398300  0.408300  0.583000  1.0  0.6888
  C  C370  1  0.539500  0.387200  0.563400  1.0  -0.0421
  C  C371  1  0.606000  0.361000  0.560700  1.0  -0.1806
  C  C372  1  0.465200  0.549600  0.710700  1.0  -0.1024
  C  C373  1  0.691100  0.595100  0.940200  1.0  -0.2245
  C  C374  1  0.689900  0.582600  0.976700  1.0  -0.169
  C  C375  1  0.678600  0.428900  0.728800  1.0  0.0046
  C  C376  1  0.604200  0.425600  0.751900  1.0  0.0232
  C  C377  1  0.468000  0.419900  0.799400  1.0  -0.1096
  C  C378  1  0.682200  0.489600  0.632900  1.0  -0.1388
  C  C379  1  0.605300  0.233200  0.804600  1.0  0.0415
  C  C380  1  0.591400  0.264700  0.853600  1.0  -0.0688
  C  C381  1  0.678900  0.445600  0.694600  1.0  -0.1314
  C  C382  1  0.532500  0.409400  0.726100  1.0  -0.1171
  C  C383  1  0.680800  0.516300  0.607900  1.0  -0.1491
  C  C384  1  0.678700  0.206600  0.783700  1.0  0.0446
  C  C385  1  0.525800  0.294300  0.871600  1.0  -0.1143
  C  C386  1  0.680200  0.162600  0.740300  1.0  -0.1732
  C  C387  1  0.472400  0.258300  0.790500  1.0  -0.112
  C  C388  1  0.465300  0.406900  0.749600  1.0  -0.0581
  C  C389  1  0.541900  0.230100  0.773100  1.0  -0.1406
  C  C390  1  0.397900  0.323100  0.855200  1.0  0.7354
  C  C391  1  0.398300  0.417000  0.825300  1.0  0.687
  C  C392  1  0.539500  0.436600  0.823800  1.0  -0.0481
  C  C393  1  0.606000  0.439300  0.800300  1.0  -0.1827
  C  C394  1  0.465200  0.289300  0.838900  1.0  -0.1019
  C  C395  1  0.691100  0.059800  0.654900  1.0  -0.2241
  C  C396  1  0.689900  0.023300  0.605900  1.0  -0.1696
  C  C397  1  0.821400  0.271200  0.700100  1.0  0.0043
  C  C398  1  0.895800  0.248100  0.673700  1.0  0.0239
  C  C399  1  0.032000  0.200600  0.620500  1.0  -0.1088
  C  C400  1  0.817800  0.367100  0.856700  1.0  -0.1381
  C  C401  1  0.894700  0.195400  0.428600  1.0  0.0445
  C  C402  1  0.908600  0.146400  0.411100  1.0  -0.0665
  C  C403  1  0.821100  0.305400  0.751000  1.0  -0.1301
  C  C404  1  0.967500  0.273900  0.683300  1.0  -0.1196
  C  C405  1  0.819200  0.392100  0.908400  1.0  -0.1491
  C  C406  1  0.821300  0.216300  0.422900  1.0  0.0364
  C  C407  1  0.974200  0.128400  0.422700  1.0  -0.111
  C  C408  1  0.819800  0.259700  0.422300  1.0  -0.169
  C  C409  1  0.027600  0.209500  0.467800  1.0  -0.1098
  C  C410  1  0.034700  0.250400  0.657300  1.0  -0.0571
  C  C411  1  0.958100  0.226900  0.457000  1.0  -0.1387
  C  C412  1  0.102100  0.144800  0.467900  1.0  0.733
  C  C413  1  0.101700  0.174700  0.591700  1.0  0.6891
  C  C414  1  0.960500  0.176200  0.612800  1.0  -0.0491
  C  C415  1  0.894000  0.199700  0.639000  1.0  -0.1809
  C  C416  1  0.034800  0.161100  0.450400  1.0  -0.0987
  C  C417  1  0.808900  0.345100  0.404900  1.0  -0.2264
  C  C418  1  0.810100  0.394100  0.417400  1.0  -0.1668
  C  C419  1  0.821400  0.299900  0.571100  1.0  0.0045
  C  C420  1  0.895800  0.326300  0.574400  1.0  0.0237
  C  C421  1  0.032000  0.379500  0.580100  1.0  -0.1072
  C  C422  1  0.817800  0.143300  0.510400  1.0  -0.1377
  C  C423  1  0.894700  0.571400  0.766800  1.0  0.0403
  C  C424  1  0.908600  0.588900  0.735300  1.0  -0.0673
  C  C425  1  0.821100  0.249000  0.554400  1.0  -0.1305
  C  C426  1  0.967500  0.316700  0.590600  1.0  -0.1194
  C  C427  1  0.819200  0.091600  0.483700  1.0  -0.1479
  C  C428  1  0.821300  0.577100  0.793400  1.0  0.0452
  C  C429  1  0.974200  0.577300  0.705700  1.0  -0.1142
  C  C430  1  0.819800  0.577700  0.837400  1.0  -0.1688
  C  C431  1  0.027600  0.532200  0.741700  1.0  -0.1109
  C  C432  1  0.034700  0.342700  0.593100  1.0  -0.0579
  C  C433  1  0.958100  0.543000  0.769900  1.0  -0.1397
  C  C434  1  0.102100  0.532100  0.676900  1.0  0.7339
  C  C435  1  0.101700  0.408300  0.583000  1.0  0.6886
  C  C436  1  0.960500  0.387200  0.563400  1.0  -0.0418
  C  C437  1  0.894000  0.361000  0.560700  1.0  -0.1796
  C  C438  1  0.034800  0.549600  0.710700  1.0  -0.1
  C  C439  1  0.808900  0.595100  0.940200  1.0  -0.2244
  C  C440  1  0.810100  0.582600  0.976700  1.0  -0.1651
  C  C441  1  0.821400  0.428900  0.728800  1.0  0.0045
  C  C442  1  0.895800  0.425600  0.751900  1.0  0.023
  C  C443  1  0.032000  0.419900  0.799400  1.0  -0.1083
  C  C444  1  0.817800  0.489600  0.632900  1.0  -0.1413
  C  C445  1  0.894700  0.233200  0.804600  1.0  0.0415
  C  C446  1  0.908600  0.264700  0.853600  1.0  -0.0685
  C  C447  1  0.821100  0.445600  0.694600  1.0  -0.13
  C  C448  1  0.967500  0.409400  0.726100  1.0  -0.1187
  C  C449  1  0.819200  0.516300  0.607900  1.0  -0.1483
  C  C450  1  0.821300  0.206600  0.783700  1.0  0.0458
  C  C451  1  0.974200  0.294300  0.871600  1.0  -0.1131
  C  C452  1  0.819800  0.162600  0.740300  1.0  -0.1702
  C  C453  1  0.027600  0.258300  0.790500  1.0  -0.1108
  C  C454  1  0.034700  0.406900  0.749600  1.0  -0.0578
  C  C455  1  0.958100  0.230100  0.773100  1.0  -0.1402
  C  C456  1  0.102100  0.323100  0.855200  1.0  0.735
  C  C457  1  0.101700  0.417000  0.825300  1.0  0.6871
  C  C458  1  0.960500  0.436600  0.823800  1.0  -0.0471
  C  C459  1  0.894000  0.439300  0.800300  1.0  -0.181
  C  C460  1  0.034800  0.289300  0.838900  1.0  -0.1
  C  C461  1  0.808900  0.059800  0.654900  1.0  -0.224
  C  C462  1  0.810100  0.023300  0.605900  1.0  -0.1665
  C  C463  1  0.250000  0.579600  0.323000  1.0  -0.1377
  C  C464  1  0.250000  0.985600  0.558000  1.0  -0.0191
  C  C465  1  0.250000  0.023200  0.546900  1.0  0.7311
  C  C466  1  0.250000  0.440900  0.013100  1.0  0.7135
  C  C467  1  0.250000  0.523000  0.170300  1.0  0.0394
  C  C468  1  0.250000  0.906200  0.575800  1.0  -0.0587
  C  C469  1  0.250000  0.771700  0.574900  1.0  -0.1452
  C  C470  1  0.250000  0.860100  0.577800  1.0  0.0305
  C  C471  1  0.250000  0.545600  0.223600  1.0  -0.1164
  C  C472  1  0.250000  0.470300  0.067600  1.0  -0.0468
  C  C473  1  0.250000  0.743400  0.420400  1.0  -0.1385
  C  C474  1  0.250000  0.572400  0.014400  1.0  -0.0193
  C  C475  1  0.250000  0.523700  0.976800  1.0  0.7295
  C  C476  1  0.250000  0.572200  0.559100  1.0  0.7215
  C  C477  1  0.250000  0.647300  0.477000  1.0  0.0358
  C  C478  1  0.250000  0.669600  0.093800  1.0  -0.0702
  C  C479  1  0.250000  0.803200  0.228300  1.0  -0.1481
  C  C480  1  0.250000  0.717700  0.139900  1.0  0.0253
  C  C481  1  0.250000  0.678000  0.454400  1.0  -0.116
  C  C482  1  0.250000  0.597300  0.529700  1.0  -0.0459
  C  C483  1  0.250000  0.677000  0.256600  1.0  -0.139
  C  C484  1  0.250000  0.442000  0.427600  1.0  -0.017
  C  C485  1  0.250000  0.453100  0.476300  1.0  0.7337
  C  C486  1  0.250000  0.986900  0.427800  1.0  0.7153
  C  C487  1  0.250000  0.829700  0.352700  1.0  0.0369
  C  C488  1  0.250000  0.424200  0.330400  1.0  -0.0536
  C  C489  1  0.250000  0.425100  0.196800  1.0  -0.1433
  C  C490  1  0.250000  0.422200  0.282300  1.0  0.0304
  C  C491  1  0.250000  0.776400  0.322000  1.0  -0.1173
  C  C492  1  0.250000  0.932400  0.402700  1.0  -0.0433
  C  C493  1  0.750000  0.256600  0.677000  1.0  -0.1383
  C  C494  1  0.750000  0.427600  0.442000  1.0  -0.0189
  C  C495  1  0.750000  0.476300  0.453100  1.0  0.7307
  C  C496  1  0.750000  0.427800  0.986900  1.0  0.7217
  C  C497  1  0.750000  0.352700  0.829700  1.0  0.0361
  C  C498  1  0.750000  0.330400  0.424200  1.0  -0.069
  C  C499  1  0.750000  0.196800  0.425100  1.0  -0.1482
  C  C500  1  0.750000  0.282300  0.422200  1.0  0.0266
  C  C501  1  0.750000  0.322000  0.776400  1.0  -0.1164
  C  C502  1  0.750000  0.402700  0.932400  1.0  -0.0471
  C  C503  1  0.750000  0.323000  0.579600  1.0  -0.1386
  C  C504  1  0.750000  0.558000  0.985600  1.0  -0.0155
  C  C505  1  0.750000  0.546900  0.023200  1.0  0.7334
  C  C506  1  0.750000  0.013100  0.440900  1.0  0.7142
  C  C507  1  0.750000  0.170300  0.523000  1.0  0.0371
  C  C508  1  0.750000  0.575800  0.906200  1.0  -0.0575
  C  C509  1  0.750000  0.574900  0.771700  1.0  -0.1434
  C  C510  1  0.750000  0.577800  0.860100  1.0  0.0325
  C  C511  1  0.750000  0.223600  0.545600  1.0  -0.1167
  C  C512  1  0.750000  0.067600  0.470300  1.0  -0.0432
  C  C513  1  0.750000  0.420400  0.743400  1.0  -0.1374
  C  C514  1  0.750000  0.014400  0.572400  1.0  -0.0197
  C  C515  1  0.750000  0.976800  0.523700  1.0  0.7289
  C  C516  1  0.750000  0.559100  0.572200  1.0  0.7144
  C  C517  1  0.750000  0.477000  0.647300  1.0  0.039
  C  C518  1  0.750000  0.093800  0.669600  1.0  -0.0538
  C  C519  1  0.750000  0.228300  0.803200  1.0  -0.1456
  C  C520  1  0.750000  0.139900  0.717700  1.0  0.0294
  C  C521  1  0.750000  0.454400  0.678000  1.0  -0.1158
  C  C522  1  0.750000  0.529700  0.597300  1.0  -0.046
  O  O523  1  0.593500  0.569990  0.440120  1.0  -0.687
  O  O524  1  0.315100  0.039800  0.542100  1.0  -0.6461
  O  O525  1  0.662900  0.605100  0.406400  1.0  -0.6319
  O  O526  1  0.314600  0.431100  0.992050  1.0  -0.6284
  O  O527  1  0.656300  0.682530  0.509170  1.0  -0.6658
  O  O528  1  0.602400  0.641590  0.542040  1.0  -0.6538
  O  O529  1  0.593500  0.870130  0.430010  1.0  -0.6888
  O  O530  1  0.315100  0.502300  0.960200  1.0  -0.6462
  O  O531  1  0.662900  0.801300  0.394900  1.0  -0.632
  O  O532  1  0.314600  0.560950  0.568900  1.0  -0.6278
  O  O533  1  0.656300  0.826640  0.317470  1.0  -0.6642
  O  O534  1  0.602400  0.900450  0.358410  1.0  -0.6526
  O  O535  1  0.593500  0.559880  0.129870  1.0  -0.6842
  O  O536  1  0.315100  0.457900  0.497700  1.0  -0.6465
  O  O537  1  0.662900  0.593600  0.198700  1.0  -0.6325
  O  O538  1  0.314600  0.007950  0.439050  1.0  -0.6285
  O  O539  1  0.656300  0.490830  0.173360  1.0  -0.6641
  O  O540  1  0.602400  0.457960  0.099550  1.0  -0.6547
  O  O541  1  0.906500  0.569990  0.440120  1.0  -0.6865
  O  O542  1  0.184900  0.039800  0.542100  1.0  -0.6458
  O  O543  1  0.837100  0.605100  0.406400  1.0  -0.6316
  O  O544  1  0.185400  0.431100  0.992050  1.0  -0.6286
  O  O545  1  0.843700  0.682530  0.509170  1.0  -0.6664
  O  O546  1  0.897600  0.641590  0.542040  1.0  -0.6555
  O  O547  1  0.906500  0.870130  0.430010  1.0  -0.6884
  O  O548  1  0.184900  0.502300  0.960200  1.0  -0.646
  O  O549  1  0.837100  0.801300  0.394900  1.0  -0.632
  O  O550  1  0.185400  0.560950  0.568900  1.0  -0.6282
  O  O551  1  0.843700  0.826640  0.317470  1.0  -0.6651
  O  O552  1  0.897600  0.900450  0.358410  1.0  -0.6536
  O  O553  1  0.906500  0.559880  0.129870  1.0  -0.6834
  O  O554  1  0.184900  0.457900  0.497700  1.0  -0.6468
  O  O555  1  0.837100  0.593600  0.198700  1.0  -0.6331
  O  O556  1  0.185400  0.007950  0.439050  1.0  -0.6287
  O  O557  1  0.843700  0.490830  0.173360  1.0  -0.6633
  O  O558  1  0.897600  0.457960  0.099550  1.0  -0.655
  O  O559  1  0.406500  0.129870  0.559880  1.0  -0.6853
  O  O560  1  0.684900  0.497700  0.457900  1.0  -0.6459
  O  O561  1  0.337100  0.198700  0.593600  1.0  -0.6329
  O  O562  1  0.685400  0.439050  0.007950  1.0  -0.6282
  O  O563  1  0.343700  0.173360  0.490830  1.0  -0.6658
  O  O564  1  0.397600  0.099550  0.457960  1.0  -0.65
  O  O565  1  0.406500  0.440120  0.569990  1.0  -0.6823
  O  O566  1  0.684900  0.542100  0.039800  1.0  -0.6461
  O  O567  1  0.337100  0.406400  0.605100  1.0  -0.6315
  O  O568  1  0.685400  0.992050  0.431100  1.0  -0.6287
  O  O569  1  0.343700  0.509170  0.682530  1.0  -0.6636
  O  O570  1  0.397600  0.542040  0.641590  1.0  -0.6564
  O  O571  1  0.406500  0.430010  0.870130  1.0  -0.6896
  O  O572  1  0.684900  0.960200  0.502300  1.0  -0.6458
  O  O573  1  0.337100  0.394900  0.801300  1.0  -0.6315
  O  O574  1  0.685400  0.568900  0.560950  1.0  -0.6294
  O  O575  1  0.343700  0.317470  0.826640  1.0  -0.6646
  O  O576  1  0.397600  0.358410  0.900450  1.0  -0.6544
  O  O577  1  0.093500  0.129870  0.559880  1.0  -0.6858
  O  O578  1  0.815100  0.497700  0.457900  1.0  -0.646
  O  O579  1  0.162900  0.198700  0.593600  1.0  -0.6331
  O  O580  1  0.814600  0.439050  0.007950  1.0  -0.6276
  O  O581  1  0.156300  0.173360  0.490830  1.0  -0.6658
  O  O582  1  0.102400  0.099550  0.457960  1.0  -0.6494
  O  O583  1  0.093500  0.440120  0.569990  1.0  -0.6833
  O  O584  1  0.815100  0.542100  0.039800  1.0  -0.646
  O  O585  1  0.162900  0.406400  0.605100  1.0  -0.6315
  O  O586  1  0.814600  0.992050  0.431100  1.0  -0.6285
  O  O587  1  0.156300  0.509170  0.682530  1.0  -0.6647
  O  O588  1  0.102400  0.542040  0.641590  1.0  -0.6557
  O  O589  1  0.093500  0.430010  0.870130  1.0  -0.6902
  O  O590  1  0.815100  0.960200  0.502300  1.0  -0.6457
  O  O591  1  0.162900  0.394900  0.801300  1.0  -0.6321
  O  O592  1  0.814600  0.568900  0.560950  1.0  -0.6294
  O  O593  1  0.156300  0.317470  0.826640  1.0  -0.6646
  O  O594  1  0.102400  0.358410  0.900450  1.0  -0.6528
  O  O595  1  0.750000  0.593400  0.485740  1.0  -1.0134
  O  O596  1  0.750000  0.892340  0.406600  1.0  -1.0133
  O  O597  1  0.750000  0.514260  0.107660  1.0  -1.0129
  O  O598  1  0.250000  0.107660  0.514260  1.0  -1.0133
  O  O599  1  0.250000  0.485740  0.593400  1.0  -1.0129
  O  O600  1  0.250000  0.406600  0.892340  1.0  -1.0132
