# generated using pymatgen
data_ZnH10C20(NO3)2
_symmetry_space_group_name_H-M   'P 1'
_cell_length_a   11.21700000
_cell_length_b   11.52600000
_cell_length_c   17.70300000
_cell_angle_alpha   90.00000000
_cell_angle_beta   90.00000000
_cell_angle_gamma   106.91700000
_symmetry_Int_Tables_number   1
_chemical_formula_structural   ZnH10C20(NO3)2
_chemical_formula_sum   'Zn4 H40 C80 N8 O24'
_cell_volume   2189.72897987
_cell_formula_units_Z   4
loop_
 _symmetry_equiv_pos_site_id
 _symmetry_equiv_pos_as_xyz
  1  'x, y, z'
loop_
 _atom_site_type_symbol
 _atom_site_label
 _atom_site_symmetry_multiplicity
 _atom_site_fract_x
 _atom_site_fract_y
 _atom_site_fract_z
 _atom_site_occupancy
 _atom_site_charge
  Zn  Zn1  1  0.458950  0.864650  0.992230  1.0  0.9319
  Zn  Zn2  1  0.041050  0.135350  0.492230  1.0  0.9318
  Zn  Zn3  1  0.541050  0.135350  0.007770  1.0  0.9316
  Zn  Zn4  1  0.958950  0.864650  0.507770  1.0  0.9318
  H  H5  1  0.648300  0.858900  0.634800  1.0  0.1095
  H  H6  1  0.555900  0.846100  0.753800  1.0  0.1118
  H  H7  1  0.703600  0.205500  0.781100  1.0  0.1071
  H  H8  1  0.805100  0.218700  0.664000  1.0  0.1116
  H  H9  1  0.212400  0.706400  0.035400  1.0  0.0829
  H  H10  1  0.097200  0.502800  0.039100  1.0  0.1262
  H  H11  1  0.380400  0.424300  0.933800  1.0  0.1382
  H  H12  1  0.485400  0.628300  0.930500  1.0  0.0929
  H  H13  1  0.902600  0.126300  0.843100  1.0  0.0961
  H  H14  1  0.201500  0.081100  0.151800  1.0  0.0996
  H  H15  1  0.851700  0.141100  0.134800  1.0  0.1101
  H  H16  1  0.944100  0.153900  0.253800  1.0  0.1122
  H  H17  1  0.796400  0.794500  0.281100  1.0  0.1077
  H  H18  1  0.694900  0.781300  0.164000  1.0  0.1113
  H  H19  1  0.287600  0.293600  0.535400  1.0  0.0837
  H  H20  1  0.402800  0.497200  0.539100  1.0  0.1263
  H  H21  1  0.119600  0.575700  0.433800  1.0  0.1384
  H  H22  1  0.014600  0.371700  0.430500  1.0  0.0928
  H  H23  1  0.597400  0.873700  0.343100  1.0  0.0962
  H  H24  1  0.298500  0.918900  0.651800  1.0  0.0997
  H  H25  1  0.351700  0.141100  0.365200  1.0  0.1094
  H  H26  1  0.444100  0.153900  0.246200  1.0  0.1124
  H  H27  1  0.296400  0.794500  0.218900  1.0  0.1076
  H  H28  1  0.194900  0.781300  0.336000  1.0  0.1113
  H  H29  1  0.787600  0.293600  0.964600  1.0  0.0835
  H  H30  1  0.902800  0.497200  0.960900  1.0  0.1257
  H  H31  1  0.619600  0.575700  0.066200  1.0  0.1383
  H  H32  1  0.514600  0.371700  0.069500  1.0  0.093
  H  H33  1  0.097400  0.873700  0.156900  1.0  0.0964
  H  H34  1  0.798500  0.918900  0.848200  1.0  0.0995
  H  H35  1  0.148300  0.858900  0.865200  1.0  0.1091
  H  H36  1  0.055900  0.846100  0.746200  1.0  0.1119
  H  H37  1  0.203600  0.205500  0.718900  1.0  0.1072
  H  H38  1  0.305100  0.218700  0.836000  1.0  0.1117
  H  H39  1  0.712400  0.706400  0.464600  1.0  0.0825
  H  H40  1  0.597200  0.502800  0.460900  1.0  0.1258
  H  H41  1  0.880400  0.424300  0.566200  1.0  0.1386
  H  H42  1  0.985400  0.628300  0.569500  1.0  0.0934
  H  H43  1  0.402600  0.126300  0.656900  1.0  0.0963
  H  H44  1  0.701500  0.081100  0.348200  1.0  0.0998
  C  C45  1  0.816000  0.044100  0.566500  1.0  0.6507
  C  C46  1  0.740700  0.039600  0.638700  1.0  -0.1203
  C  C47  1  0.662900  0.928600  0.665000  1.0  -0.0496
  C  C48  1  0.606800  0.921200  0.736300  1.0  -0.0554
  C  C49  1  0.625800  0.023800  0.781400  1.0  -0.1113
  C  C50  1  0.695800  0.134600  0.752800  1.0  -0.0559
  C  C51  1  0.755600  0.143200  0.681900  1.0  -0.0487
  C  C52  1  0.576500  0.014400  0.862400  1.0  0.6627
  C  C53  1  0.247300  0.648200  0.015300  1.0  0.19
  C  C54  1  0.177500  0.526100  0.017900  1.0  -0.2138
  C  C55  1  0.228200  0.441300  0.989100  1.0  0.2623
  C  C56  1  0.344500  0.480600  0.955500  1.0  -0.2145
  C  C57  1  0.407200  0.602500  0.954300  1.0  0.1791
  C  C58  1  0.189000  0.244400  0.052800  1.0  0.5121
  C  C59  1  0.119000  0.115600  0.056100  1.0  -0.1279
  C  C60  1  0.032000  0.064600  0.998800  1.0  0.058
  C  C61  1  0.003300  0.133700  0.938500  1.0  -0.1291
  C  C62  1  0.067900  0.266700  0.936800  1.0  0.505
  C  C63  1  0.918700  0.079300  0.883100  1.0  0.0004
  C  C64  1  0.143300  0.045300  0.114200  1.0  -0.0184
  C  C65  1  0.684000  0.955900  0.066500  1.0  0.6512
  C  C66  1  0.759300  0.960400  0.138700  1.0  -0.1196
  C  C67  1  0.837100  0.071400  0.165000  1.0  -0.051
  C  C68  1  0.893200  0.078800  0.236300  1.0  -0.0562
  C  C69  1  0.874200  0.976200  0.281400  1.0  -0.1129
  C  C70  1  0.804200  0.865400  0.252800  1.0  -0.0561
  C  C71  1  0.744400  0.856800  0.181900  1.0  -0.0534
  C  C72  1  0.923500  0.985600  0.362400  1.0  0.6625
  C  C73  1  0.252700  0.351800  0.515300  1.0  0.1893
  C  C74  1  0.322500  0.473900  0.517900  1.0  -0.2145
  C  C75  1  0.271800  0.558700  0.489100  1.0  0.2622
  C  C76  1  0.155500  0.519400  0.455500  1.0  -0.2155
  C  C77  1  0.092800  0.397500  0.454300  1.0  0.1805
  C  C78  1  0.311000  0.755600  0.552800  1.0  0.5117
  C  C79  1  0.381000  0.884400  0.556100  1.0  -0.1279
  C  C80  1  0.468000  0.935400  0.498800  1.0  0.0586
  C  C81  1  0.496700  0.866300  0.438500  1.0  -0.129
  C  C82  1  0.432100  0.733300  0.436800  1.0  0.5036
  C  C83  1  0.581300  0.920700  0.383100  1.0  0.0005
  C  C84  1  0.356700  0.954700  0.614200  1.0  -0.0176
  C  C85  1  0.184000  0.955900  0.433500  1.0  0.6509
  C  C86  1  0.259300  0.960400  0.361300  1.0  -0.1194
  C  C87  1  0.337100  0.071400  0.335000  1.0  -0.0517
  C  C88  1  0.393200  0.078800  0.263700  1.0  -0.0566
  C  C89  1  0.374200  0.976200  0.218600  1.0  -0.1132
  C  C90  1  0.304200  0.865400  0.247200  1.0  -0.0565
  C  C91  1  0.244400  0.856800  0.318100  1.0  -0.0533
  C  C92  1  0.423500  0.985600  0.137600  1.0  0.6629
  C  C93  1  0.752700  0.351800  0.984700  1.0  0.1895
  C  C94  1  0.822500  0.473900  0.982100  1.0  -0.2147
  C  C95  1  0.771800  0.558700  0.010900  1.0  0.2621
  C  C96  1  0.655500  0.519400  0.044500  1.0  -0.2161
  C  C97  1  0.592800  0.397500  0.045700  1.0  0.1805
  C  C98  1  0.811000  0.755600  0.947200  1.0  0.512
  C  C99  1  0.881000  0.884400  0.943900  1.0  -0.1281
  C  C100  1  0.968000  0.935400  0.001200  1.0  0.0588
  C  C101  1  0.996700  0.866300  0.061500  1.0  -0.1292
  C  C102  1  0.932100  0.733300  0.063200  1.0  0.5045
  C  C103  1  0.081300  0.920700  0.116900  1.0  0.0021
  C  C104  1  0.856700  0.954700  0.885800  1.0  -0.0182
  C  C105  1  0.316000  0.044100  0.933500  1.0  0.6508
  C  C106  1  0.240700  0.039600  0.861300  1.0  -0.1201
  C  C107  1  0.162900  0.928600  0.835000  1.0  -0.0509
  C  C108  1  0.106800  0.921200  0.763700  1.0  -0.0556
  C  C109  1  0.125800  0.023800  0.718600  1.0  -0.112
  C  C110  1  0.195800  0.134600  0.747200  1.0  -0.0564
  C  C111  1  0.255600  0.143200  0.818100  1.0  -0.0494
  C  C112  1  0.076500  0.014400  0.637600  1.0  0.6634
  C  C113  1  0.747300  0.648200  0.484700  1.0  0.1902
  C  C114  1  0.677500  0.526100  0.482100  1.0  -0.2141
  C  C115  1  0.728200  0.441300  0.510900  1.0  0.2622
  C  C116  1  0.844500  0.480600  0.544500  1.0  -0.2153
  C  C117  1  0.907200  0.602500  0.545700  1.0  0.1799
  C  C118  1  0.689000  0.244400  0.447200  1.0  0.5123
  C  C119  1  0.619000  0.115600  0.443900  1.0  -0.1281
  C  C120  1  0.532000  0.064600  0.501200  1.0  0.0584
  C  C121  1  0.503300  0.133700  0.561500  1.0  -0.1292
  C  C122  1  0.567900  0.266700  0.563200  1.0  0.5039
  C  C123  1  0.418700  0.079300  0.616900  1.0  0.0012
  C  C124  1  0.643300  0.045300  0.385800  1.0  -0.0194
  N  N125  1  0.360700  0.685600  0.985700  1.0  -0.3043
  N  N126  1  0.160000  0.311900  0.992000  1.0  -0.2654
  N  N127  1  0.139300  0.314400  0.485700  1.0  -0.3049
  N  N128  1  0.340000  0.688100  0.492000  1.0  -0.2646
  N  N129  1  0.639300  0.314400  0.014300  1.0  -0.3049
  N  N130  1  0.840000  0.688100  0.008000  1.0  -0.2646
  N  N131  1  0.860700  0.685600  0.514300  1.0  -0.3045
  N  N132  1  0.660000  0.311900  0.508000  1.0  -0.2653
  O  O133  1  0.817500  0.942200  0.539100  1.0  -0.6174
  O  O134  1  0.876100  0.146400  0.540800  1.0  -0.5822
  O  O135  1  0.529300  0.907000  0.887500  1.0  -0.5811
  O  O136  1  0.590900  0.111100  0.897900  1.0  -0.5806
  O  O137  1  0.271500  0.298000  0.097800  1.0  -0.4714
  O  O138  1  0.044700  0.335200  0.889000  1.0  -0.4766
  O  O139  1  0.682500  0.057800  0.039100  1.0  -0.6175
  O  O140  1  0.623900  0.853600  0.040800  1.0  -0.5831
  O  O141  1  0.970700  0.093000  0.387500  1.0  -0.5804
  O  O142  1  0.909100  0.888900  0.397900  1.0  -0.5805
  O  O143  1  0.228500  0.702000  0.597800  1.0  -0.4713
  O  O144  1  0.455300  0.664800  0.389000  1.0  -0.4759
  O  O145  1  0.182500  0.057800  0.460900  1.0  -0.6179
  O  O146  1  0.123900  0.853600  0.459200  1.0  -0.5833
  O  O147  1  0.470700  0.093000  0.112500  1.0  -0.58
  O  O148  1  0.409100  0.888900  0.102100  1.0  -0.5803
  O  O149  1  0.728500  0.702000  0.902200  1.0  -0.4716
  O  O150  1  0.955300  0.664800  0.111000  1.0  -0.4756
  O  O151  1  0.317500  0.942200  0.960900  1.0  -0.6176
  O  O152  1  0.376100  0.146400  0.959200  1.0  -0.5821
  O  O153  1  0.029300  0.907000  0.612500  1.0  -0.5805
  O  O154  1  0.090900  0.111100  0.602100  1.0  -0.5802
  O  O155  1  0.771500  0.298000  0.402200  1.0  -0.4718
  O  O156  1  0.544700  0.335200  0.611000  1.0  -0.477
