# generated using pymatgen
data_ZnH10C20(NO3)2
_symmetry_space_group_name_H-M   'P 1'
_cell_length_a   15.28200000
_cell_length_b   15.43600000
_cell_length_c   24.60980000
_cell_angle_alpha   106.57900000
_cell_angle_beta   108.08900000
_cell_angle_gamma   90.00000000
_symmetry_Int_Tables_number   1
_chemical_formula_structural   ZnH10C20(NO3)2
_chemical_formula_sum   'Zn8 H80 C160 N16 O48'
_cell_volume   5263.87434340
_cell_formula_units_Z   8
loop_
 _symmetry_equiv_pos_site_id
 _symmetry_equiv_pos_as_xyz
  1  'x, y, z'
loop_
 _atom_site_type_symbol
 _atom_site_label
 _atom_site_symmetry_multiplicity
 _atom_site_fract_x
 _atom_site_fract_y
 _atom_site_fract_z
 _atom_site_occupancy
 _atom_site_charge
  Zn  Zn1  1  0.646740  0.927910  0.801200  1.0  0.9232
  Zn  Zn2  1  0.078570  0.367190  0.668640  1.0  0.916
  Zn  Zn3  1  0.154460  0.427910  0.801200  1.0  0.9231
  Zn  Zn4  1  0.590070  0.867190  0.668640  1.0  0.9169
  Zn  Zn5  1  0.845540  0.572090  0.198800  1.0  0.9247
  Zn  Zn6  1  0.409930  0.132810  0.331360  1.0  0.9169
  Zn  Zn7  1  0.353260  0.072090  0.198800  1.0  0.9237
  Zn  Zn8  1  0.921430  0.632810  0.331360  1.0  0.9165
  H  H9  1  0.332500  0.650600  0.814000  1.0  0.1156
  H  H10  1  0.437700  0.758600  0.812800  1.0  0.115
  H  H11  1  0.353700  0.668000  0.631400  1.0  0.1135
  H  H12  1  0.249800  0.558900  0.632000  1.0  0.1164
  H  H13  1  0.750600  0.649300  0.656400  1.0  0.1088
  H  H14  1  0.853500  0.538900  0.652000  1.0  0.1189
  H  H15  1  0.936800  0.601600  0.833800  1.0  0.1133
  H  H16  1  0.830900  0.710200  0.836800  1.0  0.1126
  H  H17  1  0.761700  0.892300  0.915000  1.0  0.0978
  H  H18  1  0.796300  0.950400  0.017600  1.0  0.1356
  H  H19  1  0.644800  0.159000  0.990800  1.0  0.1326
  H  H20  1  0.611400  0.091200  0.887600  1.0  0.0805
  H  H21  1  0.641700  0.995300  0.181600  1.0  0.0974
  H  H22  1  0.687400  0.046100  0.286800  1.0  0.1013
  H  H23  1  0.958500  0.370100  0.289000  1.0  0.0956
  H  H24  1  0.907400  0.322600  0.183400  1.0  0.1031
  H  H25  1  0.966200  0.447900  0.577000  1.0  0.0858
  H  H26  1  0.887700  0.409300  0.475200  1.0  0.133
  H  H27  1  0.958700  0.153500  0.460800  1.0  0.1285
  H  H28  1  0.037100  0.199700  0.563200  1.0  0.0919
  H  H29  1  0.481500  0.150600  0.814000  1.0  0.1153
  H  H30  1  0.375100  0.258600  0.812800  1.0  0.1156
  H  H31  1  0.277700  0.168000  0.631400  1.0  0.1134
  H  H32  1  0.382200  0.058900  0.632000  1.0  0.1146
  H  H33  1  0.905800  0.149300  0.656400  1.0  0.1088
  H  H34  1  0.798500  0.038900  0.652000  1.0  0.1189
  H  H35  1  0.897000  0.101600  0.833800  1.0  0.1122
  H  H36  1  0.005900  0.210200  0.836800  1.0  0.1128
  H  H37  1  0.153300  0.392300  0.915000  1.0  0.097
  H  H38  1  0.221300  0.450400  0.017600  1.0  0.1365
  H  H39  1  0.346000  0.659000  0.990800  1.0  0.1313
  H  H40  1  0.276200  0.591200  0.887600  1.0  0.0815
  H  H41  1  0.539900  0.495300  0.181600  1.0  0.097
  H  H42  1  0.599400  0.546100  0.286800  1.0  0.1015
  H  H43  1  0.330500  0.870100  0.289000  1.0  0.0962
  H  H44  1  0.276000  0.822600  0.183400  1.0  0.1012
  H  H45  1  0.610800  0.947900  0.577000  1.0  0.0862
  H  H46  1  0.587500  0.909300  0.475200  1.0  0.1329
  H  H47  1  0.502100  0.653500  0.460800  1.0  0.13
  H  H48  1  0.526100  0.699700  0.563200  1.0  0.0911
  H  H49  1  0.518500  0.849400  0.186000  1.0  0.1152
  H  H50  1  0.624900  0.741400  0.187200  1.0  0.1156
  H  H51  1  0.722300  0.832000  0.368600  1.0  0.1139
  H  H52  1  0.617800  0.941100  0.368000  1.0  0.1151
  H  H53  1  0.094200  0.850700  0.343600  1.0  0.1089
  H  H54  1  0.201500  0.961100  0.348000  1.0  0.1193
  H  H55  1  0.103000  0.898400  0.166200  1.0  0.1135
  H  H56  1  0.994100  0.789800  0.163200  1.0  0.1132
  H  H57  1  0.846700  0.607700  0.085000  1.0  0.0959
  H  H58  1  0.778700  0.549600  0.982400  1.0  0.1365
  H  H59  1  0.654000  0.341000  0.009200  1.0  0.1314
  H  H60  1  0.723800  0.408800  0.112400  1.0  0.0818
  H  H61  1  0.460100  0.504700  0.818400  1.0  0.0987
  H  H62  1  0.400600  0.453900  0.713200  1.0  0.1015
  H  H63  1  0.669500  0.129900  0.711000  1.0  0.0962
  H  H64  1  0.724000  0.177400  0.816600  1.0  0.1011
  H  H65  1  0.389200  0.052100  0.423000  1.0  0.0855
  H  H66  1  0.412500  0.090700  0.524800  1.0  0.1327
  H  H67  1  0.497900  0.346500  0.539200  1.0  0.1292
  H  H68  1  0.473900  0.300300  0.436800  1.0  0.0913
  H  H69  1  0.667500  0.349400  0.186000  1.0  0.1165
  H  H70  1  0.562300  0.241400  0.187200  1.0  0.1149
  H  H71  1  0.646300  0.332000  0.368600  1.0  0.114
  H  H72  1  0.750200  0.441100  0.368000  1.0  0.1162
  H  H73  1  0.249400  0.350700  0.343600  1.0  0.1091
  H  H74  1  0.146500  0.461100  0.348000  1.0  0.1189
  H  H75  1  0.063200  0.398400  0.166200  1.0  0.1133
  H  H76  1  0.169100  0.289800  0.163200  1.0  0.1132
  H  H77  1  0.238300  0.107700  0.085000  1.0  0.0964
  H  H78  1  0.203700  0.049600  0.982400  1.0  0.1364
  H  H79  1  0.355200  0.841000  0.009200  1.0  0.1318
  H  H80  1  0.388600  0.908800  0.112400  1.0  0.081
  H  H81  1  0.358300  0.004700  0.818400  1.0  0.0986
  H  H82  1  0.312600  0.953900  0.713200  1.0  0.1022
  H  H83  1  0.041500  0.629900  0.711000  1.0  0.0966
  H  H84  1  0.092600  0.677400  0.816600  1.0  0.1017
  H  H85  1  0.033800  0.552100  0.423000  1.0  0.0857
  H  H86  1  0.112300  0.590700  0.524800  1.0  0.1325
  H  H87  1  0.041300  0.846500  0.539200  1.0  0.1284
  H  H88  1  0.962900  0.800300  0.436800  1.0  0.0918
  C  C89  1  0.214630  0.523700  0.724460  1.0  0.6861
  C  C90  1  0.280600  0.593900  0.723000  1.0  -0.1381
  C  C91  1  0.336960  0.653800  0.776920  1.0  -0.0542
  C  C92  1  0.399580  0.717800  0.776160  1.0  -0.0105
  C  C93  1  0.407380  0.723200  0.722160  1.0  -0.1396
  C  C94  1  0.349960  0.663900  0.668520  1.0  -0.0199
  C  C95  1  0.287910  0.599600  0.668820  1.0  -0.0355
  C  C96  1  0.478680  0.790200  0.722960  1.0  0.6865
  C  C97  1  0.720500  0.766500  0.747800  1.0  0.7004
  C  C98  1  0.782280  0.691500  0.746560  1.0  -0.1199
  C  C99  1  0.788970  0.639800  0.692340  1.0  -0.0349
  C  C100  1  0.850190  0.574600  0.689580  1.0  -0.0566
  C  C101  1  0.908270  0.561100  0.743140  1.0  -0.081
  C  C102  1  0.899530  0.611600  0.797660  1.0  -0.0361
  C  C103  1  0.836790  0.676300  0.799580  1.0  -0.0641
  C  C104  1  0.982530  0.496800  0.741060  1.0  0.6948
  C  C105  1  0.736260  0.946200  0.930520  1.0  0.1547
  C  C106  1  0.757960  0.980500  0.991720  1.0  -0.2183
  C  C107  1  0.722660  0.059900  0.014520  1.0  0.236
  C  C108  1  0.668290  0.103300  0.975980  1.0  -0.2297
  C  C109  1  0.649170  0.062300  0.914540  1.0  0.1739
  C  C110  1  0.700600  0.050600  0.106400  1.0  0.5061
  C  C111  1  0.724680  0.087600  0.172360  1.0  -0.1423
  C  C112  1  0.687100  0.045600  0.203200  1.0  -0.0015
  C  C113  1  0.714390  0.075600  0.265980  1.0  -0.032
  C  C114  1  0.780590  0.148500  0.297380  1.0  -0.1492
  C  C115  1  0.812160  0.177500  0.363320  1.0  0.5379
  C  C116  1  0.919620  0.300700  0.364240  1.0  0.4273
  C  C117  1  0.884520  0.271100  0.297840  1.0  -0.0579
  C  C118  1  0.915860  0.317600  0.267520  1.0  -0.0473
  C  C119  1  0.885730  0.288700  0.204060  1.0  -0.0246
  C  C120  1  0.825840  0.212500  0.172480  1.0  -0.0599
  C  C121  1  0.801110  0.178700  0.106420  1.0  0.4857
  C  C122  1  0.789140  0.164000  0.203480  1.0  0.0293
  C  C123  1  0.817760  0.195100  0.266720  1.0  0.0417
  C  C124  1  0.965170  0.387400  0.552940  1.0  0.1722
  C  C125  1  0.918910  0.365400  0.492420  1.0  -0.2331
  C  C126  1  0.918960  0.277400  0.456920  1.0  0.224
  C  C127  1  0.960770  0.214900  0.483740  1.0  -0.2091
  C  C128  1  0.006310  0.242800  0.545020  1.0  0.16
  C  C129  1  0.509830  0.023700  0.724460  1.0  0.6856
  C  C130  1  0.442400  0.093900  0.723000  1.0  -0.1375
  C  C131  1  0.439960  0.153800  0.776920  1.0  -0.0572
  C  C132  1  0.376580  0.217800  0.776160  1.0  -0.0087
  C  C133  1  0.314780  0.223200  0.722160  1.0  -0.1396
  C  C134  1  0.318560  0.163900  0.668520  1.0  -0.0222
  C  C135  1  0.380910  0.099600  0.668820  1.0  -0.0357
  C  C136  1  0.244280  0.290200  0.722960  1.0  0.6847
  C  C137  1  0.027300  0.266500  0.747800  1.0  0.7016
  C  C138  1  0.964280  0.191500  0.746560  1.0  -0.1202
  C  C139  1  0.903370  0.139800  0.692340  1.0  -0.0356
  C  C140  1  0.839390  0.074600  0.689580  1.0  -0.0579
  C  C141  1  0.834870  0.061100  0.743140  1.0  -0.0815
  C  C142  1  0.898130  0.111600  0.797660  1.0  -0.0364
  C  C143  1  0.962790  0.176300  0.799580  1.0  -0.0573
  C  C144  1  0.758530  0.996800  0.741060  1.0  0.6969
  C  C145  1  0.194260  0.446200  0.930520  1.0  0.1571
  C  C146  1  0.233760  0.480500  0.991720  1.0  -0.2186
  C  C147  1  0.291860  0.559900  0.014520  1.0  0.2358
  C  C148  1  0.307690  0.603300  0.975980  1.0  -0.2284
  C  C149  1  0.265370  0.562300  0.914540  1.0  0.1731
  C  C150  1  0.405800  0.550600  0.106400  1.0  0.5054
  C  C151  1  0.447680  0.587600  0.172360  1.0  -0.1455
  C  C152  1  0.516100  0.545600  0.203200  1.0  -0.0021
  C  C153  1  0.551590  0.575600  0.265980  1.0  -0.03
  C  C154  1  0.516790  0.648500  0.297380  1.0  -0.1485
  C  C155  1  0.551160  0.677500  0.363320  1.0  0.538
  C  C156  1  0.444620  0.800700  0.364240  1.0  0.4295
  C  C157  1  0.413320  0.771100  0.297840  1.0  -0.0611
  C  C158  1  0.351660  0.817600  0.267520  1.0  -0.0468
  C  C159  1  0.318330  0.788700  0.204060  1.0  -0.0219
  C  C160  1  0.346640  0.712500  0.172480  1.0  -0.0581
  C  C161  1  0.305310  0.678700  0.106420  1.0  0.483
  C  C162  1  0.414340  0.664000  0.203480  1.0  0.0306
  C  C163  1  0.448960  0.695100  0.266720  1.0  0.0429
  C  C164  1  0.587770  0.887400  0.552940  1.0  0.1717
  C  C165  1  0.573510  0.865400  0.492420  1.0  -0.2308
  C  C166  1  0.537960  0.777400  0.456920  1.0  0.2265
  C  C167  1  0.522970  0.714900  0.483740  1.0  -0.2117
  C  C168  1  0.538710  0.742800  0.545020  1.0  0.1578
  C  C169  1  0.490170  0.976300  0.275540  1.0  0.6862
  C  C170  1  0.557600  0.906100  0.277000  1.0  -0.1357
  C  C171  1  0.560040  0.846200  0.223080  1.0  -0.0533
  C  C172  1  0.623420  0.782200  0.223840  1.0  -0.0084
  C  C173  1  0.685220  0.776800  0.277840  1.0  -0.1379
  C  C174  1  0.681440  0.836100  0.331480  1.0  -0.0222
  C  C175  1  0.619090  0.900400  0.331180  1.0  -0.0347
  C  C176  1  0.755720  0.709800  0.277040  1.0  0.6843
  C  C177  1  0.972700  0.733500  0.252200  1.0  0.7017
  C  C178  1  0.035720  0.808500  0.253440  1.0  -0.1199
  C  C179  1  0.096630  0.860200  0.307660  1.0  -0.0383
  C  C180  1  0.160610  0.925400  0.310420  1.0  -0.058
  C  C181  1  0.165130  0.938900  0.256860  1.0  -0.0803
  C  C182  1  0.101870  0.888400  0.202340  1.0  -0.0376
  C  C183  1  0.037210  0.823700  0.200420  1.0  -0.0624
  C  C184  1  0.241470  0.003200  0.258940  1.0  0.6972
  C  C185  1  0.805740  0.553800  0.069480  1.0  0.1543
  C  C186  1  0.766240  0.519500  0.008280  1.0  -0.2179
  C  C187  1  0.708140  0.440100  0.985480  1.0  0.2351
  C  C188  1  0.692310  0.396700  0.024020  1.0  -0.2278
  C  C189  1  0.734630  0.437700  0.085460  1.0  0.1743
  C  C190  1  0.594200  0.449400  0.893600  1.0  0.5052
  C  C191  1  0.552320  0.412400  0.827640  1.0  -0.1443
  C  C192  1  0.483900  0.454400  0.796800  1.0  -0.0032
  C  C193  1  0.448410  0.424400  0.734020  1.0  -0.031
  C  C194  1  0.483210  0.351500  0.702620  1.0  -0.1499
  C  C195  1  0.448840  0.322500  0.636680  1.0  0.5382
  C  C196  1  0.555380  0.199300  0.635760  1.0  0.4299
  C  C197  1  0.586680  0.228900  0.702160  1.0  -0.0597
  C  C198  1  0.648340  0.182400  0.732480  1.0  -0.0485
  C  C199  1  0.681670  0.211300  0.795940  1.0  -0.0229
  C  C200  1  0.653360  0.287500  0.827520  1.0  -0.0582
  C  C201  1  0.694690  0.321300  0.893580  1.0  0.4833
  C  C202  1  0.585660  0.336000  0.796520  1.0  0.03
  C  C203  1  0.551040  0.304900  0.733280  1.0  0.0416
  C  C204  1  0.412230  0.112600  0.447060  1.0  0.173
  C  C205  1  0.426490  0.134600  0.507580  1.0  -0.2322
  C  C206  1  0.462040  0.222600  0.543080  1.0  0.2272
  C  C207  1  0.477030  0.285100  0.516260  1.0  -0.2125
  C  C208  1  0.461290  0.257200  0.454980  1.0  0.1582
  C  C209  1  0.785370  0.476300  0.275540  1.0  0.6857
  C  C210  1  0.719400  0.406100  0.277000  1.0  -0.1359
  C  C211  1  0.663040  0.346200  0.223080  1.0  -0.053
  C  C212  1  0.600420  0.282200  0.223840  1.0  -0.0119
  C  C213  1  0.592620  0.276800  0.277840  1.0  -0.1398
  C  C214  1  0.650040  0.336100  0.331480  1.0  -0.0226
  C  C215  1  0.712090  0.400400  0.331180  1.0  -0.0372
  C  C216  1  0.521320  0.209800  0.277040  1.0  0.6852
  C  C217  1  0.279500  0.233500  0.252200  1.0  0.7006
  C  C218  1  0.217720  0.308500  0.253440  1.0  -0.1204
  C  C219  1  0.211030  0.360200  0.307660  1.0  -0.0354
  C  C220  1  0.149810  0.425400  0.310420  1.0  -0.0593
  C  C221  1  0.091730  0.438900  0.256860  1.0  -0.0788
  C  C222  1  0.100470  0.388400  0.202340  1.0  -0.0348
  C  C223  1  0.163210  0.323700  0.200420  1.0  -0.0622
  C  C224  1  0.017470  0.503200  0.258940  1.0  0.6954
  C  C225  1  0.263740  0.053800  0.069480  1.0  0.1552
  C  C226  1  0.242040  0.019500  0.008280  1.0  -0.2203
  C  C227  1  0.277340  0.940100  0.985480  1.0  0.2357
  C  C228  1  0.331710  0.896700  0.024020  1.0  -0.2285
  C  C229  1  0.350830  0.937700  0.085460  1.0  0.1745
  C  C230  1  0.299400  0.949400  0.893600  1.0  0.5057
  C  C231  1  0.275320  0.912400  0.827640  1.0  -0.14
  C  C232  1  0.312900  0.954400  0.796800  1.0  0.0003
  C  C233  1  0.285610  0.924400  0.734020  1.0  -0.0329
  C  C234  1  0.219410  0.851500  0.702620  1.0  -0.1508
  C  C235  1  0.187840  0.822500  0.636680  1.0  0.5385
  C  C236  1  0.080380  0.699300  0.635760  1.0  0.4281
  C  C237  1  0.115480  0.728900  0.702160  1.0  -0.0594
  C  C238  1  0.084140  0.682400  0.732480  1.0  -0.0484
  C  C239  1  0.114270  0.711300  0.795940  1.0  -0.0235
  C  C240  1  0.174160  0.787500  0.827520  1.0  -0.057
  C  C241  1  0.198890  0.821300  0.893580  1.0  0.4851
  C  C242  1  0.210860  0.836000  0.796520  1.0  0.0303
  C  C243  1  0.182240  0.804900  0.733280  1.0  0.0434
  C  C244  1  0.034830  0.612600  0.447060  1.0  0.1732
  C  C245  1  0.081090  0.634600  0.507580  1.0  -0.2348
  C  C246  1  0.081040  0.722600  0.543080  1.0  0.225
  C  C247  1  0.039230  0.785100  0.516260  1.0  -0.2123
  C  C248  1  0.993690  0.757200  0.454980  1.0  0.1602
  N  N249  1  0.681450  0.984300  0.891700  1.0  -0.3125
  N  N250  1  0.008870  0.327900  0.579740  1.0  -0.3287
  N  N251  1  0.741990  0.097900  0.078180  1.0  -0.2487
  N  N252  1  0.879030  0.252700  0.392860  1.0  -0.2727
  N  N253  1  0.210250  0.484300  0.891700  1.0  -0.3124
  N  N254  1  0.570870  0.827900  0.579740  1.0  -0.3293
  N  N255  1  0.336190  0.597900  0.078180  1.0  -0.2498
  N  N256  1  0.513830  0.752700  0.392860  1.0  -0.2709
  N  N257  1  0.789750  0.515700  0.108300  1.0  -0.313
  N  N258  1  0.429130  0.172100  0.420260  1.0  -0.3296
  N  N259  1  0.663810  0.402100  0.921820  1.0  -0.2495
  N  N260  1  0.486170  0.247300  0.607140  1.0  -0.2721
  N  N261  1  0.318550  0.015700  0.108300  1.0  -0.3124
  N  N262  1  0.991130  0.672100  0.420260  1.0  -0.3292
  N  N263  1  0.258010  0.902100  0.921820  1.0  -0.249
  N  N264  1  0.120970  0.747300  0.607140  1.0  -0.2721
  O  O265  1  0.213840  0.520700  0.775280  1.0  -0.5851
  O  O266  1  0.163430  0.472600  0.674660  1.0  -0.578
  O  O267  1  0.529690  0.840100  0.772980  1.0  -0.6067
  O  O268  1  0.485400  0.790200  0.673000  1.0  -0.5794
  O  O269  1  0.720890  0.817100  0.798980  1.0  -0.5765
  O  O270  1  0.674950  0.777300  0.698500  1.0  -0.5947
  O  O271  1  0.036800  0.493700  0.790400  1.0  -0.5873
  O  O272  1  0.985550  0.454600  0.689900  1.0  -0.5969
  O  O273  1  0.647260  0.983000  0.076520  1.0  -0.4684
  O  O274  1  0.831580  0.214900  0.078160  1.0  -0.4544
  O  O275  1  0.784010  0.138700  0.392420  1.0  -0.4904
  O  O276  1  0.979310  0.362500  0.392820  1.0  -0.4813
  O  O277  1  0.561440  0.020700  0.775280  1.0  -0.5868
  O  O278  1  0.511230  0.972600  0.674660  1.0  -0.5788
  O  O279  1  0.243290  0.340100  0.772980  1.0  -0.606
  O  O280  1  0.187600  0.290200  0.673000  1.0  -0.5791
  O  O281  1  0.078090  0.317100  0.798980  1.0  -0.5754
  O  O282  1  0.023550  0.277300  0.698500  1.0  -0.5923
  O  O283  1  0.753600  0.993700  0.790400  1.0  -0.5847
  O  O284  1  0.704350  0.954600  0.689900  1.0  -0.5965
  O  O285  1  0.429260  0.483000  0.076520  1.0  -0.4688
  O  O286  1  0.246580  0.714900  0.078160  1.0  -0.4523
  O  O287  1  0.608410  0.638700  0.392420  1.0  -0.4906
  O  O288  1  0.413510  0.862500  0.392820  1.0  -0.483
  O  O289  1  0.438560  0.979300  0.224720  1.0  -0.587
  O  O290  1  0.488770  0.027400  0.325340  1.0  -0.5777
  O  O291  1  0.756710  0.659900  0.227020  1.0  -0.606
  O  O292  1  0.812400  0.709800  0.327000  1.0  -0.5792
  O  O293  1  0.921910  0.682900  0.201020  1.0  -0.5749
  O  O294  1  0.976450  0.722700  0.301500  1.0  -0.594
  O  O295  1  0.246400  0.006300  0.209600  1.0  -0.5866
  O  O296  1  0.295650  0.045400  0.310100  1.0  -0.598
  O  O297  1  0.570740  0.517000  0.923480  1.0  -0.4692
  O  O298  1  0.753420  0.285100  0.921840  1.0  -0.4538
  O  O299  1  0.391590  0.361300  0.607580  1.0  -0.4906
  O  O300  1  0.586490  0.137500  0.607180  1.0  -0.4835
  O  O301  1  0.786160  0.479300  0.224720  1.0  -0.5859
  O  O302  1  0.836570  0.527400  0.325340  1.0  -0.576
  O  O303  1  0.470310  0.159900  0.227020  1.0  -0.6067
  O  O304  1  0.514600  0.209800  0.327000  1.0  -0.5776
  O  O305  1  0.279110  0.182900  0.201020  1.0  -0.5774
  O  O306  1  0.325050  0.222700  0.301500  1.0  -0.5929
  O  O307  1  0.963200  0.506300  0.209600  1.0  -0.5893
  O  O308  1  0.014450  0.545400  0.310100  1.0  -0.5958
  O  O309  1  0.352740  0.017000  0.923480  1.0  -0.4699
  O  O310  1  0.168420  0.785100  0.921840  1.0  -0.4524
  O  O311  1  0.215990  0.861300  0.607580  1.0  -0.4906
  O  O312  1  0.020690  0.637500  0.607180  1.0  -0.481
