# generated using pymatgen
data_Er(CO2)3
_symmetry_space_group_name_H-M   'P 1'
_cell_length_a   7.23080000
_cell_length_b   17.98450000
_cell_length_c   17.98450000
_cell_angle_alpha   61.76700000
_cell_angle_beta   82.29810000
_cell_angle_gamma   97.70190000
_symmetry_Int_Tables_number   1
_chemical_formula_structural   Er(CO2)3
_chemical_formula_sum   'Er6 C18 O36'
_cell_volume   1989.03499645
_cell_formula_units_Z   6
loop_
 _symmetry_equiv_pos_site_id
 _symmetry_equiv_pos_as_xyz
  1  'x, y, z'
loop_
 _atom_site_type_symbol
 _atom_site_label
 _atom_site_symmetry_multiplicity
 _atom_site_fract_x
 _atom_site_fract_y
 _atom_site_fract_z
 _atom_site_occupancy
 _atom_site_charge
  Er  Er1  1  0.783230  0.000520  0.668510  1.0  1.5313
  Er  Er2  1  0.451740  0.668510  0.330970  1.0  1.5313
  Er  Er3  1  0.782710  0.330970  0.000520  1.0  1.5313
  Er  Er4  1  0.216770  0.999480  0.331490  1.0  1.5319
  Er  Er5  1  0.548260  0.331490  0.669030  1.0  1.5316
  Er  Er6  1  0.217290  0.669030  0.999480  1.0  1.5317
  C  C7  1  0.076100  0.039700  0.490400  1.0  0.6106
  C  C8  1  0.573200  0.133400  0.707400  1.0  0.6084
  C  C9  1  0.743000  0.195300  0.630400  1.0  0.6271
  C  C10  1  0.566500  0.490400  0.469900  1.0  0.6092
  C  C11  1  0.280600  0.707400  0.159200  1.0  0.6081
  C  C12  1  0.373400  0.630400  0.174300  1.0  0.6288
  C  C13  1  0.036400  0.469900  0.039700  1.0  0.6109
  C  C14  1  0.439800  0.159200  0.133400  1.0  0.6086
  C  C15  1  0.547700  0.174300  0.195300  1.0  0.6294
  C  C16  1  0.923900  0.960300  0.509600  1.0  0.6097
  C  C17  1  0.426800  0.866600  0.292600  1.0  0.6086
  C  C18  1  0.257000  0.804700  0.369600  1.0  0.6289
  C  C19  1  0.433500  0.509600  0.530100  1.0  0.6101
  C  C20  1  0.719400  0.292600  0.840800  1.0  0.609
  C  C21  1  0.626600  0.369600  0.825700  1.0  0.6301
  C  C22  1  0.963600  0.530100  0.960300  1.0  0.6094
  C  C23  1  0.560200  0.840800  0.866600  1.0  0.6103
  C  C24  1  0.452300  0.825700  0.804700  1.0  0.6294
  O  O25  1  0.555770  0.054840  0.732430  1.0  -0.5467
  O  O26  1  0.845700  0.161340  0.600640  1.0  -0.5548
  O  O27  1  0.050100  0.068590  0.541490  1.0  -0.5797
  O  O28  1  0.209430  0.068700  0.425110  1.0  -0.5576
  O  O29  1  0.468760  0.167900  0.736620  1.0  -0.5335
  O  O30  1  0.760600  0.274360  0.605060  1.0  -0.6194
  O  O31  1  0.288200  0.732430  0.212730  1.0  -0.5501
  O  O32  1  0.446340  0.600640  0.238020  1.0  -0.5562
  O  O33  1  0.591590  0.541490  0.389920  1.0  -0.5818
  O  O34  1  0.634540  0.425110  0.506190  1.0  -0.5579
  O  O35  1  0.205380  0.736620  0.095480  1.0  -0.5343
  O  O36  1  0.365660  0.605060  0.120580  1.0  -0.621
  O  O37  1  0.500930  0.212730  0.054840  1.0  -0.5505
  O  O38  1  0.684360  0.238020  0.161340  1.0  -0.5539
  O  O39  1  0.981510  0.389920  0.068590  1.0  -0.5774
  O  O40  1  0.140730  0.506190  0.068700  1.0  -0.5575
  O  O41  1  0.300860  0.095480  0.167900  1.0  -0.4889
  O  O42  1  0.486240  0.120580  0.274360  1.0  -0.621
  O  O43  1  0.444230  0.945160  0.267570  1.0  -0.5452
  O  O44  1  0.154300  0.838660  0.399360  1.0  -0.5529
  O  O45  1  0.949900  0.931410  0.458510  1.0  -0.5802
  O  O46  1  0.790570  0.931300  0.574890  1.0  -0.5563
  O  O47  1  0.531240  0.832100  0.263380  1.0  -0.5333
  O  O48  1  0.239400  0.725640  0.394940  1.0  -0.6188
  O  O49  1  0.711800  0.267570  0.787270  1.0  -0.5499
  O  O50  1  0.553660  0.399360  0.761980  1.0  -0.5562
  O  O51  1  0.408410  0.458510  0.610080  1.0  -0.5798
  O  O52  1  0.365460  0.574890  0.493810  1.0  -0.5557
  O  O53  1  0.794620  0.263380  0.904520  1.0  -0.5347
  O  O54  1  0.634340  0.394940  0.879420  1.0  -0.6224
  O  O55  1  0.499070  0.787270  0.945160  1.0  -0.5502
  O  O56  1  0.315640  0.761980  0.838660  1.0  -0.5536
  O  O57  1  0.018490  0.610080  0.931410  1.0  -0.5762
  O  O58  1  0.859270  0.493810  0.931300  1.0  -0.5564
  O  O59  1  0.699140  0.904520  0.832100  1.0  -0.4906
  O  O60  1  0.513760  0.879420  0.725640  1.0  -0.6212
