# generated using pymatgen
data_Zn2H21C30N3O7
_symmetry_space_group_name_H-M   'P 1'
_cell_length_a   15.95400000
_cell_length_b   19.22600000
_cell_length_c   16.73400000
_cell_angle_alpha   90.00000000
_cell_angle_beta   96.82800000
_cell_angle_gamma   90.00000000
_symmetry_Int_Tables_number   1
_chemical_formula_structural   Zn2H21C30N3O7
_chemical_formula_sum   'Zn8 H84 C120 N12 O28'
_cell_volume   5096.44208212
_cell_formula_units_Z   4
loop_
 _symmetry_equiv_pos_site_id
 _symmetry_equiv_pos_as_xyz
  1  'x, y, z'
loop_
 _atom_site_type_symbol
 _atom_site_label
 _atom_site_symmetry_multiplicity
 _atom_site_fract_x
 _atom_site_fract_y
 _atom_site_fract_z
 _atom_site_occupancy
 _atom_site_charge
  Zn  Zn1  1  0.534490  0.427320  0.533300  1.0  1.0985
  Zn  Zn2  1  0.333720  0.431020  0.501840  1.0  1.0365
  Zn  Zn3  1  0.465510  0.927320  0.966700  1.0  1.096
  Zn  Zn4  1  0.666280  0.931020  0.998160  1.0  1.0378
  Zn  Zn5  1  0.465510  0.572680  0.466700  1.0  1.096
  Zn  Zn6  1  0.666280  0.568980  0.498160  1.0  1.0385
  Zn  Zn7  1  0.534490  0.072680  0.033300  1.0  1.0986
  Zn  Zn8  1  0.333720  0.068980  0.001840  1.0  1.0368
  H  H9  1  0.577200  0.158000  0.853000  1.0  0.303
  H  H10  1  0.262100  0.338100  0.671000  1.0  0.3171
  H  H11  1  0.868200  0.447900  0.346900  1.0  0.3118
  H  H12  1  0.719200  0.138100  0.851900  1.0  0.1038
  H  H13  1  0.853900  0.181700  0.854600  1.0  0.1181
  H  H14  1  0.871700  0.299500  0.836800  1.0  0.109
  H  H15  1  0.755300  0.371300  0.809100  1.0  0.1046
  H  H16  1  0.619200  0.328900  0.808600  1.0  0.1228
  H  H17  1  0.296300  0.211700  0.811200  1.0  0.0879
  H  H18  1  0.539200  0.282500  0.713200  1.0  0.1058
  H  H19  1  0.127100  0.370500  0.721100  1.0  0.1038
  H  H20  1  0.993000  0.330900  0.734100  1.0  0.096
  H  H21  1  0.966400  0.214500  0.738000  1.0  0.102
  H  H22  1  0.071000  0.136200  0.721300  1.0  0.1038
  H  H23  1  0.203000  0.175000  0.705700  1.0  0.11
  H  H24  1  0.076800  0.456800  0.405900  1.0  0.0982
  H  H25  1  0.847400  0.416600  0.216200  1.0  0.1232
  H  H26  1  0.014800  0.497300  0.071400  1.0  0.0892
  H  H27  1  0.889800  0.428500  0.082400  1.0  0.1277
  H  H28  1  0.091300  0.543300  0.175400  1.0  0.119
  H  H29  1  0.050800  0.530200  0.305000  1.0  0.105
  H  H30  1  0.422800  0.658000  0.647000  1.0  0.303
  H  H31  1  0.737900  0.838100  0.829000  1.0  0.3158
  H  H32  1  0.131800  0.947900  0.153100  1.0  0.3126
  H  H33  1  0.280800  0.638100  0.648100  1.0  0.1038
  H  H34  1  0.146100  0.681700  0.645400  1.0  0.1176
  H  H35  1  0.128300  0.799500  0.663200  1.0  0.1086
  H  H36  1  0.244700  0.871300  0.690900  1.0  0.105
  H  H37  1  0.380800  0.828900  0.691400  1.0  0.1223
  H  H38  1  0.703700  0.711700  0.688800  1.0  0.0869
  H  H39  1  0.460800  0.782500  0.786800  1.0  0.1051
  H  H40  1  0.872900  0.870500  0.778900  1.0  0.1036
  H  H41  1  0.007000  0.830900  0.765900  1.0  0.0955
  H  H42  1  0.033600  0.714500  0.762000  1.0  0.1031
  H  H43  1  0.929000  0.636200  0.778700  1.0  0.1037
  H  H44  1  0.797000  0.675000  0.794300  1.0  0.1098
  H  H45  1  0.923200  0.956800  0.094100  1.0  0.0981
  H  H46  1  0.152600  0.916600  0.283800  1.0  0.123
  H  H47  1  0.985200  0.997300  0.428600  1.0  0.0894
  H  H48  1  0.110200  0.928500  0.417600  1.0  0.1276
  H  H49  1  0.908700  0.043300  0.324600  1.0  0.1179
  H  H50  1  0.949200  0.030200  0.195000  1.0  0.1051
  H  H51  1  0.422800  0.842000  0.147000  1.0  0.3035
  H  H52  1  0.737900  0.661900  0.329000  1.0  0.3164
  H  H53  1  0.131800  0.552100  0.653100  1.0  0.3123
  H  H54  1  0.280800  0.861900  0.148100  1.0  0.104
  H  H55  1  0.146100  0.818300  0.145400  1.0  0.1175
  H  H56  1  0.128300  0.700500  0.163200  1.0  0.1098
  H  H57  1  0.244700  0.628700  0.190900  1.0  0.1045
  H  H58  1  0.380800  0.671100  0.191400  1.0  0.1222
  H  H59  1  0.703700  0.788300  0.188800  1.0  0.0868
  H  H60  1  0.460800  0.717500  0.286800  1.0  0.1054
  H  H61  1  0.872900  0.629500  0.278900  1.0  0.1039
  H  H62  1  0.007000  0.669100  0.265900  1.0  0.0972
  H  H63  1  0.033600  0.785500  0.262000  1.0  0.103
  H  H64  1  0.929000  0.863800  0.278700  1.0  0.1029
  H  H65  1  0.797000  0.825000  0.294300  1.0  0.1102
  H  H66  1  0.923200  0.543200  0.594100  1.0  0.0975
  H  H67  1  0.152600  0.583400  0.783800  1.0  0.1245
  H  H68  1  0.985200  0.502700  0.928600  1.0  0.0901
  H  H69  1  0.110200  0.571500  0.917600  1.0  0.1272
  H  H70  1  0.908700  0.456700  0.824600  1.0  0.1182
  H  H71  1  0.949200  0.469800  0.695000  1.0  0.105
  H  H72  1  0.577200  0.342000  0.353000  1.0  0.3022
  H  H73  1  0.262100  0.161900  0.171000  1.0  0.3165
  H  H74  1  0.868200  0.052100  0.846900  1.0  0.3123
  H  H75  1  0.719200  0.361900  0.351900  1.0  0.1034
  H  H76  1  0.853900  0.318300  0.354600  1.0  0.1178
  H  H77  1  0.871700  0.200500  0.336800  1.0  0.11
  H  H78  1  0.755300  0.128700  0.309100  1.0  0.1046
  H  H79  1  0.619200  0.171100  0.308600  1.0  0.1216
  H  H80  1  0.296300  0.288300  0.311200  1.0  0.0877
  H  H81  1  0.539200  0.217500  0.213200  1.0  0.1061
  H  H82  1  0.127100  0.129500  0.221100  1.0  0.1041
  H  H83  1  0.993000  0.169100  0.234100  1.0  0.0971
  H  H84  1  0.966400  0.285500  0.238000  1.0  0.1017
  H  H85  1  0.071000  0.363800  0.221300  1.0  0.1034
  H  H86  1  0.203000  0.325000  0.205700  1.0  0.11
  H  H87  1  0.076800  0.043200  0.905900  1.0  0.0982
  H  H88  1  0.847400  0.083400  0.716200  1.0  0.1249
  H  H89  1  0.014800  0.002700  0.571400  1.0  0.09
  H  H90  1  0.889800  0.071500  0.582400  1.0  0.1274
  H  H91  1  0.091300  0.956700  0.675400  1.0  0.1188
  H  H92  1  0.050800  0.969800  0.805000  1.0  0.1055
  C  C93  1  0.726700  0.185200  0.842700  1.0  -0.1013
  C  C94  1  0.807400  0.211100  0.845400  1.0  -0.1048
  C  C95  1  0.817700  0.280800  0.834100  1.0  -0.1031
  C  C96  1  0.747100  0.324200  0.818500  1.0  -0.0959
  C  C97  1  0.665400  0.299200  0.816500  1.0  -0.2855
  C  C98  1  0.655000  0.228300  0.826500  1.0  0.2256
  C  C99  1  0.496700  0.222700  0.798000  1.0  0.1789
  C  C100  1  0.421900  0.202100  0.826700  1.0  -0.2072
  C  C101  1  0.345300  0.226800  0.791600  1.0  -0.1143
  C  C102  1  0.338900  0.272400  0.729500  1.0  0.1348
  C  C103  1  0.413600  0.293900  0.698000  1.0  -0.175
  C  C104  1  0.490100  0.268400  0.733500  1.0  -0.1818
  C  C105  1  0.421500  0.149100  0.896200  1.0  0.7165
  C  C106  1  0.415200  0.342800  0.629100  1.0  0.7037
  C  C107  1  0.179900  0.278100  0.713400  1.0  0.2581
  C  C108  1  0.116600  0.323000  0.721200  1.0  -0.1532
  C  C109  1  0.036200  0.299300  0.729400  1.0  -0.115
  C  C110  1  0.020100  0.230100  0.730700  1.0  -0.0928
  C  C111  1  0.082200  0.183700  0.721500  1.0  -0.0993
  C  C112  1  0.160700  0.207100  0.712600  1.0  -0.1404
  C  C113  1  0.180200  0.481100  0.533600  1.0  0.6563
  C  C114  1  0.088700  0.489800  0.518900  1.0  -0.1481
  C  C115  1  0.045300  0.474600  0.444500  1.0  -0.1587
  C  C116  1  0.959100  0.483400  0.421600  1.0  0.1902
  C  C117  1  0.947500  0.472800  0.271600  1.0  0.168
  C  C118  1  0.895600  0.441200  0.207300  1.0  -0.1538
  C  C119  1  0.997800  0.490600  0.122100  1.0  -0.0482
  C  C120  1  0.920300  0.448600  0.127400  1.0  -0.1204
  C  C121  1  0.043000  0.518200  0.182800  1.0  -0.1114
  C  C122  1  0.018600  0.510200  0.260900  1.0  -0.1415
  C  C123  1  0.273300  0.685200  0.657300  1.0  -0.1016
  C  C124  1  0.192600  0.711100  0.654600  1.0  -0.1035
  C  C125  1  0.182300  0.780800  0.665900  1.0  -0.1035
  C  C126  1  0.252900  0.824200  0.681500  1.0  -0.0964
  C  C127  1  0.334600  0.799200  0.683500  1.0  -0.2853
  C  C128  1  0.345000  0.728300  0.673500  1.0  0.226
  C  C129  1  0.503300  0.722700  0.702000  1.0  0.1788
  C  C130  1  0.578100  0.702100  0.673300  1.0  -0.2075
  C  C131  1  0.654700  0.726800  0.708400  1.0  -0.1125
  C  C132  1  0.661100  0.772400  0.770500  1.0  0.1345
  C  C133  1  0.586400  0.793900  0.802000  1.0  -0.1741
  C  C134  1  0.509900  0.768400  0.766500  1.0  -0.1829
  C  C135  1  0.578500  0.649100  0.603800  1.0  0.7158
  C  C136  1  0.584800  0.842800  0.870900  1.0  0.7029
  C  C137  1  0.820100  0.778100  0.786600  1.0  0.2582
  C  C138  1  0.883400  0.823000  0.778800  1.0  -0.1543
  C  C139  1  0.963800  0.799300  0.770600  1.0  -0.1133
  C  C140  1  0.979900  0.730100  0.769300  1.0  -0.0906
  C  C141  1  0.917800  0.683700  0.778500  1.0  -0.1011
  C  C142  1  0.839300  0.707100  0.787400  1.0  -0.1388
  C  C143  1  0.819800  0.981100  0.966400  1.0  0.6555
  C  C144  1  0.911300  0.989800  0.981100  1.0  -0.1486
  C  C145  1  0.954700  0.974600  0.055500  1.0  -0.1598
  C  C146  1  0.040900  0.983400  0.078400  1.0  0.1896
  C  C147  1  0.052500  0.972800  0.228400  1.0  0.1692
  C  C148  1  0.104400  0.941200  0.292700  1.0  -0.155
  C  C149  1  0.002200  0.990600  0.377900  1.0  -0.0493
  C  C150  1  0.079700  0.948600  0.372600  1.0  -0.1184
  C  C151  1  0.957000  0.018200  0.317200  1.0  -0.1148
  C  C152  1  0.981400  0.010200  0.239100  1.0  -0.1406
  C  C153  1  0.273300  0.814800  0.157300  1.0  -0.1036
  C  C154  1  0.192600  0.788900  0.154600  1.0  -0.1031
  C  C155  1  0.182300  0.719200  0.165900  1.0  -0.1028
  C  C156  1  0.252900  0.675800  0.181500  1.0  -0.0973
  C  C157  1  0.334600  0.700800  0.183500  1.0  -0.2855
  C  C158  1  0.345000  0.771700  0.173500  1.0  0.226
  C  C159  1  0.503300  0.777300  0.202000  1.0  0.1788
  C  C160  1  0.578100  0.797900  0.173300  1.0  -0.2066
  C  C161  1  0.654700  0.773200  0.208400  1.0  -0.1127
  C  C162  1  0.661100  0.727600  0.270500  1.0  0.1342
  C  C163  1  0.586400  0.706100  0.302000  1.0  -0.1739
  C  C164  1  0.509900  0.731600  0.266500  1.0  -0.1829
  C  C165  1  0.578500  0.850900  0.103800  1.0  0.716
  C  C166  1  0.584800  0.657200  0.370900  1.0  0.7028
  C  C167  1  0.820100  0.721900  0.286600  1.0  0.2582
  C  C168  1  0.883400  0.677000  0.278800  1.0  -0.154
  C  C169  1  0.963800  0.700700  0.270600  1.0  -0.113
  C  C170  1  0.979900  0.769900  0.269300  1.0  -0.0906
  C  C171  1  0.917800  0.816300  0.278500  1.0  -0.102
  C  C172  1  0.839300  0.792900  0.287400  1.0  -0.1396
  C  C173  1  0.819800  0.518900  0.466400  1.0  0.6553
  C  C174  1  0.911300  0.510200  0.481100  1.0  -0.1469
  C  C175  1  0.954700  0.525400  0.555500  1.0  -0.1621
  C  C176  1  0.040900  0.516600  0.578400  1.0  0.1897
  C  C177  1  0.052500  0.527200  0.728400  1.0  0.1693
  C  C178  1  0.104400  0.558800  0.792700  1.0  -0.1541
  C  C179  1  0.002200  0.509400  0.877900  1.0  -0.0485
  C  C180  1  0.079700  0.551400  0.872600  1.0  -0.1187
  C  C181  1  0.957000  0.481800  0.817200  1.0  -0.1142
  C  C182  1  0.981400  0.489800  0.739100  1.0  -0.141
  C  C183  1  0.726700  0.314800  0.342700  1.0  -0.1039
  C  C184  1  0.807400  0.288900  0.345400  1.0  -0.1044
  C  C185  1  0.817700  0.219200  0.334100  1.0  -0.1023
  C  C186  1  0.747100  0.175800  0.318500  1.0  -0.0964
  C  C187  1  0.665400  0.200800  0.316500  1.0  -0.285
  C  C188  1  0.655000  0.271700  0.326500  1.0  0.2257
  C  C189  1  0.496700  0.277300  0.298000  1.0  0.1789
  C  C190  1  0.421900  0.297900  0.326700  1.0  -0.2069
  C  C191  1  0.345300  0.273200  0.291600  1.0  -0.1145
  C  C192  1  0.338900  0.227600  0.229500  1.0  0.1345
  C  C193  1  0.413600  0.206100  0.198000  1.0  -0.1754
  C  C194  1  0.490100  0.231600  0.233500  1.0  -0.182
  C  C195  1  0.421500  0.350900  0.396200  1.0  0.7161
  C  C196  1  0.415200  0.157200  0.129100  1.0  0.7033
  C  C197  1  0.179900  0.221900  0.213400  1.0  0.2581
  C  C198  1  0.116600  0.177000  0.221200  1.0  -0.1534
  C  C199  1  0.036200  0.200700  0.229400  1.0  -0.1142
  C  C200  1  0.020100  0.269900  0.230700  1.0  -0.0933
  C  C201  1  0.082200  0.316300  0.221500  1.0  -0.1004
  C  C202  1  0.160700  0.292900  0.212600  1.0  -0.1396
  C  C203  1  0.180200  0.018900  0.033600  1.0  0.6562
  C  C204  1  0.088700  0.010200  0.018900  1.0  -0.1468
  C  C205  1  0.045300  0.025400  0.944500  1.0  -0.1612
  C  C206  1  0.959100  0.016600  0.921600  1.0  0.1902
  C  C207  1  0.947500  0.027200  0.771600  1.0  0.168
  C  C208  1  0.895600  0.058800  0.707300  1.0  -0.1536
  C  C209  1  0.997800  0.009400  0.622100  1.0  -0.048
  C  C210  1  0.920300  0.051400  0.627400  1.0  -0.1207
  C  C211  1  0.043000  0.981800  0.682800  1.0  -0.1111
  C  C212  1  0.018600  0.989800  0.760900  1.0  -0.1412
  N  N213  1  0.576800  0.197600  0.829100  1.0  -0.345
  N  N214  1  0.260600  0.301500  0.700400  1.0  -0.3432
  N  N215  1  0.917800  0.465500  0.347200  1.0  -0.3686
  N  N216  1  0.423200  0.697600  0.670900  1.0  -0.3453
  N  N217  1  0.739400  0.801500  0.799600  1.0  -0.3442
  N  N218  1  0.082200  0.965500  0.152800  1.0  -0.3679
  N  N219  1  0.423200  0.802400  0.170900  1.0  -0.3429
  N  N220  1  0.739400  0.698500  0.299600  1.0  -0.3448
  N  N221  1  0.082200  0.534500  0.652800  1.0  -0.3672
  N  N222  1  0.576800  0.302400  0.329100  1.0  -0.3433
  N  N223  1  0.260600  0.198500  0.200400  1.0  -0.3435
  N  N224  1  0.917800  0.034500  0.847200  1.0  -0.3678
  O  O225  1  0.486100  0.357400  0.608400  1.0  -0.642
  O  O226  1  0.345400  0.366100  0.596100  1.0  -0.5861
  O  O227  1  0.488700  0.124200  0.926800  1.0  -0.5839
  O  O228  1  0.349600  0.134900  0.915300  1.0  -0.6053
  O  O229  1  0.214900  0.452000  0.475000  1.0  -0.6048
  O  O230  1  0.223100  0.500100  0.595100  1.0  -0.4887
  O  O231  1  0.427300  0.494310  0.537000  1.0  -0.8055
  O  O232  1  0.513900  0.857400  0.891600  1.0  -0.6407
  O  O233  1  0.654600  0.866100  0.903900  1.0  -0.5872
  O  O234  1  0.511300  0.624200  0.573200  1.0  -0.5842
  O  O235  1  0.650400  0.634900  0.584700  1.0  -0.6058
  O  O236  1  0.785100  0.952000  0.025000  1.0  -0.6037
  O  O237  1  0.776900  0.000100  0.904900  1.0  -0.4887
  O  O238  1  0.572700  0.994310  0.963000  1.0  -0.8062
  O  O239  1  0.513900  0.642600  0.391600  1.0  -0.6412
  O  O240  1  0.654600  0.633900  0.403900  1.0  -0.5881
  O  O241  1  0.511300  0.875800  0.073200  1.0  -0.5844
  O  O242  1  0.650400  0.865100  0.084700  1.0  -0.6056
  O  O243  1  0.785100  0.548000  0.525000  1.0  -0.6036
  O  O244  1  0.776900  0.499900  0.404900  1.0  -0.4904
  O  O245  1  0.572700  0.505690  0.463000  1.0  -0.807
  O  O246  1  0.486100  0.142600  0.108400  1.0  -0.6421
  O  O247  1  0.345400  0.133900  0.096100  1.0  -0.5873
  O  O248  1  0.488700  0.375800  0.426800  1.0  -0.5843
  O  O249  1  0.349600  0.365100  0.415300  1.0  -0.6049
  O  O250  1  0.214900  0.048000  0.975000  1.0  -0.6043
  O  O251  1  0.223100  0.999900  0.095100  1.0  -0.4897
  O  O252  1  0.427300  0.005690  0.037000  1.0  -0.8075
