# generated using pymatgen
data_GdH8C7O10
_symmetry_space_group_name_H-M   'P 1'
_cell_length_a   6.11390000
_cell_length_b   8.77180000
_cell_length_c   13.15430000
_cell_angle_alpha   101.04800000
_cell_angle_beta   101.80500000
_cell_angle_gamma   96.54600000
_symmetry_Int_Tables_number   1
_chemical_formula_structural   GdH8C7O10
_chemical_formula_sum   'Gd2 H16 C14 O20'
_cell_volume   669.07181085
_cell_formula_units_Z   2
loop_
 _symmetry_equiv_pos_site_id
 _symmetry_equiv_pos_as_xyz
  1  'x, y, z'
loop_
 _atom_site_type_symbol
 _atom_site_label
 _atom_site_symmetry_multiplicity
 _atom_site_fract_x
 _atom_site_fract_y
 _atom_site_fract_z
 _atom_site_occupancy
 _atom_site_charge
  Gd  Gd1  1  0.747160  0.219310  0.724570  1.0  2.1602
  Gd  Gd2  1  0.252840  0.780690  0.275430  1.0  2.1684
  H  H3  1  0.683000  0.330000  0.951000  1.0  0.3492
  H  H4  1  0.173000  0.509000  0.791000  1.0  0.1256
  H  H5  1  0.674000  0.936000  0.825000  1.0  0.3345
  H  H6  1  0.459600  0.246400  0.065100  1.0  0.3801
  H  H7  1  0.335500  0.896300  0.820300  1.0  0.0926
  H  H8  1  0.262400  0.023900  0.983000  1.0  0.0808
  H  H9  1  0.800600  0.577200  0.993700  1.0  0.0888
  H  H10  1  0.066000  0.674000  0.894700  1.0  0.0975
  H  H11  1  0.317000  0.670000  0.049000  1.0  0.348
  H  H12  1  0.827000  0.491000  0.209000  1.0  0.1272
  H  H13  1  0.326000  0.064000  0.175000  1.0  0.3365
  H  H14  1  0.540400  0.753600  0.934900  1.0  0.3821
  H  H15  1  0.664500  0.103700  0.179700  1.0  0.0928
  H  H16  1  0.737600  0.976100  0.017000  1.0  0.0828
  H  H17  1  0.199400  0.422800  0.006300  1.0  0.0891
  H  H18  1  0.934000  0.326000  0.105300  1.0  0.0982
  C  C19  1  0.408400  0.008300  0.850500  1.0  0.0696
  C  C20  1  0.267800  0.115200  0.794000  1.0  0.6841
  C  C21  1  0.417200  0.047900  0.970400  1.0  0.1042
  C  C22  1  0.895500  0.507900  0.958700  1.0  0.1457
  C  C23  1  0.550300  0.928600  0.517700  1.0  0.5633
  C  C24  1  0.743600  0.591300  0.791600  1.0  0.6787
  C  C25  1  0.960700  0.571700  0.867400  1.0  0.0807
  C  C26  1  0.591600  0.991700  0.149500  1.0  0.0702
  C  C27  1  0.732200  0.884800  0.206000  1.0  0.6851
  C  C28  1  0.582800  0.952100  0.029600  1.0  0.1048
  C  C29  1  0.104500  0.492100  0.041300  1.0  0.1473
  C  C30  1  0.449700  0.071400  0.482300  1.0  0.5637
  C  C31  1  0.256400  0.408700  0.208400  1.0  0.6828
  C  C32  1  0.039300  0.428300  0.132600  1.0  0.0785
  O  O33  1  0.501700  0.800200  0.451500  1.0  -0.5887
  O  O34  1  0.065000  0.106600  0.800500  1.0  -0.7044
  O  O35  1  0.766900  0.356900  0.909700  1.0  -0.5547
  O  O36  1  0.067300  0.455100  0.813700  1.0  -0.5954
  O  O37  1  0.659500  0.479200  0.712400  1.0  -0.6174
  O  O38  1  0.630200  0.029000  0.829300  1.0  -0.5498
  O  O39  1  0.505300  0.212700  0.010300  1.0  -0.5489
  O  O40  1  0.658300  0.713800  0.815400  1.0  -0.6095
  O  O41  1  0.363900  0.200700  0.744200  1.0  -0.6706
  O  O42  1  0.678000  0.958600  0.609900  1.0  -0.6012
  O  O43  1  0.498300  0.199800  0.548500  1.0  -0.5911
  O  O44  1  0.935000  0.893400  0.199500  1.0  -0.7083
  O  O45  1  0.233100  0.643100  0.090300  1.0  -0.5533
  O  O46  1  0.932700  0.544900  0.186300  1.0  -0.5947
  O  O47  1  0.340500  0.520800  0.287600  1.0  -0.6164
  O  O48  1  0.369800  0.971000  0.170700  1.0  -0.5549
  O  O49  1  0.494700  0.787300  0.989700  1.0  -0.5494
  O  O50  1  0.341700  0.286200  0.184600  1.0  -0.6117
  O  O51  1  0.636100  0.799300  0.255800  1.0  -0.6718
  O  O52  1  0.322000  0.041400  0.390100  1.0  -0.6008
