# generated using pymatgen
data_Cu3H14C26(NO3)4
_symmetry_space_group_name_H-M   'P 1'
_cell_length_a   18.20560000
_cell_length_b   18.20560000
_cell_length_c   40.66550000
_cell_angle_alpha   90.00000000
_cell_angle_beta   90.00000000
_cell_angle_gamma   120.00000000
_symmetry_Int_Tables_number   1
_chemical_formula_structural   Cu3H14C26(NO3)4
_chemical_formula_sum   'Cu18 H84 C156 N24 O72'
_cell_volume   11672.57683079
_cell_formula_units_Z   6
loop_
 _symmetry_equiv_pos_site_id
 _symmetry_equiv_pos_as_xyz
  1  'x, y, z'
loop_
 _atom_site_type_symbol
 _atom_site_label
 _atom_site_symmetry_multiplicity
 _atom_site_fract_x
 _atom_site_fract_y
 _atom_site_fract_z
 _atom_site_occupancy
 _atom_site_charge
  Cu  Cu1  1  0.474850  0.949700  0.525400  1.0  0.9032
  Cu  Cu2  1  0.474850  0.525140  0.525400  1.0  0.9023
  Cu  Cu3  1  0.050290  0.525140  0.525400  1.0  0.9029
  Cu  Cu4  1  0.525150  0.050300  0.025400  1.0  0.9043
  Cu  Cu5  1  0.525150  0.474860  0.025400  1.0  0.9031
  Cu  Cu6  1  0.949710  0.474860  0.025400  1.0  0.902
  Cu  Cu7  1  0.525150  0.050300  0.474600  1.0  0.9037
  Cu  Cu8  1  0.949710  0.474860  0.474600  1.0  0.9017
  Cu  Cu9  1  0.525150  0.474860  0.474600  1.0  0.9014
  Cu  Cu10  1  0.474850  0.949700  0.974600  1.0  0.9037
  Cu  Cu11  1  0.050290  0.525140  0.974600  1.0  0.9017
  Cu  Cu12  1  0.474850  0.525140  0.974600  1.0  0.9024
  Cu  Cu13  1  0.941730  0.058280  0.250000  1.0  0.6911
  Cu  Cu14  1  0.116550  0.058280  0.250000  1.0  0.6894
  Cu  Cu15  1  0.941730  0.883460  0.250000  1.0  0.7019
  Cu  Cu16  1  0.058270  0.941720  0.750000  1.0  0.6899
  Cu  Cu17  1  0.883450  0.941720  0.750000  1.0  0.6915
  Cu  Cu18  1  0.058270  0.116540  0.750000  1.0  0.6949
  H  H19  1  0.638000  0.936000  0.416600  1.0  0.0976
  H  H20  1  0.696700  0.955700  0.374900  1.0  0.1082
  H  H21  1  0.778500  0.996400  0.328300  1.0  0.0897
  H  H22  1  0.298000  0.362000  0.416600  1.0  0.0982
  H  H23  1  0.259000  0.303300  0.374900  1.0  0.1075
  H  H24  1  0.217900  0.221500  0.328300  1.0  0.0889
  H  H25  1  0.064000  0.702000  0.416600  1.0  0.0977
  H  H26  1  0.044300  0.741000  0.374900  1.0  0.108
  H  H27  1  0.003600  0.782100  0.328300  1.0  0.0921
  H  H28  1  0.362000  0.064000  0.916600  1.0  0.0995
  H  H29  1  0.303300  0.044300  0.874900  1.0  0.1076
  H  H30  1  0.221500  0.003600  0.828300  1.0  0.0896
  H  H31  1  0.702000  0.638000  0.916600  1.0  0.0991
  H  H32  1  0.741000  0.696700  0.874900  1.0  0.1085
  H  H33  1  0.782100  0.778500  0.828300  1.0  0.0888
  H  H34  1  0.936000  0.298000  0.916600  1.0  0.0974
  H  H35  1  0.955700  0.259000  0.874900  1.0  0.1077
  H  H36  1  0.996400  0.217900  0.828300  1.0  0.0923
  H  H37  1  0.702000  0.064000  0.583400  1.0  0.0998
  H  H38  1  0.741000  0.044300  0.625100  1.0  0.1072
  H  H39  1  0.782100  0.003600  0.671700  1.0  0.0894
  H  H40  1  0.936000  0.638000  0.583400  1.0  0.0987
  H  H41  1  0.955700  0.696700  0.625100  1.0  0.1079
  H  H42  1  0.996400  0.778500  0.671700  1.0  0.0886
  H  H43  1  0.362000  0.298000  0.583400  1.0  0.0964
  H  H44  1  0.303300  0.259000  0.625100  1.0  0.1083
  H  H45  1  0.221500  0.217900  0.671700  1.0  0.0925
  H  H46  1  0.298000  0.936000  0.083400  1.0  0.0987
  H  H47  1  0.259000  0.955700  0.125100  1.0  0.1087
  H  H48  1  0.217900  0.996400  0.171700  1.0  0.0896
  H  H49  1  0.064000  0.362000  0.083400  1.0  0.0992
  H  H50  1  0.044300  0.303300  0.125100  1.0  0.1083
  H  H51  1  0.003600  0.221500  0.171700  1.0  0.0885
  H  H52  1  0.638000  0.702000  0.083400  1.0  0.0985
  H  H53  1  0.696700  0.741000  0.125100  1.0  0.1081
  H  H54  1  0.778500  0.782100  0.171700  1.0  0.0923
  H  H55  1  0.362000  0.064000  0.583400  1.0  0.1003
  H  H56  1  0.303300  0.044300  0.625100  1.0  0.1081
  H  H57  1  0.221500  0.003600  0.671700  1.0  0.0895
  H  H58  1  0.702000  0.638000  0.583400  1.0  0.099
  H  H59  1  0.741000  0.696700  0.625100  1.0  0.1083
  H  H60  1  0.782100  0.778500  0.671700  1.0  0.0885
  H  H61  1  0.936000  0.298000  0.583400  1.0  0.0976
  H  H62  1  0.955700  0.259000  0.625100  1.0  0.1077
  H  H63  1  0.996400  0.217900  0.671700  1.0  0.092
  H  H64  1  0.638000  0.936000  0.083400  1.0  0.0977
  H  H65  1  0.696700  0.955700  0.125100  1.0  0.1084
  H  H66  1  0.778500  0.996400  0.171700  1.0  0.0897
  H  H67  1  0.298000  0.362000  0.083400  1.0  0.0986
  H  H68  1  0.259000  0.303300  0.125100  1.0  0.108
  H  H69  1  0.217900  0.221500  0.171700  1.0  0.0883
  H  H70  1  0.064000  0.702000  0.083400  1.0  0.0978
  H  H71  1  0.044300  0.741000  0.125100  1.0  0.1083
  H  H72  1  0.003600  0.782100  0.171700  1.0  0.092
  H  H73  1  0.298000  0.936000  0.416600  1.0  0.0983
  H  H74  1  0.259000  0.955700  0.374900  1.0  0.1082
  H  H75  1  0.217900  0.996400  0.328300  1.0  0.0901
  H  H76  1  0.064000  0.362000  0.416600  1.0  0.0992
  H  H77  1  0.044300  0.303300  0.374900  1.0  0.1085
  H  H78  1  0.003600  0.221500  0.328300  1.0  0.0888
  H  H79  1  0.638000  0.702000  0.416600  1.0  0.098
  H  H80  1  0.696700  0.741000  0.374900  1.0  0.1081
  H  H81  1  0.778500  0.782100  0.328300  1.0  0.0922
  H  H82  1  0.702000  0.064000  0.916600  1.0  0.0995
  H  H83  1  0.741000  0.044300  0.874900  1.0  0.1071
  H  H84  1  0.782100  0.003600  0.828300  1.0  0.0892
  H  H85  1  0.936000  0.638000  0.916600  1.0  0.0985
  H  H86  1  0.955700  0.696700  0.874900  1.0  0.1074
  H  H87  1  0.996400  0.778500  0.828300  1.0  0.0891
  H  H88  1  0.362000  0.298000  0.916600  1.0  0.0965
  H  H89  1  0.303300  0.259000  0.874900  1.0  0.108
  H  H90  1  0.221500  0.217900  0.828300  1.0  0.0929
  H  H91  1  0.534000  0.767000  0.490200  1.0  0.1301
  H  H92  1  0.233000  0.466000  0.490200  1.0  0.1365
  H  H93  1  0.233000  0.767000  0.490200  1.0  0.1303
  H  H94  1  0.466000  0.233000  0.990200  1.0  0.1303
  H  H95  1  0.767000  0.534000  0.990200  1.0  0.1367
  H  H96  1  0.767000  0.233000  0.990200  1.0  0.1302
  H  H97  1  0.767000  0.233000  0.509800  1.0  0.1299
  H  H98  1  0.767000  0.534000  0.509800  1.0  0.1369
  H  H99  1  0.466000  0.233000  0.509800  1.0  0.13
  H  H100  1  0.233000  0.767000  0.009800  1.0  0.1302
  H  H101  1  0.233000  0.466000  0.009800  1.0  0.1362
  H  H102  1  0.534000  0.767000  0.009800  1.0  0.13
  C  C103  1  0.553100  0.912700  0.471750  1.0  0.6706
  C  C104  1  0.579600  0.855600  0.455750  1.0  -0.143
  C  C105  1  0.622700  0.877700  0.426130  1.0  -0.0993
  C  C106  1  0.762900  0.943000  0.337880  1.0  -0.0056
  C  C107  1  0.359600  0.446900  0.471750  1.0  0.6707
  C  C108  1  0.276000  0.420400  0.455750  1.0  -0.1437
  C  C109  1  0.255000  0.377300  0.426130  1.0  -0.0979
  C  C110  1  0.180100  0.237100  0.337880  1.0  -0.0028
  C  C111  1  0.087300  0.640400  0.471750  1.0  0.6713
  C  C112  1  0.144400  0.724000  0.455750  1.0  -0.1436
  C  C113  1  0.122300  0.745000  0.426130  1.0  -0.1006
  C  C114  1  0.057000  0.819900  0.337880  1.0  -0.0069
  C  C115  1  0.446900  0.087300  0.971750  1.0  0.6701
  C  C116  1  0.420400  0.144400  0.955750  1.0  -0.143
  C  C117  1  0.377300  0.122300  0.926130  1.0  -0.0988
  C  C118  1  0.237100  0.057000  0.837880  1.0  -0.0052
  C  C119  1  0.640400  0.553100  0.971750  1.0  0.6702
  C  C120  1  0.724000  0.579600  0.955750  1.0  -0.1439
  C  C121  1  0.745000  0.622700  0.926130  1.0  -0.0996
  C  C122  1  0.819900  0.762900  0.837880  1.0  -0.0023
  C  C123  1  0.912700  0.359600  0.971750  1.0  0.6714
  C  C124  1  0.855600  0.276000  0.955750  1.0  -0.1435
  C  C125  1  0.877700  0.255000  0.926130  1.0  -0.0974
  C  C126  1  0.943000  0.180100  0.837880  1.0  -0.0065
  C  C127  1  0.640400  0.087300  0.528250  1.0  0.6706
  C  C128  1  0.724000  0.144400  0.544250  1.0  -0.1434
  C  C129  1  0.745000  0.122300  0.573870  1.0  -0.1009
  C  C130  1  0.819900  0.057000  0.662120  1.0  -0.0065
  C  C131  1  0.912700  0.553100  0.528250  1.0  0.6705
  C  C132  1  0.855600  0.579600  0.544250  1.0  -0.144
  C  C133  1  0.877700  0.622700  0.573870  1.0  -0.0988
  C  C134  1  0.943000  0.762900  0.662120  1.0  -0.0021
  C  C135  1  0.446900  0.359600  0.528250  1.0  0.6711
  C  C136  1  0.420400  0.276000  0.544250  1.0  -0.1437
  C  C137  1  0.377300  0.255000  0.573870  1.0  -0.099
  C  C138  1  0.237100  0.180100  0.662120  1.0  -0.008
  C  C139  1  0.359600  0.912700  0.028250  1.0  0.6703
  C  C140  1  0.276000  0.855600  0.044250  1.0  -0.1431
  C  C141  1  0.255000  0.877700  0.073870  1.0  -0.0992
  C  C142  1  0.180100  0.943000  0.162120  1.0  -0.0048
  C  C143  1  0.087300  0.446900  0.028250  1.0  0.6702
  C  C144  1  0.144400  0.420400  0.044250  1.0  -0.1439
  C  C145  1  0.122300  0.377300  0.073870  1.0  -0.1002
  C  C146  1  0.057000  0.237100  0.162120  1.0  -0.0034
  C  C147  1  0.553100  0.640400  0.028250  1.0  0.6716
  C  C148  1  0.579600  0.724000  0.044250  1.0  -0.1436
  C  C149  1  0.622700  0.745000  0.073870  1.0  -0.1004
  C  C150  1  0.762900  0.819900  0.162120  1.0  -0.0067
  C  C151  1  0.446900  0.087300  0.528250  1.0  0.6702
  C  C152  1  0.420400  0.144400  0.544250  1.0  -0.1432
  C  C153  1  0.377300  0.122300  0.573870  1.0  -0.0995
  C  C154  1  0.237100  0.057000  0.662120  1.0  -0.0049
  C  C155  1  0.640400  0.553100  0.528250  1.0  0.6702
  C  C156  1  0.724000  0.579600  0.544250  1.0  -0.1441
  C  C157  1  0.745000  0.622700  0.573870  1.0  -0.1002
  C  C158  1  0.819900  0.762900  0.662120  1.0  -0.0033
  C  C159  1  0.912700  0.359600  0.528250  1.0  0.6713
  C  C160  1  0.855600  0.276000  0.544250  1.0  -0.1436
  C  C161  1  0.877700  0.255000  0.573870  1.0  -0.0984
  C  C162  1  0.943000  0.180100  0.662120  1.0  -0.0071
  C  C163  1  0.553100  0.912700  0.028250  1.0  0.6706
  C  C164  1  0.579600  0.855600  0.044250  1.0  -0.1431
  C  C165  1  0.622700  0.877700  0.073870  1.0  -0.1004
  C  C166  1  0.762900  0.943000  0.162120  1.0  -0.0063
  C  C167  1  0.359600  0.446900  0.028250  1.0  0.6705
  C  C168  1  0.276000  0.420400  0.044250  1.0  -0.1438
  C  C169  1  0.255000  0.377300  0.073870  1.0  -0.0989
  C  C170  1  0.180100  0.237100  0.162120  1.0  -0.0032
  C  C171  1  0.087300  0.640400  0.028250  1.0  0.6713
  C  C172  1  0.144400  0.724000  0.044250  1.0  -0.1438
  C  C173  1  0.122300  0.745000  0.073870  1.0  -0.1011
  C  C174  1  0.057000  0.819900  0.162120  1.0  -0.0065
  C  C175  1  0.359600  0.912700  0.471750  1.0  0.6703
  C  C176  1  0.276000  0.855600  0.455750  1.0  -0.143
  C  C177  1  0.255000  0.877700  0.426130  1.0  -0.0982
  C  C178  1  0.180100  0.943000  0.337880  1.0  -0.0041
  C  C179  1  0.087300  0.446900  0.471750  1.0  0.6704
  C  C180  1  0.144400  0.420400  0.455750  1.0  -0.1437
  C  C181  1  0.122300  0.377300  0.426130  1.0  -0.0997
  C  C182  1  0.057000  0.237100  0.337880  1.0  -0.0025
  C  C183  1  0.553100  0.640400  0.471750  1.0  0.6715
  C  C184  1  0.579600  0.724000  0.455750  1.0  -0.1433
  C  C185  1  0.622700  0.745000  0.426130  1.0  -0.0997
  C  C186  1  0.762900  0.819900  0.337880  1.0  -0.0069
  C  C187  1  0.640400  0.087300  0.971750  1.0  0.6705
  C  C188  1  0.724000  0.144400  0.955750  1.0  -0.1431
  C  C189  1  0.745000  0.122300  0.926130  1.0  -0.1001
  C  C190  1  0.819900  0.057000  0.837880  1.0  -0.0067
  C  C191  1  0.912700  0.553100  0.971750  1.0  0.6706
  C  C192  1  0.855600  0.579600  0.955750  1.0  -0.1439
  C  C193  1  0.877700  0.622700  0.926130  1.0  -0.0977
  C  C194  1  0.943000  0.762900  0.837880  1.0  -0.002
  C  C195  1  0.446900  0.359600  0.971750  1.0  0.6712
  C  C196  1  0.420400  0.276000  0.955750  1.0  -0.1436
  C  C197  1  0.377300  0.255000  0.926130  1.0  -0.098
  C  C198  1  0.237100  0.180100  0.837880  1.0  -0.0075
  C  C199  1  0.559400  0.779700  0.470880  1.0  0.0164
  C  C200  1  0.645500  0.822750  0.411170  1.0  -0.0203
  C  C201  1  0.692900  0.846450  0.379470  1.0  0.3717
  C  C202  1  0.788900  0.894450  0.323680  1.0  -0.0592
  C  C203  1  0.845500  0.922750  0.294400  1.0  0.7605
  C  C204  1  0.220300  0.440600  0.470880  1.0  0.0168
  C  C205  1  0.177250  0.354500  0.411170  1.0  -0.02
  C  C206  1  0.153550  0.307100  0.379470  1.0  0.3725
  C  C207  1  0.105550  0.211100  0.323680  1.0  -0.0577
  C  C208  1  0.077250  0.154500  0.294400  1.0  0.7591
  C  C209  1  0.220300  0.779700  0.470880  1.0  0.0168
  C  C210  1  0.177250  0.822750  0.411170  1.0  -0.02
  C  C211  1  0.153550  0.846450  0.379470  1.0  0.3725
  C  C212  1  0.105550  0.894450  0.323680  1.0  -0.0597
  C  C213  1  0.077250  0.922750  0.294400  1.0  0.76
  C  C214  1  0.440600  0.220300  0.970880  1.0  0.0164
  C  C215  1  0.354500  0.177250  0.911170  1.0  -0.02
  C  C216  1  0.307100  0.153550  0.879470  1.0  0.3725
  C  C217  1  0.211100  0.105550  0.823680  1.0  -0.0599
  C  C218  1  0.154500  0.077250  0.794400  1.0  0.76
  C  C219  1  0.779700  0.559400  0.970880  1.0  0.0176
  C  C220  1  0.822750  0.645500  0.911170  1.0  -0.02
  C  C221  1  0.846450  0.692900  0.879470  1.0  0.3733
  C  C222  1  0.894450  0.788900  0.823680  1.0  -0.0573
  C  C223  1  0.922750  0.845500  0.794400  1.0  0.7587
  C  C224  1  0.779700  0.220300  0.970880  1.0  0.0162
  C  C225  1  0.822750  0.177250  0.911170  1.0  -0.0203
  C  C226  1  0.846450  0.153550  0.879470  1.0  0.3717
  C  C227  1  0.894450  0.105550  0.823680  1.0  -0.0596
  C  C228  1  0.922750  0.077250  0.794400  1.0  0.7605
  C  C229  1  0.779700  0.220300  0.529120  1.0  0.0183
  C  C230  1  0.822750  0.177250  0.588830  1.0  -0.0203
  C  C231  1  0.846450  0.153550  0.620530  1.0  0.3723
  C  C232  1  0.894450  0.105550  0.676320  1.0  -0.0601
  C  C233  1  0.922750  0.077250  0.705600  1.0  0.7605
  C  C234  1  0.779700  0.559400  0.529120  1.0  0.0191
  C  C235  1  0.822750  0.645500  0.588830  1.0  -0.0199
  C  C236  1  0.846450  0.692900  0.620530  1.0  0.3733
  C  C237  1  0.894450  0.788900  0.676320  1.0  -0.0572
  C  C238  1  0.922750  0.845500  0.705600  1.0  0.7587
  C  C239  1  0.440600  0.220300  0.529120  1.0  0.0176
  C  C240  1  0.354500  0.177250  0.588830  1.0  -0.02
  C  C241  1  0.307100  0.153550  0.620530  1.0  0.373
  C  C242  1  0.211100  0.105550  0.676320  1.0  -0.0607
  C  C243  1  0.154500  0.077250  0.705600  1.0  0.7602
  C  C244  1  0.220300  0.779700  0.029120  1.0  0.0182
  C  C245  1  0.177250  0.822750  0.088830  1.0  -0.0199
  C  C246  1  0.153550  0.846450  0.120530  1.0  0.3727
  C  C247  1  0.105550  0.894450  0.176320  1.0  -0.0604
  C  C248  1  0.077250  0.922750  0.205600  1.0  0.7603
  C  C249  1  0.220300  0.440600  0.029120  1.0  0.0186
  C  C250  1  0.177250  0.354500  0.088830  1.0  -0.02
  C  C251  1  0.153550  0.307100  0.120530  1.0  0.373
  C  C252  1  0.105550  0.211100  0.176320  1.0  -0.0572
  C  C253  1  0.077250  0.154500  0.205600  1.0  0.7591
  C  C254  1  0.559400  0.779700  0.029120  1.0  0.0188
  C  C255  1  0.645500  0.822750  0.088830  1.0  -0.0202
  C  C256  1  0.692900  0.846450  0.120530  1.0  0.3721
  C  C257  1  0.788900  0.894450  0.176320  1.0  -0.06
  C  C258  1  0.845500  0.922750  0.205600  1.0  0.7605
  N  N259  1  0.714600  0.919400  0.365620  1.0  -0.1712
  N  N260  1  0.204800  0.285400  0.365620  1.0  -0.1662
  N  N261  1  0.080600  0.795200  0.365620  1.0  -0.1712
  N  N262  1  0.285400  0.080600  0.865620  1.0  -0.1702
  N  N263  1  0.795200  0.714600  0.865620  1.0  -0.167
  N  N264  1  0.919400  0.204800  0.865620  1.0  -0.1685
  N  N265  1  0.795200  0.080600  0.634380  1.0  -0.1709
  N  N266  1  0.919400  0.714600  0.634380  1.0  -0.1666
  N  N267  1  0.285400  0.204800  0.634380  1.0  -0.1693
  N  N268  1  0.204800  0.919400  0.134380  1.0  -0.1692
  N  N269  1  0.080600  0.285400  0.134380  1.0  -0.1667
  N  N270  1  0.714600  0.795200  0.134380  1.0  -0.1703
  N  N271  1  0.285400  0.080600  0.634380  1.0  -0.1701
  N  N272  1  0.795200  0.714600  0.634380  1.0  -0.1666
  N  N273  1  0.919400  0.204800  0.634380  1.0  -0.1678
  N  N274  1  0.714600  0.919400  0.134380  1.0  -0.1706
  N  N275  1  0.204800  0.285400  0.134380  1.0  -0.1662
  N  N276  1  0.080600  0.795200  0.134380  1.0  -0.171
  N  N277  1  0.204800  0.919400  0.365620  1.0  -0.1701
  N  N278  1  0.080600  0.285400  0.365620  1.0  -0.167
  N  N279  1  0.714600  0.795200  0.365620  1.0  -0.1705
  N  N280  1  0.795200  0.080600  0.865620  1.0  -0.1708
  N  N281  1  0.919400  0.714600  0.865620  1.0  -0.1663
  N  N282  1  0.285400  0.204800  0.865620  1.0  -0.1698
  O  O283  1  0.519870  0.890420  0.499860  1.0  -0.5885
  O  O284  1  0.564390  0.977460  0.456200  1.0  -0.5714
  O  O285  1  0.866100  0.991200  0.282880  1.0  -0.6197
  O  O286  1  0.370550  0.480130  0.499860  1.0  -0.5878
  O  O287  1  0.413070  0.435610  0.456200  1.0  -0.5719
  O  O288  1  0.125100  0.133900  0.282880  1.0  -0.6185
  O  O289  1  0.109580  0.629450  0.499860  1.0  -0.5877
  O  O290  1  0.022540  0.586930  0.456200  1.0  -0.5711
  O  O291  1  0.008800  0.874900  0.282880  1.0  -0.6139
  O  O292  1  0.480130  0.109580  0.999860  1.0  -0.5896
  O  O293  1  0.435610  0.022540  0.956200  1.0  -0.5719
  O  O294  1  0.133900  0.008800  0.782880  1.0  -0.6182
  O  O295  1  0.629450  0.519870  0.999860  1.0  -0.5875
  O  O296  1  0.586930  0.564390  0.956200  1.0  -0.5714
  O  O297  1  0.874900  0.866100  0.782880  1.0  -0.6184
  O  O298  1  0.890420  0.370550  0.999860  1.0  -0.5878
  O  O299  1  0.977460  0.413070  0.956200  1.0  -0.5712
  O  O300  1  0.991200  0.125100  0.782880  1.0  -0.6152
  O  O301  1  0.629450  0.109580  0.500140  1.0  -0.589
  O  O302  1  0.586930  0.022540  0.543800  1.0  -0.5713
  O  O303  1  0.874900  0.008800  0.717120  1.0  -0.6177
  O  O304  1  0.890420  0.519870  0.500140  1.0  -0.5885
  O  O305  1  0.977460  0.564390  0.543800  1.0  -0.5707
  O  O306  1  0.991200  0.866100  0.717120  1.0  -0.6177
  O  O307  1  0.480130  0.370550  0.500140  1.0  -0.5883
  O  O308  1  0.435610  0.413070  0.543800  1.0  -0.5708
  O  O309  1  0.133900  0.125100  0.717120  1.0  -0.6139
  O  O310  1  0.370550  0.890420  0.000140  1.0  -0.5893
  O  O311  1  0.413070  0.977460  0.043800  1.0  -0.5711
  O  O312  1  0.125100  0.991200  0.217120  1.0  -0.6181
  O  O313  1  0.109580  0.480130  0.000140  1.0  -0.5883
  O  O314  1  0.022540  0.435610  0.043800  1.0  -0.5711
  O  O315  1  0.008800  0.133900  0.217120  1.0  -0.6171
  O  O316  1  0.519870  0.629450  0.000140  1.0  -0.5876
  O  O317  1  0.564390  0.586930  0.043800  1.0  -0.5709
  O  O318  1  0.866100  0.874900  0.217120  1.0  -0.6154
  O  O319  1  0.480130  0.109580  0.500140  1.0  -0.5898
  O  O320  1  0.435610  0.022540  0.543800  1.0  -0.5716
  O  O321  1  0.133900  0.008800  0.717120  1.0  -0.6188
  O  O322  1  0.629450  0.519870  0.500140  1.0  -0.5883
  O  O323  1  0.586930  0.564390  0.543800  1.0  -0.5714
  O  O324  1  0.874900  0.866100  0.717120  1.0  -0.6185
  O  O325  1  0.890420  0.370550  0.500140  1.0  -0.588
  O  O326  1  0.977460  0.413070  0.543800  1.0  -0.5706
  O  O327  1  0.991200  0.125100  0.717120  1.0  -0.6154
  O  O328  1  0.519870  0.890420  0.000140  1.0  -0.589
  O  O329  1  0.564390  0.977460  0.043800  1.0  -0.5711
  O  O330  1  0.866100  0.991200  0.217120  1.0  -0.6198
  O  O331  1  0.370550  0.480130  0.000140  1.0  -0.5887
  O  O332  1  0.413070  0.435610  0.043800  1.0  -0.571
  O  O333  1  0.125100  0.133900  0.217120  1.0  -0.6184
  O  O334  1  0.109580  0.629450  0.000140  1.0  -0.5879
  O  O335  1  0.022540  0.586930  0.043800  1.0  -0.5707
  O  O336  1  0.008800  0.874900  0.217120  1.0  -0.6141
  O  O337  1  0.370550  0.890420  0.499860  1.0  -0.5891
  O  O338  1  0.413070  0.977460  0.456200  1.0  -0.5718
  O  O339  1  0.125100  0.991200  0.282880  1.0  -0.6174
  O  O340  1  0.109580  0.480130  0.499860  1.0  -0.5879
  O  O341  1  0.022540  0.435610  0.456200  1.0  -0.5715
  O  O342  1  0.008800  0.133900  0.282880  1.0  -0.6174
  O  O343  1  0.519870  0.629450  0.499860  1.0  -0.5876
  O  O344  1  0.564390  0.586930  0.456200  1.0  -0.5713
  O  O345  1  0.866100  0.874900  0.282880  1.0  -0.6152
  O  O346  1  0.629450  0.109580  0.999860  1.0  -0.5892
  O  O347  1  0.586930  0.022540  0.956200  1.0  -0.5716
  O  O348  1  0.874900  0.008800  0.782880  1.0  -0.6177
  O  O349  1  0.890420  0.519870  0.999860  1.0  -0.5875
  O  O350  1  0.977460  0.564390  0.956200  1.0  -0.5713
  O  O351  1  0.991200  0.866100  0.782880  1.0  -0.6177
  O  O352  1  0.480130  0.370550  0.999860  1.0  -0.5881
  O  O353  1  0.435610  0.413070  0.956200  1.0  -0.5708
  O  O354  1  0.133900  0.125100  0.782880  1.0  -0.6137
