# generated using pymatgen
data_Cu3H10C26(NO3)4
_symmetry_space_group_name_H-M   'P 1'
_cell_length_a   18.44560000
_cell_length_b   18.44560000
_cell_length_c   39.53690000
_cell_angle_alpha   90.00000000
_cell_angle_beta   90.00000000
_cell_angle_gamma   120.00000000
_symmetry_Int_Tables_number   1
_chemical_formula_structural   Cu3H10C26(NO3)4
_chemical_formula_sum   'Cu18 H60 C156 N24 O72'
_cell_volume   11649.80937437
_cell_formula_units_Z   6
loop_
 _symmetry_equiv_pos_site_id
 _symmetry_equiv_pos_as_xyz
  1  'x, y, z'
loop_
 _atom_site_type_symbol
 _atom_site_label
 _atom_site_symmetry_multiplicity
 _atom_site_fract_x
 _atom_site_fract_y
 _atom_site_fract_z
 _atom_site_occupancy
 _atom_site_charge
  Cu  Cu1  1  0.524500  0.049000  0.472660  1.0  0.909
  Cu  Cu2  1  0.524500  0.475500  0.472660  1.0  0.9079
  Cu  Cu3  1  0.951000  0.475500  0.472660  1.0  0.9095
  Cu  Cu4  1  0.475500  0.951000  0.972660  1.0  0.9105
  Cu  Cu5  1  0.475500  0.524500  0.972660  1.0  0.9096
  Cu  Cu6  1  0.049000  0.524500  0.972660  1.0  0.9079
  Cu  Cu7  1  0.475500  0.951000  0.527340  1.0  0.91
  Cu  Cu8  1  0.049000  0.524500  0.527340  1.0  0.9097
  Cu  Cu9  1  0.475500  0.524500  0.527340  1.0  0.9087
  Cu  Cu10  1  0.524500  0.049000  0.027340  1.0  0.9102
  Cu  Cu11  1  0.951000  0.475500  0.027340  1.0  0.9086
  Cu  Cu12  1  0.524500  0.475500  0.027340  1.0  0.9095
  Cu  Cu13  1  0.062420  0.937590  0.750000  1.0  0.7624
  Cu  Cu14  1  0.875170  0.937590  0.750000  1.0  0.7642
  Cu  Cu15  1  0.062420  0.124840  0.750000  1.0  0.7149
  Cu  Cu16  1  0.937580  0.062410  0.250000  1.0  0.7645
  Cu  Cu17  1  0.124830  0.062410  0.250000  1.0  0.7626
  Cu  Cu18  1  0.937580  0.875160  0.250000  1.0  0.7196
  H  H19  1  0.367000  0.074100  0.583800  1.0  0.1137
  H  H20  1  0.219100  0.216400  0.669500  1.0  0.0933
  H  H21  1  0.707100  0.633000  0.583800  1.0  0.1133
  H  H22  1  0.997300  0.780900  0.669500  1.0  0.0933
  H  H23  1  0.925900  0.292900  0.583800  1.0  0.1123
  H  H24  1  0.783600  0.002700  0.669500  1.0  0.0931
  H  H25  1  0.633000  0.925900  0.083800  1.0  0.1135
  H  H26  1  0.780900  0.783600  0.169500  1.0  0.0937
  H  H27  1  0.292900  0.367000  0.083800  1.0  0.1131
  H  H28  1  0.002700  0.219100  0.169500  1.0  0.092
  H  H29  1  0.074100  0.707100  0.083800  1.0  0.1131
  H  H30  1  0.216400  0.997300  0.169500  1.0  0.0931
  H  H31  1  0.292900  0.925900  0.416200  1.0  0.1131
  H  H32  1  0.002700  0.783600  0.330500  1.0  0.093
  H  H33  1  0.074100  0.367000  0.416200  1.0  0.1131
  H  H34  1  0.216400  0.219100  0.330500  1.0  0.0932
  H  H35  1  0.633000  0.707100  0.416200  1.0  0.1126
  H  H36  1  0.780900  0.997300  0.330500  1.0  0.0923
  H  H37  1  0.707100  0.074100  0.916200  1.0  0.1139
  H  H38  1  0.997300  0.216400  0.830500  1.0  0.0933
  H  H39  1  0.925900  0.633000  0.916200  1.0  0.1131
  H  H40  1  0.783600  0.780900  0.830500  1.0  0.092
  H  H41  1  0.367000  0.292900  0.916200  1.0  0.1125
  H  H42  1  0.219100  0.002700  0.830500  1.0  0.0935
  H  H43  1  0.633000  0.925900  0.416200  1.0  0.1133
  H  H44  1  0.780900  0.783600  0.330500  1.0  0.0935
  H  H45  1  0.292900  0.367000  0.416200  1.0  0.1129
  H  H46  1  0.002700  0.219100  0.330500  1.0  0.092
  H  H47  1  0.074100  0.707100  0.416200  1.0  0.1127
  H  H48  1  0.216400  0.997300  0.330500  1.0  0.0931
  H  H49  1  0.367000  0.074100  0.916200  1.0  0.1135
  H  H50  1  0.219100  0.216400  0.830500  1.0  0.093
  H  H51  1  0.707100  0.633000  0.916200  1.0  0.1132
  H  H52  1  0.997300  0.780900  0.830500  1.0  0.0933
  H  H53  1  0.925900  0.292900  0.916200  1.0  0.1124
  H  H54  1  0.783600  0.002700  0.830500  1.0  0.0928
  H  H55  1  0.707100  0.074100  0.583800  1.0  0.1142
  H  H56  1  0.997300  0.216400  0.669500  1.0  0.0936
  H  H57  1  0.925900  0.633000  0.583800  1.0  0.1131
  H  H58  1  0.783600  0.780900  0.669500  1.0  0.0922
  H  H59  1  0.367000  0.292900  0.583800  1.0  0.1127
  H  H60  1  0.219100  0.002700  0.669500  1.0  0.0934
  H  H61  1  0.292900  0.925900  0.083800  1.0  0.1134
  H  H62  1  0.002700  0.783600  0.169500  1.0  0.0932
  H  H63  1  0.074100  0.367000  0.083800  1.0  0.1133
  H  H64  1  0.216400  0.219100  0.169500  1.0  0.093
  H  H65  1  0.633000  0.707100  0.083800  1.0  0.1127
  H  H66  1  0.780900  0.997300  0.169500  1.0  0.0926
  H  H67  1  0.471700  0.235850  0.506200  1.0  0.1136
  H  H68  1  0.764150  0.528300  0.506200  1.0  0.1141
  H  H69  1  0.764150  0.235850  0.506200  1.0  0.1138
  H  H70  1  0.528300  0.764150  0.006200  1.0  0.1141
  H  H71  1  0.235850  0.471700  0.006200  1.0  0.114
  H  H72  1  0.235850  0.764150  0.006200  1.0  0.114
  H  H73  1  0.235850  0.764150  0.493800  1.0  0.1144
  H  H74  1  0.235850  0.471700  0.493800  1.0  0.1142
  H  H75  1  0.528300  0.764150  0.493800  1.0  0.1143
  H  H76  1  0.764150  0.235850  0.993800  1.0  0.1139
  H  H77  1  0.764150  0.528300  0.993800  1.0  0.1143
  H  H78  1  0.471700  0.235850  0.993800  1.0  0.1139
  C  C79  1  0.450000  0.091100  0.526870  1.0  0.6937
  C  C80  1  0.423600  0.146000  0.542800  1.0  -0.15
  C  C81  1  0.380700  0.125500  0.573170  1.0  0.0315
  C  C82  1  0.236400  0.180300  0.659890  1.0  0.136
  C  C83  1  0.641100  0.550000  0.526870  1.0  0.6935
  C  C84  1  0.722400  0.576400  0.542800  1.0  -0.1497
  C  C85  1  0.744800  0.619300  0.573170  1.0  0.0318
  C  C86  1  0.943900  0.763600  0.659890  1.0  0.138
  C  C87  1  0.908900  0.358900  0.526870  1.0  0.6931
  C  C88  1  0.854000  0.277600  0.542800  1.0  -0.1498
  C  C89  1  0.874500  0.255200  0.573170  1.0  0.0316
  C  C90  1  0.819700  0.056100  0.659890  1.0  0.138
  C  C91  1  0.550000  0.908900  0.026870  1.0  0.6933
  C  C92  1  0.576400  0.854000  0.042800  1.0  -0.1498
  C  C93  1  0.619300  0.874500  0.073170  1.0  0.0302
  C  C94  1  0.763600  0.819700  0.159890  1.0  0.1363
  C  C95  1  0.358900  0.450000  0.026870  1.0  0.693
  C  C96  1  0.277600  0.423600  0.042800  1.0  -0.1492
  C  C97  1  0.255200  0.380700  0.073170  1.0  0.0328
  C  C98  1  0.056100  0.236400  0.159890  1.0  0.1404
  C  C99  1  0.091100  0.641100  0.026870  1.0  0.6931
  C  C100  1  0.146000  0.722400  0.042800  1.0  -0.1499
  C  C101  1  0.125500  0.744800  0.073170  1.0  0.0323
  C  C102  1  0.180300  0.943900  0.159890  1.0  0.1368
  C  C103  1  0.358900  0.908900  0.473130  1.0  0.6938
  C  C104  1  0.277600  0.854000  0.457200  1.0  -0.1497
  C  C105  1  0.255200  0.874500  0.426830  1.0  0.0314
  C  C106  1  0.056100  0.819700  0.340110  1.0  0.1376
  C  C107  1  0.091100  0.450000  0.473130  1.0  0.6936
  C  C108  1  0.146000  0.423600  0.457200  1.0  -0.1496
  C  C109  1  0.125500  0.380700  0.426830  1.0  0.0321
  C  C110  1  0.180300  0.236400  0.340110  1.0  0.1383
  C  C111  1  0.550000  0.641100  0.473130  1.0  0.6933
  C  C112  1  0.576400  0.722400  0.457200  1.0  -0.1496
  C  C113  1  0.619300  0.744800  0.426830  1.0  0.0317
  C  C114  1  0.763600  0.943900  0.340110  1.0  0.1386
  C  C115  1  0.641100  0.091100  0.973130  1.0  0.6933
  C  C116  1  0.722400  0.146000  0.957200  1.0  -0.15
  C  C117  1  0.744800  0.125500  0.926830  1.0  0.0305
  C  C118  1  0.943900  0.180300  0.840110  1.0  0.1366
  C  C119  1  0.908900  0.550000  0.973130  1.0  0.6931
  C  C120  1  0.854000  0.576400  0.957200  1.0  -0.1492
  C  C121  1  0.874500  0.619300  0.926830  1.0  0.0326
  C  C122  1  0.819700  0.763600  0.840110  1.0  0.1411
  C  C123  1  0.450000  0.358900  0.973130  1.0  0.6929
  C  C124  1  0.423600  0.277600  0.957200  1.0  -0.1496
  C  C125  1  0.380700  0.255200  0.926830  1.0  0.0321
  C  C126  1  0.236400  0.056100  0.840110  1.0  0.1378
  C  C127  1  0.550000  0.908900  0.473130  1.0  0.6933
  C  C128  1  0.576400  0.854000  0.457200  1.0  -0.1498
  C  C129  1  0.619300  0.874500  0.426830  1.0  0.031
  C  C130  1  0.763600  0.819700  0.340110  1.0  0.1364
  C  C131  1  0.358900  0.450000  0.473130  1.0  0.6931
  C  C132  1  0.277600  0.423600  0.457200  1.0  -0.1492
  C  C133  1  0.255200  0.380700  0.426830  1.0  0.0326
  C  C134  1  0.056100  0.236400  0.340110  1.0  0.1409
  C  C135  1  0.091100  0.641100  0.473130  1.0  0.6931
  C  C136  1  0.146000  0.722400  0.457200  1.0  -0.1497
  C  C137  1  0.125500  0.744800  0.426830  1.0  0.0319
  C  C138  1  0.180300  0.943900  0.340110  1.0  0.1374
  C  C139  1  0.450000  0.091100  0.973130  1.0  0.6938
  C  C140  1  0.423600  0.146000  0.957200  1.0  -0.1499
  C  C141  1  0.380700  0.125500  0.926830  1.0  0.031
  C  C142  1  0.236400  0.180300  0.840110  1.0  0.1365
  C  C143  1  0.641100  0.550000  0.973130  1.0  0.6935
  C  C144  1  0.722400  0.576400  0.957200  1.0  -0.1496
  C  C145  1  0.744800  0.619300  0.926830  1.0  0.032
  C  C146  1  0.943900  0.763600  0.840110  1.0  0.1379
  C  C147  1  0.908900  0.358900  0.973130  1.0  0.6931
  C  C148  1  0.854000  0.277600  0.957200  1.0  -0.1497
  C  C149  1  0.874500  0.255200  0.926830  1.0  0.0317
  C  C150  1  0.819700  0.056100  0.840110  1.0  0.1384
  C  C151  1  0.641100  0.091100  0.526870  1.0  0.6933
  C  C152  1  0.722400  0.146000  0.542800  1.0  -0.1502
  C  C153  1  0.744800  0.125500  0.573170  1.0  0.0307
  C  C154  1  0.943900  0.180300  0.659890  1.0  0.136
  C  C155  1  0.908900  0.550000  0.526870  1.0  0.6929
  C  C156  1  0.854000  0.576400  0.542800  1.0  -0.1492
  C  C157  1  0.874500  0.619300  0.573170  1.0  0.0325
  C  C158  1  0.819700  0.763600  0.659890  1.0  0.1406
  C  C159  1  0.450000  0.358900  0.526870  1.0  0.693
  C  C160  1  0.423600  0.277600  0.542800  1.0  -0.1497
  C  C161  1  0.380700  0.255200  0.573170  1.0  0.0317
  C  C162  1  0.236400  0.056100  0.659890  1.0  0.1374
  C  C163  1  0.358900  0.908900  0.026870  1.0  0.6938
  C  C164  1  0.277600  0.854000  0.042800  1.0  -0.1497
  C  C165  1  0.255200  0.874500  0.073170  1.0  0.0308
  C  C166  1  0.056100  0.819700  0.159890  1.0  0.1375
  C  C167  1  0.091100  0.450000  0.026870  1.0  0.6936
  C  C168  1  0.146000  0.423600  0.042800  1.0  -0.1497
  C  C169  1  0.125500  0.380700  0.073170  1.0  0.0324
  C  C170  1  0.180300  0.236400  0.159890  1.0  0.1382
  C  C171  1  0.550000  0.641100  0.026870  1.0  0.6932
  C  C172  1  0.576400  0.722400  0.042800  1.0  -0.1498
  C  C173  1  0.619300  0.744800  0.073170  1.0  0.0321
  C  C174  1  0.763600  0.943900  0.159890  1.0  0.1379
  C  C175  1  0.443800  0.221900  0.527430  1.0  -0.0219
  C  C176  1  0.357200  0.178600  0.588460  1.0  -0.1063
  C  C177  1  0.305600  0.152800  0.619800  1.0  0.3378
  C  C178  1  0.209700  0.104850  0.674820  1.0  -0.1093
  C  C179  1  0.152500  0.076250  0.703520  1.0  0.7754
  C  C180  1  0.778100  0.556200  0.527430  1.0  -0.0218
  C  C181  1  0.821400  0.642800  0.588460  1.0  -0.1059
  C  C182  1  0.847200  0.694400  0.619800  1.0  0.3378
  C  C183  1  0.895150  0.790300  0.674820  1.0  -0.1081
  C  C184  1  0.923750  0.847500  0.703520  1.0  0.7736
  C  C185  1  0.778100  0.221900  0.527430  1.0  -0.0213
  C  C186  1  0.821400  0.178600  0.588460  1.0  -0.1064
  C  C187  1  0.847200  0.152800  0.619800  1.0  0.3379
  C  C188  1  0.895150  0.104850  0.674820  1.0  -0.1092
  C  C189  1  0.923750  0.076250  0.703520  1.0  0.7752
  C  C190  1  0.556200  0.778100  0.027430  1.0  -0.0211
  C  C191  1  0.642800  0.821400  0.088460  1.0  -0.1064
  C  C192  1  0.694400  0.847200  0.119800  1.0  0.338
  C  C193  1  0.790300  0.895150  0.174820  1.0  -0.1092
  C  C194  1  0.847500  0.923750  0.203520  1.0  0.7749
  C  C195  1  0.221900  0.443800  0.027430  1.0  -0.0218
  C  C196  1  0.178600  0.357200  0.088460  1.0  -0.1058
  C  C197  1  0.152800  0.305600  0.119800  1.0  0.3383
  C  C198  1  0.104850  0.209700  0.174820  1.0  -0.1087
  C  C199  1  0.076250  0.152500  0.203520  1.0  0.7736
  C  C200  1  0.221900  0.778100  0.027430  1.0  -0.0218
  C  C201  1  0.178600  0.821400  0.088460  1.0  -0.1064
  C  C202  1  0.152800  0.847200  0.119800  1.0  0.3379
  C  C203  1  0.104850  0.895150  0.174820  1.0  -0.1092
  C  C204  1  0.076250  0.923750  0.203520  1.0  0.7755
  C  C205  1  0.221900  0.778100  0.472570  1.0  -0.0214
  C  C206  1  0.178600  0.821400  0.411540  1.0  -0.1065
  C  C207  1  0.152800  0.847200  0.380200  1.0  0.3387
  C  C208  1  0.104850  0.895150  0.325180  1.0  -0.1086
  C  C209  1  0.076250  0.923750  0.296480  1.0  0.7744
  C  C210  1  0.221900  0.443800  0.472570  1.0  -0.022
  C  C211  1  0.178600  0.357200  0.411540  1.0  -0.106
  C  C212  1  0.152800  0.305600  0.380200  1.0  0.3389
  C  C213  1  0.104850  0.209700  0.325180  1.0  -0.1084
  C  C214  1  0.076250  0.152500  0.296480  1.0  0.7731
  C  C215  1  0.556200  0.778100  0.472570  1.0  -0.0215
  C  C216  1  0.642800  0.821400  0.411540  1.0  -0.1064
  C  C217  1  0.694400  0.847200  0.380200  1.0  0.3387
  C  C218  1  0.790300  0.895150  0.325180  1.0  -0.109
  C  C219  1  0.847500  0.923750  0.296480  1.0  0.7743
  C  C220  1  0.778100  0.221900  0.972570  1.0  -0.0218
  C  C221  1  0.821400  0.178600  0.911540  1.0  -0.1065
  C  C222  1  0.847200  0.152800  0.880200  1.0  0.3385
  C  C223  1  0.895150  0.104850  0.825180  1.0  -0.1089
  C  C224  1  0.923750  0.076250  0.796480  1.0  0.7746
  C  C225  1  0.778100  0.556200  0.972570  1.0  -0.0218
  C  C226  1  0.821400  0.642800  0.911540  1.0  -0.106
  C  C227  1  0.847200  0.694400  0.880200  1.0  0.3385
  C  C228  1  0.895150  0.790300  0.825180  1.0  -0.1078
  C  C229  1  0.923750  0.847500  0.796480  1.0  0.7731
  C  C230  1  0.443800  0.221900  0.972570  1.0  -0.0216
  C  C231  1  0.357200  0.178600  0.911540  1.0  -0.1065
  C  C232  1  0.305600  0.152800  0.880200  1.0  0.3385
  C  C233  1  0.209700  0.104850  0.825180  1.0  -0.1088
  C  C234  1  0.152500  0.076250  0.796480  1.0  0.7746
  N  N235  1  0.285400  0.206800  0.632470  1.0  -0.316
  N  N236  1  0.921400  0.714600  0.632470  1.0  -0.3133
  N  N237  1  0.793200  0.078600  0.632470  1.0  -0.3129
  N  N238  1  0.714600  0.793200  0.132470  1.0  -0.3117
  N  N239  1  0.078600  0.285400  0.132470  1.0  -0.3112
  N  N240  1  0.206800  0.921400  0.132470  1.0  -0.3149
  N  N241  1  0.078600  0.793200  0.367530  1.0  -0.3136
  N  N242  1  0.206800  0.285400  0.367530  1.0  -0.313
  N  N243  1  0.714600  0.921400  0.367530  1.0  -0.3117
  N  N244  1  0.921400  0.206800  0.867530  1.0  -0.3147
  N  N245  1  0.793200  0.714600  0.867530  1.0  -0.3117
  N  N246  1  0.285400  0.078600  0.867530  1.0  -0.3141
  N  N247  1  0.714600  0.793200  0.367530  1.0  -0.313
  N  N248  1  0.078600  0.285400  0.367530  1.0  -0.3117
  N  N249  1  0.206800  0.921400  0.367530  1.0  -0.3152
  N  N250  1  0.285400  0.206800  0.867530  1.0  -0.3159
  N  N251  1  0.921400  0.714600  0.867530  1.0  -0.3138
  N  N252  1  0.793200  0.078600  0.867530  1.0  -0.3133
  N  N253  1  0.921400  0.206800  0.632470  1.0  -0.3157
  N  N254  1  0.793200  0.714600  0.632470  1.0  -0.3128
  N  N255  1  0.285400  0.078600  0.632470  1.0  -0.3147
  N  N256  1  0.078600  0.793200  0.132470  1.0  -0.3136
  N  N257  1  0.206800  0.285400  0.132470  1.0  -0.3134
  N  N258  1  0.714600  0.921400  0.132470  1.0  -0.3127
  O  O259  1  0.480810  0.109430  0.498190  1.0  -0.57
  O  O260  1  0.438700  0.027400  0.543690  1.0  -0.5696
  O  O261  1  0.132900  0.008600  0.715850  1.0  -0.6039
  O  O262  1  0.628620  0.519190  0.498190  1.0  -0.5694
  O  O263  1  0.588700  0.561300  0.543690  1.0  -0.5695
  O  O264  1  0.875700  0.867100  0.715850  1.0  -0.6037
  O  O265  1  0.890570  0.371380  0.498190  1.0  -0.5692
  O  O266  1  0.972600  0.411300  0.543690  1.0  -0.5695
  O  O267  1  0.991400  0.124300  0.715850  1.0  -0.6052
  O  O268  1  0.519190  0.890570  0.998190  1.0  -0.5698
  O  O269  1  0.561300  0.972600  0.043690  1.0  -0.5695
  O  O270  1  0.867100  0.991400  0.215850  1.0  -0.6067
  O  O271  1  0.371380  0.480810  0.998190  1.0  -0.5694
  O  O272  1  0.411300  0.438700  0.043690  1.0  -0.5697
  O  O273  1  0.124300  0.132900  0.215850  1.0  -0.6033
  O  O274  1  0.109430  0.628620  0.998190  1.0  -0.5691
  O  O275  1  0.027400  0.588700  0.043690  1.0  -0.5697
  O  O276  1  0.008600  0.875700  0.215850  1.0  -0.6038
  O  O277  1  0.371380  0.890570  0.501810  1.0  -0.5694
  O  O278  1  0.411300  0.972600  0.456310  1.0  -0.5694
  O  O279  1  0.124300  0.991400  0.284150  1.0  -0.601
  O  O280  1  0.109430  0.480810  0.501810  1.0  -0.5688
  O  O281  1  0.027400  0.438700  0.456310  1.0  -0.5705
  O  O282  1  0.008600  0.132900  0.284150  1.0  -0.6019
  O  O283  1  0.519190  0.628620  0.501810  1.0  -0.5685
  O  O284  1  0.561300  0.588700  0.456310  1.0  -0.5701
  O  O285  1  0.867100  0.875700  0.284150  1.0  -0.6049
  O  O286  1  0.628620  0.109430  0.001810  1.0  -0.5694
  O  O287  1  0.588700  0.027400  0.956310  1.0  -0.5707
  O  O288  1  0.875700  0.008600  0.784150  1.0  -0.605
  O  O289  1  0.890570  0.519190  0.001810  1.0  -0.5689
  O  O290  1  0.972600  0.561300  0.956310  1.0  -0.5701
  O  O291  1  0.991400  0.867100  0.784150  1.0  -0.5994
  O  O292  1  0.480810  0.371380  0.001810  1.0  -0.5684
  O  O293  1  0.438700  0.411300  0.956310  1.0  -0.5701
  O  O294  1  0.132900  0.124300  0.784150  1.0  -0.603
  O  O295  1  0.519190  0.890570  0.501810  1.0  -0.5689
  O  O296  1  0.561300  0.972600  0.456310  1.0  -0.5694
  O  O297  1  0.867100  0.991400  0.284150  1.0  -0.6065
  O  O298  1  0.371380  0.480810  0.501810  1.0  -0.5687
  O  O299  1  0.411300  0.438700  0.456310  1.0  -0.5707
  O  O300  1  0.124300  0.132900  0.284150  1.0  -0.602
  O  O301  1  0.109430  0.628620  0.501810  1.0  -0.5687
  O  O302  1  0.027400  0.588700  0.456310  1.0  -0.5701
  O  O303  1  0.008600  0.875700  0.284150  1.0  -0.6039
  O  O304  1  0.480810  0.109430  0.001810  1.0  -0.5695
  O  O305  1  0.438700  0.027400  0.956310  1.0  -0.5704
  O  O306  1  0.132900  0.008600  0.784150  1.0  -0.603
  O  O307  1  0.628620  0.519190  0.001810  1.0  -0.5689
  O  O308  1  0.588700  0.561300  0.956310  1.0  -0.5698
  O  O309  1  0.875700  0.867100  0.784150  1.0  -0.6032
  O  O310  1  0.890570  0.371380  0.001810  1.0  -0.5683
  O  O311  1  0.972600  0.411300  0.956310  1.0  -0.5702
  O  O312  1  0.991400  0.124300  0.784150  1.0  -0.6049
  O  O313  1  0.628620  0.109430  0.498190  1.0  -0.5698
  O  O314  1  0.588700  0.027400  0.543690  1.0  -0.5697
  O  O315  1  0.875700  0.008600  0.715850  1.0  -0.6045
  O  O316  1  0.890570  0.519190  0.498190  1.0  -0.5697
  O  O317  1  0.972600  0.561300  0.543690  1.0  -0.5695
  O  O318  1  0.991400  0.867100  0.715850  1.0  -0.6008
  O  O319  1  0.480810  0.371380  0.498190  1.0  -0.5694
  O  O320  1  0.438700  0.411300  0.543690  1.0  -0.5693
  O  O321  1  0.132900  0.124300  0.715850  1.0  -0.6033
  O  O322  1  0.371380  0.890570  0.998190  1.0  -0.5701
  O  O323  1  0.411300  0.972600  0.043690  1.0  -0.5693
  O  O324  1  0.124300  0.991400  0.215850  1.0  -0.6023
  O  O325  1  0.109430  0.480810  0.998190  1.0  -0.5694
  O  O326  1  0.027400  0.438700  0.043690  1.0  -0.5694
  O  O327  1  0.008600  0.132900  0.215850  1.0  -0.6023
  O  O328  1  0.519190  0.628620  0.998190  1.0  -0.569
  O  O329  1  0.561300  0.588700  0.043690  1.0  -0.5696
  O  O330  1  0.867100  0.875700  0.215850  1.0  -0.605
