# generated using pymatgen
data_CaH8C14SO6
_symmetry_space_group_name_H-M   'P 1'
_cell_length_a   11.59550000
_cell_length_b   5.55810000
_cell_length_c   22.95480000
_cell_angle_alpha   90.00000000
_cell_angle_beta   101.06200000
_cell_angle_gamma   90.00000000
_symmetry_Int_Tables_number   1
_chemical_formula_structural   CaH8C14SO6
_chemical_formula_sum   'Ca4 H32 C56 S4 O24'
_cell_volume   1451.92543336
_cell_formula_units_Z   4
loop_
 _symmetry_equiv_pos_site_id
 _symmetry_equiv_pos_as_xyz
  1  'x, y, z'
loop_
 _atom_site_type_symbol
 _atom_site_label
 _atom_site_symmetry_multiplicity
 _atom_site_fract_x
 _atom_site_fract_y
 _atom_site_fract_z
 _atom_site_occupancy
 _atom_site_charge
  Ca  Ca1  1  0.363190  0.242200  0.279170  1.0  1.5861
  Ca  Ca2  1  0.136810  0.742200  0.220830  1.0  1.5841
  Ca  Ca3  1  0.636810  0.757800  0.720830  1.0  1.5841
  Ca  Ca4  1  0.863190  0.257800  0.779170  1.0  1.5851
  H  H5  1  0.776800  0.876600  0.595900  1.0  0.1114
  H  H6  1  0.960100  0.877900  0.329000  1.0  0.1134
  H  H7  1  0.812200  0.797500  0.381800  1.0  0.1113
  H  H8  1  0.582100  0.446100  0.463700  1.0  0.1078
  H  H9  1  0.814200  0.521900  0.281200  1.0  0.0848
  H  H10  1  0.733500  0.793200  0.494600  1.0  0.117
  H  H11  1  0.660900  0.437200  0.330000  1.0  0.116
  H  H12  1  0.629700  0.531300  0.564600  1.0  0.0978
  H  H13  1  0.723200  0.376600  0.904100  1.0  0.1104
  H  H14  1  0.539900  0.377900  0.171000  1.0  0.1125
  H  H15  1  0.687800  0.297500  0.118200  1.0  0.1109
  H  H16  1  0.917900  0.946100  0.036300  1.0  0.1075
  H  H17  1  0.685800  0.021900  0.218800  1.0  0.0849
  H  H18  1  0.766500  0.293200  0.005400  1.0  0.1162
  H  H19  1  0.839100  0.937200  0.170000  1.0  0.1155
  H  H20  1  0.870300  0.031300  0.935400  1.0  0.0978
  H  H21  1  0.223200  0.123400  0.404100  1.0  0.1104
  H  H22  1  0.039900  0.122100  0.671000  1.0  0.1134
  H  H23  1  0.187800  0.202500  0.618200  1.0  0.1105
  H  H24  1  0.417900  0.553900  0.536300  1.0  0.1077
  H  H25  1  0.185800  0.478100  0.718800  1.0  0.085
  H  H26  1  0.266500  0.206800  0.505400  1.0  0.1163
  H  H27  1  0.339100  0.562800  0.670000  1.0  0.1156
  H  H28  1  0.370300  0.468700  0.435400  1.0  0.0973
  H  H29  1  0.276800  0.623400  0.095900  1.0  0.1108
  H  H30  1  0.460100  0.622100  0.829000  1.0  0.113
  H  H31  1  0.312200  0.702500  0.881800  1.0  0.1105
  H  H32  1  0.082100  0.053900  0.963700  1.0  0.1074
  H  H33  1  0.314200  0.978100  0.781200  1.0  0.0849
  H  H34  1  0.233500  0.706800  0.994600  1.0  0.1172
  H  H35  1  0.160900  0.062800  0.830000  1.0  0.1165
  H  H36  1  0.129700  0.968700  0.064600  1.0  0.0976
  C  C37  1  0.727760  0.263300  0.655550  1.0  0.7287
  C  C38  1  0.704690  0.210200  0.590210  1.0  -0.117
  C  C39  1  0.737400  0.989500  0.569440  1.0  -0.0626
  C  C40  1  0.721590  0.107300  0.359480  1.0  -0.2266
  C  C41  1  0.650300  0.108800  0.470360  1.0  -0.2047
  C  C42  1  0.900710  0.206900  0.299040  1.0  -0.1422
  C  C43  1  0.900600  0.989600  0.329490  1.0  -0.0241
  C  C44  1  0.811690  0.940100  0.360580  1.0  -0.0649
  C  C45  1  0.620290  0.332300  0.490260  1.0  -0.0245
  C  C46  1  0.812210  0.375000  0.300390  1.0  -0.0387
  C  C47  1  0.710940  0.938800  0.508990  1.0  -0.0321
  C  C48  1  0.992900  0.257700  0.261990  1.0  0.7467
  C  C49  1  0.720970  0.326400  0.329930  1.0  -0.0411
  C  C50  1  0.648490  0.382100  0.550560  1.0  -0.0675
  C  C51  1  0.772240  0.763300  0.844450  1.0  0.7287
  C  C52  1  0.795310  0.710200  0.909790  1.0  -0.1158
  C  C53  1  0.762600  0.489500  0.930560  1.0  -0.0614
  C  C54  1  0.778410  0.607300  0.140520  1.0  -0.227
  C  C55  1  0.849700  0.608800  0.029640  1.0  -0.2036
  C  C56  1  0.599290  0.706900  0.200960  1.0  -0.1411
  C  C57  1  0.599400  0.489600  0.170510  1.0  -0.0234
  C  C58  1  0.688310  0.440100  0.139420  1.0  -0.0636
  C  C59  1  0.879710  0.832300  0.009740  1.0  -0.0268
  C  C60  1  0.687790  0.875000  0.199610  1.0  -0.0387
  C  C61  1  0.789060  0.438800  0.991010  1.0  -0.0327
  C  C62  1  0.507100  0.757700  0.238010  1.0  0.7474
  C  C63  1  0.779030  0.826400  0.170070  1.0  -0.0427
  C  C64  1  0.851510  0.882100  0.949440  1.0  -0.0693
  C  C65  1  0.272240  0.736700  0.344450  1.0  0.7286
  C  C66  1  0.295310  0.789800  0.409790  1.0  -0.1159
  C  C67  1  0.262600  0.010500  0.430560  1.0  -0.0629
  C  C68  1  0.278410  0.892700  0.640520  1.0  -0.2267
  C  C69  1  0.349700  0.891200  0.529640  1.0  -0.2038
  C  C70  1  0.099290  0.793100  0.700960  1.0  -0.1416
  C  C71  1  0.099400  0.010400  0.670510  1.0  -0.0241
  C  C72  1  0.188310  0.059900  0.639420  1.0  -0.0644
  C  C73  1  0.379710  0.667700  0.509740  1.0  -0.0266
  C  C74  1  0.187790  0.625000  0.699610  1.0  -0.0407
  C  C75  1  0.289060  0.061200  0.491010  1.0  -0.0328
  C  C76  1  0.007100  0.742300  0.738010  1.0  0.7475
  C  C77  1  0.279030  0.673600  0.670070  1.0  -0.0424
  C  C78  1  0.351510  0.617900  0.449440  1.0  -0.0703
  C  C79  1  0.227760  0.236700  0.155550  1.0  0.7287
  C  C80  1  0.204690  0.289800  0.090210  1.0  -0.1169
  C  C81  1  0.237400  0.510500  0.069440  1.0  -0.0631
  C  C82  1  0.221590  0.392700  0.859480  1.0  -0.2267
  C  C83  1  0.150300  0.391200  0.970360  1.0  -0.2046
  C  C84  1  0.400710  0.293100  0.799040  1.0  -0.1419
  C  C85  1  0.400600  0.510400  0.829490  1.0  -0.0246
  C  C86  1  0.311690  0.559900  0.860580  1.0  -0.0649
  C  C87  1  0.120290  0.167700  0.990260  1.0  -0.0239
  C  C88  1  0.312210  0.125000  0.800390  1.0  -0.0404
  C  C89  1  0.210940  0.561200  0.008990  1.0  -0.0323
  C  C90  1  0.492900  0.242300  0.761990  1.0  0.7467
  C  C91  1  0.220970  0.173600  0.829930  1.0  -0.0407
  C  C92  1  0.148490  0.117900  0.050560  1.0  -0.0682
  S  S93  1  0.604260  0.033430  0.394670  1.0  1.1537
  S  S94  1  0.895740  0.533430  0.105330  1.0  1.1528
  S  S95  1  0.395740  0.966570  0.605330  1.0  1.1529
  S  S96  1  0.104260  0.466570  0.894670  1.0  1.1539
  O  O97  1  0.737290  0.478600  0.672320  1.0  -0.6984
  O  O98  1  0.011640  0.474400  0.252060  1.0  -0.6989
  O  O99  1  0.741040  0.086600  0.691070  1.0  -0.734
  O  O100  1  0.506030  0.191100  0.371640  1.0  -0.6193
  O  O101  1  0.040450  0.079300  0.243210  1.0  -0.7094
  O  O102  1  0.587520  0.776720  0.391130  1.0  -0.5612
  O  O103  1  0.762710  0.978600  0.827680  1.0  -0.6991
  O  O104  1  0.488360  0.974400  0.247940  1.0  -0.7006
  O  O105  1  0.758960  0.586600  0.808930  1.0  -0.7347
  O  O106  1  0.993970  0.691100  0.128360  1.0  -0.6209
  O  O107  1  0.459550  0.579300  0.256790  1.0  -0.7085
  O  O108  1  0.912480  0.276720  0.108870  1.0  -0.5623
  O  O109  1  0.262710  0.521400  0.327680  1.0  -0.6987
  O  O110  1  0.988360  0.525600  0.747940  1.0  -0.7008
  O  O111  1  0.258960  0.913400  0.308930  1.0  -0.734
  O  O112  1  0.493970  0.808900  0.628360  1.0  -0.6212
  O  O113  1  0.959550  0.920700  0.756790  1.0  -0.7081
  O  O114  1  0.412480  0.223280  0.608870  1.0  -0.5614
  O  O115  1  0.237290  0.021400  0.172320  1.0  -0.6975
  O  O116  1  0.511640  0.025600  0.752060  1.0  -0.6992
  O  O117  1  0.241040  0.413400  0.191070  1.0  -0.7345
  O  O118  1  0.006030  0.308900  0.871640  1.0  -0.6196
  O  O119  1  0.540450  0.420700  0.743210  1.0  -0.7095
  O  O120  1  0.087520  0.723280  0.891130  1.0  -0.5603
