# generated using pymatgen
data_CaH20(C17O4)2
_symmetry_space_group_name_H-M   'P 1'
_cell_length_a   5.18030000
_cell_length_b   10.65080000
_cell_length_c   15.29140000
_cell_angle_alpha   82.59100000
_cell_angle_beta   85.94500000
_cell_angle_gamma   82.73900000
_symmetry_Int_Tables_number   1
_chemical_formula_structural   CaH20(C17O4)2
_chemical_formula_sum   'Ca1 H20 C34 O8'
_cell_volume   828.66869484
_cell_formula_units_Z   1
loop_
 _symmetry_equiv_pos_site_id
 _symmetry_equiv_pos_as_xyz
  1  'x, y, z'
loop_
 _atom_site_type_symbol
 _atom_site_label
 _atom_site_symmetry_multiplicity
 _atom_site_fract_x
 _atom_site_fract_y
 _atom_site_fract_z
 _atom_site_occupancy
 _atom_site_charge
  Ca  Ca1  1  0.000000  0.000000  0.000000  1.0  1.5332
  H  H2  1  0.967600  0.721100  0.479200  1.0  0.1095
  H  H3  1  0.504400  0.254200  0.608900  1.0  0.1206
  H  H4  1  0.657600  0.149100  0.741800  1.0  0.1067
  H  H5  1  0.026900  0.315100  0.874200  1.0  0.1133
  H  H6  1  0.889700  0.429800  0.742700  1.0  0.0961
  H  H7  1  0.508800  0.531100  0.657800  1.0  0.0955
  H  H8  1  0.616400  0.634500  0.772600  1.0  0.1061
  H  H9  1  0.966100  0.886700  0.739000  1.0  0.1069
  H  H10  1  0.858000  0.781400  0.624900  1.0  0.1098
  H  H11  1  0.598600  0.826600  0.922100  1.0  0.3989
  H  H12  1  0.032400  0.278900  0.520800  1.0  0.1109
  H  H13  1  0.495600  0.745800  0.391100  1.0  0.1198
  H  H14  1  0.342400  0.850900  0.258200  1.0  0.1079
  H  H15  1  0.973100  0.684900  0.125800  1.0  0.1136
  H  H16  1  0.110300  0.570200  0.257300  1.0  0.0963
  H  H17  1  0.491200  0.468900  0.342200  1.0  0.0955
  H  H18  1  0.383600  0.365500  0.227400  1.0  0.1059
  H  H19  1  0.033900  0.113300  0.261000  1.0  0.1068
  H  H20  1  0.142000  0.218600  0.375100  1.0  0.1095
  H  H21  1  0.401400  0.173400  0.077900  1.0  0.3985
  C  C22  1  0.981800  0.630600  0.487630  1.0  -0.1105
  C  C23  1  0.080400  0.566600  0.565620  1.0  0.0066
  C  C24  1  0.097300  0.432300  0.578750  1.0  -0.0349
  C  C25  1  0.185500  0.355800  0.662560  1.0  0.0535
  C  C26  1  0.411100  0.269400  0.663050  1.0  -0.0985
  C  C27  1  0.500100  0.205400  0.741900  1.0  -0.0496
  C  C28  1  0.360000  0.223200  0.821410  1.0  -0.1263
  C  C29  1  0.128000  0.305200  0.820680  1.0  -0.0422
  C  C30  1  0.045100  0.371900  0.742360  1.0  -0.1197
  C  C31  1  0.462300  0.159300  0.906970  1.0  0.6866
  C  C32  1  0.165400  0.640900  0.633160  1.0  0.0301
  C  C33  1  0.395000  0.601500  0.675560  1.0  -0.1353
  C  C34  1  0.460200  0.663600  0.743340  1.0  -0.0507
  C  C35  1  0.297400  0.769000  0.769060  1.0  -0.1504
  C  C36  1  0.074500  0.813100  0.723630  1.0  -0.035
  C  C37  1  0.009800  0.750100  0.656090  1.0  -0.1194
  C  C38  1  0.352900  0.829800  0.846920  1.0  0.6503
  C  C39  1  0.018200  0.369400  0.512370  1.0  -0.111
  C  C40  1  0.919600  0.433400  0.434380  1.0  0.0055
  C  C41  1  0.902700  0.567700  0.421250  1.0  -0.0349
  C  C42  1  0.814500  0.644200  0.337440  1.0  0.0528
  C  C43  1  0.588900  0.730600  0.336950  1.0  -0.0972
  C  C44  1  0.499900  0.794600  0.258100  1.0  -0.0477
  C  C45  1  0.640000  0.776800  0.178590  1.0  -0.1268
  C  C46  1  0.872000  0.694800  0.179320  1.0  -0.0422
  C  C47  1  0.954900  0.628100  0.257640  1.0  -0.1219
  C  C48  1  0.537700  0.840700  0.093030  1.0  0.6859
  C  C49  1  0.834600  0.359100  0.366840  1.0  0.0297
  C  C50  1  0.605000  0.398500  0.324440  1.0  -0.1356
  C  C51  1  0.539800  0.336400  0.256660  1.0  -0.0513
  C  C52  1  0.702600  0.231000  0.230940  1.0  -0.1505
  C  C53  1  0.925500  0.186900  0.276370  1.0  -0.037
  C  C54  1  0.990200  0.249900  0.343910  1.0  -0.1198
  C  C55  1  0.647100  0.170200  0.153080  1.0  0.6504
  O  O56  1  0.299800  0.149940  0.974570  1.0  -0.6328
  O  O57  1  0.699000  0.120520  0.909690  1.0  -0.7033
  O  O58  1  0.193800  0.910060  0.877960  1.0  -0.6328
  O  O59  1  0.579300  0.788800  0.878510  1.0  -0.5125
  O  O60  1  0.700200  0.850060  0.025430  1.0  -0.6328
  O  O61  1  0.301000  0.879480  0.090310  1.0  -0.705
  O  O62  1  0.806200  0.089940  0.122040  1.0  -0.6326
  O  O63  1  0.420700  0.211200  0.121490  1.0  -0.5121
