# generated using pymatgen
data_CaH20(C17O4)2
_symmetry_space_group_name_H-M   'P 1'
_cell_length_a   5.16340000
_cell_length_b   10.55180000
_cell_length_c   15.48490000
_cell_angle_alpha   82.72500000
_cell_angle_beta   87.23300000
_cell_angle_gamma   83.78200000
_symmetry_Int_Tables_number   1
_chemical_formula_structural   CaH20(C17O4)2
_chemical_formula_sum   'Ca1 H20 C34 O8'
_cell_volume   831.44026120
_cell_formula_units_Z   1
loop_
 _symmetry_equiv_pos_site_id
 _symmetry_equiv_pos_as_xyz
  1  'x, y, z'
loop_
 _atom_site_type_symbol
 _atom_site_label
 _atom_site_symmetry_multiplicity
 _atom_site_fract_x
 _atom_site_fract_y
 _atom_site_fract_z
 _atom_site_occupancy
 _atom_site_charge
  Ca  Ca1  1  0.000000  0.000000  0.000000  1.0  1.5324
  H  H2  1  0.968000  0.723200  0.482500  1.0  0.1036
  H  H3  1  0.507900  0.529600  0.661300  1.0  0.0927
  H  H4  1  0.614500  0.631600  0.777600  1.0  0.1073
  H  H5  1  0.854100  0.777600  0.627500  1.0  0.1088
  H  H6  1  0.498500  0.248900  0.608100  1.0  0.1182
  H  H7  1  0.653200  0.142900  0.740200  1.0  0.101
  H  H8  1  0.029800  0.307700  0.868500  1.0  0.1138
  H  H9  1  0.888800  0.423300  0.738100  1.0  0.0924
  H  H10  1  0.589800  0.817000  0.931000  1.0  0.3608
  H  H11  1  0.959800  0.879700  0.744600  1.0  0.1031
  H  H12  1  0.032000  0.276800  0.517500  1.0  0.105
  H  H13  1  0.492100  0.470400  0.338700  1.0  0.0924
  H  H14  1  0.385500  0.368400  0.222400  1.0  0.1067
  H  H15  1  0.145900  0.222400  0.372500  1.0  0.1087
  H  H16  1  0.501500  0.751100  0.391900  1.0  0.1175
  H  H17  1  0.346800  0.857100  0.259800  1.0  0.102
  H  H18  1  0.970200  0.692300  0.131500  1.0  0.1134
  H  H19  1  0.111200  0.576700  0.261900  1.0  0.0929
  H  H20  1  0.410200  0.183000  0.069000  1.0  0.3576
  H  H21  1  0.040200  0.120300  0.255400  1.0  0.1033
  C  C22  1  0.981600  0.632040  0.489610  1.0  -0.1141
  C  C23  1  0.079000  0.565510  0.567080  1.0  -0.0225
  C  C24  1  0.096400  0.429910  0.577560  1.0  -0.0112
  C  C25  1  0.163200  0.638610  0.635560  1.0  0.0347
  C  C26  1  0.393600  0.599060  0.679110  1.0  -0.1302
  C  C27  1  0.457700  0.659970  0.748110  1.0  -0.0469
  C  C28  1  0.293100  0.762680  0.774390  1.0  -0.1429
  C  C29  1  0.005700  0.746190  0.659170  1.0  -0.1142
  C  C30  1  0.346200  0.821560  0.853550  1.0  0.6556
  C  C31  1  0.182900  0.351720  0.660210  1.0  0.0439
  C  C32  1  0.407400  0.264140  0.661150  1.0  -0.0995
  C  C33  1  0.497000  0.199480  0.739720  1.0  -0.0486
  C  C34  1  0.360200  0.216950  0.817460  1.0  -0.1273
  C  C35  1  0.129300  0.298470  0.816020  1.0  -0.0474
  C  C36  1  0.044200  0.366170  0.738190  1.0  -0.1081
  C  C37  1  0.464800  0.154540  0.903000  1.0  0.698
  C  C38  1  0.069100  0.807460  0.728510  1.0  -0.0212
  C  C39  1  0.018400  0.367960  0.510390  1.0  -0.1137
  C  C40  1  0.921000  0.434490  0.432920  1.0  -0.0239
  C  C41  1  0.903600  0.570090  0.422440  1.0  -0.0107
  C  C42  1  0.836800  0.361390  0.364440  1.0  0.0342
  C  C43  1  0.606400  0.400940  0.320890  1.0  -0.1302
  C  C44  1  0.542300  0.340030  0.251890  1.0  -0.0468
  C  C45  1  0.706900  0.237320  0.225610  1.0  -0.1432
  C  C46  1  0.994300  0.253810  0.340830  1.0  -0.1159
  C  C47  1  0.653800  0.178440  0.146450  1.0  0.6559
  C  C48  1  0.817100  0.648280  0.339790  1.0  0.0437
  C  C49  1  0.592600  0.735860  0.338850  1.0  -0.0987
  C  C50  1  0.503000  0.800520  0.260280  1.0  -0.0486
  C  C51  1  0.639800  0.783050  0.182540  1.0  -0.1278
  C  C52  1  0.870700  0.701530  0.183980  1.0  -0.048
  C  C53  1  0.955800  0.633830  0.261810  1.0  -0.1097
  C  C54  1  0.535200  0.845460  0.097000  1.0  0.6979
  C  C55  1  0.930900  0.192540  0.271490  1.0  -0.0229
  O  O56  1  0.698900  0.112810  0.905740  1.0  -0.6952
  O  O57  1  0.305200  0.150160  0.969370  1.0  -0.6513
  O  O58  1  0.187200  0.900570  0.883730  1.0  -0.607
  O  O59  1  0.571900  0.780490  0.886790  1.0  -0.5072
  O  O60  1  0.301100  0.887190  0.094260  1.0  -0.6959
  O  O61  1  0.694800  0.849840  0.030630  1.0  -0.6514
  O  O62  1  0.812800  0.099430  0.116270  1.0  -0.6066
  O  O63  1  0.428100  0.219510  0.113210  1.0  -0.5086
