# generated using pymatgen
data_CaH8C14SO6
_symmetry_space_group_name_H-M   'P 1'
_cell_length_a   11.65830000
_cell_length_b   5.56710000
_cell_length_c   22.91100000
_cell_angle_alpha   90.00000000
_cell_angle_beta   100.90100000
_cell_angle_gamma   90.00000000
_symmetry_Int_Tables_number   1
_chemical_formula_structural   CaH8C14SO6
_chemical_formula_sum   'Ca4 H32 C56 S4 O24'
_cell_volume   1460.15870750
_cell_formula_units_Z   4
loop_
 _symmetry_equiv_pos_site_id
 _symmetry_equiv_pos_as_xyz
  1  'x, y, z'
loop_
 _atom_site_type_symbol
 _atom_site_label
 _atom_site_symmetry_multiplicity
 _atom_site_fract_x
 _atom_site_fract_y
 _atom_site_fract_z
 _atom_site_occupancy
 _atom_site_charge
  Ca  Ca1  1  0.636990  0.243160  0.221350  1.0  1.5932
  Ca  Ca2  1  0.863010  0.743160  0.278650  1.0  1.5945
  Ca  Ca3  1  0.363010  0.756840  0.778650  1.0  1.5947
  Ca  Ca4  1  0.136990  0.256840  0.721350  1.0  1.5926
  H  H5  1  0.185600  0.526000  0.219800  1.0  0.0961
  H  H6  1  0.189800  0.796100  0.118000  1.0  0.1195
  H  H7  1  0.418900  0.449000  0.037100  1.0  0.1219
  H  H8  1  0.225300  0.872600  0.903900  1.0  0.1214
  H  H9  1  0.341200  0.438900  0.170700  1.0  0.1251
  H  H10  1  0.371300  0.532700  0.934800  1.0  0.1131
  H  H11  1  0.268400  0.790900  0.006800  1.0  0.1166
  H  H12  1  0.040400  0.876000  0.171100  1.0  0.124
  H  H13  1  0.314400  0.026000  0.280200  1.0  0.0959
  H  H14  1  0.310200  0.296100  0.382000  1.0  0.119
  H  H15  1  0.081100  0.949000  0.462900  1.0  0.1224
  H  H16  1  0.274700  0.372600  0.596100  1.0  0.1219
  H  H17  1  0.158800  0.938900  0.329300  1.0  0.1253
  H  H18  1  0.128700  0.032700  0.565200  1.0  0.1132
  H  H19  1  0.231600  0.290900  0.493200  1.0  0.1172
  H  H20  1  0.459600  0.376000  0.328900  1.0  0.1247
  H  H21  1  0.814400  0.474000  0.780200  1.0  0.0958
  H  H22  1  0.810200  0.203900  0.882000  1.0  0.1192
  H  H23  1  0.581100  0.551000  0.962900  1.0  0.1219
  H  H24  1  0.774700  0.127400  0.096100  1.0  0.1216
  H  H25  1  0.658800  0.561100  0.829300  1.0  0.1258
  H  H26  1  0.628700  0.467300  0.065200  1.0  0.1129
  H  H27  1  0.731600  0.209100  0.993200  1.0  0.1172
  H  H28  1  0.959600  0.124000  0.828900  1.0  0.1242
  H  H29  1  0.685600  0.974000  0.719800  1.0  0.0962
  H  H30  1  0.689800  0.703900  0.618000  1.0  0.12
  H  H31  1  0.918900  0.051000  0.537100  1.0  0.1222
  H  H32  1  0.725300  0.627400  0.403900  1.0  0.1218
  H  H33  1  0.841200  0.061100  0.670700  1.0  0.1252
  H  H34  1  0.871300  0.967300  0.434800  1.0  0.1127
  H  H35  1  0.768400  0.709100  0.506800  1.0  0.1165
  H  H36  1  0.540400  0.624000  0.671100  1.0  0.1248
  C  C37  1  0.351400  0.108700  0.029940  1.0  -0.2071
  C  C38  1  0.278900  0.108200  0.141350  1.0  -0.2035
  C  C39  1  0.187900  0.376400  0.200070  1.0  -0.0354
  C  C40  1  0.189800  0.941300  0.139740  1.0  -0.0667
  C  C41  1  0.380600  0.332200  0.010030  1.0  -0.1067
  C  C42  1  0.099700  0.208200  0.200730  1.0  -0.1204
  C  C43  1  0.296700  0.208700  0.909980  1.0  -0.0991
  C  C44  1  0.264800  0.988500  0.930840  1.0  -0.0716
  C  C45  1  0.279900  0.326600  0.170620  1.0  -0.0804
  C  C46  1  0.352400  0.380800  0.949390  1.0  -0.0822
  C  C47  1  0.291300  0.938900  0.991800  1.0  -0.0563
  C  C48  1  0.273400  0.262100  0.844490  1.0  0.7315
  C  C49  1  0.100700  0.990500  0.170550  1.0  -0.0329
  C  C50  1  0.007000  0.258900  0.237740  1.0  0.7512
  C  C51  1  0.148600  0.608700  0.470060  1.0  -0.2063
  C  C52  1  0.221100  0.608200  0.358650  1.0  -0.204
  C  C53  1  0.312100  0.876400  0.299930  1.0  -0.035
  C  C54  1  0.310200  0.441300  0.360260  1.0  -0.0677
  C  C55  1  0.119400  0.832200  0.489970  1.0  -0.1056
  C  C56  1  0.400300  0.708200  0.299270  1.0  -0.1212
  C  C57  1  0.203300  0.708700  0.590020  1.0  -0.0995
  C  C58  1  0.235200  0.488500  0.569160  1.0  -0.0724
  C  C59  1  0.220100  0.826600  0.329380  1.0  -0.0795
  C  C60  1  0.147600  0.880800  0.550610  1.0  -0.081
  C  C61  1  0.208700  0.438900  0.508200  1.0  -0.056
  C  C62  1  0.226600  0.762100  0.655510  1.0  0.7306
  C  C63  1  0.399300  0.490500  0.329450  1.0  -0.0334
  C  C64  1  0.493000  0.758900  0.262260  1.0  0.7522
  C  C65  1  0.648600  0.891300  0.970060  1.0  -0.2063
  C  C66  1  0.721100  0.891800  0.858650  1.0  -0.2044
  C  C67  1  0.812100  0.623600  0.799930  1.0  -0.0363
  C  C68  1  0.810200  0.058700  0.860260  1.0  -0.0671
  C  C69  1  0.619400  0.667800  0.989970  1.0  -0.1056
  C  C70  1  0.900300  0.791800  0.799270  1.0  -0.1205
  C  C71  1  0.703300  0.791300  0.090020  1.0  -0.0995
  C  C72  1  0.735200  0.011500  0.069160  1.0  -0.0728
  C  C73  1  0.720100  0.673400  0.829380  1.0  -0.0793
  C  C74  1  0.647600  0.619200  0.050610  1.0  -0.0811
  C  C75  1  0.708700  0.061100  0.008200  1.0  -0.0558
  C  C76  1  0.726600  0.737900  0.155510  1.0  0.7307
  C  C77  1  0.899300  0.009500  0.829450  1.0  -0.034
  C  C78  1  0.993000  0.741100  0.762260  1.0  0.7524
  C  C79  1  0.851400  0.391300  0.529940  1.0  -0.2073
  C  C80  1  0.778900  0.391800  0.641350  1.0  -0.2034
  C  C81  1  0.687900  0.123600  0.700070  1.0  -0.0368
  C  C82  1  0.689800  0.558700  0.639740  1.0  -0.0669
  C  C83  1  0.880600  0.167800  0.510030  1.0  -0.1071
  C  C84  1  0.599700  0.291800  0.700730  1.0  -0.1207
  C  C85  1  0.796700  0.291300  0.409980  1.0  -0.0993
  C  C86  1  0.764800  0.511500  0.430840  1.0  -0.0724
  C  C87  1  0.779900  0.173400  0.670620  1.0  -0.0799
  C  C88  1  0.852400  0.119200  0.449390  1.0  -0.0825
  C  C89  1  0.791300  0.561100  0.491800  1.0  -0.056
  C  C90  1  0.773400  0.237900  0.344490  1.0  0.7313
  C  C91  1  0.600700  0.509500  0.670550  1.0  -0.0336
  C  C92  1  0.507000  0.241100  0.737740  1.0  0.7514
  S  S93  1  0.396870  0.034230  0.105990  1.0  1.1527
  S  S94  1  0.103130  0.534230  0.394010  1.0  1.1534
  S  S95  1  0.603130  0.965770  0.894010  1.0  1.1537
  S  S96  1  0.896870  0.465770  0.605990  1.0  1.1528
  O  O97  1  0.494190  0.192000  0.129070  1.0  -0.6111
  O  O98  1  0.413580  0.778000  0.109700  1.0  -0.5555
  O  O99  1  0.259740  0.085700  0.808890  1.0  -0.7354
  O  O100  1  0.263500  0.477000  0.827680  1.0  -0.7034
  O  O101  1  0.987700  0.476000  0.247020  1.0  -0.6965
  O  O102  1  0.958730  0.080800  0.255980  1.0  -0.706
  O  O103  1  0.005810  0.692000  0.370930  1.0  -0.6092
  O  O104  1  0.086420  0.278000  0.390300  1.0  -0.5547
  O  O105  1  0.240260  0.585700  0.691110  1.0  -0.7345
  O  O106  1  0.236500  0.977000  0.672320  1.0  -0.7032
  O  O107  1  0.512300  0.976000  0.252980  1.0  -0.6955
  O  O108  1  0.541270  0.580800  0.244020  1.0  -0.707
  O  O109  1  0.505810  0.808000  0.870930  1.0  -0.6097
  O  O110  1  0.586420  0.222000  0.890300  1.0  -0.5535
  O  O111  1  0.740260  0.914300  0.191110  1.0  -0.7353
  O  O112  1  0.736500  0.523000  0.172320  1.0  -0.702
  O  O113  1  0.012300  0.524000  0.752980  1.0  -0.6948
  O  O114  1  0.041270  0.919200  0.744020  1.0  -0.7073
  O  O115  1  0.994190  0.308000  0.629070  1.0  -0.6117
  O  O116  1  0.913580  0.722000  0.609700  1.0  -0.5545
  O  O117  1  0.759740  0.414300  0.308890  1.0  -0.7348
  O  O118  1  0.763500  0.023000  0.327680  1.0  -0.7033
  O  O119  1  0.487700  0.024000  0.747020  1.0  -0.6966
  O  O120  1  0.458730  0.419200  0.755980  1.0  -0.7067
