# generated using pymatgen
data_CaH8C14SO6
_symmetry_space_group_name_H-M   'P 1'
_cell_length_a   11.66670000
_cell_length_b   5.55860000
_cell_length_c   22.93500000
_cell_angle_alpha   90.00000000
_cell_angle_beta   101.01100000
_cell_angle_gamma   90.00000000
_symmetry_Int_Tables_number   1
_chemical_formula_structural   CaH8C14SO6
_chemical_formula_sum   'Ca4 H32 C56 S4 O24'
_cell_volume   1459.96538507
_cell_formula_units_Z   4
loop_
 _symmetry_equiv_pos_site_id
 _symmetry_equiv_pos_as_xyz
  1  'x, y, z'
loop_
 _atom_site_type_symbol
 _atom_site_label
 _atom_site_symmetry_multiplicity
 _atom_site_fract_x
 _atom_site_fract_y
 _atom_site_fract_z
 _atom_site_occupancy
 _atom_site_charge
  Ca  Ca1  1  0.636590  0.243720  0.221290  1.0  1.5892
  Ca  Ca2  1  0.863410  0.743720  0.278710  1.0  1.5898
  Ca  Ca3  1  0.363410  0.756280  0.778710  1.0  1.59
  Ca  Ca4  1  0.136590  0.256280  0.721290  1.0  1.5898
  H  H5  1  0.187700  0.797000  0.117300  1.0  0.1255
  H  H6  1  0.267600  0.792800  0.006400  1.0  0.1219
  H  H7  1  0.338500  0.443900  0.170300  1.0  0.1344
  H  H8  1  0.417900  0.452100  0.038000  1.0  0.1286
  H  H9  1  0.222800  0.874600  0.904600  1.0  0.1252
  H  H10  1  0.040100  0.878300  0.170700  1.0  0.1206
  H  H11  1  0.187200  0.526300  0.220000  1.0  0.096
  H  H12  1  0.371300  0.534800  0.935100  1.0  0.1165
  H  H13  1  0.312300  0.297000  0.382700  1.0  0.1253
  H  H14  1  0.232400  0.292800  0.493600  1.0  0.1223
  H  H15  1  0.161500  0.943900  0.329700  1.0  0.1346
  H  H16  1  0.082100  0.952100  0.462000  1.0  0.1288
  H  H17  1  0.277200  0.374600  0.595400  1.0  0.1266
  H  H18  1  0.459900  0.378300  0.329300  1.0  0.1212
  H  H19  1  0.312800  0.026300  0.280000  1.0  0.0959
  H  H20  1  0.128700  0.034800  0.564900  1.0  0.1166
  H  H21  1  0.812300  0.203000  0.882700  1.0  0.1252
  H  H22  1  0.732400  0.207200  0.993600  1.0  0.1225
  H  H23  1  0.661500  0.556100  0.829700  1.0  0.135
  H  H24  1  0.582100  0.547900  0.962000  1.0  0.1283
  H  H25  1  0.777200  0.125400  0.095400  1.0  0.1261
  H  H26  1  0.959900  0.121700  0.829300  1.0  0.1208
  H  H27  1  0.812800  0.473700  0.780000  1.0  0.0954
  H  H28  1  0.628700  0.465200  0.064900  1.0  0.1162
  H  H29  1  0.687700  0.703000  0.617300  1.0  0.1257
  H  H30  1  0.767600  0.707200  0.506400  1.0  0.122
  H  H31  1  0.838500  0.056100  0.670300  1.0  0.1345
  H  H32  1  0.917900  0.047900  0.538000  1.0  0.1289
  H  H33  1  0.722800  0.625400  0.404600  1.0  0.1256
  H  H34  1  0.540100  0.621700  0.670700  1.0  0.1214
  H  H35  1  0.687200  0.973700  0.720000  1.0  0.0957
  H  H36  1  0.871300  0.965200  0.435100  1.0  0.1159
  C  C37  1  0.188600  0.942200  0.139200  1.0  -0.0465
  C  C38  1  0.279200  0.109400  0.140900  1.0  -0.1895
  C  C39  1  0.290600  0.940600  0.991300  1.0  -0.0681
  C  C40  1  0.352000  0.109700  0.029000  1.0  -0.1808
  C  C41  1  0.278100  0.329400  0.170500  1.0  -0.1127
  C  C42  1  0.380600  0.335200  0.010600  1.0  -0.1102
  C  C43  1  0.263500  0.989800  0.931500  1.0  -0.0608
  C  C44  1  0.100300  0.992900  0.170100  1.0  -0.0114
  C  C45  1  0.188200  0.377100  0.199800  1.0  -0.0379
  C  C46  1  0.352100  0.382700  0.949600  1.0  -0.0783
  C  C47  1  0.273800  0.260600  0.845000  1.0  0.7246
  C  C48  1  0.006100  0.256200  0.237200  1.0  0.731
  C  C49  1  0.098700  0.212800  0.200800  1.0  -0.141
  C  C50  1  0.296600  0.213100  0.910000  1.0  -0.0933
  C  C51  1  0.311400  0.442200  0.360800  1.0  -0.0471
  C  C52  1  0.220800  0.609400  0.359100  1.0  -0.1895
  C  C53  1  0.209400  0.440600  0.508700  1.0  -0.0666
  C  C54  1  0.148000  0.609700  0.471000  1.0  -0.1796
  C  C55  1  0.221900  0.829400  0.329500  1.0  -0.112
  C  C56  1  0.119400  0.835200  0.489400  1.0  -0.1088
  C  C57  1  0.236500  0.489800  0.568500  1.0  -0.0601
  C  C58  1  0.399700  0.492900  0.329900  1.0  -0.0129
  C  C59  1  0.311800  0.877100  0.300200  1.0  -0.0386
  C  C60  1  0.147900  0.882700  0.550400  1.0  -0.0771
  C  C61  1  0.226200  0.760600  0.655000  1.0  0.725
  C  C62  1  0.493900  0.756200  0.262800  1.0  0.7302
  C  C63  1  0.401300  0.712800  0.299200  1.0  -0.1416
  C  C64  1  0.203400  0.713100  0.590000  1.0  -0.0939
  C  C65  1  0.811400  0.057800  0.860800  1.0  -0.0469
  C  C66  1  0.720800  0.890600  0.859100  1.0  -0.1897
  C  C67  1  0.709400  0.059400  0.008700  1.0  -0.0667
  C  C68  1  0.648000  0.890300  0.971000  1.0  -0.1796
  C  C69  1  0.721900  0.670600  0.829500  1.0  -0.1109
  C  C70  1  0.619400  0.664800  0.989400  1.0  -0.1079
  C  C71  1  0.736500  0.010200  0.068500  1.0  -0.0606
  C  C72  1  0.899700  0.007100  0.829900  1.0  -0.0132
  C  C73  1  0.811800  0.622900  0.800200  1.0  -0.039
  C  C74  1  0.647900  0.617300  0.050400  1.0  -0.0773
  C  C75  1  0.726200  0.739400  0.155000  1.0  0.7251
  C  C76  1  0.993900  0.743800  0.762800  1.0  0.7301
  C  C77  1  0.901300  0.787200  0.799200  1.0  -0.1414
  C  C78  1  0.703400  0.786900  0.090000  1.0  -0.094
  C  C79  1  0.688600  0.557800  0.639200  1.0  -0.0464
  C  C80  1  0.779200  0.390600  0.640900  1.0  -0.1894
  C  C81  1  0.790600  0.559400  0.491300  1.0  -0.0681
  C  C82  1  0.852000  0.390300  0.529000  1.0  -0.1812
  C  C83  1  0.778100  0.170600  0.670500  1.0  -0.1117
  C  C84  1  0.880600  0.164800  0.510600  1.0  -0.1101
  C  C85  1  0.763500  0.510200  0.431500  1.0  -0.0615
  C  C86  1  0.600300  0.507100  0.670100  1.0  -0.0119
  C  C87  1  0.688200  0.122900  0.699800  1.0  -0.0388
  C  C88  1  0.852100  0.117300  0.449600  1.0  -0.0793
  C  C89  1  0.773800  0.239400  0.345000  1.0  0.7246
  C  C90  1  0.506100  0.243800  0.737200  1.0  0.731
  C  C91  1  0.598700  0.287200  0.700800  1.0  -0.1415
  C  C92  1  0.796600  0.286900  0.410000  1.0  -0.0933
  S  S93  1  0.396110  0.034600  0.105980  1.0  1.1322
  S  S94  1  0.103890  0.534600  0.394020  1.0  1.1323
  S  S95  1  0.603890  0.965400  0.894020  1.0  1.1325
  S  S96  1  0.896110  0.465400  0.605980  1.0  1.1323
  O  O97  1  0.986900  0.475600  0.247100  1.0  -0.6991
  O  O98  1  0.259500  0.083400  0.809700  1.0  -0.7246
  O  O99  1  0.958800  0.080200  0.255600  1.0  -0.6765
  O  O100  1  0.264100  0.476800  0.827270  1.0  -0.6981
  O  O101  1  0.412700  0.775500  0.110000  1.0  -0.5745
  O  O102  1  0.493600  0.196400  0.129130  1.0  -0.6454
  O  O103  1  0.513100  0.975600  0.252900  1.0  -0.6985
  O  O104  1  0.240500  0.583400  0.690300  1.0  -0.7235
  O  O105  1  0.541200  0.580200  0.244400  1.0  -0.6784
  O  O106  1  0.235900  0.976800  0.672730  1.0  -0.6984
  O  O107  1  0.087300  0.275500  0.390000  1.0  -0.574
  O  O108  1  0.006400  0.696400  0.370870  1.0  -0.6441
  O  O109  1  0.013100  0.524400  0.752900  1.0  -0.6988
  O  O110  1  0.740500  0.916600  0.190300  1.0  -0.724
  O  O111  1  0.041200  0.919800  0.744400  1.0  -0.679
  O  O112  1  0.735900  0.523200  0.172730  1.0  -0.698
  O  O113  1  0.587300  0.224500  0.890000  1.0  -0.5733
  O  O114  1  0.506400  0.803600  0.870870  1.0  -0.6444
  O  O115  1  0.486900  0.024400  0.747100  1.0  -0.6986
  O  O116  1  0.759500  0.416600  0.309700  1.0  -0.7238
  O  O117  1  0.458800  0.419800  0.755600  1.0  -0.6776
  O  O118  1  0.764100  0.023200  0.327270  1.0  -0.6984
  O  O119  1  0.912700  0.724500  0.610000  1.0  -0.5739
  O  O120  1  0.993600  0.303600  0.629130  1.0  -0.6457
