# generated using pymatgen
data_CaH20(C17O4)2
_symmetry_space_group_name_H-M   'P 1'
_cell_length_a   5.21950000
_cell_length_b   10.56910000
_cell_length_c   15.36040000
_cell_angle_alpha   82.53300000
_cell_angle_beta   86.65700000
_cell_angle_gamma   83.00000000
_symmetry_Int_Tables_number   1
_chemical_formula_structural   CaH20(C17O4)2
_chemical_formula_sum   'Ca1 H20 C34 O8'
_cell_volume   833.13749236
_cell_formula_units_Z   1
loop_
 _symmetry_equiv_pos_site_id
 _symmetry_equiv_pos_as_xyz
  1  'x, y, z'
loop_
 _atom_site_type_symbol
 _atom_site_label
 _atom_site_symmetry_multiplicity
 _atom_site_fract_x
 _atom_site_fract_y
 _atom_site_fract_z
 _atom_site_occupancy
 _atom_site_charge
  Ca  Ca1  1  0.000000  0.000000  0.000000  1.0  1.5279
  H  H2  1  0.967500  0.723200  0.479600  1.0  0.1022
  H  H3  1  0.498200  0.251400  0.609800  1.0  0.1122
  H  H4  1  0.653500  0.146400  0.742900  1.0  0.1021
  H  H5  1  0.030300  0.313200  0.873000  1.0  0.1065
  H  H6  1  0.889500  0.428000  0.741200  1.0  0.0909
  H  H7  1  0.505800  0.531300  0.659000  1.0  0.0974
  H  H8  1  0.613000  0.636400  0.773400  1.0  0.1032
  H  H9  1  0.958300  0.884600  0.741300  1.0  0.1006
  H  H10  1  0.852300  0.779400  0.626500  1.0  0.1062
  H  H11  1  0.596300  0.830400  0.921900  1.0  0.3861
  H  H12  1  0.032500  0.276800  0.520400  1.0  0.103
  H  H13  1  0.501800  0.748600  0.390200  1.0  0.1117
  H  H14  1  0.346500  0.853600  0.257100  1.0  0.1029
  H  H15  1  0.969700  0.686800  0.127000  1.0  0.1064
  H  H16  1  0.110500  0.572000  0.258800  1.0  0.0909
  H  H17  1  0.494200  0.468700  0.341000  1.0  0.0974
  H  H18  1  0.387000  0.363600  0.226600  1.0  0.1026
  H  H19  1  0.041700  0.115400  0.258700  1.0  0.1006
  H  H20  1  0.147700  0.220600  0.373500  1.0  0.106
  H  H21  1  0.403700  0.169600  0.078100  1.0  0.3859
  C  C22  1  0.981200  0.632000  0.487940  1.0  -0.113
  C  C23  1  0.078400  0.566000  0.566450  1.0  0.0137
  C  C24  1  0.096000  0.431600  0.578420  1.0  -0.0126
  C  C25  1  0.183300  0.354100  0.662290  1.0  0.0389
  C  C26  1  0.407100  0.267000  0.663440  1.0  -0.1016
  C  C27  1  0.497500  0.203100  0.742480  1.0  -0.0581
  C  C28  1  0.360100  0.222000  0.821100  1.0  -0.1163
  C  C29  1  0.129400  0.303400  0.819900  1.0  -0.0344
  C  C30  1  0.044200  0.370400  0.741330  1.0  -0.119
  C  C31  1  0.463300  0.157900  0.907250  1.0  0.6847
  C  C32  1  0.161700  0.640900  0.634020  1.0  0.0348
  C  C33  1  0.392300  0.601500  0.676680  1.0  -0.1283
  C  C34  1  0.456400  0.664200  0.744420  1.0  -0.0494
  C  C35  1  0.292700  0.767900  0.770450  1.0  -0.1432
  C  C36  1  0.067500  0.811800  0.725380  1.0  -0.0322
  C  C37  1  0.004400  0.748900  0.657530  1.0  -0.1135
  C  C38  1  0.347800  0.829800  0.847980  1.0  0.6513
  C  C39  1  0.018800  0.368000  0.512060  1.0  -0.1106
  C  C40  1  0.921600  0.434000  0.433550  1.0  0.0129
  C  C41  1  0.904000  0.568400  0.421580  1.0  -0.0121
  C  C42  1  0.816700  0.645900  0.337710  1.0  0.038
  C  C43  1  0.592900  0.733000  0.336560  1.0  -0.1013
  C  C44  1  0.502500  0.796900  0.257520  1.0  -0.0576
  C  C45  1  0.639900  0.778000  0.178900  1.0  -0.1172
  C  C46  1  0.870600  0.696600  0.180100  1.0  -0.035
  C  C47  1  0.955800  0.629600  0.258670  1.0  -0.1197
  C  C48  1  0.536700  0.842100  0.092750  1.0  0.6843
  C  C49  1  0.838300  0.359100  0.365980  1.0  0.0346
  C  C50  1  0.607700  0.398500  0.323320  1.0  -0.1284
  C  C51  1  0.543600  0.335800  0.255580  1.0  -0.0489
  C  C52  1  0.707300  0.232100  0.229550  1.0  -0.1435
  C  C53  1  0.932500  0.188200  0.274620  1.0  -0.0332
  C  C54  1  0.995600  0.251100  0.342470  1.0  -0.1133
  C  C55  1  0.652200  0.170200  0.152020  1.0  0.651
  O  O56  1  0.303200  0.149190  0.973390  1.0  -0.633
  O  O57  1  0.698500  0.120140  0.910050  1.0  -0.7058
  O  O58  1  0.187900  0.907350  0.879830  1.0  -0.6199
  O  O59  1  0.576400  0.791690  0.878770  1.0  -0.5133
  O  O60  1  0.696800  0.850810  0.026610  1.0  -0.6326
  O  O61  1  0.301500  0.879860  0.089950  1.0  -0.7071
  O  O62  1  0.812100  0.092650  0.120170  1.0  -0.6192
  O  O63  1  0.423600  0.208310  0.121230  1.0  -0.5138
