# generated using pymatgen
data_Al3(PO4)4
_symmetry_space_group_name_H-M   'P 1'
_cell_length_a   16.79420000
_cell_length_b   16.79420000
_cell_length_c   16.79420000
_cell_angle_alpha   90.00000000
_cell_angle_beta   90.00000000
_cell_angle_gamma   90.00000000
_symmetry_Int_Tables_number   1
_chemical_formula_structural   Al3(PO4)4
_chemical_formula_sum   'Al18 P24 O96'
_cell_volume   4736.72271926
_cell_formula_units_Z   6
loop_
 _symmetry_equiv_pos_site_id
 _symmetry_equiv_pos_as_xyz
  1  'x, y, z'
loop_
 _atom_site_type_symbol
 _atom_site_label
 _atom_site_symmetry_multiplicity
 _atom_site_fract_x
 _atom_site_fract_y
 _atom_site_fract_z
 _atom_site_occupancy
 _atom_site_charge
  Al  Al1  1  0.000000  0.500000  0.000000  1.0  1.963
  Al  Al2  1  0.000000  0.000000  0.500000  1.0  1.963
  Al  Al3  1  0.500000  0.000000  0.000000  1.0  1.963
  Al  Al4  1  0.000000  0.500000  0.500000  1.0  1.963
  Al  Al5  1  0.500000  0.500000  0.000000  1.0  1.963
  Al  Al6  1  0.500000  0.000000  0.500000  1.0  1.963
  Al  Al7  1  0.250000  0.500000  0.000000  1.0  1.9689
  Al  Al8  1  0.750000  0.500000  0.000000  1.0  1.9689
  Al  Al9  1  0.000000  0.250000  0.500000  1.0  1.9689
  Al  Al10  1  0.000000  0.750000  0.500000  1.0  1.9689
  Al  Al11  1  0.500000  0.000000  0.250000  1.0  1.9689
  Al  Al12  1  0.500000  0.000000  0.750000  1.0  1.9689
  Al  Al13  1  0.000000  0.500000  0.250000  1.0  1.8632
  Al  Al14  1  0.000000  0.500000  0.750000  1.0  1.8632
  Al  Al15  1  0.250000  0.000000  0.500000  1.0  1.8632
  Al  Al16  1  0.750000  0.000000  0.500000  1.0  1.8632
  Al  Al17  1  0.500000  0.250000  0.000000  1.0  1.8632
  Al  Al18  1  0.500000  0.750000  0.000000  1.0  1.8632
  P  P19  1  0.122890  0.435540  0.122170  1.0  1.7309
  P  P20  1  0.877110  0.564460  0.122170  1.0  1.7309
  P  P21  1  0.877110  0.435540  0.877830  1.0  1.7321
  P  P22  1  0.122890  0.564460  0.877830  1.0  1.7331
  P  P23  1  0.122170  0.122890  0.435540  1.0  1.7312
  P  P24  1  0.122170  0.877110  0.564460  1.0  1.7318
  P  P25  1  0.877830  0.877110  0.435540  1.0  1.7308
  P  P26  1  0.877830  0.122890  0.564460  1.0  1.7308
  P  P27  1  0.435540  0.122170  0.122890  1.0  1.7305
  P  P28  1  0.564460  0.122170  0.877110  1.0  1.7319
  P  P29  1  0.435540  0.877830  0.877110  1.0  1.7311
  P  P30  1  0.564460  0.877830  0.122890  1.0  1.7321
  P  P31  1  0.935540  0.622890  0.622170  1.0  1.7297
  P  P32  1  0.064460  0.377110  0.622170  1.0  1.7309
  P  P33  1  0.935540  0.377110  0.377830  1.0  1.7313
  P  P34  1  0.064460  0.622890  0.377830  1.0  1.7322
  P  P35  1  0.622890  0.622170  0.935540  1.0  1.7312
  P  P36  1  0.377110  0.622170  0.064460  1.0  1.7308
  P  P37  1  0.377110  0.377830  0.935540  1.0  1.731
  P  P38  1  0.622890  0.377830  0.064460  1.0  1.7316
  P  P39  1  0.622170  0.935540  0.622890  1.0  1.7319
  P  P40  1  0.622170  0.064460  0.377110  1.0  1.7329
  P  P41  1  0.377830  0.935540  0.377110  1.0  1.7317
  P  P42  1  0.377830  0.064460  0.622890  1.0  1.7318
  O  O43  1  0.145970  0.351320  0.142970  1.0  -0.5552
  O  O44  1  0.194710  0.483950  0.090070  1.0  -0.8808
  O  O45  1  0.093420  0.483180  0.194470  1.0  -0.8066
  O  O46  1  0.057570  0.435420  0.057920  1.0  -0.9403
  O  O47  1  0.854030  0.648680  0.142970  1.0  -0.5563
  O  O48  1  0.805290  0.516050  0.090070  1.0  -0.8808
  O  O49  1  0.906580  0.516820  0.194470  1.0  -0.8064
  O  O50  1  0.942430  0.564580  0.057920  1.0  -0.9405
  O  O51  1  0.854030  0.351320  0.857030  1.0  -0.5551
  O  O52  1  0.805290  0.483950  0.909930  1.0  -0.8801
  O  O53  1  0.906580  0.483180  0.805530  1.0  -0.806
  O  O54  1  0.942430  0.435420  0.942080  1.0  -0.9411
  O  O55  1  0.145970  0.648680  0.857030  1.0  -0.556
  O  O56  1  0.194710  0.516050  0.909930  1.0  -0.8792
  O  O57  1  0.093420  0.516820  0.805530  1.0  -0.8073
  O  O58  1  0.057570  0.564580  0.942080  1.0  -0.9418
  O  O59  1  0.142970  0.145970  0.351320  1.0  -0.5543
  O  O60  1  0.090070  0.194710  0.483950  1.0  -0.8847
  O  O61  1  0.194470  0.093420  0.483180  1.0  -0.8067
  O  O62  1  0.057920  0.057570  0.435420  1.0  -0.9335
  O  O63  1  0.142970  0.854030  0.648680  1.0  -0.5535
  O  O64  1  0.090070  0.805290  0.516050  1.0  -0.8824
  O  O65  1  0.194470  0.906580  0.516820  1.0  -0.8068
  O  O66  1  0.057920  0.942430  0.564580  1.0  -0.9366
  O  O67  1  0.857030  0.854030  0.351320  1.0  -0.5552
  O  O68  1  0.909930  0.805290  0.483950  1.0  -0.8818
  O  O69  1  0.805530  0.906580  0.483180  1.0  -0.8068
  O  O70  1  0.942080  0.942430  0.435420  1.0  -0.9334
  O  O71  1  0.857030  0.145970  0.648680  1.0  -0.554
  O  O72  1  0.909930  0.194710  0.516050  1.0  -0.8842
  O  O73  1  0.805530  0.093420  0.516820  1.0  -0.8074
  O  O74  1  0.942080  0.057570  0.564580  1.0  -0.9361
  O  O75  1  0.351320  0.142970  0.145970  1.0  -0.5459
  O  O76  1  0.483950  0.090070  0.194710  1.0  -0.8818
  O  O77  1  0.483180  0.194470  0.093420  1.0  -0.8057
  O  O78  1  0.435420  0.057920  0.057570  1.0  -0.9419
  O  O79  1  0.648680  0.142970  0.854030  1.0  -0.5508
  O  O80  1  0.516050  0.090070  0.805290  1.0  -0.8827
  O  O81  1  0.516820  0.194470  0.906580  1.0  -0.8073
  O  O82  1  0.564580  0.057920  0.942430  1.0  -0.9414
  O  O83  1  0.351320  0.857030  0.854030  1.0  -0.5462
  O  O84  1  0.483950  0.909930  0.805290  1.0  -0.8806
  O  O85  1  0.483180  0.805530  0.906580  1.0  -0.8054
  O  O86  1  0.435420  0.942080  0.942430  1.0  -0.9422
  O  O87  1  0.648680  0.857030  0.145970  1.0  -0.5525
  O  O88  1  0.516050  0.909930  0.194710  1.0  -0.8815
  O  O89  1  0.516820  0.805530  0.093420  1.0  -0.8059
  O  O90  1  0.564580  0.942080  0.057570  1.0  -0.9411
  O  O91  1  0.851320  0.645970  0.642970  1.0  -0.5459
  O  O92  1  0.983950  0.694710  0.590070  1.0  -0.8804
  O  O93  1  0.983180  0.593420  0.694470  1.0  -0.8062
  O  O94  1  0.935420  0.557570  0.557920  1.0  -0.941
  O  O95  1  0.148680  0.354030  0.642970  1.0  -0.5526
  O  O96  1  0.016050  0.305290  0.590070  1.0  -0.8798
  O  O97  1  0.016820  0.406580  0.694470  1.0  -0.8073
  O  O98  1  0.064580  0.442430  0.557920  1.0  -0.9405
  O  O99  1  0.851320  0.354030  0.357030  1.0  -0.5465
  O  O100  1  0.983950  0.305290  0.409930  1.0  -0.8782
  O  O101  1  0.983180  0.406580  0.305530  1.0  -0.8062
  O  O102  1  0.935420  0.442430  0.442080  1.0  -0.9419
  O  O103  1  0.148680  0.645970  0.357030  1.0  -0.5509
  O  O104  1  0.016050  0.694710  0.409930  1.0  -0.8808
  O  O105  1  0.016820  0.593420  0.305530  1.0  -0.8074
  O  O106  1  0.064580  0.557570  0.442080  1.0  -0.941
  O  O107  1  0.645970  0.642970  0.851320  1.0  -0.5543
  O  O108  1  0.694710  0.590070  0.983950  1.0  -0.8821
  O  O109  1  0.593420  0.694470  0.983180  1.0  -0.8088
  O  O110  1  0.557570  0.557920  0.935420  1.0  -0.9337
  O  O111  1  0.354030  0.642970  0.148680  1.0  -0.5537
  O  O112  1  0.305290  0.590070  0.016050  1.0  -0.8828
  O  O113  1  0.406580  0.694470  0.016820  1.0  -0.8083
  O  O114  1  0.442430  0.557920  0.064580  1.0  -0.9361
  O  O115  1  0.354030  0.357030  0.851320  1.0  -0.5548
  O  O116  1  0.305290  0.409930  0.983950  1.0  -0.8808
  O  O117  1  0.406580  0.305530  0.983180  1.0  -0.8075
  O  O118  1  0.442430  0.442080  0.935420  1.0  -0.9334
  O  O119  1  0.645970  0.357030  0.148680  1.0  -0.5534
  O  O120  1  0.694710  0.409930  0.016050  1.0  -0.8814
  O  O121  1  0.593420  0.305530  0.016820  1.0  -0.8081
  O  O122  1  0.557570  0.442080  0.064580  1.0  -0.9368
  O  O123  1  0.642970  0.851320  0.645970  1.0  -0.5552
  O  O124  1  0.590070  0.983950  0.694710  1.0  -0.8826
  O  O125  1  0.694470  0.983180  0.593420  1.0  -0.8047
  O  O126  1  0.557920  0.935420  0.557570  1.0  -0.9409
  O  O127  1  0.642970  0.148680  0.354030  1.0  -0.5559
  O  O128  1  0.590070  0.016050  0.305290  1.0  -0.8821
  O  O129  1  0.694470  0.016820  0.406580  1.0  -0.8052
  O  O130  1  0.557920  0.064580  0.442430  1.0  -0.9421
  O  O131  1  0.357030  0.851320  0.354030  1.0  -0.5552
  O  O132  1  0.409930  0.983950  0.305290  1.0  -0.8822
  O  O133  1  0.305530  0.983180  0.406580  1.0  -0.8057
  O  O134  1  0.442080  0.935420  0.442430  1.0  -0.9415
  O  O135  1  0.357030  0.148680  0.645970  1.0  -0.5562
  O  O136  1  0.409930  0.016050  0.694710  1.0  -0.8818
  O  O137  1  0.305530  0.016820  0.593420  1.0  -0.8055
  O  O138  1  0.442080  0.064580  0.557570  1.0  -0.942
