# generated using pymatgen
data_Al3(PO4)4
_symmetry_space_group_name_H-M   'P 1'
_cell_length_a   16.79420000
_cell_length_b   16.79420000
_cell_length_c   16.79420000
_cell_angle_alpha   90.00000000
_cell_angle_beta   90.00000000
_cell_angle_gamma   90.00000000
_symmetry_Int_Tables_number   1
_chemical_formula_structural   Al3(PO4)4
_chemical_formula_sum   'Al18 P24 O96'
_cell_volume   4736.72271926
_cell_formula_units_Z   6
loop_
 _symmetry_equiv_pos_site_id
 _symmetry_equiv_pos_as_xyz
  1  'x, y, z'
loop_
 _atom_site_type_symbol
 _atom_site_label
 _atom_site_symmetry_multiplicity
 _atom_site_fract_x
 _atom_site_fract_y
 _atom_site_fract_z
 _atom_site_occupancy
 _atom_site_charge
  Al  Al1  1  0.000000  0.500000  0.500000  1.0  1.9672
  Al  Al2  1  0.500000  0.000000  0.000000  1.0  1.9672
  Al  Al3  1  0.500000  0.000000  0.500000  1.0  1.9672
  Al  Al4  1  0.000000  0.500000  0.000000  1.0  1.9672
  Al  Al5  1  0.500000  0.500000  0.000000  1.0  1.9672
  Al  Al6  1  0.000000  0.000000  0.500000  1.0  1.9672
  Al  Al7  1  0.000000  0.500000  0.250000  1.0  1.9219
  Al  Al8  1  0.000000  0.500000  0.750000  1.0  1.9219
  Al  Al9  1  0.500000  0.000000  0.250000  1.0  1.9219
  Al  Al10  1  0.250000  0.000000  0.500000  1.0  1.9219
  Al  Al11  1  0.750000  0.000000  0.500000  1.0  1.9219
  Al  Al12  1  0.250000  0.500000  0.000000  1.0  1.9219
  Al  Al13  1  0.500000  0.250000  0.000000  1.0  1.9219
  Al  Al14  1  0.500000  0.750000  0.000000  1.0  1.9219
  Al  Al15  1  0.000000  0.250000  0.500000  1.0  1.9219
  Al  Al16  1  0.500000  0.000000  0.750000  1.0  1.9219
  Al  Al17  1  0.000000  0.750000  0.500000  1.0  1.9219
  Al  Al18  1  0.750000  0.500000  0.000000  1.0  1.9219
  P  P19  1  0.064450  0.622540  0.377460  1.0  1.7123
  P  P20  1  0.564450  0.122540  0.877460  1.0  1.7123
  P  P21  1  0.935550  0.377460  0.377460  1.0  1.7124
  P  P22  1  0.435550  0.877460  0.877460  1.0  1.7124
  P  P23  1  0.935550  0.622540  0.622540  1.0  1.7116
  P  P24  1  0.435550  0.122540  0.122540  1.0  1.7116
  P  P25  1  0.064450  0.377460  0.622540  1.0  1.7136
  P  P26  1  0.564450  0.877460  0.122540  1.0  1.7136
  P  P27  1  0.377460  0.064450  0.622540  1.0  1.7132
  P  P28  1  0.877460  0.564450  0.122540  1.0  1.7132
  P  P29  1  0.377460  0.935550  0.377460  1.0  1.713
  P  P30  1  0.877460  0.435550  0.877460  1.0  1.713
  P  P31  1  0.622540  0.935550  0.622540  1.0  1.7138
  P  P32  1  0.122540  0.435550  0.122540  1.0  1.7138
  P  P33  1  0.622540  0.064450  0.377460  1.0  1.7138
  P  P34  1  0.122540  0.564450  0.877460  1.0  1.7138
  P  P35  1  0.622540  0.377460  0.064450  1.0  1.7132
  P  P36  1  0.122540  0.877460  0.564450  1.0  1.7132
  P  P37  1  0.377460  0.377460  0.935550  1.0  1.7117
  P  P38  1  0.877460  0.877460  0.435550  1.0  1.7117
  P  P39  1  0.622540  0.622540  0.935550  1.0  1.7112
  P  P40  1  0.122540  0.122540  0.435550  1.0  1.7112
  P  P41  1  0.377460  0.622540  0.064450  1.0  1.7116
  P  P42  1  0.877460  0.122540  0.564450  1.0  1.7116
  O  O43  1  0.016490  0.591880  0.305360  1.0  -0.8371
  O  O44  1  0.516490  0.091880  0.805360  1.0  -0.8371
  O  O45  1  0.983510  0.408120  0.305360  1.0  -0.8346
  O  O46  1  0.483510  0.908120  0.805360  1.0  -0.8346
  O  O47  1  0.983510  0.591880  0.694640  1.0  -0.8386
  O  O48  1  0.483510  0.091880  0.194640  1.0  -0.8386
  O  O49  1  0.016490  0.408120  0.694640  1.0  -0.8376
  O  O50  1  0.516490  0.908120  0.194640  1.0  -0.8376
  O  O51  1  0.305360  0.016490  0.591880  1.0  -0.8344
  O  O52  1  0.805360  0.516490  0.091880  1.0  -0.8344
  O  O53  1  0.305360  0.983510  0.408120  1.0  -0.8341
  O  O54  1  0.805360  0.483510  0.908120  1.0  -0.8341
  O  O55  1  0.694640  0.983510  0.591880  1.0  -0.8344
  O  O56  1  0.194640  0.483510  0.091880  1.0  -0.8344
  O  O57  1  0.694640  0.016490  0.408120  1.0  -0.8327
  O  O58  1  0.194640  0.516490  0.908120  1.0  -0.8327
  O  O59  1  0.591880  0.305360  0.016490  1.0  -0.8351
  O  O60  1  0.091880  0.805360  0.516490  1.0  -0.8351
  O  O61  1  0.408120  0.305360  0.983510  1.0  -0.8366
  O  O62  1  0.908120  0.805360  0.483510  1.0  -0.8366
  O  O63  1  0.591880  0.694640  0.983510  1.0  -0.8376
  O  O64  1  0.091880  0.194640  0.483510  1.0  -0.8376
  O  O65  1  0.408120  0.694640  0.016490  1.0  -0.838
  O  O66  1  0.908120  0.194640  0.516490  1.0  -0.838
  O  O67  1  0.591880  0.016490  0.305360  1.0  -0.8348
  O  O68  1  0.091880  0.516490  0.805360  1.0  -0.8348
  O  O69  1  0.408120  0.983510  0.305360  1.0  -0.8358
  O  O70  1  0.908120  0.483510  0.805360  1.0  -0.8358
  O  O71  1  0.591880  0.983510  0.694640  1.0  -0.8369
  O  O72  1  0.091880  0.483510  0.194640  1.0  -0.8369
  O  O73  1  0.408120  0.016490  0.694640  1.0  -0.8378
  O  O74  1  0.908120  0.516490  0.194640  1.0  -0.8378
  O  O75  1  0.016490  0.305360  0.591880  1.0  -0.8343
  O  O76  1  0.516490  0.805360  0.091880  1.0  -0.8343
  O  O77  1  0.983510  0.305360  0.408120  1.0  -0.8331
  O  O78  1  0.483510  0.805360  0.908120  1.0  -0.8331
  O  O79  1  0.983510  0.694640  0.591880  1.0  -0.8355
  O  O80  1  0.483510  0.194640  0.091880  1.0  -0.8355
  O  O81  1  0.016490  0.694640  0.408120  1.0  -0.835
  O  O82  1  0.516490  0.194640  0.908120  1.0  -0.835
  O  O83  1  0.305360  0.591880  0.016490  1.0  -0.8379
  O  O84  1  0.805360  0.091880  0.516490  1.0  -0.8379
  O  O85  1  0.305360  0.408120  0.983510  1.0  -0.836
  O  O86  1  0.805360  0.908120  0.483510  1.0  -0.836
  O  O87  1  0.694640  0.591880  0.983510  1.0  -0.8374
  O  O88  1  0.194640  0.091880  0.483510  1.0  -0.8374
  O  O89  1  0.694640  0.408120  0.016490  1.0  -0.8355
  O  O90  1  0.194640  0.908120  0.516490  1.0  -0.8355
  O  O91  1  0.148660  0.644540  0.355460  1.0  -0.5653
  O  O92  1  0.064710  0.557840  0.442160  1.0  -0.9286
  O  O93  1  0.648660  0.144540  0.855460  1.0  -0.5653
  O  O94  1  0.564710  0.057840  0.942160  1.0  -0.9286
  O  O95  1  0.851340  0.355460  0.355460  1.0  -0.5597
  O  O96  1  0.935290  0.442160  0.442160  1.0  -0.9288
  O  O97  1  0.351340  0.855460  0.855460  1.0  -0.5597
  O  O98  1  0.435290  0.942160  0.942160  1.0  -0.9288
  O  O99  1  0.851340  0.644540  0.644540  1.0  -0.5596
  O  O100  1  0.935290  0.557840  0.557840  1.0  -0.9286
  O  O101  1  0.351340  0.144540  0.144540  1.0  -0.5596
  O  O102  1  0.435290  0.057840  0.057840  1.0  -0.9286
  O  O103  1  0.148660  0.355460  0.644540  1.0  -0.5671
  O  O104  1  0.064710  0.442160  0.557840  1.0  -0.9271
  O  O105  1  0.648660  0.855460  0.144540  1.0  -0.5671
  O  O106  1  0.564710  0.942160  0.057840  1.0  -0.9271
  O  O107  1  0.355460  0.148660  0.644540  1.0  -0.5702
  O  O108  1  0.442160  0.064710  0.557840  1.0  -0.9289
  O  O109  1  0.855460  0.648660  0.144540  1.0  -0.5702
  O  O110  1  0.942160  0.564710  0.057840  1.0  -0.9289
  O  O111  1  0.355460  0.851340  0.355460  1.0  -0.5684
  O  O112  1  0.442160  0.935290  0.442160  1.0  -0.9279
  O  O113  1  0.855460  0.351340  0.855460  1.0  -0.5684
  O  O114  1  0.942160  0.435290  0.942160  1.0  -0.9279
  O  O115  1  0.644540  0.851340  0.644540  1.0  -0.5683
  O  O116  1  0.557840  0.935290  0.557840  1.0  -0.9276
  O  O117  1  0.144540  0.351340  0.144540  1.0  -0.5683
  O  O118  1  0.057840  0.435290  0.057840  1.0  -0.9276
  O  O119  1  0.644540  0.148660  0.355460  1.0  -0.5692
  O  O120  1  0.557840  0.064710  0.442160  1.0  -0.9292
  O  O121  1  0.144540  0.648660  0.855460  1.0  -0.5692
  O  O122  1  0.057840  0.564710  0.942160  1.0  -0.9292
  O  O123  1  0.644540  0.355460  0.148660  1.0  -0.5699
  O  O124  1  0.557840  0.442160  0.064710  1.0  -0.9227
  O  O125  1  0.144540  0.855460  0.648660  1.0  -0.5699
  O  O126  1  0.057840  0.942160  0.564710  1.0  -0.9227
  O  O127  1  0.355460  0.355460  0.851340  1.0  -0.5735
  O  O128  1  0.442160  0.442160  0.935290  1.0  -0.9181
  O  O129  1  0.855460  0.855460  0.351340  1.0  -0.5735
  O  O130  1  0.942160  0.942160  0.435290  1.0  -0.9181
  O  O131  1  0.644540  0.644540  0.851340  1.0  -0.5722
  O  O132  1  0.557840  0.557840  0.935290  1.0  -0.9189
  O  O133  1  0.144540  0.144540  0.351340  1.0  -0.5722
  O  O134  1  0.057840  0.057840  0.435290  1.0  -0.9189
  O  O135  1  0.355460  0.644540  0.148660  1.0  -0.5712
  O  O136  1  0.442160  0.557840  0.064710  1.0  -0.9223
  O  O137  1  0.855460  0.144540  0.648660  1.0  -0.5712
  O  O138  1  0.942160  0.057840  0.564710  1.0  -0.9223
