# generated using pymatgen
data_ZnH10(C11O4)2
_symmetry_space_group_name_H-M   'P 1'
_cell_length_a   23.43200000
_cell_length_b   9.54220000
_cell_length_c   18.99580000
_cell_angle_alpha   90.00000000
_cell_angle_beta   125.96400000
_cell_angle_gamma   90.00000000
_symmetry_Int_Tables_number   1
_chemical_formula_structural   ZnH10(C11O4)2
_chemical_formula_sum   'Zn4 H40 C88 O32'
_cell_volume   3437.72578113
_cell_formula_units_Z   4
loop_
 _symmetry_equiv_pos_site_id
 _symmetry_equiv_pos_as_xyz
  1  'x, y, z'
loop_
 _atom_site_type_symbol
 _atom_site_label
 _atom_site_symmetry_multiplicity
 _atom_site_fract_x
 _atom_site_fract_y
 _atom_site_fract_z
 _atom_site_occupancy
 _atom_site_charge
  Zn  Zn1  1  0.000000  0.006200  0.750000  1.0  1.0719
  Zn  Zn2  1  0.500000  0.506200  0.750000  1.0  1.0719
  Zn  Zn3  1  0.000000  0.993800  0.250000  1.0  1.0716
  Zn  Zn4  1  0.500000  0.493800  0.250000  1.0  1.0716
  H  H5  1  0.226100  0.133900  0.879800  1.0  0.1312
  H  H6  1  0.165800  0.420800  0.091300  1.0  0.131
  H  H7  1  0.104000  0.399700  0.150100  1.0  0.1309
  H  H8  1  0.078900  0.990600  0.096400  1.0  0.129
  H  H9  1  0.139700  0.010600  0.036200  1.0  0.1309
  H  H10  1  0.726100  0.633900  0.879800  1.0  0.1312
  H  H11  1  0.665800  0.920800  0.091300  1.0  0.131
  H  H12  1  0.604000  0.899700  0.150100  1.0  0.1309
  H  H13  1  0.578900  0.490600  0.096400  1.0  0.129
  H  H14  1  0.639700  0.510600  0.036200  1.0  0.1309
  H  H15  1  0.773900  0.133900  0.620200  1.0  0.1317
  H  H16  1  0.834200  0.420800  0.408700  1.0  0.1308
  H  H17  1  0.896000  0.399700  0.349900  1.0  0.1305
  H  H18  1  0.921100  0.990600  0.403600  1.0  0.1292
  H  H19  1  0.860300  0.010600  0.463800  1.0  0.1311
  H  H20  1  0.273900  0.633900  0.620200  1.0  0.1317
  H  H21  1  0.334200  0.920800  0.408700  1.0  0.1308
  H  H22  1  0.396000  0.899700  0.349900  1.0  0.1305
  H  H23  1  0.421100  0.490600  0.403600  1.0  0.1292
  H  H24  1  0.360300  0.510600  0.463800  1.0  0.1311
  H  H25  1  0.773900  0.866100  0.120200  1.0  0.1318
  H  H26  1  0.834200  0.579200  0.908700  1.0  0.1309
  H  H27  1  0.896000  0.600300  0.849900  1.0  0.13
  H  H28  1  0.921100  0.009400  0.903600  1.0  0.1294
  H  H29  1  0.860300  0.989400  0.963800  1.0  0.1308
  H  H30  1  0.273900  0.366100  0.120200  1.0  0.1318
  H  H31  1  0.334200  0.079200  0.908700  1.0  0.1309
  H  H32  1  0.396000  0.100300  0.849900  1.0  0.13
  H  H33  1  0.421100  0.509400  0.903600  1.0  0.1294
  H  H34  1  0.360300  0.489400  0.963800  1.0  0.1308
  H  H35  1  0.226100  0.866100  0.379800  1.0  0.1311
  H  H36  1  0.165800  0.579200  0.591300  1.0  0.1312
  H  H37  1  0.104000  0.600300  0.650100  1.0  0.1305
  H  H38  1  0.078900  0.009400  0.596400  1.0  0.1292
  H  H39  1  0.139700  0.989400  0.536200  1.0  0.1306
  H  H40  1  0.726100  0.366100  0.379800  1.0  0.1311
  H  H41  1  0.665800  0.079200  0.591300  1.0  0.1312
  H  H42  1  0.604000  0.100300  0.650100  1.0  0.1305
  H  H43  1  0.578900  0.509400  0.596400  1.0  0.1292
  H  H44  1  0.639700  0.489400  0.536200  1.0  0.1306
  C  C45  1  0.126650  0.074700  0.892120  1.0  0.6839
  C  C46  1  0.191290  0.162000  0.952960  1.0  -0.057
  C  C47  1  0.235970  0.181200  0.928620  1.0  -0.0914
  C  C48  1  0.204850  0.232000  0.026280  1.0  0.0155
  C  C49  1  0.160720  0.217600  0.058390  1.0  0.0767
  C  C50  1  0.148710  0.333500  0.092540  1.0  -0.1366
  C  C51  1  0.111840  0.320700  0.128170  1.0  -0.0353
  C  C52  1  0.086440  0.192100  0.131770  1.0  -0.1091
  C  C53  1  0.049660  0.178700  0.175510  1.0  0.716
  C  C54  1  0.096810  0.077400  0.096050  1.0  -0.0324
  C  C55  1  0.133360  0.089200  0.059800  1.0  -0.0992
  C  C56  1  0.626650  0.574700  0.892120  1.0  0.6839
  C  C57  1  0.691290  0.662000  0.952960  1.0  -0.057
  C  C58  1  0.735970  0.681200  0.928620  1.0  -0.0914
  C  C59  1  0.704850  0.732000  0.026280  1.0  0.0155
  C  C60  1  0.660720  0.717600  0.058390  1.0  0.0767
  C  C61  1  0.648710  0.833500  0.092540  1.0  -0.1366
  C  C62  1  0.611840  0.820700  0.128170  1.0  -0.0353
  C  C63  1  0.586440  0.692100  0.131770  1.0  -0.1091
  C  C64  1  0.549660  0.678700  0.175510  1.0  0.716
  C  C65  1  0.596810  0.577400  0.096050  1.0  -0.0324
  C  C66  1  0.633360  0.589200  0.059800  1.0  -0.0992
  C  C67  1  0.873350  0.074700  0.607880  1.0  0.6846
  C  C68  1  0.808710  0.162000  0.547040  1.0  -0.0563
  C  C69  1  0.764030  0.181200  0.571380  1.0  -0.0908
  C  C70  1  0.795150  0.232000  0.473720  1.0  0.0158
  C  C71  1  0.839280  0.217600  0.441610  1.0  0.0754
  C  C72  1  0.851290  0.333500  0.407460  1.0  -0.1368
  C  C73  1  0.888160  0.320700  0.371830  1.0  -0.0363
  C  C74  1  0.913560  0.192100  0.368230  1.0  -0.1086
  C  C75  1  0.950340  0.178700  0.324490  1.0  0.7162
  C  C76  1  0.903190  0.077400  0.403950  1.0  -0.0326
  C  C77  1  0.866640  0.089200  0.440200  1.0  -0.1007
  C  C78  1  0.373350  0.574700  0.607880  1.0  0.6846
  C  C79  1  0.308710  0.662000  0.547040  1.0  -0.0563
  C  C80  1  0.264030  0.681200  0.571380  1.0  -0.0908
  C  C81  1  0.295150  0.732000  0.473720  1.0  0.0158
  C  C82  1  0.339280  0.717600  0.441610  1.0  0.0754
  C  C83  1  0.351290  0.833500  0.407460  1.0  -0.1368
  C  C84  1  0.388160  0.820700  0.371830  1.0  -0.0363
  C  C85  1  0.413560  0.692100  0.368230  1.0  -0.1086
  C  C86  1  0.450340  0.678700  0.324490  1.0  0.7162
  C  C87  1  0.403190  0.577400  0.403950  1.0  -0.0326
  C  C88  1  0.366640  0.589200  0.440200  1.0  -0.1007
  C  C89  1  0.873350  0.925300  0.107880  1.0  0.6838
  C  C90  1  0.808710  0.838000  0.047040  1.0  -0.0569
  C  C91  1  0.764030  0.818800  0.071380  1.0  -0.0911
  C  C92  1  0.795150  0.768000  0.973720  1.0  0.0159
  C  C93  1  0.839280  0.782400  0.941610  1.0  0.0756
  C  C94  1  0.851290  0.666500  0.907460  1.0  -0.1369
  C  C95  1  0.888160  0.679300  0.871830  1.0  -0.0365
  C  C96  1  0.913560  0.807900  0.868230  1.0  -0.1086
  C  C97  1  0.950340  0.821300  0.824490  1.0  0.7156
  C  C98  1  0.903190  0.922600  0.903950  1.0  -0.0336
  C  C99  1  0.866640  0.910800  0.940200  1.0  -0.1017
  C  C100  1  0.373350  0.425300  0.107880  1.0  0.6838
  C  C101  1  0.308710  0.338000  0.047040  1.0  -0.0569
  C  C102  1  0.264030  0.318800  0.071380  1.0  -0.0911
  C  C103  1  0.295150  0.268000  0.973720  1.0  0.0159
  C  C104  1  0.339280  0.282400  0.941610  1.0  0.0756
  C  C105  1  0.351290  0.166500  0.907460  1.0  -0.1369
  C  C106  1  0.388160  0.179300  0.871830  1.0  -0.0365
  C  C107  1  0.413560  0.307900  0.868230  1.0  -0.1086
  C  C108  1  0.450340  0.321300  0.824490  1.0  0.7156
  C  C109  1  0.403190  0.422600  0.903950  1.0  -0.0336
  C  C110  1  0.366640  0.410800  0.940200  1.0  -0.1017
  C  C111  1  0.126650  0.925300  0.392120  1.0  0.6839
  C  C112  1  0.191290  0.838000  0.452960  1.0  -0.057
  C  C113  1  0.235970  0.818800  0.428620  1.0  -0.0915
  C  C114  1  0.204850  0.768000  0.526280  1.0  0.0158
  C  C115  1  0.160720  0.782400  0.558390  1.0  0.077
  C  C116  1  0.148710  0.666500  0.592540  1.0  -0.1365
  C  C117  1  0.111840  0.679300  0.628170  1.0  -0.0363
  C  C118  1  0.086440  0.807900  0.631770  1.0  -0.1092
  C  C119  1  0.049660  0.821300  0.675510  1.0  0.7164
  C  C120  1  0.096810  0.922600  0.596050  1.0  -0.0335
  C  C121  1  0.133360  0.910800  0.559800  1.0  -0.1006
  C  C122  1  0.626650  0.425300  0.392120  1.0  0.6839
  C  C123  1  0.691290  0.338000  0.452960  1.0  -0.057
  C  C124  1  0.735970  0.318800  0.428620  1.0  -0.0915
  C  C125  1  0.704850  0.268000  0.526280  1.0  0.0158
  C  C126  1  0.660720  0.282400  0.558390  1.0  0.077
  C  C127  1  0.648710  0.166500  0.592540  1.0  -0.1365
  C  C128  1  0.611840  0.179300  0.628170  1.0  -0.0363
  C  C129  1  0.586440  0.307900  0.631770  1.0  -0.1092
  C  C130  1  0.549660  0.321300  0.675510  1.0  0.7164
  C  C131  1  0.596810  0.422600  0.596050  1.0  -0.0335
  C  C132  1  0.633360  0.410800  0.559800  1.0  -0.1006
  O  O133  1  0.071980  0.144100  0.836480  1.0  -0.5541
  O  O134  1  0.130600  0.946300  0.895670  1.0  -0.4956
  O  O135  1  0.039490  0.054600  0.188870  1.0  -0.5752
  O  O136  1  0.033980  0.285600  0.196740  1.0  -0.4925
  O  O137  1  0.571980  0.644100  0.836480  1.0  -0.5541
  O  O138  1  0.630600  0.446300  0.895670  1.0  -0.4956
  O  O139  1  0.539490  0.554600  0.188870  1.0  -0.5752
  O  O140  1  0.533980  0.785600  0.196740  1.0  -0.4925
  O  O141  1  0.928020  0.144100  0.663520  1.0  -0.5538
  O  O142  1  0.869400  0.946300  0.604330  1.0  -0.4954
  O  O143  1  0.960510  0.054600  0.311130  1.0  -0.5733
  O  O144  1  0.966020  0.285600  0.303260  1.0  -0.4926
  O  O145  1  0.428020  0.644100  0.663520  1.0  -0.5538
  O  O146  1  0.369400  0.446300  0.604330  1.0  -0.4954
  O  O147  1  0.460510  0.554600  0.311130  1.0  -0.5733
  O  O148  1  0.466020  0.785600  0.303260  1.0  -0.4926
  O  O149  1  0.928020  0.855900  0.163520  1.0  -0.5549
  O  O150  1  0.869400  0.053700  0.104330  1.0  -0.4964
  O  O151  1  0.960510  0.945400  0.811130  1.0  -0.5745
  O  O152  1  0.966020  0.714400  0.803260  1.0  -0.4921
  O  O153  1  0.428020  0.355900  0.163520  1.0  -0.5549
  O  O154  1  0.369400  0.553700  0.104330  1.0  -0.4964
  O  O155  1  0.460510  0.445400  0.811130  1.0  -0.5745
  O  O156  1  0.466020  0.214400  0.803260  1.0  -0.4921
  O  O157  1  0.071980  0.855900  0.336480  1.0  -0.5553
  O  O158  1  0.130600  0.053700  0.395670  1.0  -0.4971
  O  O159  1  0.039490  0.945400  0.688870  1.0  -0.5762
  O  O160  1  0.033980  0.714400  0.696740  1.0  -0.4914
  O  O161  1  0.571980  0.355900  0.336480  1.0  -0.5553
  O  O162  1  0.630600  0.553700  0.395670  1.0  -0.4971
  O  O163  1  0.539490  0.445400  0.688870  1.0  -0.5762
  O  O164  1  0.533980  0.214400  0.696740  1.0  -0.4914
