# generated using pymatgen
data_Ni3H12(C11O5)2
_symmetry_space_group_name_H-M   'P 1'
_cell_length_a   11.00310000
_cell_length_b   11.22170000
_cell_length_c   11.69590000
_cell_angle_alpha   69.19300000
_cell_angle_beta   79.67600000
_cell_angle_gamma   81.00800000
_symmetry_Int_Tables_number   1
_chemical_formula_structural   Ni3H12(C11O5)2
_chemical_formula_sum   'Ni6 H24 C44 O20'
_cell_volume   1321.33993596
_cell_formula_units_Z   2
loop_
 _symmetry_equiv_pos_site_id
 _symmetry_equiv_pos_as_xyz
  1  'x, y, z'
loop_
 _atom_site_type_symbol
 _atom_site_label
 _atom_site_symmetry_multiplicity
 _atom_site_fract_x
 _atom_site_fract_y
 _atom_site_fract_z
 _atom_site_occupancy
 _atom_site_charge
  Ni  Ni1  1  0.984670  0.245300  0.238130  1.0  1.0269
  Ni  Ni2  1  0.863470  0.017600  0.500690  1.0  0.9356
  Ni  Ni3  1  0.028430  0.573500  0.074880  1.0  0.8701
  Ni  Ni4  1  0.015330  0.754700  0.761870  1.0  1.0251
  Ni  Ni5  1  0.136530  0.982400  0.499310  1.0  0.931
  Ni  Ni6  1  0.971570  0.426500  0.925120  1.0  0.8779
  H  H7  1  0.019500  0.019100  0.331600  1.0  0.4987
  H  H8  1  0.865300  0.437100  0.119500  1.0  0.3984
  H  H9  1  0.393700  0.224500  0.078700  1.0  0.1085
  H  H10  1  0.573900  0.328000  0.351700  1.0  0.1051
  H  H11  1  0.372200  0.332400  0.516600  1.0  0.1226
  H  H12  1  0.266000  0.464600  0.616200  1.0  0.1233
  H  H13  1  0.207400  0.734400  0.285900  1.0  0.1196
  H  H14  1  0.308200  0.594900  0.189900  1.0  0.1133
  H  H15  1  0.613600  0.177300  0.929700  1.0  0.1104
  H  H16  1  0.723000  0.026900  0.862100  1.0  0.1166
  H  H17  1  0.745600  0.791400  0.208200  1.0  0.1151
  H  H18  1  0.640500  0.951800  0.279100  1.0  0.1176
  H  H19  1  0.980500  0.980900  0.668400  1.0  0.4988
  H  H20  1  0.134700  0.562900  0.880500  1.0  0.397
  H  H21  1  0.606300  0.775500  0.921300  1.0  0.1077
  H  H22  1  0.426100  0.672000  0.648300  1.0  0.1047
  H  H23  1  0.627800  0.667600  0.483400  1.0  0.1227
  H  H24  1  0.734000  0.535400  0.383800  1.0  0.1235
  H  H25  1  0.792600  0.265600  0.714100  1.0  0.1189
  H  H26  1  0.691800  0.405100  0.810100  1.0  0.1129
  H  H27  1  0.386400  0.822700  0.070300  1.0  0.1104
  H  H28  1  0.277000  0.973100  0.137900  1.0  0.1167
  H  H29  1  0.254400  0.208600  0.791800  1.0  0.1152
  H  H30  1  0.359500  0.048200  0.720900  1.0  0.1182
  C  C31  1  0.727300  0.161500  0.284800  1.0  0.6819
  C  C32  1  0.600200  0.218200  0.247400  1.0  -0.0309
  C  C33  1  0.547100  0.187300  0.159600  1.0  0.0162
  C  C34  1  0.429700  0.244300  0.135000  1.0  -0.0551
  C  C35  1  0.362200  0.330300  0.190500  1.0  -0.0558
  C  C36  1  0.226600  0.366000  0.182900  1.0  0.6945
  C  C37  1  0.417300  0.359700  0.278300  1.0  -0.0036
  C  C38  1  0.535600  0.304800  0.299200  1.0  -0.1399
  C  C39  1  0.349400  0.446000  0.341700  1.0  0.0875
  C  C40  1  0.336800  0.412100  0.470800  1.0  -0.1066
  C  C41  1  0.275000  0.491600  0.530500  1.0  -0.0839
  C  C42  1  0.223000  0.617500  0.462700  1.0  -0.0916
  C  C43  1  0.157800  0.703500  0.529600  1.0  0.7194
  C  C44  1  0.238700  0.653200  0.332900  1.0  -0.0731
  C  C45  1  0.299600  0.569300  0.275500  1.0  -0.1272
  C  C46  1  0.608500  0.084300  0.112000  1.0  0.0694
  C  C47  1  0.640500  0.100400  0.987300  1.0  -0.1143
  C  C48  1  0.707300  0.011200  0.946700  1.0  -0.1114
  C  C49  1  0.756000  0.892800  0.027200  1.0  -0.026
  C  C50  1  0.850800  0.802100  0.983900  1.0  0.7255
  C  C51  1  0.722700  0.870900  0.151900  1.0  -0.0558
  C  C52  1  0.655200  0.966100  0.194700  1.0  -0.1236
  C  C53  1  0.272700  0.838500  0.715200  1.0  0.6823
  C  C54  1  0.399800  0.781800  0.752600  1.0  -0.0311
  C  C55  1  0.452900  0.812700  0.840400  1.0  0.0168
  C  C56  1  0.570300  0.755700  0.865000  1.0  -0.0537
  C  C57  1  0.637800  0.669700  0.809500  1.0  -0.0553
  C  C58  1  0.773400  0.634000  0.817100  1.0  0.6951
  C  C59  1  0.582700  0.640300  0.721700  1.0  -0.004
  C  C60  1  0.464400  0.695200  0.700800  1.0  -0.1411
  C  C61  1  0.650600  0.554000  0.658300  1.0  0.0869
  C  C62  1  0.663200  0.587900  0.529200  1.0  -0.108
  C  C63  1  0.725000  0.508400  0.469500  1.0  -0.085
  C  C64  1  0.777000  0.382500  0.537300  1.0  -0.0902
  C  C65  1  0.842200  0.296500  0.470400  1.0  0.7186
  C  C66  1  0.761300  0.346800  0.667100  1.0  -0.0733
  C  C67  1  0.700400  0.430700  0.724500  1.0  -0.1287
  C  C68  1  0.391500  0.915700  0.888000  1.0  0.0697
  C  C69  1  0.359500  0.899600  0.012700  1.0  -0.1125
  C  C70  1  0.292700  0.988800  0.053300  1.0  -0.1117
  C  C71  1  0.244000  0.107200  0.972800  1.0  -0.0269
  C  C72  1  0.149200  0.197900  0.016100  1.0  0.7264
  C  C73  1  0.277300  0.129100  0.848100  1.0  -0.0563
  C  C74  1  0.344800  0.033900  0.805300  1.0  -0.1226
  O  O75  1  0.013100  0.070900  0.371000  1.0  -1.0049
  O  O76  1  0.942400  0.416500  0.103300  1.0  -0.9356
  O  O77  1  0.823900  0.188300  0.203900  1.0  -0.5936
  O  O78  1  0.726800  0.098800  0.397900  1.0  -0.6071
  O  O79  1  0.200900  0.468800  0.093900  1.0  -0.6025
  O  O80  1  0.151900  0.297200  0.258500  1.0  -0.5712
  O  O81  1  0.139600  0.821800  0.455600  1.0  -0.5951
  O  O82  1  0.115800  0.667300  0.640500  1.0  -0.591
  O  O83  1  0.908400  0.844500  0.878900  1.0  -0.5881
  O  O84  1  0.864400  0.689900  0.057100  1.0  -0.5886
  O  O85  1  0.986900  0.929100  0.629000  1.0  -1.0049
  O  O86  1  0.057600  0.583500  0.896700  1.0  -0.9342
  O  O87  1  0.176100  0.811700  0.796100  1.0  -0.5935
  O  O88  1  0.273200  0.901200  0.602100  1.0  -0.6072
  O  O89  1  0.799100  0.531200  0.906100  1.0  -0.6025
  O  O90  1  0.848100  0.702800  0.741500  1.0  -0.5718
  O  O91  1  0.860400  0.178200  0.544400  1.0  -0.5952
  O  O92  1  0.884200  0.332700  0.359500  1.0  -0.5904
  O  O93  1  0.091600  0.155500  0.121100  1.0  -0.5887
  O  O94  1  0.135600  0.310100  0.942900  1.0  -0.5875
