# generated using pymatgen
data_AgBH12C21(NF)4
_symmetry_space_group_name_H-M   'P 1'
_cell_length_a   9.54900000
_cell_length_b   12.14100000
_cell_length_c   26.71700000
_cell_angle_alpha   90.00000000
_cell_angle_beta   90.00000000
_cell_angle_gamma   90.00000000
_symmetry_Int_Tables_number   1
_chemical_formula_structural   AgBH12C21(NF)4
_chemical_formula_sum   'Ag4 B4 H48 C84 N16 F16'
_cell_volume   3097.41960525
_cell_formula_units_Z   4
loop_
 _symmetry_equiv_pos_site_id
 _symmetry_equiv_pos_as_xyz
  1  'x, y, z'
loop_
 _atom_site_type_symbol
 _atom_site_label
 _atom_site_symmetry_multiplicity
 _atom_site_fract_x
 _atom_site_fract_y
 _atom_site_fract_z
 _atom_site_occupancy
 _atom_site_charge
  Ag  Ag1  1  0.784190  0.280300  0.993950  1.0  0.3801
  Ag  Ag2  1  0.215810  0.280300  0.006050  1.0  0.3787
  Ag  Ag3  1  0.784190  0.780300  0.506050  1.0  0.3791
  Ag  Ag4  1  0.215810  0.780300  0.493950  1.0  0.3791
  B  B5  1  0.958000  0.047500  0.869500  1.0  1.0237
  B  B6  1  0.042000  0.047500  0.130500  1.0  1.0211
  B  B7  1  0.958000  0.547500  0.630500  1.0  1.0233
  B  B8  1  0.042000  0.547500  0.369500  1.0  1.0217
  H  H9  1  0.793100  0.456700  0.180000  1.0  0.0925
  H  H10  1  0.799000  0.452400  0.267900  1.0  0.1197
  H  H11  1  0.687900  0.134400  0.264300  1.0  0.1077
  H  H12  1  0.671500  0.142700  0.177900  1.0  0.1043
  H  H13  1  0.973100  0.205200  0.302900  1.0  0.1075
  H  H14  1  0.106500  0.078500  0.344000  1.0  0.1133
  H  H15  1  0.807300  0.058500  0.452200  1.0  0.1275
  H  H16  1  0.689900  0.194300  0.412300  1.0  0.1004
  H  H17  1  0.494700  0.374400  0.308200  1.0  0.1244
  H  H18  1  0.371600  0.511100  0.350200  1.0  0.0985
  H  H19  1  0.682500  0.528800  0.451200  1.0  0.1191
  H  H20  1  0.799100  0.392100  0.408600  1.0  0.1134
  H  H21  1  0.206900  0.456700  0.820000  1.0  0.092
  H  H22  1  0.201000  0.452400  0.732100  1.0  0.1194
  H  H23  1  0.312100  0.134400  0.735700  1.0  0.1073
  H  H24  1  0.328500  0.142700  0.822100  1.0  0.1039
  H  H25  1  0.026900  0.205200  0.697100  1.0  0.1111
  H  H26  1  0.893500  0.078500  0.656000  1.0  0.114
  H  H27  1  0.192700  0.058500  0.547800  1.0  0.1278
  H  H28  1  0.310100  0.194300  0.587700  1.0  0.1002
  H  H29  1  0.505300  0.374400  0.691800  1.0  0.1235
  H  H30  1  0.628400  0.511100  0.649800  1.0  0.0987
  H  H31  1  0.317500  0.528800  0.548800  1.0  0.1194
  H  H32  1  0.200900  0.392100  0.591400  1.0  0.113
  H  H33  1  0.793100  0.956700  0.320000  1.0  0.0925
  H  H34  1  0.799000  0.952400  0.232100  1.0  0.1194
  H  H35  1  0.687900  0.634400  0.235700  1.0  0.1071
  H  H36  1  0.671500  0.642700  0.322100  1.0  0.1043
  H  H37  1  0.973100  0.705200  0.197100  1.0  0.1061
  H  H38  1  0.106500  0.578500  0.156000  1.0  0.113
  H  H39  1  0.807300  0.558500  0.047800  1.0  0.1278
  H  H40  1  0.689900  0.694300  0.087700  1.0  0.099
  H  H41  1  0.494700  0.874400  0.191800  1.0  0.1247
  H  H42  1  0.371600  0.011100  0.149800  1.0  0.0981
  H  H43  1  0.682500  0.028800  0.048800  1.0  0.1193
  H  H44  1  0.799100  0.892100  0.091400  1.0  0.1143
  H  H45  1  0.206900  0.956700  0.680000  1.0  0.0923
  H  H46  1  0.201000  0.952400  0.767900  1.0  0.1197
  H  H47  1  0.312100  0.634400  0.764300  1.0  0.1075
  H  H48  1  0.328500  0.642700  0.677900  1.0  0.1039
  H  H49  1  0.026900  0.705200  0.802900  1.0  0.1074
  H  H50  1  0.893500  0.578500  0.844000  1.0  0.1146
  H  H51  1  0.192700  0.558500  0.952200  1.0  0.1269
  H  H52  1  0.310100  0.694300  0.912300  1.0  0.0988
  H  H53  1  0.505300  0.874400  0.808200  1.0  0.1242
  H  H54  1  0.628400  0.011100  0.850200  1.0  0.0989
  H  H55  1  0.317500  0.028800  0.951200  1.0  0.1193
  H  H56  1  0.200900  0.892100  0.908600  1.0  0.114
  C  C57  1  0.743900  0.306200  0.116900  1.0  0.3589
  C  C58  1  0.739400  0.301500  0.171500  1.0  0.021
  C  C59  1  0.771900  0.392000  0.197000  1.0  -0.1269
  C  C60  1  0.774000  0.390200  0.249700  1.0  -0.2063
  C  C61  1  0.737500  0.292200  0.273700  1.0  0.1903
  C  C62  1  0.705900  0.200100  0.247500  1.0  -0.2306
  C  C63  1  0.700500  0.203900  0.196100  1.0  -0.1126
  C  C64  1  0.815900  0.214700  0.353400  1.0  0.1512
  C  C65  1  0.942700  0.177500  0.333400  1.0  -0.061
  C  C66  1  0.022000  0.102400  0.357500  1.0  -0.1746
  C  C67  1  0.970800  0.058900  0.406100  1.0  0.0185
  C  C68  1  0.053800  0.983900  0.430100  1.0  0.2324
  C  C69  1  0.844600  0.090400  0.423500  1.0  -0.2075
  C  C70  1  0.773200  0.169100  0.398400  1.0  -0.1257
  C  C71  1  0.658000  0.375400  0.353000  1.0  0.2611
  C  C72  1  0.532700  0.406600  0.336700  1.0  -0.1974
  C  C73  1  0.458000  0.488000  0.362400  1.0  -0.0993
  C  C74  1  0.509400  0.533000  0.404300  1.0  -0.053
  C  C75  1  0.429600  0.616900  0.433400  1.0  0.3836
  C  C76  1  0.644000  0.497800  0.422500  1.0  -0.121
  C  C77  1  0.713700  0.418100  0.396700  1.0  -0.2139
  C  C78  1  0.256100  0.306200  0.883100  1.0  0.3616
  C  C79  1  0.260600  0.301500  0.828500  1.0  0.019
  C  C80  1  0.228100  0.392000  0.803000  1.0  -0.1293
  C  C81  1  0.226000  0.390200  0.750300  1.0  -0.2073
  C  C82  1  0.262500  0.292200  0.726300  1.0  0.19
  C  C83  1  0.294100  0.200100  0.752500  1.0  -0.2317
  C  C84  1  0.299500  0.203900  0.803900  1.0  -0.1144
  C  C85  1  0.184100  0.214700  0.646600  1.0  0.1509
  C  C86  1  0.057300  0.177500  0.666667  1.0  -0.0776
  C  C87  1  0.978000  0.102400  0.642500  1.0  -0.1704
  C  C88  1  0.029200  0.058900  0.593900  1.0  0.0174
  C  C89  1  0.946200  0.983900  0.569900  1.0  0.2334
  C  C90  1  0.155400  0.090400  0.576500  1.0  -0.2064
  C  C91  1  0.226800  0.169100  0.601600  1.0  -0.1202
  C  C92  1  0.342000  0.375400  0.647000  1.0  0.2623
  C  C93  1  0.467300  0.406600  0.663300  1.0  -0.1977
  C  C94  1  0.542000  0.488000  0.637600  1.0  -0.0964
  C  C95  1  0.490600  0.533000  0.595700  1.0  -0.0525
  C  C96  1  0.570400  0.616900  0.566600  1.0  0.3849
  C  C97  1  0.356000  0.497800  0.577500  1.0  -0.1182
  C  C98  1  0.286300  0.418100  0.603300  1.0  -0.2144
  C  C99  1  0.743900  0.806200  0.383100  1.0  0.359
  C  C100  1  0.739400  0.801500  0.328500  1.0  0.0194
  C  C101  1  0.771900  0.892000  0.303000  1.0  -0.1285
  C  C102  1  0.774000  0.890200  0.250300  1.0  -0.2064
  C  C103  1  0.737500  0.792200  0.226300  1.0  0.1897
  C  C104  1  0.705900  0.700100  0.252500  1.0  -0.2314
  C  C105  1  0.700500  0.703900  0.303900  1.0  -0.1138
  C  C106  1  0.815900  0.714700  0.146600  1.0  0.1506
  C  C107  1  0.942700  0.677500  0.166600  1.0  -0.0626
  C  C108  1  0.022000  0.602400  0.142500  1.0  -0.1729
  C  C109  1  0.970800  0.558900  0.093900  1.0  0.0178
  C  C110  1  0.053800  0.483900  0.069900  1.0  0.2318
  C  C111  1  0.844600  0.590400  0.076500  1.0  -0.2067
  C  C112  1  0.773200  0.669100  0.101600  1.0  -0.1257
  C  C113  1  0.658000  0.875400  0.147000  1.0  0.261
  C  C114  1  0.532700  0.906600  0.163300  1.0  -0.1979
  C  C115  1  0.458000  0.988000  0.137600  1.0  -0.0972
  C  C116  1  0.509400  0.033000  0.095700  1.0  -0.0513
  C  C117  1  0.429600  0.116900  0.066600  1.0  0.3845
  C  C118  1  0.644000  0.997800  0.077500  1.0  -0.119
  C  C119  1  0.713700  0.918100  0.103300  1.0  -0.2141
  C  C120  1  0.256100  0.806200  0.616900  1.0  0.3617
  C  C121  1  0.260600  0.801500  0.671500  1.0  0.0193
  C  C122  1  0.228100  0.892000  0.697000  1.0  -0.128
  C  C123  1  0.226000  0.890200  0.749700  1.0  -0.2074
  C  C124  1  0.262500  0.792200  0.773700  1.0  0.1907
  C  C125  1  0.294100  0.700100  0.747500  1.0  -0.2313
  C  C126  1  0.299500  0.703900  0.696100  1.0  -0.1151
  C  C127  1  0.184100  0.714700  0.853400  1.0  0.151
  C  C128  1  0.057300  0.677500  0.833400  1.0  -0.0677
  C  C129  1  0.978000  0.602400  0.857500  1.0  -0.1749
  C  C130  1  0.029200  0.558900  0.906100  1.0  0.02
  C  C131  1  0.946200  0.483900  0.930100  1.0  0.2344
  C  C132  1  0.155400  0.590400  0.923500  1.0  -0.2065
  C  C133  1  0.226800  0.669100  0.898400  1.0  -0.1251
  C  C134  1  0.342000  0.875400  0.853000  1.0  0.2617
  C  C135  1  0.467300  0.906600  0.836700  1.0  -0.1956
  C  C136  1  0.542000  0.988000  0.862400  1.0  -0.0966
  C  C137  1  0.490600  0.033000  0.904300  1.0  -0.0548
  C  C138  1  0.570400  0.116900  0.933400  1.0  0.3843
  C  C139  1  0.356000  0.997800  0.922500  1.0  -0.1212
  C  C140  1  0.286300  0.918100  0.896700  1.0  -0.2144
  N  N141  1  0.741900  0.308800  0.075500  1.0  -0.4632
  N  N142  1  0.733300  0.295600  0.327400  1.0  -0.1787
  N  N143  1  0.121400  0.919000  0.453500  1.0  -0.5015
  N  N144  1  0.364100  0.673900  0.454700  1.0  -0.4607
  N  N145  1  0.258100  0.308800  0.924500  1.0  -0.4671
  N  N146  1  0.266700  0.295600  0.672600  1.0  -0.178
  N  N147  1  0.878600  0.919000  0.546500  1.0  -0.4995
  N  N148  1  0.635900  0.673900  0.545300  1.0  -0.4621
  N  N149  1  0.741900  0.808800  0.424500  1.0  -0.468
  N  N150  1  0.733300  0.795600  0.172600  1.0  -0.1787
  N  N151  1  0.121400  0.419000  0.046500  1.0  -0.5002
  N  N152  1  0.364100  0.173900  0.045300  1.0  -0.461
  N  N153  1  0.258100  0.808800  0.575500  1.0  -0.4667
  N  N154  1  0.266700  0.795600  0.827400  1.0  -0.1781
  N  N155  1  0.878600  0.419000  0.953500  1.0  -0.5002
  N  N156  1  0.635900  0.173900  0.954700  1.0  -0.462
  F  F157  1  0.846700  0.108800  0.855600  1.0  -0.1884
  F  F158  1  0.041700  0.108100  0.899600  1.0  -0.1984
  F  F159  1  0.916000  0.957600  0.894600  1.0  -0.1899
  F  F160  1  0.031400  0.019000  0.828600  1.0  -0.2318
  F  F161  1  0.153300  0.108800  0.144400  1.0  -0.1885
  F  F162  1  0.958300  0.108100  0.100400  1.0  -0.1963
  F  F163  1  0.084000  0.957600  0.105400  1.0  -0.1915
  F  F164  1  0.968600  0.019000  0.171400  1.0  -0.2313
  F  F165  1  0.846700  0.608800  0.644400  1.0  -0.1889
  F  F166  1  0.041700  0.608100  0.600400  1.0  -0.197
  F  F167  1  0.916000  0.457600  0.605400  1.0  -0.1921
  F  F168  1  0.031400  0.519000  0.671400  1.0  -0.2309
  F  F169  1  0.153300  0.608800  0.355600  1.0  -0.1878
  F  F170  1  0.958300  0.608100  0.399600  1.0  -0.1982
  F  F171  1  0.084000  0.457600  0.394600  1.0  -0.1918
  F  F172  1  0.968600  0.519000  0.328600  1.0  -0.2312
