# generated using pymatgen
data_AgH12C22SN4(OF)3
_symmetry_space_group_name_H-M   'P 1'
_cell_length_a   10.06130000
_cell_length_b   11.99300000
_cell_length_c   26.35900000
_cell_angle_alpha   90.00000000
_cell_angle_beta   90.00000000
_cell_angle_gamma   90.00000000
_symmetry_Int_Tables_number   1
_chemical_formula_structural   AgH12C22SN4(OF)3
_chemical_formula_sum   'Ag4 H48 C88 S4 N16 O12 F12'
_cell_volume   3180.61323975
_cell_formula_units_Z   4
loop_
 _symmetry_equiv_pos_site_id
 _symmetry_equiv_pos_as_xyz
  1  'x, y, z'
loop_
 _atom_site_type_symbol
 _atom_site_label
 _atom_site_symmetry_multiplicity
 _atom_site_fract_x
 _atom_site_fract_y
 _atom_site_fract_z
 _atom_site_occupancy
 _atom_site_charge
  Ag  Ag1  1  0.712510  0.215110  0.512760  1.0  0.394
  Ag  Ag2  1  0.287490  0.215110  0.487240  1.0  0.3944
  Ag  Ag3  1  0.712510  0.715110  0.987240  1.0  0.3943
  Ag  Ag4  1  0.287490  0.715110  0.012760  1.0  0.3943
  H  H5  1  0.809700  0.065900  0.326200  1.0  0.1187
  H  H6  1  0.832000  0.064400  0.239200  1.0  0.1213
  H  H7  1  0.723500  0.383600  0.232600  1.0  0.1232
  H  H8  1  0.712900  0.387700  0.320700  1.0  0.1148
  H  H9  1  0.551100  0.145400  0.198400  1.0  0.1239
  H  H10  1  0.415000  0.024900  0.156700  1.0  0.1352
  H  H11  1  0.689900  0.988300  0.047100  1.0  0.1305
  H  H12  1  0.826600  0.110300  0.089600  1.0  0.136
  H  H13  1  0.729600  0.319000  0.088100  1.0  0.1168
  H  H14  1  0.845500  0.453500  0.045600  1.0  0.1348
  H  H15  1  0.122300  0.453500  0.155800  1.0  0.134
  H  H16  1  0.005700  0.315400  0.197200  1.0  0.1313
  H  H17  1  0.190300  0.065900  0.673800  1.0  0.119
  H  H18  1  0.168000  0.064400  0.760800  1.0  0.1216
  H  H19  1  0.276500  0.383600  0.767400  1.0  0.1234
  H  H20  1  0.287100  0.387700  0.679300  1.0  0.1147
  H  H21  1  0.448900  0.145400  0.801600  1.0  0.1242
  H  H22  1  0.585000  0.024900  0.843300  1.0  0.1335
  H  H23  1  0.310100  0.988300  0.952900  1.0  0.1306
  H  H24  1  0.173400  0.110300  0.910400  1.0  0.1352
  H  H25  1  0.270400  0.319000  0.911900  1.0  0.1174
  H  H26  1  0.154500  0.453500  0.954400  1.0  0.1346
  H  H27  1  0.877700  0.453500  0.844200  1.0  0.1337
  H  H28  1  0.994300  0.315400  0.802800  1.0  0.1321
  H  H29  1  0.809700  0.565900  0.173800  1.0  0.1188
  H  H30  1  0.832000  0.564400  0.260800  1.0  0.1212
  H  H31  1  0.723500  0.883600  0.267400  1.0  0.1231
  H  H32  1  0.712900  0.887700  0.179300  1.0  0.1148
  H  H33  1  0.551100  0.645400  0.301600  1.0  0.1236
  H  H34  1  0.415000  0.524900  0.343300  1.0  0.1348
  H  H35  1  0.689900  0.488300  0.452900  1.0  0.1299
  H  H36  1  0.826600  0.610300  0.410400  1.0  0.1356
  H  H37  1  0.729600  0.819000  0.411900  1.0  0.1169
  H  H38  1  0.845500  0.953500  0.454400  1.0  0.1347
  H  H39  1  0.122300  0.953500  0.344200  1.0  0.1341
  H  H40  1  0.005700  0.815400  0.302800  1.0  0.1319
  H  H41  1  0.190300  0.565900  0.826200  1.0  0.1187
  H  H42  1  0.168000  0.564400  0.739200  1.0  0.1214
  H  H43  1  0.276500  0.883600  0.732600  1.0  0.1234
  H  H44  1  0.287100  0.887700  0.820700  1.0  0.1148
  H  H45  1  0.448900  0.645400  0.698400  1.0  0.1232
  H  H46  1  0.585000  0.524900  0.656700  1.0  0.1336
  H  H47  1  0.310100  0.488300  0.547100  1.0  0.1308
  H  H48  1  0.173400  0.610300  0.589600  1.0  0.1348
  H  H49  1  0.270400  0.819000  0.588100  1.0  0.1171
  H  H50  1  0.154500  0.953500  0.545600  1.0  0.1347
  H  H51  1  0.877700  0.953500  0.655800  1.0  0.1336
  H  H52  1  0.994300  0.815400  0.697200  1.0  0.1324
  C  C53  1  0.757900  0.232100  0.386410  1.0  0.3751
  C  C54  1  0.762600  0.228900  0.331580  1.0  -0.0016
  C  C55  1  0.795200  0.130500  0.307600  1.0  -0.1566
  C  C56  1  0.805900  0.129400  0.255600  1.0  -0.1132
  C  C57  1  0.778400  0.223900  0.227490  1.0  0.175
  C  C58  1  0.742900  0.319900  0.251400  1.0  -0.1384
  C  C59  1  0.735900  0.322000  0.304200  1.0  -0.0657
  C  C60  1  0.700600  0.142800  0.148160  1.0  0.1875
  C  C61  1  0.578500  0.114500  0.167750  1.0  -0.1644
  C  C62  1  0.497800  0.042400  0.143200  1.0  -0.1011
  C  C63  1  0.538500  0.993700  0.097260  1.0  0.0065
  C  C64  1  0.662000  0.020200  0.077460  1.0  -0.1388
  C  C65  1  0.743200  0.093300  0.102700  1.0  -0.1487
  C  C66  1  0.450300  0.919500  0.070600  1.0  0.368
  C  C67  1  0.855700  0.302900  0.146970  1.0  0.1811
  C  C68  1  0.808900  0.345700  0.101600  1.0  -0.1353
  C  C69  1  0.877400  0.426300  0.076330  1.0  -0.1594
  C  C70  1  0.995100  0.467900  0.096510  1.0  -0.0118
  C  C71  1  0.043600  0.426200  0.142100  1.0  -0.1483
  C  C72  1  0.973500  0.344000  0.166740  1.0  -0.083
  C  C73  1  0.069700  0.551300  0.070300  1.0  0.3868
  C  C74  1  0.242100  0.232100  0.613590  1.0  0.3745
  C  C75  1  0.237400  0.228900  0.668420  1.0  -0.0032
  C  C76  1  0.204800  0.130500  0.692400  1.0  -0.1539
  C  C77  1  0.194100  0.129400  0.744400  1.0  -0.1127
  C  C78  1  0.221600  0.223900  0.772510  1.0  0.1748
  C  C79  1  0.257100  0.319900  0.748600  1.0  -0.139
  C  C80  1  0.264100  0.322000  0.695800  1.0  -0.0657
  C  C81  1  0.299400  0.142800  0.851840  1.0  0.1871
  C  C82  1  0.421500  0.114500  0.832250  1.0  -0.1643
  C  C83  1  0.502200  0.042400  0.856800  1.0  -0.1011
  C  C84  1  0.461500  0.993700  0.902740  1.0  0.0077
  C  C85  1  0.338000  0.020200  0.922540  1.0  -0.1394
  C  C86  1  0.256800  0.093300  0.897300  1.0  -0.1512
  C  C87  1  0.549700  0.919500  0.929400  1.0  0.3676
  C  C88  1  0.144300  0.302900  0.853030  1.0  0.1818
  C  C89  1  0.191100  0.345700  0.898400  1.0  -0.1378
  C  C90  1  0.122600  0.426300  0.923670  1.0  -0.1607
  C  C91  1  0.004900  0.467900  0.903490  1.0  -0.0109
  C  C92  1  0.956400  0.426200  0.857900  1.0  -0.1502
  C  C93  1  0.026500  0.344000  0.833260  1.0  -0.0858
  C  C94  1  0.930300  0.551300  0.929700  1.0  0.3851
  C  C95  1  0.757900  0.732100  0.113590  1.0  0.3745
  C  C96  1  0.762600  0.728900  0.168420  1.0  -0.0042
  C  C97  1  0.795200  0.630500  0.192400  1.0  -0.1537
  C  C98  1  0.805900  0.629400  0.244400  1.0  -0.1128
  C  C99  1  0.778400  0.723900  0.272510  1.0  0.1754
  C  C100  1  0.742900  0.819900  0.248600  1.0  -0.1387
  C  C101  1  0.735900  0.822000  0.195800  1.0  -0.066
  C  C102  1  0.700600  0.642800  0.351840  1.0  0.1874
  C  C103  1  0.578500  0.614500  0.332250  1.0  -0.1658
  C  C104  1  0.497800  0.542400  0.356800  1.0  -0.1011
  C  C105  1  0.538500  0.493700  0.402740  1.0  0.0081
  C  C106  1  0.662000  0.520200  0.422540  1.0  -0.1388
  C  C107  1  0.743200  0.593300  0.397300  1.0  -0.1503
  C  C108  1  0.450300  0.419500  0.429400  1.0  0.3683
  C  C109  1  0.855700  0.802900  0.353030  1.0  0.1812
  C  C110  1  0.808900  0.845700  0.398400  1.0  -0.1357
  C  C111  1  0.877400  0.926300  0.423670  1.0  -0.1603
  C  C112  1  0.995100  0.967900  0.403490  1.0  -0.0116
  C  C113  1  0.043600  0.926200  0.357900  1.0  -0.1483
  C  C114  1  0.973500  0.844000  0.333260  1.0  -0.0837
  C  C115  1  0.069700  0.051300  0.429700  1.0  0.3862
  C  C116  1  0.242100  0.732100  0.886410  1.0  0.3749
  C  C117  1  0.237400  0.728900  0.831580  1.0  -0.0002
  C  C118  1  0.204800  0.630500  0.807600  1.0  -0.1568
  C  C119  1  0.194100  0.629400  0.755600  1.0  -0.113
  C  C120  1  0.221600  0.723900  0.727490  1.0  0.1747
  C  C121  1  0.257100  0.819900  0.751400  1.0  -0.1388
  C  C122  1  0.264100  0.822000  0.804200  1.0  -0.0652
  C  C123  1  0.299400  0.642800  0.648160  1.0  0.1872
  C  C124  1  0.421500  0.614500  0.667750  1.0  -0.1639
  C  C125  1  0.502200  0.542400  0.643200  1.0  -0.1007
  C  C126  1  0.461500  0.493700  0.597260  1.0  0.0063
  C  C127  1  0.338000  0.520200  0.577460  1.0  -0.1381
  C  C128  1  0.256800  0.593300  0.602700  1.0  -0.1496
  C  C129  1  0.549700  0.419500  0.570600  1.0  0.367
  C  C130  1  0.144300  0.802900  0.646970  1.0  0.1815
  C  C131  1  0.191100  0.845700  0.601600  1.0  -0.1372
  C  C132  1  0.122600  0.926300  0.576330  1.0  -0.1597
  C  C133  1  0.004900  0.967900  0.596510  1.0  -0.0111
  C  C134  1  0.956400  0.926200  0.642100  1.0  -0.1499
  C  C135  1  0.026500  0.844000  0.666740  1.0  -0.0842
  C  C136  1  0.930300  0.051300  0.570300  1.0  0.3859
  C  C137  1  0.388800  0.346800  0.085100  1.0  0.5339
  C  C138  1  0.611200  0.346800  0.914900  1.0  0.5332
  C  C139  1  0.388800  0.846800  0.414900  1.0  0.5348
  C  C140  1  0.611200  0.846800  0.585100  1.0  0.5322
  S  S141  1  0.464360  0.455490  0.122370  1.0  1.2175
  S  S142  1  0.535640  0.455490  0.877630  1.0  1.2166
  S  S143  1  0.464360  0.955490  0.377630  1.0  1.2165
  S  S144  1  0.535640  0.955490  0.622370  1.0  1.2178
  N  N145  1  0.754800  0.237400  0.428970  1.0  -0.4552
  N  N146  1  0.784300  0.219500  0.173320  1.0  -0.1479
  N  N147  1  0.382900  0.860200  0.049600  1.0  -0.5228
  N  N148  1  0.126900  0.617200  0.049140  1.0  -0.4712
  N  N149  1  0.245200  0.237400  0.571030  1.0  -0.4547
  N  N150  1  0.215700  0.219500  0.826680  1.0  -0.1487
  N  N151  1  0.617100  0.860200  0.950400  1.0  -0.5215
  N  N152  1  0.873100  0.617200  0.950860  1.0  -0.4721
  N  N153  1  0.754800  0.737400  0.071030  1.0  -0.4549
  N  N154  1  0.784300  0.719500  0.326680  1.0  -0.1479
  N  N155  1  0.382900  0.360200  0.450400  1.0  -0.5228
  N  N156  1  0.126900  0.117200  0.450860  1.0  -0.4717
  N  N157  1  0.245200  0.737400  0.928970  1.0  -0.4557
  N  N158  1  0.215700  0.719500  0.673320  1.0  -0.1487
  N  N159  1  0.617100  0.360200  0.549600  1.0  -0.5213
  N  N160  1  0.873100  0.117200  0.549140  1.0  -0.4716
  O  O161  1  0.529700  0.398500  0.162070  1.0  -0.5671
  O  O162  1  0.352200  0.522100  0.136700  1.0  -0.5761
  O  O163  1  0.550700  0.506100  0.086300  1.0  -0.5446
  O  O164  1  0.470300  0.398500  0.837930  1.0  -0.5689
  O  O165  1  0.647800  0.522100  0.863300  1.0  -0.5778
  O  O166  1  0.449300  0.506100  0.913700  1.0  -0.545
  O  O167  1  0.529700  0.898500  0.337930  1.0  -0.5693
  O  O168  1  0.352200  0.022100  0.363300  1.0  -0.5774
  O  O169  1  0.550700  0.006100  0.413700  1.0  -0.5462
  O  O170  1  0.470300  0.898500  0.662070  1.0  -0.5681
  O  O171  1  0.647800  0.022100  0.636700  1.0  -0.5761
  O  O172  1  0.449300  0.006100  0.586300  1.0  -0.5435
  F  F173  1  0.318300  0.382800  0.046900  1.0  -0.159
  F  F174  1  0.307100  0.283600  0.112200  1.0  -0.1512
  F  F175  1  0.478200  0.274500  0.066100  1.0  -0.1751
  F  F176  1  0.681700  0.382800  0.953100  1.0  -0.1589
  F  F177  1  0.692900  0.283600  0.887800  1.0  -0.1513
  F  F178  1  0.521800  0.274500  0.933900  1.0  -0.1761
  F  F179  1  0.318300  0.882800  0.453100  1.0  -0.1604
  F  F180  1  0.307100  0.783600  0.387800  1.0  -0.1526
  F  F181  1  0.478200  0.774500  0.433900  1.0  -0.1758
  F  F182  1  0.681700  0.882800  0.546900  1.0  -0.1571
  F  F183  1  0.692900  0.783600  0.612200  1.0  -0.1509
  F  F184  1  0.521800  0.774500  0.566100  1.0  -0.1762
