# generated using pymatgen
data_AgH12C21N4ClO4
_symmetry_space_group_name_H-M   'P 1'
_cell_length_a   9.87040000
_cell_length_b   12.13810000
_cell_length_c   26.39000000
_cell_angle_alpha   90.00000000
_cell_angle_beta   90.00000000
_cell_angle_gamma   90.00000000
_symmetry_Int_Tables_number   1
_chemical_formula_structural   AgH12C21N4ClO4
_chemical_formula_sum   'Ag4 H48 C84 N16 Cl4 O16'
_cell_volume   3161.73054011
_cell_formula_units_Z   4
loop_
 _symmetry_equiv_pos_site_id
 _symmetry_equiv_pos_as_xyz
  1  'x, y, z'
loop_
 _atom_site_type_symbol
 _atom_site_label
 _atom_site_symmetry_multiplicity
 _atom_site_fract_x
 _atom_site_fract_y
 _atom_site_fract_z
 _atom_site_occupancy
 _atom_site_charge
  Ag  Ag1  1  0.710480  0.002600  0.989360  1.0  0.3725
  Ag  Ag2  1  0.289520  0.002600  0.010640  1.0  0.3745
  Ag  Ag3  1  0.710480  0.502600  0.510640  1.0  0.3728
  Ag  Ag4  1  0.289520  0.502600  0.489360  1.0  0.3741
  H  H5  1  0.808100  0.139400  0.175500  1.0  0.1306
  H  H6  1  0.810000  0.142900  0.262900  1.0  0.1241
  H  H7  1  0.713800  0.826800  0.267900  1.0  0.1332
  H  H8  1  0.718500  0.820200  0.179700  1.0  0.1274
  H  H9  1  0.533900  0.065000  0.304300  1.0  0.1257
  H  H10  1  0.408900  0.197700  0.340400  1.0  0.1367
  H  H11  1  0.689400  0.217800  0.453900  1.0  0.146
  H  H12  1  0.813800  0.086200  0.411300  1.0  0.1402
  H  H13  1  0.708200  0.882600  0.411700  1.0  0.1498
  H  H14  1  0.829900  0.750200  0.452900  1.0  0.1369
  H  H15  1  0.120400  0.760600  0.348100  1.0  0.1363
  H  H16  1  0.000900  0.903800  0.305700  1.0  0.1444
  H  H17  1  0.191900  0.139400  0.824500  1.0  0.1306
  H  H18  1  0.190000  0.142900  0.737100  1.0  0.1246
  H  H19  1  0.286200  0.826800  0.732100  1.0  0.1332
  H  H20  1  0.281500  0.820200  0.820300  1.0  0.1275
  H  H21  1  0.466100  0.065000  0.695700  1.0  0.1256
  H  H22  1  0.591100  0.197700  0.659600  1.0  0.135
  H  H23  1  0.310600  0.217800  0.546100  1.0  0.146
  H  H24  1  0.186200  0.086200  0.588700  1.0  0.1401
  H  H25  1  0.291800  0.882600  0.588300  1.0  0.15
  H  H26  1  0.170100  0.750200  0.547100  1.0  0.1368
  H  H27  1  0.879600  0.760600  0.651900  1.0  0.1359
  H  H28  1  0.999100  0.903800  0.694300  1.0  0.1453
  H  H29  1  0.808100  0.639400  0.324500  1.0  0.1307
  H  H30  1  0.810000  0.642900  0.237100  1.0  0.1244
  H  H31  1  0.713800  0.326800  0.232100  1.0  0.1333
  H  H32  1  0.718500  0.320200  0.320300  1.0  0.1274
  H  H33  1  0.533900  0.565000  0.195700  1.0  0.1259
  H  H34  1  0.408900  0.697700  0.159600  1.0  0.1367
  H  H35  1  0.689400  0.717800  0.046100  1.0  0.1462
  H  H36  1  0.813800  0.586200  0.088700  1.0  0.1412
  H  H37  1  0.708200  0.382600  0.088300  1.0  0.15
  H  H38  1  0.829900  0.250200  0.047100  1.0  0.1368
  H  H39  1  0.120400  0.260600  0.151900  1.0  0.1363
  H  H40  1  0.000900  0.403800  0.194300  1.0  0.1444
  H  H41  1  0.191900  0.639400  0.675500  1.0  0.1305
  H  H42  1  0.190000  0.642900  0.762900  1.0  0.1245
  H  H43  1  0.286200  0.326800  0.767900  1.0  0.1332
  H  H44  1  0.281500  0.320200  0.679700  1.0  0.1274
  H  H45  1  0.466100  0.565000  0.804300  1.0  0.1264
  H  H46  1  0.591100  0.697700  0.840400  1.0  0.1351
  H  H47  1  0.310600  0.717800  0.953900  1.0  0.1462
  H  H48  1  0.186200  0.586200  0.911300  1.0  0.1405
  H  H49  1  0.291800  0.382600  0.911700  1.0  0.1496
  H  H50  1  0.170100  0.250200  0.952900  1.0  0.1369
  H  H51  1  0.879600  0.260600  0.848100  1.0  0.1357
  H  H52  1  0.999100  0.403800  0.805700  1.0  0.1445
  C  C53  1  0.752400  0.980600  0.114200  1.0  0.3948
  C  C54  1  0.761300  0.980500  0.169500  1.0  0.0112
  C  C55  1  0.789700  0.075700  0.193800  1.0  -0.1472
  C  C56  1  0.791200  0.077500  0.246000  1.0  -0.1276
  C  C57  1  0.765100  0.983600  0.273100  1.0  0.2096
  C  C58  1  0.735000  0.889600  0.249300  1.0  -0.167
  C  C59  1  0.735500  0.886000  0.196500  1.0  -0.0716
  C  C60  1  0.685100  0.065600  0.353800  1.0  0.2
  C  C61  1  0.564400  0.097900  0.334000  1.0  -0.129
  C  C62  1  0.489000  0.174600  0.355700  1.0  -0.0929
  C  C63  1  0.533000  0.223200  0.404300  1.0  0.0045
  C  C64  1  0.451900  0.298800  0.429800  1.0  0.4184
  C  C65  1  0.656800  0.188300  0.423800  1.0  -0.0847
  C  C66  1  0.731200  0.109500  0.398100  1.0  -0.1517
  C  C67  1  0.841400  0.905100  0.353700  1.0  0.1792
  C  C68  1  0.790900  0.859200  0.398700  1.0  -0.1479
  C  C69  1  0.863300  0.780600  0.423000  1.0  -0.0534
  C  C70  1  0.986300  0.745300  0.403900  1.0  0.0072
  C  C71  1  0.038600  0.786700  0.360800  1.0  -0.0757
  C  C72  1  0.965500  0.871700  0.334800  1.0  -0.1523
  C  C73  1  0.070800  0.666400  0.433700  1.0  0.3984
  C  C74  1  0.247600  0.980600  0.885800  1.0  0.3957
  C  C75  1  0.238700  0.980500  0.830500  1.0  0.0136
  C  C76  1  0.210300  0.075700  0.806200  1.0  -0.1485
  C  C77  1  0.208800  0.077500  0.754000  1.0  -0.1254
  C  C78  1  0.234900  0.983600  0.726900  1.0  0.2091
  C  C79  1  0.265000  0.889600  0.750700  1.0  -0.1667
  C  C80  1  0.264500  0.886000  0.803500  1.0  -0.0719
  C  C81  1  0.314900  0.065600  0.646200  1.0  0.1996
  C  C82  1  0.435600  0.097900  0.666000  1.0  -0.1266
  C  C83  1  0.511000  0.174600  0.644300  1.0  -0.0913
  C  C84  1  0.467000  0.223200  0.595700  1.0  0.0042
  C  C85  1  0.548100  0.298800  0.570200  1.0  0.4172
  C  C86  1  0.343200  0.188300  0.576200  1.0  -0.0825
  C  C87  1  0.268800  0.109500  0.601900  1.0  -0.1522
  C  C88  1  0.158600  0.905100  0.646300  1.0  0.1783
  C  C89  1  0.209100  0.859200  0.601300  1.0  -0.1463
  C  C90  1  0.136700  0.780600  0.577000  1.0  -0.0527
  C  C91  1  0.013700  0.745300  0.596100  1.0  0.0052
  C  C92  1  0.961400  0.786700  0.639200  1.0  -0.0783
  C  C93  1  0.034500  0.871700  0.665200  1.0  -0.1525
  C  C94  1  0.929200  0.666400  0.566300  1.0  0.3973
  C  C95  1  0.752400  0.480600  0.385800  1.0  0.395
  C  C96  1  0.761300  0.480500  0.330500  1.0  0.0139
  C  C97  1  0.789700  0.575700  0.306200  1.0  -0.148
  C  C98  1  0.791200  0.577500  0.254000  1.0  -0.1271
  C  C99  1  0.765100  0.483600  0.226900  1.0  0.2093
  C  C100  1  0.735000  0.389600  0.250700  1.0  -0.1674
  C  C101  1  0.735500  0.386000  0.303500  1.0  -0.0728
  C  C102  1  0.685100  0.565600  0.146200  1.0  0.1991
  C  C103  1  0.564400  0.597900  0.166000  1.0  -0.1275
  C  C104  1  0.489000  0.674600  0.144300  1.0  -0.0925
  C  C105  1  0.533000  0.723200  0.095700  1.0  0.0044
  C  C106  1  0.451900  0.798800  0.070200  1.0  0.4183
  C  C107  1  0.656800  0.688300  0.076200  1.0  -0.0826
  C  C108  1  0.731200  0.609500  0.101900  1.0  -0.151
  C  C109  1  0.841400  0.405100  0.146300  1.0  0.1789
  C  C110  1  0.790900  0.359200  0.101300  1.0  -0.1464
  C  C111  1  0.863300  0.280600  0.077000  1.0  -0.0512
  C  C112  1  0.986300  0.245300  0.096100  1.0  0.0064
  C  C113  1  0.038600  0.286700  0.139200  1.0  -0.075
  C  C114  1  0.965500  0.371700  0.165200  1.0  -0.1524
  C  C115  1  0.070800  0.166400  0.066300  1.0  0.3987
  C  C116  1  0.247600  0.480600  0.614200  1.0  0.3957
  C  C117  1  0.238700  0.480500  0.669500  1.0  0.0098
  C  C118  1  0.210300  0.575700  0.693800  1.0  -0.1477
  C  C119  1  0.208800  0.577500  0.746000  1.0  -0.1261
  C  C120  1  0.234900  0.483600  0.773100  1.0  0.2088
  C  C121  1  0.265000  0.389600  0.749300  1.0  -0.1664
  C  C122  1  0.264500  0.386000  0.696500  1.0  -0.071
  C  C123  1  0.314900  0.565600  0.853800  1.0  0.2003
  C  C124  1  0.435600  0.597900  0.834000  1.0  -0.1271
  C  C125  1  0.511000  0.674600  0.855700  1.0  -0.0921
  C  C126  1  0.467000  0.723200  0.904300  1.0  0.0043
  C  C127  1  0.548100  0.798800  0.929800  1.0  0.4171
  C  C128  1  0.343200  0.688300  0.923800  1.0  -0.0862
  C  C129  1  0.268800  0.609500  0.898100  1.0  -0.1545
  C  C130  1  0.158600  0.405100  0.853700  1.0  0.1784
  C  C131  1  0.209100  0.359200  0.898700  1.0  -0.1467
  C  C132  1  0.136700  0.280600  0.923000  1.0  -0.0538
  C  C133  1  0.013700  0.245300  0.903900  1.0  0.0075
  C  C134  1  0.961400  0.286700  0.860800  1.0  -0.0783
  C  C135  1  0.034500  0.371700  0.834800  1.0  -0.1524
  C  C136  1  0.929200  0.166400  0.933700  1.0  0.3975
  N  N137  1  0.752400  0.975800  0.072100  1.0  -0.4488
  N  N138  1  0.388000  0.362200  0.450600  1.0  -0.502
  N  N139  1  0.130500  0.605500  0.453900  1.0  -0.4245
  N  N140  1  0.767600  0.986500  0.327700  1.0  -0.1408
  N  N141  1  0.247600  0.975800  0.927900  1.0  -0.449
  N  N142  1  0.612000  0.362200  0.549400  1.0  -0.4992
  N  N143  1  0.869500  0.605500  0.546100  1.0  -0.423
  N  N144  1  0.232400  0.986500  0.672300  1.0  -0.1414
  N  N145  1  0.752400  0.475800  0.427900  1.0  -0.449
  N  N146  1  0.388000  0.862200  0.049400  1.0  -0.5016
  N  N147  1  0.130500  0.105500  0.046100  1.0  -0.424
  N  N148  1  0.767600  0.486500  0.172300  1.0  -0.1406
  N  N149  1  0.247600  0.475800  0.572100  1.0  -0.4487
  N  N150  1  0.612000  0.862200  0.950600  1.0  -0.5002
  N  N151  1  0.869500  0.105500  0.953900  1.0  -0.4235
  N  N152  1  0.232400  0.486500  0.827700  1.0  -0.1416
  Cl  Cl153  1  0.461500  0.222800  0.137100  1.0  1.392
  Cl  Cl154  1  0.538500  0.222800  0.862900  1.0  1.392
  Cl  Cl155  1  0.461500  0.722800  0.362900  1.0  1.3923
  Cl  Cl156  1  0.538500  0.722800  0.637100  1.0  1.3918
  O  O157  1  0.336100  0.167500  0.144200  1.0  -0.5269
  O  O158  1  0.527000  0.239000  0.186000  1.0  -0.6287
  O  O159  1  0.438000  0.330300  0.115200  1.0  -0.623
  O  O160  1  0.551000  0.160500  0.105800  1.0  -0.527
  O  O161  1  0.663900  0.167500  0.855800  1.0  -0.5278
  O  O162  1  0.473000  0.239000  0.814000  1.0  -0.6318
  O  O163  1  0.562000  0.330300  0.884800  1.0  -0.6203
  O  O164  1  0.449000  0.160500  0.894200  1.0  -0.5254
  O  O165  1  0.336100  0.667500  0.355800  1.0  -0.5269
  O  O166  1  0.527000  0.739000  0.314000  1.0  -0.6301
  O  O167  1  0.438000  0.830300  0.384800  1.0  -0.6218
  O  O168  1  0.551000  0.660500  0.394200  1.0  -0.5257
  O  O169  1  0.663900  0.667500  0.644200  1.0  -0.5279
  O  O170  1  0.473000  0.739000  0.686000  1.0  -0.6328
  O  O171  1  0.562000  0.830300  0.615200  1.0  -0.6218
  O  O172  1  0.449000  0.660500  0.605800  1.0  -0.526
