# generated using pymatgen
data_Cd2H8C19N3O10
_symmetry_space_group_name_H-M   'P 1'
_cell_length_a   7.74760000
_cell_length_b   18.39300000
_cell_length_c   18.75300000
_cell_angle_alpha   90.00000000
_cell_angle_beta   101.72000000
_cell_angle_gamma   90.00000000
_symmetry_Int_Tables_number   1
_chemical_formula_structural   Cd2H8C19N3O10
_chemical_formula_sum   'Cd8 H32 C76 N12 O40'
_cell_volume   2616.61974766
_cell_formula_units_Z   4
loop_
 _symmetry_equiv_pos_site_id
 _symmetry_equiv_pos_as_xyz
  1  'x, y, z'
loop_
 _atom_site_type_symbol
 _atom_site_label
 _atom_site_symmetry_multiplicity
 _atom_site_fract_x
 _atom_site_fract_y
 _atom_site_fract_z
 _atom_site_occupancy
 _atom_site_charge
  Cd  Cd1  1  0.459310  0.163420  0.102770  1.0  1.0232
  Cd  Cd2  1  0.083660  0.463040  0.362550  1.0  0.9435
  Cd  Cd3  1  0.540690  0.663420  0.397230  1.0  1.0236
  Cd  Cd4  1  0.916340  0.963040  0.137450  1.0  0.9437
  Cd  Cd5  1  0.540690  0.836580  0.897230  1.0  1.0237
  Cd  Cd6  1  0.916340  0.536960  0.637450  1.0  0.9437
  Cd  Cd7  1  0.459310  0.336580  0.602770  1.0  1.0233
  Cd  Cd8  1  0.083660  0.036960  0.862550  1.0  0.9439
  H  H9  1  0.290700  0.592100  0.861400  1.0  0.3141
  H  H10  1  0.010700  0.717900  0.231300  1.0  0.1153
  H  H11  1  0.105400  0.738100  0.029000  1.0  0.1253
  H  H12  1  0.166400  0.543900  0.131300  1.0  0.1291
  H  H13  1  0.314800  0.398500  0.006100  1.0  0.1133
  H  H14  1  0.441200  0.270800  0.852200  1.0  0.102
  H  H15  1  0.340500  0.479600  0.809600  1.0  0.1217
  H  H16  1  0.677800  0.099600  0.995300  1.0  0.0311
  H  H17  1  0.709300  0.092100  0.638600  1.0  0.3141
  H  H18  1  0.989300  0.217900  0.268700  1.0  0.1154
  H  H19  1  0.894600  0.238100  0.471000  1.0  0.1249
  H  H20  1  0.833600  0.043900  0.368700  1.0  0.1288
  H  H21  1  0.685200  0.898500  0.493900  1.0  0.1144
  H  H22  1  0.558800  0.770800  0.647800  1.0  0.1018
  H  H23  1  0.659500  0.979600  0.690400  1.0  0.1215
  H  H24  1  0.322200  0.599600  0.504700  1.0  0.0302
  H  H25  1  0.709300  0.407900  0.138600  1.0  0.3142
  H  H26  1  0.989300  0.282100  0.768700  1.0  0.1157
  H  H27  1  0.894600  0.261900  0.971000  1.0  0.1249
  H  H28  1  0.833600  0.456100  0.868700  1.0  0.1278
  H  H29  1  0.685200  0.601500  0.993900  1.0  0.1144
  H  H30  1  0.558800  0.729200  0.147800  1.0  0.1006
  H  H31  1  0.659500  0.520400  0.190400  1.0  0.1222
  H  H32  1  0.322200  0.900400  0.004700  1.0  0.0317
  H  H33  1  0.290700  0.907900  0.361400  1.0  0.3144
  H  H34  1  0.010700  0.782100  0.731300  1.0  0.1155
  H  H35  1  0.105400  0.761900  0.529000  1.0  0.1252
  H  H36  1  0.166400  0.956100  0.631300  1.0  0.1278
  H  H37  1  0.314800  0.101500  0.506100  1.0  0.1131
  H  H38  1  0.441200  0.229200  0.352200  1.0  0.1001
  H  H39  1  0.340500  0.020400  0.309600  1.0  0.1219
  H  H40  1  0.677800  0.400400  0.495300  1.0  0.0323
  C  C41  1  0.067300  0.578500  0.258400  1.0  0.7144
  C  C42  1  0.084100  0.624000  0.191500  1.0  -0.1461
  C  C43  1  0.043700  0.697100  0.190900  1.0  0.0245
  C  C44  1  0.051700  0.740600  0.130100  1.0  -0.1117
  C  C45  1  0.099300  0.709700  0.069400  1.0  0.0406
  C  C46  1  0.138400  0.634800  0.069900  1.0  -0.0824
  C  C47  1  0.135100  0.592700  0.130700  1.0  0.0179
  C  C48  1  0.005300  0.819400  0.130000  1.0  0.7026
  C  C49  1  0.193000  0.602300  0.006100  1.0  0.341
  C  C50  1  0.273000  0.523400  0.936900  1.0  0.4125
  C  C51  1  0.320500  0.452300  0.913100  1.0  0.0094
  C  C52  1  0.337200  0.392400  0.959600  1.0  0.0009
  C  C53  1  0.385100  0.325000  0.939600  1.0  -0.1702
  C  C54  1  0.412000  0.316500  0.867500  1.0  0.0067
  C  C55  1  0.396700  0.372200  0.820900  1.0  -0.1408
  C  C56  1  0.351000  0.441000  0.842200  1.0  -0.0406
  C  C57  1  0.421600  0.361500  0.743100  1.0  0.7103
  C  C58  1  0.410000  0.262900  0.993600  1.0  0.7077
  C  C59  1  0.698300  0.063600  0.030800  1.0  0.6943
  C  C60  1  0.932700  0.078500  0.241600  1.0  0.7134
  C  C61  1  0.915900  0.124000  0.308500  1.0  -0.1472
  C  C62  1  0.956300  0.197100  0.309100  1.0  0.0235
  C  C63  1  0.948300  0.240600  0.369900  1.0  -0.1116
  C  C64  1  0.900700  0.209700  0.430600  1.0  0.0422
  C  C65  1  0.861600  0.134800  0.430100  1.0  -0.0812
  C  C66  1  0.864900  0.092700  0.369300  1.0  0.0193
  C  C67  1  0.994700  0.319400  0.370000  1.0  0.703
  C  C68  1  0.807000  0.102300  0.493900  1.0  0.339
  C  C69  1  0.727000  0.023400  0.563100  1.0  0.4131
  C  C70  1  0.679500  0.952300  0.586900  1.0  0.01
  C  C71  1  0.662800  0.892400  0.540400  1.0  0.0016
  C  C72  1  0.614900  0.825000  0.560400  1.0  -0.1717
  C  C73  1  0.588000  0.816500  0.632500  1.0  0.0073
  C  C74  1  0.603300  0.872200  0.679100  1.0  -0.1394
  C  C75  1  0.649000  0.941000  0.657800  1.0  -0.0396
  C  C76  1  0.578400  0.861500  0.756900  1.0  0.71
  C  C77  1  0.590000  0.762900  0.506400  1.0  0.706
  C  C78  1  0.301700  0.563600  0.469200  1.0  0.6943
  C  C79  1  0.932700  0.421500  0.741600  1.0  0.7131
  C  C80  1  0.915900  0.376000  0.808500  1.0  -0.146
  C  C81  1  0.956300  0.302900  0.809100  1.0  0.0236
  C  C82  1  0.948300  0.259400  0.869900  1.0  -0.112
  C  C83  1  0.900700  0.290300  0.930600  1.0  0.0433
  C  C84  1  0.861600  0.365200  0.930100  1.0  -0.0811
  C  C85  1  0.864900  0.407300  0.869300  1.0  0.017
  C  C86  1  0.994700  0.180600  0.870000  1.0  0.7018
  C  C87  1  0.807000  0.397700  0.993900  1.0  0.3397
  C  C88  1  0.727000  0.476600  0.063100  1.0  0.4133
  C  C89  1  0.679500  0.547700  0.086900  1.0  0.0093
  C  C90  1  0.662800  0.607600  0.040400  1.0  0.0012
  C  C91  1  0.614900  0.675000  0.060400  1.0  -0.1701
  C  C92  1  0.588000  0.683500  0.132500  1.0  0.0076
  C  C93  1  0.603300  0.627800  0.179100  1.0  -0.1388
  C  C94  1  0.649000  0.559000  0.157800  1.0  -0.0386
  C  C95  1  0.578400  0.638500  0.256900  1.0  0.71
  C  C96  1  0.590000  0.737100  0.006400  1.0  0.7095
  C  C97  1  0.301700  0.936400  0.969200  1.0  0.6922
  C  C98  1  0.067300  0.921500  0.758400  1.0  0.714
  C  C99  1  0.084100  0.876000  0.691500  1.0  -0.1464
  C  C100  1  0.043700  0.802900  0.690900  1.0  0.0251
  C  C101  1  0.051700  0.759400  0.630100  1.0  -0.1116
  C  C102  1  0.099300  0.790300  0.569400  1.0  0.0406
  C  C103  1  0.138400  0.865200  0.569900  1.0  -0.0821
  C  C104  1  0.135100  0.907300  0.630700  1.0  0.0166
  C  C105  1  0.005300  0.680600  0.630000  1.0  0.702
  C  C106  1  0.193000  0.897700  0.506100  1.0  0.3408
  C  C107  1  0.273000  0.976600  0.436900  1.0  0.4126
  C  C108  1  0.320500  0.047700  0.413100  1.0  0.0089
  C  C109  1  0.337200  0.107600  0.459600  1.0  0.001
  C  C110  1  0.385100  0.175000  0.439600  1.0  -0.1691
  C  C111  1  0.412000  0.183500  0.367500  1.0  0.0078
  C  C112  1  0.396700  0.127800  0.320900  1.0  -0.141
  C  C113  1  0.351000  0.059000  0.342200  1.0  -0.0403
  C  C114  1  0.421600  0.138500  0.243100  1.0  0.7103
  C  C115  1  0.410000  0.237100  0.493600  1.0  0.7094
  C  C116  1  0.698300  0.436400  0.530800  1.0  0.6924
  N  N117  1  0.227500  0.531300  0.002300  1.0  -0.4793
  N  N118  1  0.265300  0.584700  0.903400  1.0  -0.1064
  N  N119  1  0.209900  0.635600  0.945900  1.0  -0.2353
  N  N120  1  0.772500  0.031300  0.497700  1.0  -0.4785
  N  N121  1  0.734700  0.084700  0.596600  1.0  -0.1073
  N  N122  1  0.790100  0.135600  0.554100  1.0  -0.2362
  N  N123  1  0.772500  0.468700  0.997700  1.0  -0.4781
  N  N124  1  0.734700  0.415300  0.096600  1.0  -0.1086
  N  N125  1  0.790100  0.364400  0.054100  1.0  -0.2367
  N  N126  1  0.227500  0.968700  0.502300  1.0  -0.4793
  N  N127  1  0.265300  0.915300  0.403400  1.0  -0.1098
  N  N128  1  0.209900  0.864400  0.445900  1.0  -0.236
  O  O129  1  0.089200  0.510400  0.253600  1.0  -0.5813
  O  O130  1  0.033300  0.608600  0.313300  1.0  -0.5576
  O  O131  1  0.980200  0.847100  0.188800  1.0  -0.597
  O  O132  1  0.986500  0.855600  0.072700  1.0  -0.5885
  O  O133  1  0.429400  0.415400  0.704000  1.0  -0.619
  O  O134  1  0.436400  0.297800  0.720900  1.0  -0.6142
  O  O135  1  0.444200  0.200500  0.973300  1.0  -0.5829
  O  O136  1  0.394000  0.278300  0.057100  1.0  -0.5492
  O  O137  1  0.598600  0.061700  0.076500  1.0  -0.6091
  O  O138  1  0.821300  0.020600  0.030000  1.0  -0.5872
  O  O139  1  0.910800  0.010400  0.246400  1.0  -0.5816
  O  O140  1  0.966700  0.108600  0.186700  1.0  -0.555
  O  O141  1  0.019800  0.347100  0.311200  1.0  -0.5966
  O  O142  1  0.013500  0.355600  0.427300  1.0  -0.5894
  O  O143  1  0.570600  0.915400  0.796000  1.0  -0.6178
  O  O144  1  0.563600  0.797800  0.779100  1.0  -0.6138
  O  O145  1  0.555800  0.700500  0.526700  1.0  -0.5827
  O  O146  1  0.606000  0.778300  0.442900  1.0  -0.551
  O  O147  1  0.401400  0.561700  0.423500  1.0  -0.6084
  O  O148  1  0.178700  0.520600  0.470000  1.0  -0.5882
  O  O149  1  0.910800  0.489600  0.746400  1.0  -0.5857
  O  O150  1  0.966700  0.391400  0.686700  1.0  -0.5555
  O  O151  1  0.019800  0.152900  0.811200  1.0  -0.5962
  O  O152  1  0.013500  0.144400  0.927300  1.0  -0.5914
  O  O153  1  0.570600  0.584600  0.296000  1.0  -0.6174
  O  O154  1  0.563600  0.702200  0.279100  1.0  -0.6135
  O  O155  1  0.555800  0.799500  0.026700  1.0  -0.5821
  O  O156  1  0.606000  0.721700  0.942900  1.0  -0.5523
  O  O157  1  0.401400  0.938300  0.923500  1.0  -0.6083
  O  O158  1  0.178700  0.979400  0.970000  1.0  -0.5877
  O  O159  1  0.089200  0.989600  0.753600  1.0  -0.5841
  O  O160  1  0.033300  0.891400  0.813300  1.0  -0.5582
  O  O161  1  0.980200  0.652900  0.688800  1.0  -0.5958
  O  O162  1  0.986500  0.644400  0.572700  1.0  -0.591
  O  O163  1  0.429400  0.084600  0.204000  1.0  -0.6191
  O  O164  1  0.436400  0.202200  0.220900  1.0  -0.6161
  O  O165  1  0.444200  0.299500  0.473300  1.0  -0.5825
  O  O166  1  0.394000  0.221700  0.557100  1.0  -0.5496
  O  O167  1  0.598600  0.438300  0.576500  1.0  -0.6078
  O  O168  1  0.821300  0.479400  0.530000  1.0  -0.5861
