# generated using pymatgen
data_Mn3H10C22(NO2)4
_symmetry_space_group_name_H-M   'P 1'
_cell_length_a   14.23240000
_cell_length_b   15.47770000
_cell_length_c   15.47770000
_cell_angle_alpha   68.95670000
_cell_angle_beta   72.15070000
_cell_angle_gamma   107.84900000
_symmetry_Int_Tables_number   1
_chemical_formula_structural   Mn3H10C22(NO2)4
_chemical_formula_sum   'Mn9 H30 C66 N12 O24'
_cell_volume   2675.31366177
_cell_formula_units_Z   3
loop_
 _symmetry_equiv_pos_site_id
 _symmetry_equiv_pos_as_xyz
  1  'x, y, z'
loop_
 _atom_site_type_symbol
 _atom_site_label
 _atom_site_symmetry_multiplicity
 _atom_site_fract_x
 _atom_site_fract_y
 _atom_site_fract_z
 _atom_site_occupancy
 _atom_site_charge
  Mn  Mn1  1  0.510560  0.243030  0.274840  1.0  1.0915
  Mn  Mn2  1  0.785400  0.274840  0.482130  1.0  1.0891
  Mn  Mn3  1  0.267530  0.482130  0.243030  1.0  1.09
  Mn  Mn4  1  0.489440  0.756970  0.725160  1.0  1.0916
  Mn  Mn5  1  0.214600  0.725160  0.517870  1.0  1.0908
  Mn  Mn6  1  0.732470  0.517870  0.756970  1.0  1.0914
  Mn  Mn7  1  0.000000  0.500000  0.000000  1.0  1.2564
  Mn  Mn8  1  0.000000  0.000000  0.500000  1.0  1.2565
  Mn  Mn9  1  0.500000  0.500000  0.500000  1.0  1.2565
  H  H10  1  0.494700  0.459400  0.918600  1.0  0.0933
  H  H11  1  0.315600  0.408800  0.936100  1.0  0.1018
  H  H12  1  0.177700  0.237000  0.052300  1.0  0.1021
  H  H13  1  0.215400  0.118900  0.158300  1.0  0.1011
  H  H14  1  0.394500  0.168200  0.140100  1.0  0.1045
  H  H15  1  0.413300  0.918600  0.622000  1.0  0.0927
  H  H16  1  0.251700  0.936100  0.655100  1.0  0.101
  H  H17  1  0.230000  0.052300  0.710700  1.0  0.1021
  H  H18  1  0.373700  0.158300  0.722800  1.0  0.101
  H  H19  1  0.534600  0.140100  0.691700  1.0  0.1048
  H  H20  1  0.035300  0.622000  0.459400  1.0  0.0938
  H  H21  1  0.906800  0.655100  0.408800  1.0  0.1011
  H  H22  1  0.940700  0.710700  0.237000  1.0  0.1045
  H  H23  1  0.096500  0.722800  0.118900  1.0  0.1004
  H  H24  1  0.226300  0.691700  0.168200  1.0  0.1029
  H  H25  1  0.505300  0.540600  0.081400  1.0  0.0933
  H  H26  1  0.684400  0.591200  0.063900  1.0  0.1025
  H  H27  1  0.822300  0.763000  0.947700  1.0  0.1025
  H  H28  1  0.784600  0.881100  0.841700  1.0  0.1019
  H  H29  1  0.605500  0.831800  0.859900  1.0  0.1046
  H  H30  1  0.586700  0.081400  0.378000  1.0  0.092
  H  H31  1  0.748300  0.063900  0.344900  1.0  0.1009
  H  H32  1  0.770000  0.947700  0.289300  1.0  0.1012
  H  H33  1  0.626300  0.841700  0.277200  1.0  0.101
  H  H34  1  0.465400  0.859900  0.308300  1.0  0.1045
  H  H35  1  0.964700  0.378000  0.540600  1.0  0.0936
  H  H36  1  0.093200  0.344900  0.591200  1.0  0.1007
  H  H37  1  0.059300  0.289300  0.763000  1.0  0.1038
  H  H38  1  0.903500  0.277200  0.881100  1.0  0.0998
  H  H39  1  0.773700  0.308300  0.831800  1.0  0.1034
  C  C40  1  0.871380  0.493920  0.866690  1.0  0.6916
  C  C41  1  0.755670  0.422890  0.953070  1.0  -0.0237
  C  C42  1  0.708350  0.358540  0.060860  1.0  -0.0146
  C  C43  1  0.753300  0.330710  0.136110  1.0  0.687
  C  C44  1  0.576070  0.349600  0.018830  1.0  0.4481
  C  C45  1  0.463110  0.318930  0.028150  1.0  -0.0814
  C  C46  1  0.438990  0.390870  0.966530  1.0  -0.0771
  C  C47  1  0.331650  0.360330  0.976670  1.0  -0.0891
  C  C48  1  0.248720  0.257750  0.047190  1.0  -0.1036
  C  C49  1  0.271780  0.187090  0.109250  1.0  -0.0907
  C  C50  1  0.379120  0.216990  0.099070  1.0  -0.0814
  C  C51  1  0.738070  0.866690  0.639390  1.0  0.6917
  C  C52  1  0.708740  0.953070  0.624040  1.0  -0.0238
  C  C53  1  0.769210  0.060860  0.580600  1.0  -0.0166
  C  C54  1  0.889410  0.136110  0.533180  1.0  0.6867
  C  C55  1  0.594900  0.018830  0.631570  1.0  0.4475
  C  C56  1  0.491260  0.028150  0.652920  1.0  -0.0808
  C  C57  1  0.405520  0.966530  0.642600  1.0  -0.0747
  C  C58  1  0.308320  0.976670  0.663000  1.0  -0.0867
  C  C59  1  0.295910  0.047190  0.695060  1.0  -0.1037
  C  C60  1  0.381030  0.109250  0.703660  1.0  -0.0931
  C  C61  1  0.478190  0.099070  0.683940  1.0  -0.0828
  C  C62  1  0.377460  0.639390  0.493920  1.0  0.6954
  C  C63  1  0.332780  0.624040  0.422890  1.0  -0.0224
  C  C64  1  0.349810  0.580600  0.358540  1.0  -0.0155
  C  C65  1  0.422590  0.533180  0.330710  1.0  0.6864
  C  C66  1  0.226470  0.631570  0.349600  1.0  0.4481
  C  C67  1  0.144180  0.652920  0.318930  1.0  -0.0824
  C  C68  1  0.048120  0.642600  0.390870  1.0  -0.075
  C  C69  1  0.971320  0.663000  0.360330  1.0  -0.0887
  C  C70  1  0.990970  0.695060  0.257750  1.0  -0.104
  C  C71  1  0.084690  0.703660  0.187090  1.0  -0.0903
  C  C72  1  0.162130  0.683940  0.216990  1.0  -0.0822
  C  C73  1  0.128620  0.506080  0.133310  1.0  0.6897
  C  C74  1  0.244330  0.577110  0.046930  1.0  -0.0237
  C  C75  1  0.291650  0.641460  0.939140  1.0  -0.0155
  C  C76  1  0.246700  0.669290  0.863890  1.0  0.688
  C  C77  1  0.423930  0.650400  0.981170  1.0  0.4474
  C  C78  1  0.536890  0.681070  0.971850  1.0  -0.0821
  C  C79  1  0.561010  0.609130  0.033470  1.0  -0.0755
  C  C80  1  0.668350  0.639670  0.023330  1.0  -0.0898
  C  C81  1  0.751280  0.742250  0.952810  1.0  -0.1046
  C  C82  1  0.728220  0.812910  0.890750  1.0  -0.0915
  C  C83  1  0.620880  0.783010  0.900930  1.0  -0.0819
  C  C84  1  0.261930  0.133310  0.360610  1.0  0.6889
  C  C85  1  0.291260  0.046930  0.375960  1.0  -0.0236
  C  C86  1  0.230790  0.939140  0.419400  1.0  -0.0162
  C  C87  1  0.110590  0.863890  0.466820  1.0  0.6868
  C  C88  1  0.405100  0.981170  0.368430  1.0  0.4477
  C  C89  1  0.508740  0.971850  0.347080  1.0  -0.081
  C  C90  1  0.594480  0.033470  0.357400  1.0  -0.0747
  C  C91  1  0.691680  0.023330  0.337000  1.0  -0.0865
  C  C92  1  0.704090  0.952810  0.304940  1.0  -0.1012
  C  C93  1  0.618970  0.890750  0.296340  1.0  -0.0922
  C  C94  1  0.521810  0.900930  0.316060  1.0  -0.0823
  C  C95  1  0.622540  0.360610  0.506080  1.0  0.6962
  C  C96  1  0.667220  0.375960  0.577110  1.0  -0.024
  C  C97  1  0.650190  0.419400  0.641460  1.0  -0.0164
  C  C98  1  0.577410  0.466820  0.669290  1.0  0.6854
  C  C99  1  0.773530  0.368430  0.650400  1.0  0.4476
  C  C100  1  0.855820  0.347080  0.681070  1.0  -0.0821
  C  C101  1  0.951880  0.357400  0.609130  1.0  -0.0746
  C  C102  1  0.028680  0.337000  0.639670  1.0  -0.0874
  C  C103  1  0.009030  0.304940  0.742250  1.0  -0.1028
  C  C104  1  0.915310  0.296340  0.812910  1.0  -0.0919
  C  C105  1  0.837870  0.316060  0.783010  1.0  -0.0828
  N  N106  1  0.594400  0.313180  0.101720  1.0  -0.4851
  N  N107  1  0.670320  0.416310  0.927380  1.0  -0.5026
  N  N108  1  0.696120  0.101720  0.585100  1.0  -0.4861
  N  N109  1  0.597700  0.927380  0.656310  1.0  -0.5006
  N  N110  1  0.281220  0.585100  0.313180  1.0  -0.488
  N  N111  1  0.254010  0.656310  0.416310  1.0  -0.5017
  N  N112  1  0.405600  0.686820  0.898280  1.0  -0.4851
  N  N113  1  0.329680  0.583690  0.072620  1.0  -0.5026
  N  N114  1  0.303880  0.898280  0.414900  1.0  -0.4875
  N  N115  1  0.402300  0.072620  0.343690  1.0  -0.5002
  N  N116  1  0.718780  0.414900  0.686820  1.0  -0.4884
  N  N117  1  0.745990  0.343690  0.583690  1.0  -0.5015
  O  O118  1  0.955290  0.509260  0.880230  1.0  -0.6497
  O  O119  1  0.880350  0.538520  0.775840  1.0  -0.6167
  O  O120  1  0.854600  0.353810  0.103920  1.0  -0.6424
  O  O121  1  0.684100  0.281230  0.231620  1.0  -0.5903
  O  O122  1  0.835520  0.880230  0.610510  1.0  -0.6496
  O  O123  1  0.656190  0.775840  0.685640  1.0  -0.6164
  O  O124  1  0.958520  0.103920  0.542270  1.0  -0.6428
  O  O125  1  0.915720  0.231620  0.487150  1.0  -0.5856
  O  O126  1  0.446030  0.610510  0.509260  1.0  -0.6503
  O  O127  1  0.341830  0.685640  0.538520  1.0  -0.6194
  O  O128  1  0.500790  0.542270  0.353810  1.0  -0.6426
  O  O129  1  0.402870  0.487150  0.281230  1.0  -0.5896
  O  O130  1  0.044710  0.490740  0.119770  1.0  -0.6489
  O  O131  1  0.119650  0.461480  0.224160  1.0  -0.6166
  O  O132  1  0.145400  0.646190  0.896080  1.0  -0.6441
  O  O133  1  0.315900  0.718770  0.768380  1.0  -0.589
  O  O134  1  0.164480  0.119770  0.389490  1.0  -0.6504
  O  O135  1  0.343810  0.224160  0.314360  1.0  -0.6171
  O  O136  1  0.041480  0.896080  0.457730  1.0  -0.643
  O  O137  1  0.084280  0.768380  0.512850  1.0  -0.5869
  O  O138  1  0.553970  0.389490  0.490740  1.0  -0.6501
  O  O139  1  0.658170  0.314360  0.461480  1.0  -0.6165
  O  O140  1  0.499210  0.457730  0.646190  1.0  -0.643
  O  O141  1  0.597130  0.512850  0.718770  1.0  -0.5876
