# generated using pymatgen
data_MnH6C11(NO2)2
_symmetry_space_group_name_H-M   'P 1'
_cell_length_a   8.74420000
_cell_length_b   16.76590000
_cell_length_c   16.76590000
_cell_angle_alpha   62.95660000
_cell_angle_beta   79.98840000
_cell_angle_gamma   100.01200000
_symmetry_Int_Tables_number   1
_chemical_formula_structural   MnH6C11(NO2)2
_chemical_formula_sum   'Mn6 H36 C66 N12 O24'
_cell_volume   2064.31208716
_cell_formula_units_Z   6
loop_
 _symmetry_equiv_pos_site_id
 _symmetry_equiv_pos_as_xyz
  1  'x, y, z'
loop_
 _atom_site_type_symbol
 _atom_site_label
 _atom_site_symmetry_multiplicity
 _atom_site_fract_x
 _atom_site_fract_y
 _atom_site_fract_z
 _atom_site_occupancy
 _atom_site_charge
  Mn  Mn1  1  0.714910  0.423520  0.427920  1.0  1.1726
  Mn  Mn2  1  0.142830  0.427920  0.148560  1.0  1.1753
  Mn  Mn3  1  0.291390  0.148560  0.423520  1.0  1.1728
  Mn  Mn4  1  0.642830  0.851440  0.572080  1.0  1.1756
  Mn  Mn5  1  0.791390  0.576480  0.851440  1.0  1.1744
  Mn  Mn6  1  0.214910  0.572080  0.576480  1.0  1.1762
  H  H7  1  0.589800  0.374300  0.767500  1.0  0.26
  H  H8  1  0.333700  0.272500  0.810900  1.0  0.1343
  H  H9  1  0.146000  0.126700  0.878400  1.0  0.1044
  H  H10  1  0.144200  0.040800  0.808400  1.0  0.1108
  H  H11  1  0.365600  0.074400  0.688100  1.0  0.1283
  H  H12  1  0.555000  0.213900  0.617600  1.0  0.1273
  H  H13  1  0.357300  0.767500  0.858200  1.0  0.2606
  H  H14  1  0.144600  0.810900  0.916600  1.0  0.1336
  H  H15  1  0.024400  0.878400  0.994900  1.0  0.1044
  H  H16  1  0.952600  0.808400  0.150800  1.0  0.1117
  H  H17  1  0.053700  0.688100  0.237500  1.0  0.1279
  H  H18  1  0.172600  0.617600  0.168500  1.0  0.1264
  H  H19  1  0.215500  0.858200  0.374300  1.0  0.2625
  H  H20  1  0.061200  0.916600  0.272500  1.0  0.1345
  H  H21  1  0.019300  0.994900  0.126700  1.0  0.1042
  H  H22  1  0.103400  0.150800  0.040800  1.0  0.1117
  H  H23  1  0.291200  0.237500  0.074400  1.0  0.1282
  H  H24  1  0.341100  0.168500  0.213900  1.0  0.1245
  H  H25  1  0.857300  0.141800  0.232500  1.0  0.2613
  H  H26  1  0.644600  0.083400  0.189100  1.0  0.1336
  H  H27  1  0.524400  0.005100  0.121600  1.0  0.1042
  H  H28  1  0.452600  0.849200  0.191600  1.0  0.1118
  H  H29  1  0.553700  0.762500  0.311900  1.0  0.1276
  H  H30  1  0.672600  0.831500  0.382400  1.0  0.1247
  H  H31  1  0.715500  0.625700  0.141800  1.0  0.2609
  H  H32  1  0.561200  0.727500  0.083400  1.0  0.1345
  H  H33  1  0.519300  0.873300  0.005100  1.0  0.1047
  H  H34  1  0.603400  0.959200  0.849200  1.0  0.1117
  H  H35  1  0.791200  0.925600  0.762500  1.0  0.1287
  H  H36  1  0.841100  0.786100  0.831500  1.0  0.1275
  H  H37  1  0.089800  0.232500  0.625700  1.0  0.2572
  H  H38  1  0.833700  0.189100  0.727500  1.0  0.1334
  H  H39  1  0.646000  0.121600  0.873300  1.0  0.104
  H  H40  1  0.644200  0.191600  0.959200  1.0  0.1117
  H  H41  1  0.865600  0.311900  0.925600  1.0  0.1276
  H  H42  1  0.055000  0.382400  0.786100  1.0  0.1261
  C  C43  1  0.820200  0.459200  0.576400  1.0  0.0663
  C  C44  1  0.784400  0.462700  0.658200  1.0  -0.0854
  C  C45  1  0.603400  0.345100  0.665700  1.0  0.249
  C  C46  1  0.944400  0.519900  0.487700  1.0  0.6816
  C  C47  1  0.844900  0.512300  0.703300  1.0  0.6871
  C  C48  1  0.467000  0.256300  0.705600  1.0  0.0145
  C  C49  1  0.339600  0.233100  0.786200  1.0  -0.1548
  C  C50  1  0.227600  0.148000  0.823500  1.0  -0.0776
  C  C51  1  0.230500  0.094400  0.784600  1.0  -0.0932
  C  C52  1  0.358900  0.116100  0.710000  1.0  -0.135
  C  C53  1  0.471600  0.196900  0.670200  1.0  -0.0567
  C  C54  1  0.396600  0.576400  0.964400  1.0  0.0629
  C  C55  1  0.442600  0.658200  0.879100  1.0  -0.0836
  C  C56  1  0.269100  0.665700  0.989200  1.0  0.2506
  C  C57  1  0.432100  0.487700  0.992400  1.0  0.6785
  C  C58  1  0.548200  0.703300  0.784400  1.0  0.6951
  C  C59  1  0.172600  0.705600  0.038100  1.0  0.0144
  C  C60  1  0.125800  0.786200  0.980700  1.0  -0.1581
  C  C61  1  0.051100  0.823500  0.028500  1.0  -0.0769
  C  C62  1  0.015100  0.784600  0.121000  1.0  -0.093
  C  C63  1  0.068900  0.710000  0.173900  1.0  -0.128
  C  C64  1  0.141800  0.670200  0.132900  1.0  -0.0551
  C  C65  1  0.361000  0.964400  0.459200  1.0  0.0676
  C  C66  1  0.321700  0.879100  0.462700  1.0  -0.0856
  C  C67  1  0.258300  0.989200  0.345100  1.0  0.2506
  C  C68  1  0.424500  0.992400  0.519900  1.0  0.6848
  C  C69  1  0.332600  0.784400  0.512300  1.0  0.6868
  C  C70  1  0.210700  0.038100  0.256300  1.0  0.0151
  C  C71  1  0.106500  0.980700  0.233100  1.0  -0.1576
  C  C72  1  0.079600  0.028500  0.148000  1.0  -0.0792
  C  C73  1  0.136100  0.121000  0.094400  1.0  -0.0916
  C  C74  1  0.242800  0.173900  0.116100  1.0  -0.1324
  C  C75  1  0.274700  0.132900  0.196900  1.0  -0.0581
  C  C76  1  0.896600  0.035600  0.423600  1.0  0.0678
  C  C77  1  0.942600  0.120900  0.341800  1.0  -0.0839
  C  C78  1  0.769100  0.010800  0.334300  1.0  0.2508
  C  C79  1  0.932100  0.007600  0.512300  1.0  0.6852
  C  C80  1  0.048200  0.215600  0.296700  1.0  0.687
  C  C81  1  0.672600  0.961900  0.294400  1.0  0.0153
  C  C82  1  0.625800  0.019300  0.213800  1.0  -0.1577
  C  C83  1  0.551100  0.971500  0.176500  1.0  -0.0795
  C  C84  1  0.515100  0.879000  0.215400  1.0  -0.0917
  C  C85  1  0.568900  0.826100  0.290000  1.0  -0.1342
  C  C86  1  0.641800  0.867100  0.329800  1.0  -0.0559
  C  C87  1  0.861000  0.540800  0.035600  1.0  0.0629
  C  C88  1  0.821700  0.537300  0.120900  1.0  -0.0853
  C  C89  1  0.758300  0.654900  0.010800  1.0  0.2489
  C  C90  1  0.924500  0.480100  0.007600  1.0  0.6805
  C  C91  1  0.832600  0.487700  0.215600  1.0  0.6874
  C  C92  1  0.710700  0.743700  0.961900  1.0  0.0149
  C  C93  1  0.606500  0.766900  0.019300  1.0  -0.155
  C  C94  1  0.579600  0.852000  0.971500  1.0  -0.0774
  C  C95  1  0.636100  0.905600  0.879000  1.0  -0.0916
  C  C96  1  0.742800  0.883900  0.826100  1.0  -0.1333
  C  C97  1  0.774700  0.803100  0.867100  1.0  -0.0564
  C  C98  1  0.320200  0.423600  0.540800  1.0  0.0658
  C  C99  1  0.284400  0.341800  0.537300  1.0  -0.0819
  C  C100  1  0.103400  0.334300  0.654900  1.0  0.2505
  C  C101  1  0.444400  0.512300  0.480100  1.0  0.6795
  C  C102  1  0.344900  0.296700  0.487700  1.0  0.6951
  C  C103  1  0.967000  0.294400  0.743700  1.0  0.0149
  C  C104  1  0.839600  0.213800  0.766900  1.0  -0.1575
  C  C105  1  0.727600  0.176500  0.852000  1.0  -0.0784
  C  C106  1  0.730500  0.215400  0.905600  1.0  -0.0925
  C  C107  1  0.858900  0.290000  0.883900  1.0  -0.1283
  C  C108  1  0.971600  0.329800  0.803100  1.0  -0.0554
  N  N109  1  0.708100  0.388300  0.579600  1.0  -0.4601
  N  N110  1  0.643700  0.389400  0.712100  1.0  -0.2096
  N  N111  1  0.287700  0.579600  0.032100  1.0  -0.4618
  N  N112  1  0.355800  0.712100  0.898500  1.0  -0.2088
  N  N113  1  0.319800  0.032100  0.388300  1.0  -0.4625
  N  N114  1  0.254300  0.898500  0.389400  1.0  -0.2113
  N  N115  1  0.787700  0.967900  0.420400  1.0  -0.4594
  N  N116  1  0.855800  0.101500  0.287900  1.0  -0.2106
  N  N117  1  0.819800  0.611700  0.967900  1.0  -0.4593
  N  N118  1  0.754300  0.610600  0.101500  1.0  -0.2091
  N  N119  1  0.208100  0.420400  0.611700  1.0  -0.4625
  N  N120  1  0.143700  0.287900  0.610600  1.0  -0.2093
  O  O121  1  0.929760  0.519020  0.417940  1.0  -0.5706
  O  O122  1  0.071420  0.575940  0.482780  1.0  -0.6381
  O  O123  1  0.000630  0.560600  0.667510  1.0  -0.6716
  O  O124  1  0.759610  0.507650  0.770920  1.0  -0.5918
  O  O125  1  0.347700  0.417940  0.063040  1.0  -0.5707
  O  O126  1  0.554200  0.482780  0.941280  1.0  -0.6377
  O  O127  1  0.668140  0.667510  0.771890  1.0  -0.6641
  O  O128  1  0.530530  0.770920  0.721430  1.0  -0.5938
  O  O129  1  0.410740  0.063040  0.519020  1.0  -0.5688
  O  O130  1  0.495480  0.941280  0.575940  1.0  -0.6419
  O  O131  1  0.440030  0.771890  0.560600  1.0  -0.6676
  O  O132  1  0.251960  0.721430  0.507650  1.0  -0.594
  O  O133  1  0.847700  0.936960  0.582060  1.0  -0.5689
  O  O134  1  0.054200  0.058720  0.517220  1.0  -0.6415
  O  O135  1  0.168140  0.228110  0.332490  1.0  -0.6704
  O  O136  1  0.030530  0.278570  0.229080  1.0  -0.5938
  O  O137  1  0.910740  0.480980  0.936960  1.0  -0.5707
  O  O138  1  0.995480  0.424060  0.058720  1.0  -0.6395
  O  O139  1  0.940030  0.439400  0.228110  1.0  -0.6696
  O  O140  1  0.751960  0.492350  0.278570  1.0  -0.5919
  O  O141  1  0.429760  0.582060  0.480980  1.0  -0.5703
  O  O142  1  0.571420  0.517220  0.424060  1.0  -0.6376
  O  O143  1  0.500630  0.332490  0.439400  1.0  -0.6638
  O  O144  1  0.259610  0.229080  0.492350  1.0  -0.5945
