# generated using pymatgen
data_ZnH9C18N3O8
_symmetry_space_group_name_H-M   'P 1'
_cell_length_a   8.00980000
_cell_length_b   13.81300000
_cell_length_c   22.12600000
_cell_angle_alpha   90.00000000
_cell_angle_beta   98.25000000
_cell_angle_gamma   90.00000000
_symmetry_Int_Tables_number   1
_chemical_formula_structural   ZnH9C18N3O8
_chemical_formula_sum   'Zn4 H36 C72 N12 O32'
_cell_volume   2422.67316928
_cell_formula_units_Z   4
loop_
 _symmetry_equiv_pos_site_id
 _symmetry_equiv_pos_as_xyz
  1  'x, y, z'
loop_
 _atom_site_type_symbol
 _atom_site_label
 _atom_site_symmetry_multiplicity
 _atom_site_fract_x
 _atom_site_fract_y
 _atom_site_fract_z
 _atom_site_occupancy
 _atom_site_charge
  Zn  Zn1  1  0.190510  0.020990  0.150180  1.0  1.0363
  Zn  Zn2  1  0.809490  0.520990  0.349820  1.0  1.0345
  Zn  Zn3  1  0.809490  0.979010  0.849820  1.0  1.0339
  Zn  Zn4  1  0.190510  0.479010  0.650180  1.0  1.0359
  H  H5  1  0.070400  0.813100  0.150900  1.0  0.395
  H  H6  1  0.477000  0.112100  0.044900  1.0  0.3748
  H  H7  1  0.642500  0.376400  0.956300  1.0  0.3474
  H  H8  1  0.098700  0.896800  0.965400  1.0  0.0995
  H  H9  1  0.912500  0.648800  0.889400  1.0  0.1178
  H  H10  1  0.924400  0.692900  0.069500  1.0  0.1022
  H  H11  1  0.542700  0.283100  0.030900  1.0  0.1075
  H  H12  1  0.472300  0.270400  0.206300  1.0  0.1054
  H  H13  1  0.730400  0.492700  0.148300  1.0  0.1031
  H  H14  1  0.929600  0.313100  0.349100  1.0  0.3941
  H  H15  1  0.523000  0.612100  0.455100  1.0  0.3774
  H  H16  1  0.357500  0.876400  0.543700  1.0  0.3475
  H  H17  1  0.901300  0.396800  0.534600  1.0  0.0997
  H  H18  1  0.087500  0.148800  0.610600  1.0  0.1176
  H  H19  1  0.075600  0.192900  0.430500  1.0  0.1018
  H  H20  1  0.457300  0.783100  0.469100  1.0  0.1063
  H  H21  1  0.527700  0.770400  0.293700  1.0  0.1052
  H  H22  1  0.269600  0.992700  0.351700  1.0  0.1035
  H  H23  1  0.929600  0.186900  0.849100  1.0  0.3937
  H  H24  1  0.523000  0.887900  0.955100  1.0  0.3777
  H  H25  1  0.357500  0.623600  0.043700  1.0  0.3467
  H  H26  1  0.901300  0.103200  0.034600  1.0  0.0988
  H  H27  1  0.087500  0.351200  0.110600  1.0  0.1174
  H  H28  1  0.075600  0.307100  0.930500  1.0  0.102
  H  H29  1  0.457300  0.716900  0.969100  1.0  0.1066
  H  H30  1  0.527700  0.729600  0.793700  1.0  0.1048
  H  H31  1  0.269600  0.507300  0.851700  1.0  0.103
  H  H32  1  0.070400  0.686900  0.650900  1.0  0.3944
  H  H33  1  0.477000  0.387900  0.544900  1.0  0.3734
  H  H34  1  0.642500  0.123600  0.456300  1.0  0.3484
  H  H35  1  0.098700  0.603200  0.465400  1.0  0.099
  H  H36  1  0.912500  0.851200  0.389400  1.0  0.1177
  H  H37  1  0.924400  0.807100  0.569500  1.0  0.1022
  H  H38  1  0.542700  0.216900  0.530900  1.0  0.1071
  H  H39  1  0.472300  0.229600  0.706300  1.0  0.1051
  H  H40  1  0.730400  0.007300  0.648300  1.0  0.1032
  C  C41  1  0.068700  0.867300  0.082700  1.0  0.6992
  C  C42  1  0.021900  0.804500  0.026200  1.0  -0.0727
  C  C43  1  0.050200  0.836400  0.969400  1.0  -0.0111
  C  C44  1  0.006500  0.778600  0.918000  1.0  -0.1354
  C  C45  1  0.937000  0.688400  0.923500  1.0  -0.0004
  C  C46  1  0.903300  0.656500  0.980500  1.0  -0.1328
  C  C47  1  0.946100  0.714300  0.031500  1.0  -0.0187
  C  C48  1  0.032300  0.816100  0.855400  1.0  0.7199
  C  C49  1  0.817400  0.563000  0.985700  1.0  0.2795
  C  C50  1  0.700700  0.451100  0.030800  1.0  0.3045
  C  C51  1  0.641300  0.399800  0.080700  1.0  -0.0111
  C  C52  1  0.556300  0.309700  0.069900  1.0  -0.0866
  C  C53  1  0.493700  0.261100  0.116500  1.0  -0.1044
  C  C54  1  0.518000  0.301300  0.175100  1.0  0.0124
  C  C55  1  0.609000  0.386500  0.187900  1.0  -0.1596
  C  C56  1  0.669900  0.435500  0.140200  1.0  -0.0074
  C  C57  1  0.648600  0.422100  0.252000  1.0  0.6829
  C  C58  1  0.404600  0.167200  0.105100  1.0  0.6856
  C  C59  1  0.931300  0.367300  0.417300  1.0  0.6998
  C  C60  1  0.978100  0.304500  0.473800  1.0  -0.0704
  C  C61  1  0.949800  0.336400  0.530600  1.0  -0.01
  C  C62  1  0.993500  0.278600  0.582000  1.0  -0.1363
  C  C63  1  0.063000  0.188400  0.576500  1.0  -1e-04
  C  C64  1  0.096700  0.156500  0.519500  1.0  -0.1328
  C  C65  1  0.053900  0.214300  0.468500  1.0  -0.0195
  C  C66  1  0.967700  0.316100  0.644600  1.0  0.717
  C  C67  1  0.182600  0.063000  0.514300  1.0  0.2797
  C  C68  1  0.299300  0.951100  0.469200  1.0  0.3044
  C  C69  1  0.358700  0.899800  0.419300  1.0  -0.011
  C  C70  1  0.443700  0.809700  0.430100  1.0  -0.0858
  C  C71  1  0.506300  0.761100  0.383500  1.0  -0.1049
  C  C72  1  0.482000  0.801300  0.324900  1.0  0.0139
  C  C73  1  0.391000  0.886500  0.312100  1.0  -0.1555
  C  C74  1  0.330100  0.935500  0.359800  1.0  -0.0079
  C  C75  1  0.351400  0.922100  0.248000  1.0  0.6846
  C  C76  1  0.595400  0.667200  0.394900  1.0  0.686
  C  C77  1  0.931300  0.132700  0.917300  1.0  0.6996
  C  C78  1  0.978100  0.195500  0.973800  1.0  -0.0714
  C  C79  1  0.949800  0.163600  0.030600  1.0  -0.0097
  C  C80  1  0.993500  0.221400  0.082000  1.0  -0.1363
  C  C81  1  0.063000  0.311600  0.076500  1.0  0.0004
  C  C82  1  0.096700  0.343500  0.019500  1.0  -0.1329
  C  C83  1  0.053900  0.285700  0.968500  1.0  -0.0189
  C  C84  1  0.967700  0.183900  0.144600  1.0  0.7175
  C  C85  1  0.182600  0.437000  0.014300  1.0  0.2794
  C  C86  1  0.299300  0.548900  0.969200  1.0  0.3045
  C  C87  1  0.358700  0.600200  0.919300  1.0  -0.0112
  C  C88  1  0.443700  0.690300  0.930100  1.0  -0.0859
  C  C89  1  0.506300  0.738900  0.883500  1.0  -0.1053
  C  C90  1  0.482000  0.698700  0.824900  1.0  0.0133
  C  C91  1  0.391000  0.613500  0.812100  1.0  -0.1565
  C  C92  1  0.330100  0.564500  0.859800  1.0  -0.0079
  C  C93  1  0.351400  0.577900  0.748000  1.0  0.6846
  C  C94  1  0.595400  0.832800  0.894900  1.0  0.6856
  C  C95  1  0.068700  0.632700  0.582700  1.0  0.699
  C  C96  1  0.021900  0.695500  0.526200  1.0  -0.0722
  C  C97  1  0.050200  0.663600  0.469400  1.0  -0.0103
  C  C98  1  0.006500  0.721400  0.418000  1.0  -0.1359
  C  C99  1  0.937000  0.811600  0.423500  1.0  -0.0
  C  C100  1  0.903300  0.843500  0.480500  1.0  -0.1329
  C  C101  1  0.946100  0.785700  0.531500  1.0  -0.0186
  C  C102  1  0.032300  0.683900  0.355400  1.0  0.7198
  C  C103  1  0.817400  0.937000  0.485700  1.0  0.2796
  C  C104  1  0.700700  0.048900  0.530800  1.0  0.3047
  C  C105  1  0.641300  0.100200  0.580700  1.0  -0.0112
  C  C106  1  0.556300  0.190300  0.569900  1.0  -0.0866
  C  C107  1  0.493700  0.238900  0.616500  1.0  -0.1045
  C  C108  1  0.518000  0.198700  0.675100  1.0  0.0116
  C  C109  1  0.609000  0.113500  0.687900  1.0  -0.1589
  C  C110  1  0.669900  0.064500  0.640200  1.0  -0.0077
  C  C111  1  0.648600  0.077900  0.752000  1.0  0.6832
  C  C112  1  0.404600  0.332800  0.605100  1.0  0.6849
  N  N113  1  0.781000  0.537100  0.041580  1.0  -0.5259
  N  N114  1  0.689400  0.427600  0.973100  1.0  -0.1252
  N  N115  1  0.766600  0.500100  0.944100  1.0  -0.308
  N  N116  1  0.219000  0.037100  0.458420  1.0  -0.5212
  N  N117  1  0.310600  0.927600  0.526900  1.0  -0.1262
  N  N118  1  0.233400  0.000100  0.555900  1.0  -0.3077
  N  N119  1  0.219000  0.462900  0.958420  1.0  -0.5226
  N  N120  1  0.310600  0.572400  0.026900  1.0  -0.1263
  N  N121  1  0.233400  0.499900  0.055900  1.0  -0.3081
  N  N122  1  0.781000  0.962900  0.541580  1.0  -0.5234
  N  N123  1  0.689400  0.072400  0.473100  1.0  -0.1262
  N  N124  1  0.766600  0.999900  0.444100  1.0  -0.3082
  O  O125  1  0.163500  0.938600  0.077690  1.0  -0.588
  O  O126  1  0.006600  0.848600  0.128700  1.0  -0.547
  O  O127  1  0.029000  0.907700  0.847590  1.0  -0.6041
  O  O128  1  0.059900  0.757100  0.816400  1.0  -0.5114
  O  O129  1  0.767600  0.483900  0.262900  1.0  -0.5909
  O  O130  1  0.569100  0.391100  0.291400  1.0  -0.4967
  O  O131  1  0.349700  0.128500  0.150620  1.0  -0.6095
  O  O132  1  0.385700  0.131200  0.052800  1.0  -0.5314
  O  O133  1  0.836500  0.438600  0.422310  1.0  -0.5896
  O  O134  1  0.993400  0.348600  0.371300  1.0  -0.5438
  O  O135  1  0.971000  0.407700  0.652410  1.0  -0.6037
  O  O136  1  0.940100  0.257100  0.683600  1.0  -0.512
  O  O137  1  0.232400  0.983900  0.237100  1.0  -0.5887
  O  O138  1  0.430900  0.891100  0.208600  1.0  -0.4971
  O  O139  1  0.650300  0.628500  0.349380  1.0  -0.6085
  O  O140  1  0.614300  0.631200  0.447200  1.0  -0.5297
  O  O141  1  0.836500  0.061400  0.922310  1.0  -0.5892
  O  O142  1  0.993400  0.151400  0.871300  1.0  -0.5438
  O  O143  1  0.971000  0.092300  0.152410  1.0  -0.6046
  O  O144  1  0.940100  0.242900  0.183600  1.0  -0.5123
  O  O145  1  0.232400  0.516100  0.737100  1.0  -0.5888
  O  O146  1  0.430900  0.608900  0.708600  1.0  -0.4967
  O  O147  1  0.650300  0.871500  0.849380  1.0  -0.6104
  O  O148  1  0.614300  0.868800  0.947200  1.0  -0.5316
  O  O149  1  0.163500  0.561400  0.577690  1.0  -0.5879
  O  O150  1  0.006600  0.651400  0.628700  1.0  -0.5459
  O  O151  1  0.029000  0.592300  0.347590  1.0  -0.6043
  O  O152  1  0.059900  0.742900  0.316400  1.0  -0.5101
  O  O153  1  0.767600  0.016100  0.762900  1.0  -0.5905
  O  O154  1  0.569100  0.108900  0.791400  1.0  -0.4967
  O  O155  1  0.349700  0.371500  0.650620  1.0  -0.6101
  O  O156  1  0.385700  0.368800  0.552800  1.0  -0.5317
