# generated using pymatgen
data_Li7H18C24O17
_symmetry_space_group_name_H-M   'P 1'
_cell_length_a   9.47780000
_cell_length_b   9.95380000
_cell_length_c   17.69200000
_cell_angle_alpha   90.00000000
_cell_angle_beta   90.00000000
_cell_angle_gamma   104.41900000
_symmetry_Int_Tables_number   1
_chemical_formula_structural   Li7H18C24O17
_chemical_formula_sum   'Li14 H36 C48 O34'
_cell_volume   1616.49100632
_cell_formula_units_Z   2
loop_
 _symmetry_equiv_pos_site_id
 _symmetry_equiv_pos_as_xyz
  1  'x, y, z'
loop_
 _atom_site_type_symbol
 _atom_site_label
 _atom_site_symmetry_multiplicity
 _atom_site_fract_x
 _atom_site_fract_y
 _atom_site_fract_z
 _atom_site_occupancy
 _atom_site_charge
  Li  Li1  1  0.780300  0.949100  0.740900  1.0  0.9461
  Li  Li2  1  0.870800  0.807000  0.861900  1.0  0.9263
  Li  Li3  1  0.972900  0.553600  0.592700  1.0  0.8996
  Li  Li4  1  0.972800  0.047800  0.519800  1.0  0.9028
  Li  Li5  1  0.137800  0.344200  0.540700  1.0  0.8943
  Li  Li6  1  0.133200  0.829300  0.516800  1.0  0.9
  Li  Li7  1  0.134700  0.703800  0.757500  1.0  0.9145
  Li  Li8  1  0.219700  0.050900  0.240900  1.0  0.9458
  Li  Li9  1  0.129200  0.193000  0.361900  1.0  0.9263
  Li  Li10  1  0.027100  0.446400  0.092700  1.0  0.8998
  Li  Li11  1  0.027200  0.952200  0.019800  1.0  0.9019
  Li  Li12  1  0.862200  0.655800  0.040700  1.0  0.8939
  Li  Li13  1  0.866800  0.170700  0.016800  1.0  0.9003
  Li  Li14  1  0.865300  0.296200  0.257500  1.0  0.9145
  H  H15  1  0.829600  0.555600  0.911100  1.0  0.4863
  H  H16  1  0.746200  0.652800  0.919600  1.0  0.3888
  H  H17  1  0.701600  0.504000  0.661300  1.0  0.1137
  H  H18  1  0.675300  0.582200  0.550500  1.0  0.1088
  H  H19  1  0.550400  0.766600  0.532800  1.0  0.0813
  H  H20  1  0.427000  0.528800  0.548500  1.0  0.0922
  H  H21  1  0.459200  0.430200  0.652500  1.0  0.1038
  H  H22  1  0.564600  0.571200  0.762500  1.0  0.0807
  H  H23  1  0.546500  0.803000  0.758700  1.0  0.1044
  H  H24  1  0.549900  0.906900  0.640200  1.0  0.096
  H  H25  1  0.543500  0.074400  0.957500  1.0  0.1076
  H  H26  1  0.568300  0.983700  0.065600  1.0  0.1128
  H  H27  1  0.446800  0.745100  0.085400  1.0  0.0803
  H  H28  1  0.316200  0.920500  0.065400  1.0  0.0974
  H  H29  1  0.305100  0.005400  0.954300  1.0  0.1115
  H  H30  1  0.433000  0.926600  0.852000  1.0  0.0787
  H  H31  1  0.445600  0.693300  0.860200  1.0  0.1062
  H  H32  1  0.451000  0.599200  0.981000  1.0  0.0997
  H  H33  1  0.170400  0.444400  0.411100  1.0  0.483
  H  H34  1  0.253800  0.347200  0.419600  1.0  0.3886
  H  H35  1  0.298400  0.496000  0.161300  1.0  0.1142
  H  H36  1  0.324700  0.417800  0.050500  1.0  0.1075
  H  H37  1  0.449600  0.233400  0.032800  1.0  0.0813
  H  H38  1  0.573000  0.471200  0.048500  1.0  0.092
  H  H39  1  0.540800  0.569800  0.152500  1.0  0.1038
  H  H40  1  0.435400  0.428800  0.262500  1.0  0.0794
  H  H41  1  0.453500  0.197000  0.258700  1.0  0.1029
  H  H42  1  0.450100  0.093100  0.140200  1.0  0.0975
  H  H43  1  0.456500  0.925600  0.457500  1.0  0.1056
  H  H44  1  0.431700  0.016300  0.565600  1.0  0.1135
  H  H45  1  0.553200  0.254900  0.585400  1.0  0.0802
  H  H46  1  0.683800  0.079500  0.565400  1.0  0.0987
  H  H47  1  0.694900  0.994600  0.454300  1.0  0.1101
  H  H48  1  0.567000  0.073400  0.352000  1.0  0.079
  H  H49  1  0.554400  0.306700  0.360200  1.0  0.1057
  H  H50  1  0.549000  0.400800  0.481000  1.0  0.0992
  C  C51  1  0.702800  0.602200  0.667080  1.0  -0.2253
  C  C52  1  0.691100  0.661100  0.585400  1.0  -0.2023
  C  C53  1  0.553700  0.718800  0.580900  1.0  0.0451
  C  C54  1  0.420100  0.593600  0.589200  1.0  -0.1968
  C  C55  1  0.433900  0.517200  0.665000  1.0  -0.1865
  C  C56  1  0.562500  0.608100  0.711300  1.0  -0.0343
  C  C57  1  0.842700  0.671100  0.709800  1.0  0.776
  C  C58  1  0.829300  0.765200  0.559700  1.0  0.7199
  C  C59  1  0.274800  0.631200  0.578820  1.0  0.7458
  C  C60  1  0.296600  0.481600  0.713900  1.0  0.6916
  C  C61  1  0.552100  0.756200  0.713700  1.0  -0.1999
  C  C62  1  0.551500  0.814500  0.646400  1.0  -0.1397
  C  C63  1  0.566900  0.985500  0.947700  1.0  -0.1999
  C  C64  1  0.576800  0.915700  0.026900  1.0  -0.199
  C  C65  1  0.443600  0.790000  0.036400  1.0  0.0112
  C  C66  1  0.305300  0.843500  0.029600  1.0  -0.1875
  C  C67  1  0.298200  0.906100  0.947900  1.0  -0.1953
  C  C68  1  0.435600  0.893200  0.903900  1.0  0.0057
  C  C69  1  0.708700  0.016900  0.903400  1.0  0.74
  C  C70  1  0.720000  0.877200  0.041000  1.0  0.7491
  C  C71  1  0.167200  0.734400  0.052600  1.0  0.7137
  C  C72  1  0.157700  0.844600  0.904900  1.0  0.7165
  C  C73  1  0.443400  0.743800  0.904300  1.0  -0.1092
  C  C74  1  0.446900  0.690500  0.972900  1.0  -0.0914
  C  C75  1  0.297200  0.397800  0.167080  1.0  -0.2279
  C  C76  1  0.308900  0.338900  0.085400  1.0  -0.2025
  C  C77  1  0.446300  0.281200  0.080900  1.0  0.0435
  C  C78  1  0.579900  0.406400  0.089200  1.0  -0.196
  C  C79  1  0.566100  0.482800  0.165000  1.0  -0.1843
  C  C80  1  0.437500  0.391900  0.211300  1.0  -0.0318
  C  C81  1  0.157300  0.328900  0.209800  1.0  0.7738
  C  C82  1  0.170700  0.234800  0.059700  1.0  0.7293
  C  C83  1  0.725200  0.368800  0.078820  1.0  0.7483
  C  C84  1  0.703400  0.518400  0.213900  1.0  0.6927
  C  C85  1  0.447900  0.243800  0.213700  1.0  -0.1975
  C  C86  1  0.448500  0.185500  0.146400  1.0  -0.1392
  C  C87  1  0.433100  0.014500  0.447700  1.0  -0.1995
  C  C88  1  0.423200  0.084300  0.526900  1.0  -0.2008
  C  C89  1  0.556400  0.210000  0.536400  1.0  0.0117
  C  C90  1  0.694700  0.156500  0.529600  1.0  -0.1903
  C  C91  1  0.701800  0.093900  0.447900  1.0  -0.1958
  C  C92  1  0.564400  0.106800  0.403900  1.0  -0.0046
  C  C93  1  0.291300  0.983100  0.403400  1.0  0.7438
  C  C94  1  0.280000  0.122800  0.541000  1.0  0.7462
  C  C95  1  0.832800  0.265600  0.552600  1.0  0.7209
  C  C96  1  0.842300  0.155400  0.404900  1.0  0.7107
  C  C97  1  0.556600  0.256200  0.404300  1.0  -0.1091
  C  C98  1  0.553100  0.309500  0.472900  1.0  -0.0914
  O  O99  1  0.846100  0.771300  0.752770  1.0  -0.8401
  O  O100  1  0.950500  0.618700  0.699700  1.0  -0.7705
  O  O101  1  0.935000  0.715000  0.537500  1.0  -0.8048
  O  O102  1  0.835100  0.891100  0.559730  1.0  -0.667
  O  O103  1  0.163500  0.529900  0.573760  1.0  -0.8535
  O  O104  1  0.270500  0.755400  0.573670  1.0  -0.6776
  O  O105  1  0.244600  0.575200  0.739340  1.0  -0.6585
  O  O106  1  0.246300  0.355400  0.730600  1.0  -0.4232
  O  O107  1  0.739300  0.926600  0.861660  1.0  -0.8438
  O  O108  1  0.793300  0.139200  0.911100  1.0  -0.6568
  O  O109  1  0.836200  0.975400  0.038300  1.0  -0.8281
  O  O110  1  0.719500  0.754500  0.056320  1.0  -0.6924
  O  O111  1  0.170300  0.611800  0.062640  1.0  -0.6636
  O  O112  1  0.052700  0.779100  0.061520  1.0  -0.8419
  O  O113  1  0.143800  0.735500  0.867140  1.0  -0.6573
  O  O114  1  0.057400  0.909100  0.910260  1.0  -0.7957
  O  O115  1  0.837700  0.637000  0.921500  1.0  -0.9
  O  O116  1  0.153900  0.228700  0.252770  1.0  -0.8383
  O  O117  1  0.049500  0.381300  0.199700  1.0  -0.7692
  O  O118  1  0.065000  0.285000  0.037500  1.0  -0.8045
  O  O119  1  0.164900  0.108900  0.059730  1.0  -0.6821
  O  O120  1  0.836500  0.470100  0.073760  1.0  -0.8507
  O  O121  1  0.729500  0.244600  0.073670  1.0  -0.6807
  O  O122  1  0.755400  0.424800  0.239340  1.0  -0.6549
  O  O123  1  0.753700  0.644600  0.230600  1.0  -0.4229
  O  O124  1  0.260700  0.073400  0.361660  1.0  -0.8464
  O  O125  1  0.206700  0.860800  0.411100  1.0  -0.6583
  O  O126  1  0.163800  0.024600  0.538300  1.0  -0.8285
  O  O127  1  0.280500  0.245500  0.556320  1.0  -0.6912
  O  O128  1  0.829700  0.388200  0.562640  1.0  -0.6609
  O  O129  1  0.947300  0.220900  0.561520  1.0  -0.8409
  O  O130  1  0.856200  0.264500  0.367140  1.0  -0.6551
  O  O131  1  0.942600  0.090900  0.410260  1.0  -0.7965
  O  O132  1  0.162300  0.363000  0.421500  1.0  -0.9006
