# generated using pymatgen
data_Cd3H15C37(NO3)6
_symmetry_space_group_name_H-M   'P 1'
_cell_length_a   18.94400000
_cell_length_b   23.15600000
_cell_length_c   14.41100000
_cell_angle_alpha   90.00000000
_cell_angle_beta   126.63000000
_cell_angle_gamma   90.00000000
_symmetry_Int_Tables_number   1
_chemical_formula_structural   Cd3H15C37(NO3)6
_chemical_formula_sum   'Cd12 H60 C148 N24 O72'
_cell_volume   5073.14400019
_cell_formula_units_Z   4
loop_
 _symmetry_equiv_pos_site_id
 _symmetry_equiv_pos_as_xyz
  1  'x, y, z'
loop_
 _atom_site_type_symbol
 _atom_site_label
 _atom_site_symmetry_multiplicity
 _atom_site_fract_x
 _atom_site_fract_y
 _atom_site_fract_z
 _atom_site_occupancy
 _atom_site_charge
  Cd  Cd1  1  0.442510  0.153140  0.996420  1.0  1.04
  Cd  Cd2  1  0.942510  0.653140  0.996420  1.0  1.04
  Cd  Cd3  1  0.557490  0.153140  0.503580  1.0  1.0411
  Cd  Cd4  1  0.057490  0.653140  0.503580  1.0  1.0411
  Cd  Cd5  1  0.557490  0.846860  0.003580  1.0  1.0427
  Cd  Cd6  1  0.057490  0.346860  0.003580  1.0  1.0427
  Cd  Cd7  1  0.442510  0.846860  0.496420  1.0  1.0423
  Cd  Cd8  1  0.942510  0.346860  0.496420  1.0  1.0423
  Cd  Cd9  1  0.500000  0.000000  0.000000  1.0  1.1571
  Cd  Cd10  1  0.000000  0.500000  0.000000  1.0  1.1571
  Cd  Cd11  1  0.500000  0.000000  0.500000  1.0  1.1561
  Cd  Cd12  1  0.000000  0.500000  0.500000  1.0  1.1561
  H  H13  1  0.047700  0.069300  0.886200  1.0  0.3496
  H  H14  1  0.201000  0.051100  0.936700  1.0  0.146
  H  H15  1  0.190800  0.928500  0.123400  1.0  0.1494
  H  H16  1  0.423900  0.987800  0.221200  1.0  0.1492
  H  H17  1  0.783800  0.967600  0.712900  1.0  0.1453
  H  H18  1  0.720000  0.807700  0.748600  1.0  0.1323
  H  H19  1  0.972300  0.851700  0.919300  1.0  0.1438
  H  H20  1  0.547700  0.569300  0.886200  1.0  0.3496
  H  H21  1  0.701000  0.551100  0.936700  1.0  0.146
  H  H22  1  0.690800  0.428500  0.123400  1.0  0.1494
  H  H23  1  0.923900  0.487800  0.221200  1.0  0.1492
  H  H24  1  0.283800  0.467600  0.712900  1.0  0.1453
  H  H25  1  0.220000  0.307700  0.748600  1.0  0.1323
  H  H26  1  0.472300  0.351700  0.919300  1.0  0.1438
  H  H27  1  0.952300  0.069300  0.613800  1.0  0.3495
  H  H28  1  0.799000  0.051100  0.563300  1.0  0.1454
  H  H29  1  0.809200  0.928500  0.376600  1.0  0.1496
  H  H30  1  0.576100  0.987800  0.278800  1.0  0.149
  H  H31  1  0.216200  0.967600  0.787100  1.0  0.1454
  H  H32  1  0.280000  0.807700  0.751400  1.0  0.1322
  H  H33  1  0.027700  0.851700  0.580700  1.0  0.1447
  H  H34  1  0.452300  0.569300  0.613800  1.0  0.3495
  H  H35  1  0.299000  0.551100  0.563300  1.0  0.1454
  H  H36  1  0.309200  0.428500  0.376600  1.0  0.1496
  H  H37  1  0.076100  0.487800  0.278800  1.0  0.149
  H  H38  1  0.716200  0.467600  0.787100  1.0  0.1454
  H  H39  1  0.780000  0.307700  0.751400  1.0  0.1322
  H  H40  1  0.527700  0.351700  0.580700  1.0  0.1447
  H  H41  1  0.952300  0.930700  0.113800  1.0  0.3512
  H  H42  1  0.799000  0.948900  0.063300  1.0  0.1457
  H  H43  1  0.809200  0.071500  0.876600  1.0  0.1497
  H  H44  1  0.576100  0.012200  0.778800  1.0  0.1491
  H  H45  1  0.216200  0.032400  0.287100  1.0  0.1456
  H  H46  1  0.280000  0.192300  0.251400  1.0  0.1323
  H  H47  1  0.027700  0.148300  0.080700  1.0  0.1442
  H  H48  1  0.452300  0.430700  0.113800  1.0  0.3512
  H  H49  1  0.299000  0.448900  0.063300  1.0  0.1457
  H  H50  1  0.309200  0.571500  0.876600  1.0  0.1497
  H  H51  1  0.076100  0.512200  0.778800  1.0  0.1491
  H  H52  1  0.716200  0.532400  0.287100  1.0  0.1456
  H  H53  1  0.780000  0.692300  0.251400  1.0  0.1323
  H  H54  1  0.527700  0.648300  0.080700  1.0  0.1442
  H  H55  1  0.047700  0.930700  0.386200  1.0  0.3509
  H  H56  1  0.201000  0.948900  0.436700  1.0  0.1456
  H  H57  1  0.190800  0.071500  0.623400  1.0  0.1492
  H  H58  1  0.423900  0.012200  0.721200  1.0  0.1492
  H  H59  1  0.783800  0.032400  0.212900  1.0  0.1454
  H  H60  1  0.720000  0.192300  0.248600  1.0  0.1329
  H  H61  1  0.972300  0.148300  0.419300  1.0  0.144
  H  H62  1  0.547700  0.430700  0.386200  1.0  0.3509
  H  H63  1  0.701000  0.448900  0.436700  1.0  0.1456
  H  H64  1  0.690800  0.571500  0.623400  1.0  0.1492
  H  H65  1  0.923900  0.512200  0.721200  1.0  0.1492
  H  H66  1  0.283800  0.532400  0.212900  1.0  0.1454
  H  H67  1  0.220000  0.692300  0.248600  1.0  0.1329
  H  H68  1  0.472300  0.648300  0.419300  1.0  0.144
  H  H69  1  0.500000  0.135600  0.250000  1.0  0.046
  H  H70  1  0.000000  0.635600  0.250000  1.0  0.046
  H  H71  1  0.500000  0.864400  0.750000  1.0  0.0455
  H  H72  1  0.000000  0.364400  0.750000  1.0  0.0455
  C  C73  1  0.373100  0.062800  0.053000  1.0  0.7253
  C  C74  1  0.319900  0.024500  0.073000  1.0  -0.1114
  C  C75  1  0.229500  0.026400  0.000000  1.0  -0.0892
  C  C76  1  0.180800  0.991200  0.020600  1.0  0.01
  C  C77  1  0.223100  0.953000  0.110800  1.0  -0.0308
  C  C78  1  0.313900  0.950900  0.183100  1.0  -0.0823
  C  C79  1  0.362900  0.987500  0.168500  1.0  -0.0099
  C  C80  1  0.358500  0.910000  0.286500  1.0  0.7375
  C  C81  1  0.084900  0.993400  0.942900  1.0  0.4474
  C  C82  1  0.955500  0.960300  0.856900  1.0  0.3488
  C  C83  1  0.889200  0.916000  0.824600  1.0  -0.1079
  C  C84  1  0.800500  0.930900  0.745800  1.0  -0.0576
  C  C85  1  0.737800  0.889200  0.718500  1.0  -0.1114
  C  C86  1  0.762900  0.834800  0.767700  1.0  0.0447
  C  C87  1  0.850400  0.820100  0.844600  1.0  -0.1019
  C  C88  1  0.913000  0.861300  0.870200  1.0  0.0273
  C  C89  1  0.641600  0.903300  0.632100  1.0  0.7414
  C  C90  1  0.876800  0.761200  0.896600  1.0  0.7549
  C  C91  1  0.873100  0.562800  0.053000  1.0  0.7253
  C  C92  1  0.819900  0.524500  0.073000  1.0  -0.1114
  C  C93  1  0.729500  0.526400  0.000000  1.0  -0.0892
  C  C94  1  0.680800  0.491200  0.020600  1.0  0.01
  C  C95  1  0.723100  0.453000  0.110800  1.0  -0.0308
  C  C96  1  0.813900  0.450900  0.183100  1.0  -0.0823
  C  C97  1  0.862900  0.487500  0.168500  1.0  -0.0099
  C  C98  1  0.858500  0.410000  0.286500  1.0  0.7375
  C  C99  1  0.584900  0.493400  0.942900  1.0  0.4474
  C  C100  1  0.455500  0.460300  0.856900  1.0  0.3488
  C  C101  1  0.389200  0.416000  0.824600  1.0  -0.1079
  C  C102  1  0.300500  0.430900  0.745800  1.0  -0.0576
  C  C103  1  0.237800  0.389200  0.718500  1.0  -0.1114
  C  C104  1  0.262900  0.334800  0.767700  1.0  0.0447
  C  C105  1  0.350400  0.320100  0.844600  1.0  -0.1019
  C  C106  1  0.413000  0.361300  0.870200  1.0  0.0273
  C  C107  1  0.141600  0.403300  0.632100  1.0  0.7414
  C  C108  1  0.376800  0.261200  0.896600  1.0  0.7549
  C  C109  1  0.626900  0.062800  0.447000  1.0  0.7252
  C  C110  1  0.680100  0.024500  0.427000  1.0  -0.1106
  C  C111  1  0.770500  0.026400  0.500000  1.0  -0.088
  C  C112  1  0.819200  0.991200  0.479400  1.0  0.0098
  C  C113  1  0.776900  0.953000  0.389200  1.0  -0.0318
  C  C114  1  0.686100  0.950900  0.316900  1.0  -0.0815
  C  C115  1  0.637100  0.987500  0.331500  1.0  -0.0096
  C  C116  1  0.641500  0.910000  0.213500  1.0  0.7372
  C  C117  1  0.915100  0.993400  0.557100  1.0  0.4465
  C  C118  1  0.044500  0.960300  0.643100  1.0  0.3499
  C  C119  1  0.110800  0.916000  0.675400  1.0  -0.1095
  C  C120  1  0.199500  0.930900  0.754200  1.0  -0.0556
  C  C121  1  0.262200  0.889200  0.781500  1.0  -0.1108
  C  C122  1  0.237100  0.834800  0.732300  1.0  0.0438
  C  C123  1  0.149600  0.820100  0.655400  1.0  -0.1016
  C  C124  1  0.087000  0.861300  0.629800  1.0  0.0262
  C  C125  1  0.358400  0.903300  0.867900  1.0  0.7406
  C  C126  1  0.123200  0.761200  0.603400  1.0  0.7546
  C  C127  1  0.126900  0.562800  0.447000  1.0  0.7252
  C  C128  1  0.180100  0.524500  0.427000  1.0  -0.1106
  C  C129  1  0.270500  0.526400  0.500000  1.0  -0.088
  C  C130  1  0.319200  0.491200  0.479400  1.0  0.0098
  C  C131  1  0.276900  0.453000  0.389200  1.0  -0.0318
  C  C132  1  0.186100  0.450900  0.316900  1.0  -0.0815
  C  C133  1  0.137100  0.487500  0.331500  1.0  -0.0096
  C  C134  1  0.141500  0.410000  0.213500  1.0  0.7372
  C  C135  1  0.415100  0.493400  0.557100  1.0  0.4465
  C  C136  1  0.544500  0.460300  0.643100  1.0  0.3499
  C  C137  1  0.610800  0.416000  0.675400  1.0  -0.1095
  C  C138  1  0.699500  0.430900  0.754200  1.0  -0.0556
  C  C139  1  0.762200  0.389200  0.781500  1.0  -0.1108
  C  C140  1  0.737100  0.334800  0.732300  1.0  0.0438
  C  C141  1  0.649600  0.320100  0.655400  1.0  -0.1016
  C  C142  1  0.587000  0.361300  0.629800  1.0  0.0262
  C  C143  1  0.858400  0.403300  0.867900  1.0  0.7406
  C  C144  1  0.623200  0.261200  0.603400  1.0  0.7546
  C  C145  1  0.626900  0.937200  0.947000  1.0  0.7258
  C  C146  1  0.680100  0.975500  0.927000  1.0  -0.1106
  C  C147  1  0.770500  0.973600  0.000000  1.0  -0.0881
  C  C148  1  0.819200  0.008800  0.979400  1.0  0.0097
  C  C149  1  0.776900  0.047000  0.889200  1.0  -0.0311
  C  C150  1  0.686100  0.049100  0.816900  1.0  -0.0829
  C  C151  1  0.637100  0.012500  0.831500  1.0  -0.0093
  C  C152  1  0.641500  0.090000  0.713500  1.0  0.7388
  C  C153  1  0.915100  0.006600  0.057100  1.0  0.4462
  C  C154  1  0.044500  0.039700  0.143100  1.0  0.3496
  C  C155  1  0.110800  0.084000  0.175400  1.0  -0.1089
  C  C156  1  0.199500  0.069100  0.254200  1.0  -0.0563
  C  C157  1  0.262200  0.110800  0.281500  1.0  -0.11
  C  C158  1  0.237100  0.165200  0.232300  1.0  0.0443
  C  C159  1  0.149600  0.179900  0.155400  1.0  -0.102
  C  C160  1  0.087000  0.138700  0.129800  1.0  0.0258
  C  C161  1  0.358400  0.096700  0.367900  1.0  0.7403
  C  C162  1  0.123200  0.238800  0.103400  1.0  0.7537
  C  C163  1  0.126900  0.437200  0.947000  1.0  0.7258
  C  C164  1  0.180100  0.475500  0.927000  1.0  -0.1106
  C  C165  1  0.270500  0.473600  0.000000  1.0  -0.0881
  C  C166  1  0.319200  0.508800  0.979400  1.0  0.0097
  C  C167  1  0.276900  0.547000  0.889200  1.0  -0.0311
  C  C168  1  0.186100  0.549100  0.816900  1.0  -0.0829
  C  C169  1  0.137100  0.512500  0.831500  1.0  -0.0093
  C  C170  1  0.141500  0.590000  0.713500  1.0  0.7388
  C  C171  1  0.415100  0.506600  0.057100  1.0  0.4462
  C  C172  1  0.544500  0.539700  0.143100  1.0  0.3496
  C  C173  1  0.610800  0.584000  0.175400  1.0  -0.1089
  C  C174  1  0.699500  0.569100  0.254200  1.0  -0.0563
  C  C175  1  0.762200  0.610800  0.281500  1.0  -0.11
  C  C176  1  0.737100  0.665200  0.232300  1.0  0.0443
  C  C177  1  0.649600  0.679900  0.155400  1.0  -0.102
  C  C178  1  0.587000  0.638700  0.129800  1.0  0.0258
  C  C179  1  0.858400  0.596700  0.367900  1.0  0.7403
  C  C180  1  0.623200  0.738800  0.103400  1.0  0.7537
  C  C181  1  0.373100  0.937200  0.553000  1.0  0.7254
  C  C182  1  0.319900  0.975500  0.573000  1.0  -0.1112
  C  C183  1  0.229500  0.973600  0.500000  1.0  -0.0898
  C  C184  1  0.180800  0.008800  0.520600  1.0  0.01
  C  C185  1  0.223100  0.047000  0.610800  1.0  -0.0313
  C  C186  1  0.313900  0.049100  0.683100  1.0  -0.0835
  C  C187  1  0.362900  0.012500  0.668500  1.0  -0.0097
  C  C188  1  0.358500  0.090000  0.786500  1.0  0.7386
  C  C189  1  0.084900  0.006600  0.442900  1.0  0.447
  C  C190  1  0.955500  0.039700  0.356900  1.0  0.3491
  C  C191  1  0.889200  0.084000  0.324600  1.0  -0.1085
  C  C192  1  0.800500  0.069100  0.245800  1.0  -0.057
  C  C193  1  0.737800  0.110800  0.218500  1.0  -0.1105
  C  C194  1  0.762900  0.165200  0.267700  1.0  0.0438
  C  C195  1  0.850400  0.179900  0.344600  1.0  -0.1024
  C  C196  1  0.913000  0.138700  0.370200  1.0  0.0267
  C  C197  1  0.641600  0.096700  0.132100  1.0  0.7416
  C  C198  1  0.876800  0.238800  0.396600  1.0  0.754
  C  C199  1  0.873100  0.437200  0.553000  1.0  0.7254
  C  C200  1  0.819900  0.475500  0.573000  1.0  -0.1112
  C  C201  1  0.729500  0.473600  0.500000  1.0  -0.0898
  C  C202  1  0.680800  0.508800  0.520600  1.0  0.01
  C  C203  1  0.723100  0.547000  0.610800  1.0  -0.0313
  C  C204  1  0.813900  0.549100  0.683100  1.0  -0.0835
  C  C205  1  0.862900  0.512500  0.668500  1.0  -0.0097
  C  C206  1  0.858500  0.590000  0.786500  1.0  0.7386
  C  C207  1  0.584900  0.506600  0.442900  1.0  0.447
  C  C208  1  0.455500  0.539700  0.356900  1.0  0.3491
  C  C209  1  0.389200  0.584000  0.324600  1.0  -0.1085
  C  C210  1  0.300500  0.569100  0.245800  1.0  -0.057
  C  C211  1  0.237800  0.610800  0.218500  1.0  -0.1105
  C  C212  1  0.262900  0.665200  0.267700  1.0  0.0438
  C  C213  1  0.350400  0.679900  0.344600  1.0  -0.1024
  C  C214  1  0.413000  0.638700  0.370200  1.0  0.0267
  C  C215  1  0.141600  0.596700  0.132100  1.0  0.7416
  C  C216  1  0.376800  0.738800  0.396600  1.0  0.754
  C  C217  1  0.500000  0.175800  0.250000  1.0  0.7435
  C  C218  1  0.000000  0.675800  0.250000  1.0  0.7435
  C  C219  1  0.500000  0.824200  0.750000  1.0  0.7437
  C  C220  1  0.000000  0.324200  0.750000  1.0  0.7437
  N  N221  1  0.041100  0.943200  0.928000  1.0  -0.4622
  N  N222  1  0.033000  0.034400  0.888000  1.0  -0.1245
  N  N223  1  0.946800  0.013700  0.829900  1.0  -0.3002
  N  N224  1  0.541100  0.443200  0.928000  1.0  -0.4622
  N  N225  1  0.533000  0.534400  0.888000  1.0  -0.1245
  N  N226  1  0.446800  0.513700  0.829900  1.0  -0.3002
  N  N227  1  0.958900  0.943200  0.572000  1.0  -0.4628
  N  N228  1  0.967000  0.034400  0.612000  1.0  -0.1244
  N  N229  1  0.053200  0.013700  0.670100  1.0  -0.3019
  N  N230  1  0.458900  0.443200  0.572000  1.0  -0.4628
  N  N231  1  0.467000  0.534400  0.612000  1.0  -0.1244
  N  N232  1  0.553200  0.513700  0.670100  1.0  -0.3019
  N  N233  1  0.958900  0.056800  0.072000  1.0  -0.4645
  N  N234  1  0.967000  0.965600  0.112000  1.0  -0.1253
  N  N235  1  0.053200  0.986300  0.170100  1.0  -0.3026
  N  N236  1  0.458900  0.556800  0.072000  1.0  -0.4645
  N  N237  1  0.467000  0.465600  0.112000  1.0  -0.1253
  N  N238  1  0.553200  0.486300  0.170100  1.0  -0.3026
  N  N239  1  0.041100  0.056800  0.428000  1.0  -0.4645
  N  N240  1  0.033000  0.965600  0.388000  1.0  -0.1259
  N  N241  1  0.946800  0.986300  0.329900  1.0  -0.3022
  N  N242  1  0.541100  0.556800  0.428000  1.0  -0.4645
  N  N243  1  0.533000  0.465600  0.388000  1.0  -0.1259
  N  N244  1  0.446800  0.486300  0.329900  1.0  -0.3022
  O  O245  1  0.336900  0.106610  0.992900  1.0  -0.5674
  O  O246  1  0.449010  0.049810  0.092200  1.0  -0.6421
  O  O247  1  0.435930  0.920680  0.373400  1.0  -0.6932
  O  O248  1  0.319700  0.865500  0.278700  1.0  -0.6376
  O  O249  1  0.623950  0.954300  0.599800  1.0  -0.5659
  O  O250  1  0.588800  0.862460  0.601500  1.0  -0.6518
  O  O251  1  0.826200  0.734610  0.908100  1.0  -0.573
  O  O252  1  0.951200  0.742430  0.933800  1.0  -0.5763
  O  O253  1  0.482300  0.200200  0.161000  1.0  -0.5698
  O  O254  1  0.836900  0.606610  0.992900  1.0  -0.5674
  O  O255  1  0.949010  0.549810  0.092200  1.0  -0.6421
  O  O256  1  0.935930  0.420680  0.373400  1.0  -0.6932
  O  O257  1  0.819700  0.365500  0.278700  1.0  -0.6376
  O  O258  1  0.123950  0.454300  0.599800  1.0  -0.5659
  O  O259  1  0.088800  0.362460  0.601500  1.0  -0.6518
  O  O260  1  0.326200  0.234610  0.908100  1.0  -0.573
  O  O261  1  0.451200  0.242430  0.933800  1.0  -0.5758
  O  O262  1  0.982300  0.700200  0.161000  1.0  -0.5694
  O  O263  1  0.663100  0.106610  0.507100  1.0  -0.5686
  O  O264  1  0.550990  0.049810  0.407800  1.0  -0.642
  O  O265  1  0.564070  0.920680  0.126600  1.0  -0.6944
  O  O266  1  0.680300  0.865500  0.221300  1.0  -0.6373
  O  O267  1  0.376050  0.954300  0.900200  1.0  -0.5655
  O  O268  1  0.411200  0.862460  0.898500  1.0  -0.6516
  O  O269  1  0.173800  0.734610  0.591900  1.0  -0.5711
  O  O270  1  0.048800  0.742430  0.566200  1.0  -0.5765
  O  O271  1  0.517700  0.200200  0.339000  1.0  -0.5698
  O  O272  1  0.163100  0.606610  0.507100  1.0  -0.5686
  O  O273  1  0.050990  0.549810  0.407800  1.0  -0.642
  O  O274  1  0.064070  0.420680  0.126600  1.0  -0.6944
  O  O275  1  0.180300  0.365500  0.221300  1.0  -0.6373
  O  O276  1  0.876050  0.454300  0.900200  1.0  -0.5655
  O  O277  1  0.911200  0.362460  0.898500  1.0  -0.6516
  O  O278  1  0.673800  0.234610  0.591900  1.0  -0.5711
  O  O279  1  0.548800  0.242430  0.566200  1.0  -0.5756
  O  O280  1  0.017700  0.700200  0.339000  1.0  -0.5692
  O  O281  1  0.663100  0.893390  0.007100  1.0  -0.5666
  O  O282  1  0.550990  0.950190  0.907800  1.0  -0.6418
  O  O283  1  0.564070  0.079320  0.626600  1.0  -0.6955
  O  O284  1  0.680300  0.134500  0.721300  1.0  -0.6345
  O  O285  1  0.376050  0.045700  0.400200  1.0  -0.5662
  O  O286  1  0.411200  0.137540  0.398500  1.0  -0.6515
  O  O287  1  0.173800  0.265390  0.091900  1.0  -0.5717
  O  O288  1  0.048800  0.257570  0.066200  1.0  -0.5759
  O  O289  1  0.517700  0.799800  0.839000  1.0  -0.5712
  O  O290  1  0.163100  0.393390  0.007100  1.0  -0.5666
  O  O291  1  0.050990  0.450190  0.907800  1.0  -0.6418
  O  O292  1  0.064070  0.579320  0.626600  1.0  -0.6955
  O  O293  1  0.180300  0.634500  0.721300  1.0  -0.6346
  O  O294  1  0.876050  0.545700  0.400200  1.0  -0.5662
  O  O295  1  0.911200  0.637540  0.398500  1.0  -0.6515
  O  O296  1  0.673800  0.765390  0.091900  1.0  -0.5717
  O  O297  1  0.548800  0.757570  0.066200  1.0  -0.5748
  O  O298  1  0.017700  0.299800  0.839000  1.0  -0.5707
  O  O299  1  0.336900  0.893390  0.492900  1.0  -0.5659
  O  O300  1  0.449010  0.950190  0.592200  1.0  -0.6423
  O  O301  1  0.435930  0.079320  0.873400  1.0  -0.6929
  O  O302  1  0.319700  0.134500  0.778700  1.0  -0.6348
  O  O303  1  0.623950  0.045700  0.099800  1.0  -0.566
  O  O304  1  0.588800  0.137540  0.101500  1.0  -0.6512
  O  O305  1  0.826200  0.265390  0.408100  1.0  -0.5728
  O  O306  1  0.951200  0.257570  0.433800  1.0  -0.5762
  O  O307  1  0.482300  0.799800  0.661000  1.0  -0.5715
  O  O308  1  0.836900  0.393390  0.492900  1.0  -0.5659
  O  O309  1  0.949010  0.450190  0.592200  1.0  -0.6423
  O  O310  1  0.935930  0.579320  0.873400  1.0  -0.6929
  O  O311  1  0.819700  0.634500  0.778700  1.0  -0.6348
  O  O312  1  0.123950  0.545700  0.099800  1.0  -0.566
  O  O313  1  0.088800  0.637540  0.101500  1.0  -0.6512
  O  O314  1  0.326200  0.765390  0.408100  1.0  -0.5728
  O  O315  1  0.451200  0.757570  0.433800  1.0  -0.5752
  O  O316  1  0.982300  0.299800  0.661000  1.0  -0.5713
