# generated using pymatgen
data_Cd2H4C2SN4O5
_symmetry_space_group_name_H-M   'P 1'
_cell_length_a   7.13010000
_cell_length_b   9.62270000
_cell_length_c   16.76250000
_cell_angle_alpha   90.00000000
_cell_angle_beta   90.00000000
_cell_angle_gamma   90.00000000
_symmetry_Int_Tables_number   1
_chemical_formula_structural   Cd2H4C2SN4O5
_chemical_formula_sum   'Cd8 H16 C8 S4 N16 O20'
_cell_volume   1150.08875744
_cell_formula_units_Z   4
loop_
 _symmetry_equiv_pos_site_id
 _symmetry_equiv_pos_as_xyz
  1  'x, y, z'
loop_
 _atom_site_type_symbol
 _atom_site_label
 _atom_site_symmetry_multiplicity
 _atom_site_fract_x
 _atom_site_fract_y
 _atom_site_fract_z
 _atom_site_occupancy
 _atom_site_charge
  Cd  Cd1  1  0.707100  0.282590  0.656970  1.0  1.1085
  Cd  Cd2  1  0.957600  0.499520  0.500240  1.0  1.0286
  Cd  Cd3  1  0.207100  0.717410  0.343030  1.0  1.1088
  Cd  Cd4  1  0.457600  0.500480  0.499760  1.0  1.0287
  Cd  Cd5  1  0.707100  0.782590  0.843030  1.0  1.1084
  Cd  Cd6  1  0.957600  0.999520  0.999760  1.0  1.0286
  Cd  Cd7  1  0.207100  0.217410  0.156970  1.0  1.1087
  Cd  Cd8  1  0.457600  0.000480  0.000240  1.0  1.0288
  H  H9  1  0.733000  0.298000  0.502000  1.0  0.4487
  H  H10  1  0.062000  0.099200  0.758200  1.0  0.1577
  H  H11  1  0.251300  0.035300  0.728000  1.0  0.1567
  H  H12  1  0.253200  0.152400  0.793000  1.0  0.1504
  H  H13  1  0.233000  0.702000  0.498000  1.0  0.4485
  H  H14  1  0.562000  0.900800  0.241800  1.0  0.1585
  H  H15  1  0.751300  0.964700  0.272000  1.0  0.156
  H  H16  1  0.753200  0.847600  0.207000  1.0  0.1519
  H  H17  1  0.733000  0.798000  0.998000  1.0  0.4482
  H  H18  1  0.062000  0.599200  0.741800  1.0  0.1586
  H  H19  1  0.251300  0.535300  0.772000  1.0  0.1569
  H  H20  1  0.253200  0.652400  0.707000  1.0  0.1513
  H  H21  1  0.233000  0.202000  0.002000  1.0  0.4471
  H  H22  1  0.562000  0.400800  0.258200  1.0  0.1576
  H  H23  1  0.751300  0.464700  0.228000  1.0  0.156
  H  H24  1  0.753200  0.347600  0.293000  1.0  0.1514
  C  C25  1  0.201000  0.225900  0.682400  1.0  0.4639
  C  C26  1  0.190900  0.118700  0.746000  1.0  -0.4574
  C  C27  1  0.701000  0.774100  0.317600  1.0  0.4639
  C  C28  1  0.690900  0.881300  0.254000  1.0  -0.4582
  C  C29  1  0.201000  0.725900  0.817600  1.0  0.4645
  C  C30  1  0.190900  0.618700  0.754000  1.0  -0.4579
  C  C31  1  0.701000  0.274100  0.182400  1.0  0.4633
  C  C32  1  0.690900  0.381300  0.246000  1.0  -0.4578
  S  S33  1  0.705200  0.143210  0.848280  1.0  1.667
  S  S34  1  0.205200  0.856790  0.151720  1.0  1.6674
  S  S35  1  0.705200  0.643210  0.651720  1.0  1.667
  S  S36  1  0.205200  0.356790  0.348280  1.0  1.6674
  N  N37  1  0.046500  0.282100  0.649100  1.0  -0.3543
  N  N38  1  0.124300  0.368100  0.592100  1.0  -0.0803
  N  N39  1  0.306300  0.368900  0.595800  1.0  0.0024
  N  N40  1  0.358000  0.278500  0.649500  1.0  -0.3407
  N  N41  1  0.546500  0.717900  0.350900  1.0  -0.3556
  N  N42  1  0.624300  0.631900  0.407900  1.0  -0.0807
  N  N43  1  0.806300  0.631100  0.404200  1.0  0.0018
  N  N44  1  0.858000  0.721500  0.350500  1.0  -0.3412
  N  N45  1  0.046500  0.782100  0.850900  1.0  -0.355
  N  N46  1  0.124300  0.868100  0.907900  1.0  -0.0804
  N  N47  1  0.306300  0.868900  0.904200  1.0  0.0019
  N  N48  1  0.358000  0.778500  0.850500  1.0  -0.342
  N  N49  1  0.546500  0.217900  0.149100  1.0  -0.3547
  N  N50  1  0.624300  0.131900  0.092100  1.0  -0.0807
  N  N51  1  0.806300  0.131100  0.095800  1.0  0.0025
  N  N52  1  0.858000  0.221500  0.149500  1.0  -0.3384
  O  O53  1  0.717000  0.259300  0.791600  1.0  -0.7108
  O  O54  1  0.724000  0.011100  0.804800  1.0  -0.7673
  O  O55  1  0.535600  0.151800  0.900800  1.0  -0.7787
  O  O56  1  0.870800  0.152500  0.897100  1.0  -0.7469
  O  O57  1  0.697000  0.365500  0.530300  1.0  -0.9457
  O  O58  1  0.217000  0.740700  0.208400  1.0  -0.7123
  O  O59  1  0.224000  0.988900  0.195200  1.0  -0.7672
  O  O60  1  0.035600  0.848200  0.099200  1.0  -0.7787
  O  O61  1  0.370800  0.847500  0.102900  1.0  -0.7479
  O  O62  1  0.197000  0.634500  0.469700  1.0  -0.9457
  O  O63  1  0.717000  0.759300  0.708400  1.0  -0.7116
  O  O64  1  0.724000  0.511100  0.695200  1.0  -0.7691
  O  O65  1  0.535600  0.651800  0.599200  1.0  -0.7791
  O  O66  1  0.870800  0.652500  0.602900  1.0  -0.7469
  O  O67  1  0.697000  0.865500  0.969700  1.0  -0.9463
  O  O68  1  0.217000  0.240700  0.291600  1.0  -0.7113
  O  O69  1  0.224000  0.488900  0.304800  1.0  -0.7655
  O  O70  1  0.035600  0.348200  0.400800  1.0  -0.7783
  O  O71  1  0.370800  0.347500  0.397100  1.0  -0.7477
  O  O72  1  0.197000  0.134500  0.030300  1.0  -0.9451
