# generated using pymatgen
data_CdH36C48N12(ClO4)2
_symmetry_space_group_name_H-M   'P 1'
_cell_length_a   15.87730000
_cell_length_b   15.87730000
_cell_length_c   21.68400000
_cell_angle_alpha   90.00000000
_cell_angle_beta   90.00000000
_cell_angle_gamma   90.00000000
_symmetry_Int_Tables_number   1
_chemical_formula_structural   CdH36C48N12(ClO4)2
_chemical_formula_sum   'Cd4 H144 C192 N48 Cl8 O32'
_cell_volume   5466.29040131
_cell_formula_units_Z   4
loop_
 _symmetry_equiv_pos_site_id
 _symmetry_equiv_pos_as_xyz
  1  'x, y, z'
loop_
 _atom_site_type_symbol
 _atom_site_label
 _atom_site_symmetry_multiplicity
 _atom_site_fract_x
 _atom_site_fract_y
 _atom_site_fract_z
 _atom_site_occupancy
 _atom_site_charge
  Cd  Cd1  1  0.942040  0.057960  0.750000  1.0  0.7949
  Cd  Cd2  1  0.057960  0.942040  0.250000  1.0  0.7945
  Cd  Cd3  1  0.442040  0.442040  0.500000  1.0  0.7951
  Cd  Cd4  1  0.557960  0.557960  0.000000  1.0  0.7942
  H  H5  1  0.462100  0.390000  0.652400  1.0  0.0875
  H  H6  1  0.415000  0.284200  0.714600  1.0  0.1167
  H  H7  1  0.213900  0.259200  0.605100  1.0  0.117
  H  H8  1  0.272600  0.357700  0.539400  1.0  0.0752
  H  H9  1  0.348300  0.202500  0.779900  1.0  0.0772
  H  H10  1  0.294800  0.092600  0.836600  1.0  0.1189
  H  H11  1  0.196900  0.997900  0.792100  1.0  0.0919
  H  H12  1  0.201500  0.134500  0.635600  1.0  0.1038
  H  H13  1  0.952700  0.878300  0.539400  1.0  0.1117
  H  H14  1  0.934900  0.769200  0.471000  1.0  0.1071
  H  H15  1  0.037800  0.666000  0.458700  1.0  0.1078
  H  H16  1  0.174500  0.775200  0.595100  1.0  0.1014
  H  H17  1  0.230900  0.651600  0.608300  1.0  0.1397
  H  H18  1  0.338900  0.554500  0.593200  1.0  0.0613
  H  H19  1  0.266300  0.511100  0.424000  1.0  0.0723
  H  H20  1  0.155600  0.606100  0.433800  1.0  0.1231
  H  H21  1  0.250800  0.969000  0.594500  1.0  0.3167
  H  H22  1  0.265000  0.915800  0.650100  1.0  0.316
  H  H23  1  0.537900  0.610000  0.152400  1.0  0.0872
  H  H24  1  0.585000  0.715800  0.214600  1.0  0.117
  H  H25  1  0.786100  0.740800  0.105100  1.0  0.1173
  H  H26  1  0.727400  0.642300  0.039400  1.0  0.0755
  H  H27  1  0.651700  0.797500  0.279900  1.0  0.0775
  H  H28  1  0.705200  0.907400  0.336600  1.0  0.1208
  H  H29  1  0.803100  0.002100  0.292100  1.0  0.0928
  H  H30  1  0.798500  0.865500  0.135600  1.0  0.1023
  H  H31  1  0.047300  0.121700  0.039400  1.0  0.1116
  H  H32  1  0.065100  0.230800  0.971000  1.0  0.1073
  H  H33  1  0.962200  0.334000  0.958700  1.0  0.1082
  H  H34  1  0.825500  0.224800  0.095100  1.0  0.1014
  H  H35  1  0.769100  0.348400  0.108300  1.0  0.1379
  H  H36  1  0.661100  0.445500  0.093200  1.0  0.0612
  H  H37  1  0.733700  0.488900  0.924000  1.0  0.0726
  H  H38  1  0.844400  0.393900  0.933800  1.0  0.1249
  H  H39  1  0.749200  0.031000  0.094500  1.0  0.3161
  H  H40  1  0.735000  0.084200  0.150100  1.0  0.3157
  H  H41  1  0.110000  0.962100  0.402400  1.0  0.0878
  H  H42  1  0.215800  0.915000  0.464600  1.0  0.1173
  H  H43  1  0.240800  0.713900  0.355100  1.0  0.1174
  H  H44  1  0.142300  0.772600  0.289400  1.0  0.0749
  H  H45  1  0.297500  0.848300  0.529900  1.0  0.0776
  H  H46  1  0.407400  0.794800  0.586600  1.0  0.1202
  H  H47  1  0.502100  0.696900  0.542100  1.0  0.092
  H  H48  1  0.365500  0.701500  0.385600  1.0  0.103
  H  H49  1  0.621700  0.452700  0.289400  1.0  0.1119
  H  H50  1  0.730800  0.434900  0.221000  1.0  0.1076
  H  H51  1  0.834000  0.537800  0.208700  1.0  0.1083
  H  H52  1  0.724800  0.674500  0.345100  1.0  0.1013
  H  H53  1  0.848400  0.730900  0.358300  1.0  0.1391
  H  H54  1  0.945500  0.838900  0.343200  1.0  0.0615
  H  H55  1  0.988900  0.766300  0.174000  1.0  0.0725
  H  H56  1  0.893900  0.655600  0.183800  1.0  0.123
  H  H57  1  0.531000  0.750800  0.344500  1.0  0.3153
  H  H58  1  0.584200  0.765000  0.400100  1.0  0.3158
  H  H59  1  0.890000  0.037900  0.902400  1.0  0.0872
  H  H60  1  0.784200  0.085000  0.964600  1.0  0.1176
  H  H61  1  0.759200  0.286100  0.855100  1.0  0.1175
  H  H62  1  0.857700  0.227400  0.789400  1.0  0.0747
  H  H63  1  0.702500  0.151700  0.029900  1.0  0.0779
  H  H64  1  0.592600  0.205200  0.086600  1.0  0.1203
  H  H65  1  0.497900  0.303100  0.042100  1.0  0.0934
  H  H66  1  0.634500  0.298500  0.885600  1.0  0.1043
  H  H67  1  0.378300  0.547300  0.789400  1.0  0.1115
  H  H68  1  0.269200  0.565100  0.721000  1.0  0.1079
  H  H69  1  0.166000  0.462200  0.708700  1.0  0.1083
  H  H70  1  0.275200  0.325500  0.845100  1.0  0.102
  H  H71  1  0.151600  0.269100  0.858300  1.0  0.139
  H  H72  1  0.054500  0.161100  0.843200  1.0  0.0619
  H  H73  1  0.011100  0.233700  0.674000  1.0  0.0729
  H  H74  1  0.106100  0.344400  0.683800  1.0  0.124
  H  H75  1  0.469000  0.249200  0.844500  1.0  0.3139
  H  H76  1  0.415800  0.235000  0.900100  1.0  0.3166
  H  H77  1  0.037900  0.890000  0.097600  1.0  0.087
  H  H78  1  0.085000  0.784200  0.035400  1.0  0.1175
  H  H79  1  0.286100  0.759200  0.144900  1.0  0.118
  H  H80  1  0.227400  0.857700  0.210600  1.0  0.0752
  H  H81  1  0.151700  0.702500  0.970100  1.0  0.0774
  H  H82  1  0.205200  0.592600  0.913400  1.0  0.1202
  H  H83  1  0.303100  0.497900  0.957900  1.0  0.0931
  H  H84  1  0.298500  0.634500  0.114400  1.0  0.104
  H  H85  1  0.547300  0.378300  0.210600  1.0  0.1113
  H  H86  1  0.565100  0.269200  0.279000  1.0  0.1072
  H  H87  1  0.462200  0.166000  0.291300  1.0  0.1079
  H  H88  1  0.325500  0.275200  0.154900  1.0  0.1014
  H  H89  1  0.269100  0.151600  0.141700  1.0  0.1401
  H  H90  1  0.161100  0.054500  0.156800  1.0  0.0608
  H  H91  1  0.233700  0.011100  0.326000  1.0  0.0721
  H  H92  1  0.344400  0.106100  0.316200  1.0  0.125
  H  H93  1  0.249200  0.469000  0.155500  1.0  0.3162
  H  H94  1  0.235000  0.415800  0.099900  1.0  0.3132
  H  H95  1  0.962100  0.110000  0.597600  1.0  0.0869
  H  H96  1  0.915000  0.215800  0.535400  1.0  0.1171
  H  H97  1  0.713900  0.240800  0.644900  1.0  0.1175
  H  H98  1  0.772600  0.142300  0.710600  1.0  0.0753
  H  H99  1  0.848300  0.297500  0.470100  1.0  0.0772
  H  H100  1  0.794800  0.407400  0.413400  1.0  0.1199
  H  H101  1  0.696900  0.502100  0.457900  1.0  0.0933
  H  H102  1  0.701500  0.365500  0.614400  1.0  0.1039
  H  H103  1  0.452700  0.621700  0.710600  1.0  0.1115
  H  H104  1  0.434900  0.730800  0.779000  1.0  0.1069
  H  H105  1  0.537800  0.834000  0.791300  1.0  0.1079
  H  H106  1  0.674500  0.724800  0.654900  1.0  0.1015
  H  H107  1  0.730900  0.848400  0.641700  1.0  0.1398
  H  H108  1  0.838900  0.945500  0.656800  1.0  0.0611
  H  H109  1  0.766300  0.988900  0.826000  1.0  0.0724
  H  H110  1  0.655600  0.893900  0.816200  1.0  0.1238
  H  H111  1  0.750800  0.531000  0.655500  1.0  0.3166
  H  H112  1  0.765000  0.584200  0.599900  1.0  0.3154
  H  H113  1  0.390000  0.462100  0.347600  1.0  0.0874
  H  H114  1  0.284200  0.415000  0.285400  1.0  0.118
  H  H115  1  0.259200  0.213900  0.394900  1.0  0.118
  H  H116  1  0.357700  0.272600  0.460600  1.0  0.075
  H  H117  1  0.202500  0.348300  0.220100  1.0  0.0777
  H  H118  1  0.092600  0.294800  0.163400  1.0  0.1196
  H  H119  1  0.997900  0.196900  0.207900  1.0  0.0925
  H  H120  1  0.134500  0.201500  0.364400  1.0  0.1036
  H  H121  1  0.878300  0.952700  0.460600  1.0  0.1119
  H  H122  1  0.769200  0.934900  0.529000  1.0  0.1079
  H  H123  1  0.666000  0.037800  0.541300  1.0  0.1081
  H  H124  1  0.775200  0.174500  0.404900  1.0  0.1017
  H  H125  1  0.651600  0.230900  0.391700  1.0  0.1394
  H  H126  1  0.554500  0.338900  0.406800  1.0  0.0612
  H  H127  1  0.511100  0.266300  0.576000  1.0  0.0722
  H  H128  1  0.606100  0.155600  0.566200  1.0  0.1237
  H  H129  1  0.969000  0.250800  0.405500  1.0  0.3142
  H  H130  1  0.915800  0.265000  0.349900  1.0  0.3131
  H  H131  1  0.610000  0.537900  0.847600  1.0  0.0867
  H  H132  1  0.715800  0.585000  0.785400  1.0  0.1174
  H  H133  1  0.740800  0.786100  0.894900  1.0  0.1176
  H  H134  1  0.642300  0.727400  0.960600  1.0  0.0745
  H  H135  1  0.797500  0.651700  0.720100  1.0  0.0782
  H  H136  1  0.907400  0.705200  0.663400  1.0  0.1201
  H  H137  1  0.002100  0.803100  0.707900  1.0  0.0936
  H  H138  1  0.865500  0.798500  0.864400  1.0  0.1047
  H  H139  1  0.121700  0.047300  0.960600  1.0  0.1118
  H  H140  1  0.230800  0.065100  0.029000  1.0  0.1071
  H  H141  1  0.334000  0.962200  0.041300  1.0  0.1083
  H  H142  1  0.224800  0.825500  0.904900  1.0  0.1021
  H  H143  1  0.348400  0.769100  0.891700  1.0  0.1376
  H  H144  1  0.445500  0.661100  0.906800  1.0  0.0617
  H  H145  1  0.488900  0.733700  0.076000  1.0  0.0733
  H  H146  1  0.393900  0.844400  0.066200  1.0  0.1246
  H  H147  1  0.031000  0.749200  0.905500  1.0  0.3152
  H  H148  1  0.084200  0.735000  0.849900  1.0  0.3161
  C  C149  1  0.413200  0.359500  0.640500  1.0  0.1641
  C  C150  1  0.384400  0.297700  0.678300  1.0  -0.192
  C  C151  1  0.310300  0.253300  0.664600  1.0  0.1165
  C  C152  1  0.268000  0.281500  0.614100  1.0  -0.1944
  C  C153  1  0.302400  0.342000  0.575600  1.0  0.1397
  C  C154  1  0.279400  0.181800  0.701400  1.0  0.0074
  C  C155  1  0.307300  0.166500  0.762100  1.0  -0.0679
  C  C156  1  0.276400  0.100800  0.795400  1.0  -0.0741
  C  C157  1  0.217200  0.044700  0.769200  1.0  -0.0578
  C  C158  1  0.189200  0.059400  0.709100  1.0  -0.0416
  C  C159  1  0.220500  0.125800  0.676700  1.0  -0.1117
  C  C160  1  0.126700  0.003500  0.679800  1.0  0.2483
  C  C161  1  0.075000  0.908100  0.617400  1.0  0.2546
  C  C162  1  0.067500  0.838800  0.573000  1.0  -0.0182
  C  C163  1  0.994500  0.835700  0.536000  1.0  -0.0739
  C  C164  1  0.984400  0.771500  0.495500  1.0  -0.0641
  C  C165  1  0.045000  0.708800  0.488900  1.0  -0.1084
  C  C166  1  0.115600  0.708500  0.526300  1.0  0.0104
  C  C167  1  0.126500  0.774600  0.569000  1.0  -0.1035
  C  C168  1  0.180900  0.642500  0.521600  1.0  0.1148
  C  C169  1  0.236700  0.624400  0.569500  1.0  -0.1944
  C  C170  1  0.301500  0.565600  0.560000  1.0  0.1682
  C  C171  1  0.259500  0.540200  0.462000  1.0  0.1691
  C  C172  1  0.192900  0.597700  0.467500  1.0  -0.2128
  C  C173  1  0.586800  0.640500  0.140500  1.0  0.1653
  C  C174  1  0.615600  0.702300  0.178300  1.0  -0.188
  C  C175  1  0.689700  0.746700  0.164600  1.0  0.1168
  C  C176  1  0.732000  0.718500  0.114100  1.0  -0.1944
  C  C177  1  0.697600  0.658000  0.075600  1.0  0.1398
  C  C178  1  0.720600  0.818200  0.201400  1.0  0.0076
  C  C179  1  0.692700  0.833500  0.262100  1.0  -0.0672
  C  C180  1  0.723600  0.899200  0.295400  1.0  -0.0739
  C  C181  1  0.782800  0.955300  0.269200  1.0  -0.0595
  C  C182  1  0.810800  0.940600  0.209100  1.0  -0.0414
  C  C183  1  0.779500  0.874200  0.176700  1.0  -0.1118
  C  C184  1  0.873300  0.996500  0.179800  1.0  0.2479
  C  C185  1  0.925000  0.091900  0.117400  1.0  0.2496
  C  C186  1  0.932500  0.161200  0.073000  1.0  -0.0194
  C  C187  1  0.005500  0.164300  0.036000  1.0  -0.0741
  C  C188  1  0.015600  0.228500  0.995500  1.0  -0.0575
  C  C189  1  0.955000  0.291200  0.988900  1.0  -0.1093
  C  C190  1  0.884400  0.291500  0.026300  1.0  0.0103
  C  C191  1  0.873500  0.225400  0.069000  1.0  -0.1043
  C  C192  1  0.819100  0.357500  0.021600  1.0  0.1147
  C  C193  1  0.763300  0.375600  0.069500  1.0  -0.194
  C  C194  1  0.698500  0.434400  0.060000  1.0  0.1677
  C  C195  1  0.740500  0.459800  0.962000  1.0  0.1704
  C  C196  1  0.807100  0.402300  0.967500  1.0  -0.2123
  C  C197  1  0.140500  0.913200  0.390500  1.0  0.1617
  C  C198  1  0.202300  0.884400  0.428300  1.0  -0.1899
  C  C199  1  0.246700  0.810300  0.414600  1.0  0.1163
  C  C200  1  0.218500  0.768000  0.364100  1.0  -0.194
  C  C201  1  0.158000  0.802400  0.325600  1.0  0.1374
  C  C202  1  0.318200  0.779400  0.451400  1.0  0.0072
  C  C203  1  0.333500  0.807300  0.512100  1.0  -0.0671
  C  C204  1  0.399200  0.776400  0.545400  1.0  -0.073
  C  C205  1  0.455300  0.717200  0.519200  1.0  -0.0616
  C  C206  1  0.440600  0.689200  0.459100  1.0  -0.0406
  C  C207  1  0.374200  0.720500  0.426700  1.0  -0.1125
  C  C208  1  0.496500  0.626700  0.429800  1.0  0.2499
  C  C209  1  0.591900  0.575000  0.367400  1.0  0.2506
  C  C210  1  0.661200  0.567500  0.323000  1.0  -0.0198
  C  C211  1  0.664300  0.494500  0.286000  1.0  -0.0738
  C  C212  1  0.728500  0.484400  0.245500  1.0  -0.057
  C  C213  1  0.791200  0.545000  0.238900  1.0  -0.111
  C  C214  1  0.791500  0.615600  0.276300  1.0  0.0095
  C  C215  1  0.725400  0.626500  0.319000  1.0  -0.1024
  C  C216  1  0.857500  0.680900  0.271600  1.0  0.1155
  C  C217  1  0.875600  0.736700  0.319500  1.0  -0.1939
  C  C218  1  0.934400  0.801500  0.310000  1.0  0.1679
  C  C219  1  0.959800  0.759500  0.212000  1.0  0.1685
  C  C220  1  0.902300  0.692900  0.217500  1.0  -0.2127
  C  C221  1  0.859500  0.086800  0.890500  1.0  0.1647
  C  C222  1  0.797700  0.115600  0.928300  1.0  -0.1928
  C  C223  1  0.753300  0.189700  0.914600  1.0  0.1153
  C  C224  1  0.781500  0.232000  0.864100  1.0  -0.1946
  C  C225  1  0.842000  0.197600  0.825600  1.0  0.1396
  C  C226  1  0.681800  0.220600  0.951400  1.0  0.0081
  C  C227  1  0.666500  0.192700  0.012100  1.0  -0.0677
  C  C228  1  0.600800  0.223600  0.045400  1.0  -0.0773
  C  C229  1  0.544700  0.282800  0.019200  1.0  -0.0631
  C  C230  1  0.559400  0.310800  0.959100  1.0  -0.0414
  C  C231  1  0.625800  0.279500  0.926700  1.0  -0.1122
  C  C232  1  0.503500  0.373300  0.929800  1.0  0.2497
  C  C233  1  0.408100  0.425000  0.867400  1.0  0.2525
  C  C234  1  0.338800  0.432500  0.823000  1.0  -0.0196
  C  C235  1  0.335700  0.505500  0.786000  1.0  -0.0748
  C  C236  1  0.271500  0.515600  0.745500  1.0  -0.0612
  C  C237  1  0.208800  0.455000  0.738900  1.0  -0.1094
  C  C238  1  0.208500  0.384400  0.776300  1.0  0.012
  C  C239  1  0.274600  0.373500  0.819000  1.0  -0.103
  C  C240  1  0.142500  0.319100  0.771600  1.0  0.1148
  C  C241  1  0.124400  0.263300  0.819500  1.0  -0.1942
  C  C242  1  0.065600  0.198500  0.810000  1.0  0.1671
  C  C243  1  0.040200  0.240500  0.712000  1.0  0.1684
  C  C244  1  0.097700  0.307100  0.717500  1.0  -0.2125
  C  C245  1  0.086800  0.859500  0.109500  1.0  0.1652
  C  C246  1  0.115600  0.797700  0.071700  1.0  -0.1923
  C  C247  1  0.189700  0.753300  0.085400  1.0  0.1157
  C  C248  1  0.232000  0.781500  0.135900  1.0  -0.193
  C  C249  1  0.197600  0.842000  0.174400  1.0  0.1398
  C  C250  1  0.220600  0.681800  0.048600  1.0  0.0075
  C  C251  1  0.192700  0.666500  0.987900  1.0  -0.0671
  C  C252  1  0.223600  0.600800  0.954600  1.0  -0.0779
  C  C253  1  0.282800  0.544700  0.980800  1.0  -0.0598
  C  C254  1  0.310800  0.559400  0.040900  1.0  -0.0421
  C  C255  1  0.279500  0.625800  0.073300  1.0  -0.1126
  C  C256  1  0.373300  0.503500  0.070200  1.0  0.2478
  C  C257  1  0.425000  0.408100  0.132600  1.0  0.2526
  C  C258  1  0.432500  0.338800  0.177000  1.0  -0.0191
  C  C259  1  0.505500  0.335700  0.214000  1.0  -0.0742
  C  C260  1  0.515600  0.271500  0.254500  1.0  -0.06
  C  C261  1  0.455000  0.208800  0.261100  1.0  -0.1095
  C  C262  1  0.384400  0.208500  0.223700  1.0  0.0092
  C  C263  1  0.373500  0.274600  0.181000  1.0  -0.1038
  C  C264  1  0.319100  0.142500  0.228400  1.0  0.1149
  C  C265  1  0.263300  0.124400  0.180500  1.0  -0.1942
  C  C266  1  0.198500  0.065600  0.190000  1.0  0.1683
  C  C267  1  0.240500  0.040200  0.288000  1.0  0.1702
  C  C268  1  0.307100  0.097700  0.282500  1.0  -0.2128
  C  C269  1  0.913200  0.140500  0.609500  1.0  0.1639
  C  C270  1  0.884400  0.202300  0.571700  1.0  -0.1889
  C  C271  1  0.810300  0.246700  0.585400  1.0  0.1158
  C  C272  1  0.768000  0.218500  0.635900  1.0  -0.192
  C  C273  1  0.802400  0.158000  0.674400  1.0  0.1396
  C  C274  1  0.779400  0.318200  0.548600  1.0  0.0068
  C  C275  1  0.807300  0.333500  0.487900  1.0  -0.0675
  C  C276  1  0.776400  0.399200  0.454600  1.0  -0.0735
  C  C277  1  0.717200  0.455300  0.480800  1.0  -0.0577
  C  C278  1  0.689200  0.440600  0.540900  1.0  -0.0409
  C  C279  1  0.720500  0.374200  0.573300  1.0  -0.1122
  C  C280  1  0.626700  0.496500  0.570200  1.0  0.2483
  C  C281  1  0.575000  0.591900  0.632600  1.0  0.2521
  C  C282  1  0.567500  0.661200  0.677000  1.0  -0.0184
  C  C283  1  0.494500  0.664300  0.714000  1.0  -0.0744
  C  C284  1  0.484400  0.728500  0.754500  1.0  -0.0623
  C  C285  1  0.545000  0.791200  0.761100  1.0  -0.1076
  C  C286  1  0.615600  0.791500  0.723700  1.0  0.0105
  C  C287  1  0.626500  0.725400  0.681000  1.0  -0.1031
  C  C288  1  0.680900  0.857500  0.728400  1.0  0.1154
  C  C289  1  0.736700  0.875600  0.680500  1.0  -0.1943
  C  C290  1  0.801500  0.934400  0.690000  1.0  0.1681
  C  C291  1  0.759500  0.959800  0.788000  1.0  0.1697
  C  C292  1  0.692900  0.902300  0.782500  1.0  -0.2128
  C  C293  1  0.359500  0.413200  0.359500  1.0  0.163
  C  C294  1  0.297700  0.384400  0.321700  1.0  -0.1928
  C  C295  1  0.253300  0.310300  0.335400  1.0  0.1146
  C  C296  1  0.281500  0.268000  0.385900  1.0  -0.1933
  C  C297  1  0.342000  0.302400  0.424400  1.0  0.1391
  C  C298  1  0.181800  0.279400  0.298600  1.0  0.0066
  C  C299  1  0.166500  0.307300  0.237900  1.0  -0.0673
  C  C300  1  0.100800  0.276400  0.204600  1.0  -0.0741
  C  C301  1  0.044700  0.217200  0.230800  1.0  -0.0629
  C  C302  1  0.059400  0.189200  0.290900  1.0  -0.0416
  C  C303  1  0.125800  0.220500  0.323300  1.0  -0.113
  C  C304  1  0.003500  0.126700  0.320200  1.0  0.2494
  C  C305  1  0.908100  0.075000  0.382600  1.0  0.2566
  C  C306  1  0.838800  0.067500  0.427000  1.0  -0.0194
  C  C307  1  0.835700  0.994500  0.464000  1.0  -0.0753
  C  C308  1  0.771500  0.984400  0.504500  1.0  -0.0601
  C  C309  1  0.708800  0.045000  0.511100  1.0  -0.1084
  C  C310  1  0.708500  0.115600  0.473700  1.0  0.0106
  C  C311  1  0.774600  0.126500  0.431000  1.0  -0.1027
  C  C312  1  0.642500  0.180900  0.478400  1.0  0.1153
  C  C313  1  0.624400  0.236700  0.430500  1.0  -0.1934
  C  C314  1  0.565600  0.301500  0.440000  1.0  0.1673
  C  C315  1  0.540200  0.259500  0.538000  1.0  0.1687
  C  C316  1  0.597700  0.192900  0.532500  1.0  -0.2126
  C  C317  1  0.640500  0.586800  0.859500  1.0  0.1634
  C  C318  1  0.702300  0.615600  0.821700  1.0  -0.1911
  C  C319  1  0.746700  0.689700  0.835400  1.0  0.1151
  C  C320  1  0.718500  0.732000  0.885900  1.0  -0.1922
  C  C321  1  0.658000  0.697600  0.924400  1.0  0.1378
  C  C322  1  0.818200  0.720600  0.798600  1.0  0.0076
  C  C323  1  0.833500  0.692700  0.737900  1.0  -0.0669
  C  C324  1  0.899200  0.723600  0.704600  1.0  -0.0737
  C  C325  1  0.955300  0.782800  0.730800  1.0  -0.0632
  C  C326  1  0.940600  0.810800  0.790900  1.0  -0.0404
  C  C327  1  0.874200  0.779500  0.823300  1.0  -0.113
  C  C328  1  0.996500  0.873300  0.820200  1.0  0.2499
  C  C329  1  0.091900  0.925000  0.882600  1.0  0.2515
  C  C330  1  0.161200  0.932500  0.927000  1.0  -0.0195
  C  C331  1  0.164300  0.005500  0.964000  1.0  -0.077
  C  C332  1  0.228500  0.015600  0.004500  1.0  -0.0548
  C  C333  1  0.291200  0.955000  0.011100  1.0  -0.1104
  C  C334  1  0.291500  0.884400  0.973700  1.0  0.0103
  C  C335  1  0.225400  0.873500  0.931000  1.0  -0.1023
  C  C336  1  0.357500  0.819100  0.978400  1.0  0.1153
  C  C337  1  0.375600  0.763300  0.930500  1.0  -0.1935
  C  C338  1  0.434400  0.698500  0.940000  1.0  0.1677
  C  C339  1  0.459800  0.740500  0.038000  1.0  0.1689
  C  C340  1  0.402300  0.807100  0.032500  1.0  -0.2121
  N  N341  1  0.376000  0.379200  0.587700  1.0  -0.346
  N  N342  1  0.044600  0.005900  0.684500  1.0  -0.2403
  N  N343  1  0.011800  0.945400  0.644400  1.0  -0.3026
  N  N344  1  0.149400  0.943300  0.638200  1.0  0.0904
  N  N345  1  0.230700  0.924800  0.617000  1.0  -0.553
  N  N346  1  0.313600  0.524700  0.507400  1.0  -0.36
  N  N347  1  0.624000  0.620800  0.087700  1.0  -0.3468
  N  N348  1  0.955400  0.994100  0.184500  1.0  -0.2408
  N  N349  1  0.988200  0.054600  0.144400  1.0  -0.2993
  N  N350  1  0.850600  0.056700  0.138200  1.0  0.0906
  N  N351  1  0.769300  0.075200  0.117000  1.0  -0.5519
  N  N352  1  0.686400  0.475300  0.007400  1.0  -0.3602
  N  N353  1  0.120800  0.876000  0.337700  1.0  -0.3458
  N  N354  1  0.494100  0.544600  0.434500  1.0  -0.2399
  N  N355  1  0.554600  0.511800  0.394400  1.0  -0.2989
  N  N356  1  0.556700  0.649400  0.388200  1.0  0.0923
  N  N357  1  0.575200  0.730700  0.367000  1.0  -0.5534
  N  N358  1  0.975300  0.813600  0.257400  1.0  -0.3595
  N  N359  1  0.879200  0.124000  0.837700  1.0  -0.3458
  N  N360  1  0.505900  0.455400  0.934500  1.0  -0.24
  N  N361  1  0.445400  0.488200  0.894400  1.0  -0.2987
  N  N362  1  0.443300  0.350600  0.888200  1.0  0.0911
  N  N363  1  0.424800  0.269300  0.867000  1.0  -0.554
  N  N364  1  0.024700  0.186400  0.757400  1.0  -0.3607
  N  N365  1  0.124000  0.879200  0.162300  1.0  -0.3466
  N  N366  1  0.455400  0.505900  0.065500  1.0  -0.2408
  N  N367  1  0.488200  0.445400  0.105600  1.0  -0.2989
  N  N368  1  0.350600  0.443300  0.111800  1.0  0.0906
  N  N369  1  0.269300  0.424800  0.133000  1.0  -0.5532
  N  N370  1  0.186400  0.024700  0.242600  1.0  -0.36
  N  N371  1  0.876000  0.120800  0.662300  1.0  -0.3451
  N  N372  1  0.544600  0.494100  0.565500  1.0  -0.2406
  N  N373  1  0.511800  0.554600  0.605600  1.0  -0.3015
  N  N374  1  0.649400  0.556700  0.611800  1.0  0.0959
  N  N375  1  0.730700  0.575200  0.633000  1.0  -0.5515
  N  N376  1  0.813600  0.975300  0.742600  1.0  -0.3606
  N  N377  1  0.379200  0.376000  0.412300  1.0  -0.345
  N  N378  1  0.005900  0.044600  0.315500  1.0  -0.2396
  N  N379  1  0.945400  0.011800  0.355600  1.0  -0.2999
  N  N380  1  0.943300  0.149400  0.361800  1.0  0.0909
  N  N381  1  0.924800  0.230700  0.383000  1.0  -0.555
  N  N382  1  0.524700  0.313600  0.492600  1.0  -0.3604
  N  N383  1  0.620800  0.624000  0.912300  1.0  -0.3457
  N  N384  1  0.994100  0.955400  0.815500  1.0  -0.24
  N  N385  1  0.054600  0.988200  0.855600  1.0  -0.2975
  N  N386  1  0.056700  0.850600  0.861800  1.0  0.091
  N  N387  1  0.075200  0.769300  0.883000  1.0  -0.5529
  N  N388  1  0.475300  0.686400  0.992600  1.0  -0.3598
  Cl  Cl389  1  0.379600  0.620400  0.250000  1.0  1.491
  Cl  Cl390  1  0.620400  0.379600  0.750000  1.0  1.5094
  Cl  Cl391  1  0.879600  0.879600  0.000000  1.0  1.4947
  Cl  Cl392  1  0.120400  0.120400  0.500000  1.0  1.5138
  Cl  Cl393  1  0.269060  0.269060  0.000000  1.0  1.4381
  Cl  Cl394  1  0.730940  0.730940  0.500000  1.0  1.4386
  Cl  Cl395  1  0.230940  0.769060  0.750000  1.0  1.4379
  Cl  Cl396  1  0.769060  0.230940  0.250000  1.0  1.4387
  O  O397  1  0.404500  0.666667  0.191900  1.0  -0.6399
  O  O398  1  0.437900  0.641100  0.287600  1.0  -0.5319
  O  O399  1  0.333333  0.595500  0.308100  1.0  -0.6423
  O  O400  1  0.358900  0.562100  0.212400  1.0  -0.5302
  O  O401  1  0.595500  0.333333  0.691900  1.0  -0.6395
  O  O402  1  0.562100  0.358900  0.787600  1.0  -0.531
  O  O403  1  0.666667  0.404500  0.808100  1.0  -0.6426
  O  O404  1  0.641100  0.437900  0.712400  1.0  -0.5299
  O  O405  1  0.833300  0.904500  0.941900  1.0  -0.6406
  O  O406  1  0.858900  0.937900  0.037600  1.0  -0.5317
  O  O407  1  0.904500  0.833300  0.058100  1.0  -0.6414
  O  O408  1  0.937900  0.858900  0.962400  1.0  -0.5301
  O  O409  1  0.166700  0.095500  0.441900  1.0  -0.6405
  O  O410  1  0.141100  0.062100  0.537600  1.0  -0.5315
  O  O411  1  0.095500  0.166700  0.558100  1.0  -0.6408
  O  O412  1  0.062100  0.141100  0.462400  1.0  -0.5297
  O  O413  1  0.236500  0.232000  0.949200  1.0  -0.5879
  O  O414  1  0.345000  0.220500  0.993600  1.0  -0.5261
  O  O415  1  0.232000  0.236500  0.050800  1.0  -0.5864
  O  O416  1  0.220500  0.345000  0.006400  1.0  -0.5269
  O  O417  1  0.763500  0.768000  0.449200  1.0  -0.5876
  O  O418  1  0.655000  0.779500  0.493600  1.0  -0.5249
  O  O419  1  0.768000  0.763500  0.550800  1.0  -0.5856
  O  O420  1  0.779500  0.655000  0.506400  1.0  -0.5265
  O  O421  1  0.268000  0.736500  0.699200  1.0  -0.585
  O  O422  1  0.279500  0.845000  0.743600  1.0  -0.5264
  O  O423  1  0.263500  0.732000  0.800800  1.0  -0.5884
  O  O424  1  0.155000  0.720500  0.756400  1.0  -0.525
  O  O425  1  0.732000  0.263500  0.199200  1.0  -0.5882
  O  O426  1  0.720500  0.155000  0.243600  1.0  -0.5256
  O  O427  1  0.736500  0.268000  0.300800  1.0  -0.5856
  O  O428  1  0.845000  0.279500  0.256400  1.0  -0.5266
