# generated using pymatgen
data_CdH36C48N12ClO4
_symmetry_space_group_name_H-M   'P 1'
_cell_length_a   15.82600000
_cell_length_b   15.82600000
_cell_length_c   21.63900000
_cell_angle_alpha   90.00000000
_cell_angle_beta   90.00000000
_cell_angle_gamma   90.00000000
_symmetry_Int_Tables_number   1
_chemical_formula_structural   CdH36C48N12ClO4
_chemical_formula_sum   'Cd4 H144 C192 N48 Cl4 O16'
_cell_volume   5419.75319036
_cell_formula_units_Z   4
loop_
 _symmetry_equiv_pos_site_id
 _symmetry_equiv_pos_as_xyz
  1  'x, y, z'
loop_
 _atom_site_type_symbol
 _atom_site_label
 _atom_site_symmetry_multiplicity
 _atom_site_fract_x
 _atom_site_fract_y
 _atom_site_fract_z
 _atom_site_occupancy
 _atom_site_charge
  Cd  Cd1  1  0.058030  0.941970  0.250000  1.0  0.7994
  Cd  Cd2  1  0.941970  0.058030  0.750000  1.0  0.7993
  Cd  Cd3  1  0.558030  0.558030  0.500000  1.0  0.7988
  Cd  Cd4  1  0.441970  0.441970  0.000000  1.0  0.7997
  H  H5  1  0.536400  0.611100  0.349200  1.0  0.0638
  H  H6  1  0.583700  0.717300  0.285600  1.0  0.1136
  H  H7  1  0.786600  0.742800  0.396400  1.0  0.1211
  H  H8  1  0.724600  0.642200  0.461600  1.0  0.0599
  H  H9  1  0.651900  0.796000  0.219000  1.0  0.0753
  H  H10  1  0.704400  0.907300  0.164200  1.0  0.0982
  H  H11  1  0.803200  0.000800  0.205800  1.0  0.1078
  H  H12  1  0.797800  0.863900  0.364900  1.0  0.0953
  H  H13  1  0.046400  0.118900  0.460700  1.0  0.1088
  H  H14  1  0.065100  0.231300  0.530300  1.0  0.1124
  H  H15  1  0.962400  0.333100  0.539000  1.0  0.0946
  H  H16  1  0.825100  0.222600  0.405500  1.0  0.0942
  H  H17  1  0.766300  0.347500  0.392000  1.0  0.1358
  H  H18  1  0.662200  0.444500  0.406300  1.0  0.0602
  H  H19  1  0.737600  0.490200  0.574700  1.0  0.0487
  H  H20  1  0.846600  0.394400  0.564900  1.0  0.1183
  H  H21  1  0.749800  0.030700  0.405600  1.0  0.3155
  H  H22  1  0.735600  0.083800  0.350000  1.0  0.3184
  H  H23  1  0.463600  0.388900  0.849200  1.0  0.0642
  H  H24  1  0.416300  0.282700  0.785600  1.0  0.1142
  H  H25  1  0.213400  0.257200  0.896400  1.0  0.1215
  H  H26  1  0.275400  0.357800  0.961600  1.0  0.0585
  H  H27  1  0.348100  0.204000  0.719000  1.0  0.0756
  H  H28  1  0.295600  0.092700  0.664200  1.0  0.0979
  H  H29  1  0.196800  0.999200  0.705800  1.0  0.1081
  H  H30  1  0.202200  0.136100  0.864900  1.0  0.0953
  H  H31  1  0.953600  0.881100  0.960700  1.0  0.1088
  H  H32  1  0.934900  0.768700  0.030300  1.0  0.1128
  H  H33  1  0.037600  0.666900  0.039000  1.0  0.0956
  H  H34  1  0.174900  0.777400  0.905500  1.0  0.0939
  H  H35  1  0.233700  0.652500  0.892000  1.0  0.1354
  H  H36  1  0.337800  0.555500  0.906300  1.0  0.06
  H  H37  1  0.262400  0.509800  0.074700  1.0  0.0504
  H  H38  1  0.153400  0.605600  0.064900  1.0  0.119
  H  H39  1  0.250200  0.969300  0.905600  1.0  0.3138
  H  H40  1  0.264400  0.916200  0.850000  1.0  0.3177
  H  H41  1  0.888900  0.036400  0.599200  1.0  0.0639
  H  H42  1  0.782700  0.083700  0.535600  1.0  0.1149
  H  H43  1  0.757200  0.286600  0.646400  1.0  0.1214
  H  H44  1  0.857800  0.224600  0.711600  1.0  0.0591
  H  H45  1  0.704000  0.151900  0.469000  1.0  0.0753
  H  H46  1  0.592700  0.204400  0.414200  1.0  0.0986
  H  H47  1  0.499200  0.303200  0.455800  1.0  0.108
  H  H48  1  0.636100  0.297800  0.614900  1.0  0.0947
  H  H49  1  0.381100  0.546400  0.710700  1.0  0.1084
  H  H50  1  0.268700  0.565100  0.780300  1.0  0.1129
  H  H51  1  0.166900  0.462400  0.789000  1.0  0.0952
  H  H52  1  0.277400  0.325100  0.655500  1.0  0.0947
  H  H53  1  0.152500  0.266300  0.642000  1.0  0.135
  H  H54  1  0.055500  0.162200  0.656300  1.0  0.0606
  H  H55  1  0.009800  0.237600  0.824700  1.0  0.0505
  H  H56  1  0.105600  0.346600  0.814900  1.0  0.1191
  H  H57  1  0.469300  0.249800  0.655600  1.0  0.3141
  H  H58  1  0.416200  0.235600  0.600000  1.0  0.3181
  H  H59  1  0.111100  0.963600  0.099200  1.0  0.064
  H  H60  1  0.217300  0.916300  0.035600  1.0  0.1147
  H  H61  1  0.242800  0.713400  0.146400  1.0  0.122
  H  H62  1  0.142200  0.775400  0.211600  1.0  0.0594
  H  H63  1  0.296000  0.848100  0.969000  1.0  0.076
  H  H64  1  0.407300  0.795600  0.914200  1.0  0.099
  H  H65  1  0.500800  0.696800  0.955800  1.0  0.1075
  H  H66  1  0.363900  0.702200  0.114900  1.0  0.0948
  H  H67  1  0.618900  0.453600  0.210700  1.0  0.1086
  H  H68  1  0.731300  0.434900  0.280300  1.0  0.1131
  H  H69  1  0.833100  0.537600  0.289000  1.0  0.0948
  H  H70  1  0.722600  0.674900  0.155500  1.0  0.0943
  H  H71  1  0.847500  0.733700  0.142000  1.0  0.135
  H  H72  1  0.944500  0.837800  0.156300  1.0  0.0599
  H  H73  1  0.990200  0.762400  0.324700  1.0  0.0498
  H  H74  1  0.894400  0.653400  0.314900  1.0  0.1186
  H  H75  1  0.530700  0.750200  0.155600  1.0  0.3134
  H  H76  1  0.583800  0.764400  0.100000  1.0  0.3185
  H  H77  1  0.963600  0.111100  0.900800  1.0  0.0638
  H  H78  1  0.916300  0.217300  0.964400  1.0  0.1143
  H  H79  1  0.713400  0.242800  0.853600  1.0  0.1202
  H  H80  1  0.775400  0.142200  0.788400  1.0  0.0595
  H  H81  1  0.848100  0.296000  0.031000  1.0  0.0752
  H  H82  1  0.795600  0.407300  0.085800  1.0  0.0977
  H  H83  1  0.696800  0.500800  0.044200  1.0  0.1078
  H  H84  1  0.702200  0.363900  0.885100  1.0  0.096
  H  H85  1  0.453600  0.618900  0.789300  1.0  0.1089
  H  H86  1  0.434900  0.731300  0.719700  1.0  0.1131
  H  H87  1  0.537600  0.833100  0.711000  1.0  0.0955
  H  H88  1  0.674900  0.722600  0.844500  1.0  0.0938
  H  H89  1  0.733700  0.847500  0.858000  1.0  0.1348
  H  H90  1  0.837800  0.944500  0.843700  1.0  0.0596
  H  H91  1  0.762400  0.990200  0.675300  1.0  0.0479
  H  H92  1  0.653400  0.894400  0.685100  1.0  0.1183
  H  H93  1  0.750200  0.530700  0.844400  1.0  0.3147
  H  H94  1  0.764400  0.583800  0.900000  1.0  0.3179
  H  H95  1  0.036400  0.888900  0.400800  1.0  0.0637
  H  H96  1  0.083700  0.782700  0.464400  1.0  0.1141
  H  H97  1  0.286600  0.757200  0.353600  1.0  0.1211
  H  H98  1  0.224600  0.857800  0.288400  1.0  0.0614
  H  H99  1  0.151900  0.704000  0.531000  1.0  0.0749
  H  H100  1  0.204400  0.592700  0.585800  1.0  0.0982
  H  H101  1  0.303200  0.499200  0.544200  1.0  0.1077
  H  H102  1  0.297800  0.636100  0.385100  1.0  0.0966
  H  H103  1  0.546400  0.381100  0.289300  1.0  0.1087
  H  H104  1  0.565100  0.268700  0.219700  1.0  0.1124
  H  H105  1  0.462400  0.166900  0.211000  1.0  0.0949
  H  H106  1  0.325100  0.277400  0.344500  1.0  0.0937
  H  H107  1  0.266300  0.152500  0.358000  1.0  0.1351
  H  H108  1  0.162200  0.055500  0.343700  1.0  0.0598
  H  H109  1  0.237600  0.009800  0.175300  1.0  0.0476
  H  H110  1  0.346600  0.105600  0.185100  1.0  0.1183
  H  H111  1  0.249800  0.469300  0.344400  1.0  0.3137
  H  H112  1  0.235600  0.416200  0.400000  1.0  0.3187
  H  H113  1  0.611100  0.536400  0.650800  1.0  0.0634
  H  H114  1  0.717300  0.583700  0.714400  1.0  0.1151
  H  H115  1  0.742800  0.786600  0.603600  1.0  0.1213
  H  H116  1  0.642200  0.724600  0.538400  1.0  0.0606
  H  H117  1  0.796000  0.651900  0.781000  1.0  0.0751
  H  H118  1  0.907300  0.704400  0.835800  1.0  0.0987
  H  H119  1  0.000800  0.803200  0.794200  1.0  0.1078
  H  H120  1  0.863900  0.797800  0.635100  1.0  0.0953
  H  H121  1  0.118900  0.046400  0.539300  1.0  0.1084
  H  H122  1  0.231300  0.065100  0.469700  1.0  0.1134
  H  H123  1  0.333100  0.962400  0.461000  1.0  0.0953
  H  H124  1  0.222600  0.825100  0.594500  1.0  0.0944
  H  H125  1  0.347500  0.766300  0.608000  1.0  0.1343
  H  H126  1  0.444500  0.662200  0.593700  1.0  0.0602
  H  H127  1  0.490200  0.737600  0.425300  1.0  0.0483
  H  H128  1  0.394400  0.846600  0.435100  1.0  0.1185
  H  H129  1  0.030700  0.749800  0.594400  1.0  0.3132
  H  H130  1  0.083800  0.735600  0.650000  1.0  0.3184
  H  H131  1  0.388900  0.463600  0.150800  1.0  0.0635
  H  H132  1  0.282700  0.416300  0.214400  1.0  0.115
  H  H133  1  0.257200  0.213400  0.103600  1.0  0.1203
  H  H134  1  0.357800  0.275400  0.038400  1.0  0.0598
  H  H135  1  0.204000  0.348100  0.281000  1.0  0.0755
  H  H136  1  0.092700  0.295600  0.335800  1.0  0.0988
  H  H137  1  0.999200  0.196800  0.294200  1.0  0.1074
  H  H138  1  0.136100  0.202200  0.135100  1.0  0.0955
  H  H139  1  0.881100  0.953600  0.039300  1.0  0.1086
  H  H140  1  0.768700  0.934900  0.969700  1.0  0.1131
  H  H141  1  0.666900  0.037600  0.961000  1.0  0.0949
  H  H142  1  0.777400  0.174900  0.094500  1.0  0.0941
  H  H143  1  0.652500  0.233700  0.108000  1.0  0.1349
  H  H144  1  0.555500  0.337800  0.093700  1.0  0.0596
  H  H145  1  0.509800  0.262400  0.925300  1.0  0.048
  H  H146  1  0.605600  0.153400  0.935100  1.0  0.1186
  H  H147  1  0.969300  0.250200  0.094400  1.0  0.313
  H  H148  1  0.916200  0.264400  0.150000  1.0  0.3183
  C  C149  1  0.586300  0.640600  0.360500  1.0  0.15
  C  C150  1  0.615000  0.703500  0.321700  1.0  -0.214
  C  C151  1  0.688100  0.746300  0.334600  1.0  0.0929
  C  C152  1  0.732900  0.719700  0.386800  1.0  -0.2465
  C  C153  1  0.695800  0.657500  0.424700  1.0  0.1441
  C  C154  1  0.719300  0.819500  0.298800  1.0  0.0069
  C  C155  1  0.692000  0.832900  0.237400  1.0  -0.1057
  C  C156  1  0.723500  0.898800  0.205300  1.0  -0.0671
  C  C157  1  0.782400  0.954600  0.229200  1.0  -0.1146
  C  C158  1  0.810000  0.939300  0.290800  1.0  -0.0459
  C  C159  1  0.778500  0.873100  0.323900  1.0  -0.1694
  C  C160  1  0.872200  0.996300  0.320500  1.0  0.239
  C  C161  1  0.924300  0.090900  0.381800  1.0  0.2455
  C  C162  1  0.932100  0.161500  0.426900  1.0  -0.038
  C  C163  1  0.005300  0.162500  0.464000  1.0  -0.0959
  C  C164  1  0.016000  0.228500  0.505100  1.0  -0.0797
  C  C165  1  0.955300  0.289600  0.509200  1.0  -0.1102
  C  C166  1  0.884600  0.291700  0.472700  1.0  0.0147
  C  C167  1  0.873900  0.224300  0.431100  1.0  -0.1141
  C  C168  1  0.819300  0.358000  0.478300  1.0  0.1021
  C  C169  1  0.761700  0.375800  0.430600  1.0  -0.2118
  C  C170  1  0.699500  0.433500  0.439800  1.0  0.1669
  C  C171  1  0.742900  0.460200  0.536900  1.0  0.1602
  C  C172  1  0.808700  0.402600  0.531400  1.0  -0.2255
  C  C173  1  0.413700  0.359400  0.860500  1.0  0.1494
  C  C174  1  0.385000  0.296500  0.821700  1.0  -0.2136
  C  C175  1  0.311900  0.253700  0.834600  1.0  0.0928
  C  C176  1  0.267100  0.280300  0.886800  1.0  -0.2463
  C  C177  1  0.304200  0.342500  0.924700  1.0  0.1435
  C  C178  1  0.280700  0.180500  0.798800  1.0  0.0075
  C  C179  1  0.308000  0.167100  0.737400  1.0  -0.105
  C  C180  1  0.276500  0.101200  0.705300  1.0  -0.0668
  C  C181  1  0.217600  0.045400  0.729200  1.0  -0.1108
  C  C182  1  0.190000  0.060700  0.790800  1.0  -0.0452
  C  C183  1  0.221500  0.126900  0.823900  1.0  -0.1695
  C  C184  1  0.127800  0.003700  0.820500  1.0  0.2391
  C  C185  1  0.075700  0.909100  0.881800  1.0  0.2461
  C  C186  1  0.067900  0.838500  0.926900  1.0  -0.0375
  C  C187  1  0.994700  0.837500  0.964000  1.0  -0.095
  C  C188  1  0.984000  0.771500  0.005100  1.0  -0.0801
  C  C189  1  0.044700  0.710400  0.009200  1.0  -0.1092
  C  C190  1  0.115400  0.708300  0.972700  1.0  0.0158
  C  C191  1  0.126100  0.775700  0.931100  1.0  -0.1142
  C  C192  1  0.180700  0.642000  0.978300  1.0  0.101
  C  C193  1  0.238300  0.624200  0.930600  1.0  -0.2112
  C  C194  1  0.300500  0.566500  0.939800  1.0  0.1666
  C  C195  1  0.257100  0.539800  0.036900  1.0  0.1605
  C  C196  1  0.191300  0.597400  0.031400  1.0  -0.2248
  C  C197  1  0.859400  0.086300  0.610500  1.0  0.1484
  C  C198  1  0.796500  0.115000  0.571700  1.0  -0.2167
  C  C199  1  0.753700  0.188100  0.584600  1.0  0.0918
  C  C200  1  0.780300  0.232900  0.636800  1.0  -0.249
  C  C201  1  0.842500  0.195800  0.674700  1.0  0.1424
  C  C202  1  0.680500  0.219300  0.548800  1.0  0.0077
  C  C203  1  0.667100  0.192000  0.487400  1.0  -0.1059
  C  C204  1  0.601200  0.223500  0.455300  1.0  -0.0666
  C  C205  1  0.545400  0.282400  0.479200  1.0  -0.1166
  C  C206  1  0.560700  0.310000  0.540800  1.0  -0.0454
  C  C207  1  0.626900  0.278500  0.573900  1.0  -0.1687
  C  C208  1  0.503700  0.372200  0.570500  1.0  0.2402
  C  C209  1  0.409100  0.424300  0.631800  1.0  0.2467
  C  C210  1  0.338500  0.432100  0.676900  1.0  -0.0375
  C  C211  1  0.337500  0.505300  0.714000  1.0  -0.0974
  C  C212  1  0.271500  0.516000  0.755100  1.0  -0.0777
  C  C213  1  0.210400  0.455300  0.759200  1.0  -0.1086
  C  C214  1  0.208300  0.384600  0.722700  1.0  0.0158
  C  C215  1  0.275700  0.373900  0.681100  1.0  -0.1121
  C  C216  1  0.142000  0.319300  0.728300  1.0  0.1022
  C  C217  1  0.124200  0.261700  0.680600  1.0  -0.2114
  C  C218  1  0.066500  0.199500  0.689800  1.0  0.1658
  C  C219  1  0.039800  0.242900  0.786900  1.0  0.1594
  C  C220  1  0.097400  0.308700  0.781400  1.0  -0.2254
  C  C221  1  0.140600  0.913700  0.110500  1.0  0.1478
  C  C222  1  0.203500  0.885000  0.071700  1.0  -0.2161
  C  C223  1  0.246300  0.811900  0.084600  1.0  0.0921
  C  C224  1  0.219700  0.767100  0.136800  1.0  -0.2475
  C  C225  1  0.157500  0.804200  0.174700  1.0  0.1417
  C  C226  1  0.319500  0.780700  0.048800  1.0  0.0069
  C  C227  1  0.332900  0.808000  0.987400  1.0  -0.1057
  C  C228  1  0.398800  0.776500  0.955300  1.0  -0.0664
  C  C229  1  0.454600  0.717600  0.979200  1.0  -0.1186
  C  C230  1  0.439300  0.690000  0.040800  1.0  -0.0454
  C  C231  1  0.373100  0.721500  0.073900  1.0  -0.1694
  C  C232  1  0.496300  0.627800  0.070500  1.0  0.2401
  C  C233  1  0.590900  0.575700  0.131800  1.0  0.2462
  C  C234  1  0.661500  0.567900  0.176900  1.0  -0.0374
  C  C235  1  0.662500  0.494700  0.214000  1.0  -0.0956
  C  C236  1  0.728500  0.484000  0.255100  1.0  -0.0767
  C  C237  1  0.789600  0.544700  0.259200  1.0  -0.1098
  C  C238  1  0.791700  0.615400  0.222700  1.0  0.0151
  C  C239  1  0.724300  0.626100  0.181100  1.0  -0.1129
  C  C240  1  0.858000  0.680700  0.228300  1.0  0.102
  C  C241  1  0.875800  0.738300  0.180600  1.0  -0.2113
  C  C242  1  0.933500  0.800500  0.189800  1.0  0.1663
  C  C243  1  0.960200  0.757100  0.286900  1.0  0.1589
  C  C244  1  0.902600  0.691300  0.281400  1.0  -0.2248
  C  C245  1  0.913700  0.140600  0.889500  1.0  0.1487
  C  C246  1  0.885000  0.203500  0.928300  1.0  -0.2141
  C  C247  1  0.811900  0.246300  0.915400  1.0  0.0933
  C  C248  1  0.767100  0.219700  0.863200  1.0  -0.2451
  C  C249  1  0.804200  0.157500  0.825300  1.0  0.1437
  C  C250  1  0.780700  0.319500  0.951200  1.0  0.0079
  C  C251  1  0.808000  0.332900  0.012600  1.0  -0.1062
  C  C252  1  0.776500  0.398800  0.044700  1.0  -0.0653
  C  C253  1  0.717600  0.454600  0.020800  1.0  -0.1094
  C  C254  1  0.690000  0.439300  0.959200  1.0  -0.0462
  C  C255  1  0.721500  0.373100  0.926100  1.0  -0.1704
  C  C256  1  0.627800  0.496300  0.929500  1.0  0.2387
  C  C257  1  0.575700  0.590900  0.868200  1.0  0.2448
  C  C258  1  0.567900  0.661500  0.823100  1.0  -0.0378
  C  C259  1  0.494700  0.662500  0.786000  1.0  -0.0952
  C  C260  1  0.484000  0.728500  0.744900  1.0  -0.0801
  C  C261  1  0.544700  0.789600  0.740800  1.0  -0.1092
  C  C262  1  0.615400  0.791700  0.777300  1.0  0.0162
  C  C263  1  0.626100  0.724300  0.818900  1.0  -0.1138
  C  C264  1  0.680700  0.858000  0.771700  1.0  0.1013
  C  C265  1  0.738300  0.875800  0.819400  1.0  -0.2102
  C  C266  1  0.800500  0.933500  0.810200  1.0  0.1666
  C  C267  1  0.757100  0.960200  0.713100  1.0  0.1611
  C  C268  1  0.691300  0.902600  0.718600  1.0  -0.2265
  C  C269  1  0.086300  0.859400  0.389500  1.0  0.1498
  C  C270  1  0.115000  0.796500  0.428300  1.0  -0.2141
  C  C271  1  0.188100  0.753700  0.415400  1.0  0.0931
  C  C272  1  0.232900  0.780300  0.363200  1.0  -0.2457
  C  C273  1  0.195800  0.842500  0.325300  1.0  0.1436
  C  C274  1  0.219300  0.680500  0.451200  1.0  0.0078
  C  C275  1  0.192000  0.667100  0.512600  1.0  -0.1046
  C  C276  1  0.223500  0.601200  0.544700  1.0  -0.0663
  C  C277  1  0.282400  0.545400  0.520800  1.0  -0.1143
  C  C278  1  0.310000  0.560700  0.459200  1.0  -0.046
  C  C279  1  0.278500  0.626900  0.426100  1.0  -0.1703
  C  C280  1  0.372200  0.503700  0.429500  1.0  0.2382
  C  C281  1  0.424300  0.409100  0.368200  1.0  0.2439
  C  C282  1  0.432100  0.338500  0.323100  1.0  -0.0379
  C  C283  1  0.505300  0.337500  0.286000  1.0  -0.0958
  C  C284  1  0.516000  0.271500  0.244900  1.0  -0.079
  C  C285  1  0.455300  0.210400  0.240800  1.0  -0.1103
  C  C286  1  0.384600  0.208300  0.277300  1.0  0.015
  C  C287  1  0.373900  0.275700  0.318900  1.0  -0.114
  C  C288  1  0.319300  0.142000  0.271700  1.0  0.1015
  C  C289  1  0.261700  0.124200  0.319400  1.0  -0.2104
  C  C290  1  0.199500  0.066500  0.310200  1.0  0.1674
  C  C291  1  0.242900  0.039800  0.213100  1.0  0.1601
  C  C292  1  0.308700  0.097400  0.218600  1.0  -0.2256
  C  C293  1  0.640600  0.586300  0.639500  1.0  0.1477
  C  C294  1  0.703500  0.615000  0.678300  1.0  -0.2155
  C  C295  1  0.746300  0.688100  0.665400  1.0  0.0926
  C  C296  1  0.719700  0.732900  0.613200  1.0  -0.2469
  C  C297  1  0.657500  0.695800  0.575300  1.0  0.1414
  C  C298  1  0.819500  0.719300  0.701200  1.0  0.0076
  C  C299  1  0.832900  0.692000  0.762600  1.0  -0.1062
  C  C300  1  0.898800  0.723500  0.794700  1.0  -0.0653
  C  C301  1  0.954600  0.782400  0.770800  1.0  -0.1166
  C  C302  1  0.939300  0.810000  0.709200  1.0  -0.0458
  C  C303  1  0.873100  0.778500  0.676100  1.0  -0.1701
  C  C304  1  0.996300  0.872200  0.679500  1.0  0.2393
  C  C305  1  0.090900  0.924300  0.618200  1.0  0.2445
  C  C306  1  0.161500  0.932100  0.573100  1.0  -0.037
  C  C307  1  0.162500  0.005300  0.536000  1.0  -0.0964
  C  C308  1  0.228500  0.016000  0.494900  1.0  -0.0766
  C  C309  1  0.289600  0.955300  0.490800  1.0  -0.1112
  C  C310  1  0.291700  0.884600  0.527300  1.0  0.0148
  C  C311  1  0.224300  0.873900  0.568900  1.0  -0.1127
  C  C312  1  0.358000  0.819300  0.521700  1.0  0.1022
  C  C313  1  0.375800  0.761700  0.569400  1.0  -0.2098
  C  C314  1  0.433500  0.699500  0.560200  1.0  0.1661
  C  C315  1  0.460200  0.742900  0.463100  1.0  0.1598
  C  C316  1  0.402600  0.808700  0.468600  1.0  -0.2251
  C  C317  1  0.359400  0.413700  0.139500  1.0  0.1482
  C  C318  1  0.296500  0.385000  0.178300  1.0  -0.217
  C  C319  1  0.253700  0.311900  0.165400  1.0  0.092
  C  C320  1  0.280300  0.267100  0.113200  1.0  -0.2482
  C  C321  1  0.342500  0.304200  0.075300  1.0  0.1425
  C  C322  1  0.180500  0.280700  0.201200  1.0  0.0076
  C  C323  1  0.167100  0.308000  0.262600  1.0  -0.1069
  C  C324  1  0.101200  0.276500  0.294700  1.0  -0.0651
  C  C325  1  0.045400  0.217600  0.270800  1.0  -0.1171
  C  C326  1  0.060700  0.190000  0.209200  1.0  -0.0459
  C  C327  1  0.126900  0.221500  0.176100  1.0  -0.1695
  C  C328  1  0.003700  0.127800  0.179500  1.0  0.2399
  C  C329  1  0.909100  0.075700  0.118200  1.0  0.2453
  C  C330  1  0.838500  0.067900  0.073100  1.0  -0.0374
  C  C331  1  0.837500  0.994700  0.036000  1.0  -0.0969
  C  C332  1  0.771500  0.984000  0.994900  1.0  -0.0767
  C  C333  1  0.710400  0.044700  0.990800  1.0  -0.109
  C  C334  1  0.708300  0.115400  0.027300  1.0  0.0166
  C  C335  1  0.775700  0.126100  0.068900  1.0  -0.1122
  C  C336  1  0.642000  0.180700  0.021700  1.0  0.1017
  C  C337  1  0.624200  0.238300  0.069400  1.0  -0.2103
  C  C338  1  0.566500  0.300500  0.060200  1.0  0.166
  C  C339  1  0.539800  0.257100  0.963100  1.0  0.1589
  C  C340  1  0.597400  0.191300  0.968600  1.0  -0.2257
  N  N341  1  0.624200  0.619200  0.412300  1.0  -0.3434
  N  N342  1  0.954600  0.993800  0.315200  1.0  -0.245
  N  N343  1  0.988100  0.054800  0.354600  1.0  -0.294
  N  N344  1  0.850600  0.056000  0.362100  1.0  0.1004
  N  N345  1  0.769900  0.074900  0.383100  1.0  -0.5525
  N  N346  1  0.686700  0.476100  0.492500  1.0  -0.3668
  N  N347  1  0.375800  0.380800  0.912300  1.0  -0.3438
  N  N348  1  0.045400  0.006200  0.815200  1.0  -0.2453
  N  N349  1  0.011900  0.945200  0.854600  1.0  -0.2936
  N  N350  1  0.149400  0.944000  0.862100  1.0  0.1004
  N  N351  1  0.230100  0.925100  0.883100  1.0  -0.5528
  N  N352  1  0.313300  0.523900  0.992500  1.0  -0.367
  N  N353  1  0.880800  0.124200  0.662300  1.0  -0.3438
  N  N354  1  0.506200  0.454600  0.565200  1.0  -0.246
  N  N355  1  0.445200  0.488100  0.604600  1.0  -0.2936
  N  N356  1  0.444000  0.350600  0.612100  1.0  0.1
  N  N357  1  0.425100  0.269900  0.633100  1.0  -0.5536
  N  N358  1  0.023900  0.186700  0.742500  1.0  -0.367
  N  N359  1  0.119200  0.875800  0.162300  1.0  -0.3448
  N  N360  1  0.493800  0.545400  0.065200  1.0  -0.2462
  N  N361  1  0.554800  0.511900  0.104600  1.0  -0.2942
  N  N362  1  0.556000  0.649400  0.112100  1.0  0.0996
  N  N363  1  0.574900  0.730100  0.133100  1.0  -0.5532
  N  N364  1  0.976100  0.813300  0.242500  1.0  -0.3667
  N  N365  1  0.875800  0.119200  0.837700  1.0  -0.3435
  N  N366  1  0.545400  0.493800  0.934800  1.0  -0.246
  N  N367  1  0.511900  0.554800  0.895400  1.0  -0.2942
  N  N368  1  0.649400  0.556000  0.887900  1.0  0.1002
  N  N369  1  0.730100  0.574900  0.866900  1.0  -0.5515
  N  N370  1  0.813300  0.976100  0.757500  1.0  -0.3682
  N  N371  1  0.124200  0.880800  0.337700  1.0  -0.3443
  N  N372  1  0.454600  0.506200  0.434800  1.0  -0.2453
  N  N373  1  0.488100  0.445200  0.395400  1.0  -0.2945
  N  N374  1  0.350600  0.444000  0.387900  1.0  0.1001
  N  N375  1  0.269900  0.425100  0.366900  1.0  -0.5519
  N  N376  1  0.186700  0.023900  0.257500  1.0  -0.3666
  N  N377  1  0.619200  0.624200  0.587700  1.0  -0.3448
  N  N378  1  0.993800  0.954600  0.684800  1.0  -0.2465
  N  N379  1  0.054800  0.988100  0.645400  1.0  -0.2946
  N  N380  1  0.056000  0.850600  0.637900  1.0  0.0994
  N  N381  1  0.074900  0.769900  0.616900  1.0  -0.553
  N  N382  1  0.476100  0.686700  0.507500  1.0  -0.367
  N  N383  1  0.380800  0.375800  0.087700  1.0  -0.3442
  N  N384  1  0.006200  0.045400  0.184800  1.0  -0.2456
  N  N385  1  0.945200  0.011900  0.145400  1.0  -0.2946
  N  N386  1  0.944000  0.149400  0.137900  1.0  0.0994
  N  N387  1  0.925100  0.230100  0.116900  1.0  -0.5533
  N  N388  1  0.523900  0.313300  0.007500  1.0  -0.3673
  Cl  Cl389  1  0.730450  0.730450  0.000000  1.0  1.7941
  Cl  Cl390  1  0.269550  0.269550  0.500000  1.0  1.7966
  Cl  Cl391  1  0.769550  0.230450  0.250000  1.0  1.7955
  Cl  Cl392  1  0.230450  0.769550  0.750000  1.0  1.7956
  O  O393  1  0.765800  0.763200  0.052300  1.0  -0.6397
  O  O394  1  0.724000  0.660600  0.002600  1.0  -0.5792
  O  O395  1  0.763200  0.765800  0.947700  1.0  -0.6392
  O  O396  1  0.660600  0.724000  0.997400  1.0  -0.581
  O  O397  1  0.234200  0.236800  0.552300  1.0  -0.6392
  O  O398  1  0.276000  0.339400  0.502600  1.0  -0.5806
  O  O399  1  0.236800  0.234200  0.447700  1.0  -0.6396
  O  O400  1  0.339400  0.276000  0.497400  1.0  -0.5806
  O  O401  1  0.736800  0.265800  0.302300  1.0  -0.6402
  O  O402  1  0.839400  0.224000  0.252600  1.0  -0.5809
  O  O403  1  0.734200  0.263200  0.197700  1.0  -0.6391
  O  O404  1  0.776000  0.160600  0.247400  1.0  -0.5793
  O  O405  1  0.263200  0.734200  0.802300  1.0  -0.6395
  O  O406  1  0.160600  0.776000  0.752600  1.0  -0.5809
  O  O407  1  0.265800  0.736800  0.697700  1.0  -0.6393
  O  O408  1  0.224000  0.839400  0.747400  1.0  -0.5808
