# generated using pymatgen
data_CdH36C48N12(ClO4)2
_symmetry_space_group_name_H-M   'P 1'
_cell_length_a   15.85390000
_cell_length_b   15.85390000
_cell_length_c   21.66000000
_cell_angle_alpha   90.00000000
_cell_angle_beta   90.00000000
_cell_angle_gamma   90.00000000
_symmetry_Int_Tables_number   1
_chemical_formula_structural   CdH36C48N12(ClO4)2
_chemical_formula_sum   'Cd4 H144 C192 N48 Cl8 O32'
_cell_volume   5444.15750525
_cell_formula_units_Z   4
loop_
 _symmetry_equiv_pos_site_id
 _symmetry_equiv_pos_as_xyz
  1  'x, y, z'
loop_
 _atom_site_type_symbol
 _atom_site_label
 _atom_site_symmetry_multiplicity
 _atom_site_fract_x
 _atom_site_fract_y
 _atom_site_fract_z
 _atom_site_occupancy
 _atom_site_charge
  Cd  Cd1  1  0.941880  0.058120  0.750000  1.0  0.7896
  Cd  Cd2  1  0.058120  0.941880  0.250000  1.0  0.7898
  Cd  Cd3  1  0.441880  0.441880  0.500000  1.0  0.7904
  Cd  Cd4  1  0.558120  0.558120  0.000000  1.0  0.789
  H  H5  1  0.462100  0.389300  0.650800  1.0  0.0751
  H  H6  1  0.415100  0.285700  0.716200  1.0  0.1319
  H  H7  1  0.213300  0.258600  0.604400  1.0  0.1242
  H  H8  1  0.273200  0.357900  0.539200  1.0  0.0672
  H  H9  1  0.348900  0.201900  0.779800  1.0  0.076
  H  H10  1  0.294300  0.092700  0.837300  1.0  0.1205
  H  H11  1  0.197100  0.997200  0.792200  1.0  0.0918
  H  H12  1  0.202000  0.135100  0.635600  1.0  0.0999
  H  H13  1  0.954400  0.881100  0.538300  1.0  0.1098
  H  H14  1  0.933600  0.768700  0.470300  1.0  0.1165
  H  H15  1  0.036700  0.664900  0.459200  1.0  0.103
  H  H16  1  0.174200  0.776300  0.594900  1.0  0.0998
  H  H17  1  0.231400  0.652400  0.607700  1.0  0.1434
  H  H18  1  0.338200  0.555100  0.593400  1.0  0.0617
  H  H19  1  0.264700  0.510100  0.424800  1.0  0.0652
  H  H20  1  0.155300  0.605200  0.433600  1.0  0.1291
  H  H21  1  0.250200  0.970200  0.593600  1.0  0.3276
  H  H22  1  0.264400  0.917100  0.649200  1.0  0.3115
  H  H23  1  0.537900  0.610700  0.150800  1.0  0.0752
  H  H24  1  0.584900  0.714300  0.216200  1.0  0.1322
  H  H25  1  0.786700  0.741400  0.104400  1.0  0.1241
  H  H26  1  0.726800  0.642100  0.039200  1.0  0.0677
  H  H27  1  0.651100  0.798100  0.279800  1.0  0.0766
  H  H28  1  0.705700  0.907300  0.337300  1.0  0.1209
  H  H29  1  0.802900  0.002800  0.292200  1.0  0.0912
  H  H30  1  0.798000  0.864900  0.135600  1.0  0.0998
  H  H31  1  0.045600  0.118900  0.038300  1.0  0.11
  H  H32  1  0.066400  0.231300  0.970300  1.0  0.1167
  H  H33  1  0.963300  0.335100  0.959200  1.0  0.1031
  H  H34  1  0.825800  0.223700  0.094900  1.0  0.0997
  H  H35  1  0.768600  0.347600  0.107700  1.0  0.1431
  H  H36  1  0.661800  0.444900  0.093400  1.0  0.0615
  H  H37  1  0.735300  0.489900  0.924800  1.0  0.0654
  H  H38  1  0.844700  0.394800  0.933600  1.0  0.1288
  H  H39  1  0.749800  0.029800  0.093600  1.0  0.3263
  H  H40  1  0.735600  0.082900  0.149200  1.0  0.3114
  H  H41  1  0.110700  0.962100  0.400800  1.0  0.0755
  H  H42  1  0.214300  0.915100  0.466200  1.0  0.1325
  H  H43  1  0.241400  0.713300  0.354400  1.0  0.1244
  H  H44  1  0.142100  0.773200  0.289200  1.0  0.0669
  H  H45  1  0.298100  0.848900  0.529800  1.0  0.0771
  H  H46  1  0.407300  0.794300  0.587300  1.0  0.1212
  H  H47  1  0.502800  0.697100  0.542200  1.0  0.0916
  H  H48  1  0.364900  0.702000  0.385600  1.0  0.1002
  H  H49  1  0.618900  0.454400  0.288300  1.0  0.1097
  H  H50  1  0.731300  0.433600  0.220300  1.0  0.1167
  H  H51  1  0.835100  0.536700  0.209200  1.0  0.1035
  H  H52  1  0.723700  0.674200  0.344900  1.0  0.0997
  H  H53  1  0.847600  0.731400  0.357700  1.0  0.143
  H  H54  1  0.944900  0.838200  0.343400  1.0  0.0619
  H  H55  1  0.989900  0.764700  0.174800  1.0  0.0654
  H  H56  1  0.894800  0.655300  0.183600  1.0  0.129
  H  H57  1  0.529800  0.750200  0.343600  1.0  0.3264
  H  H58  1  0.582900  0.764400  0.399200  1.0  0.3114
  H  H59  1  0.889300  0.037900  0.900800  1.0  0.0753
  H  H60  1  0.785700  0.084900  0.966200  1.0  0.1327
  H  H61  1  0.758600  0.286700  0.854400  1.0  0.1248
  H  H62  1  0.857900  0.226800  0.789200  1.0  0.0669
  H  H63  1  0.701900  0.151100  0.029800  1.0  0.0771
  H  H64  1  0.592700  0.205700  0.087300  1.0  0.121
  H  H65  1  0.497200  0.302900  0.042200  1.0  0.0919
  H  H66  1  0.635100  0.298000  0.885600  1.0  0.1002
  H  H67  1  0.381100  0.545600  0.788300  1.0  0.1097
  H  H68  1  0.268700  0.566400  0.720300  1.0  0.117
  H  H69  1  0.164900  0.463300  0.709200  1.0  0.1037
  H  H70  1  0.276300  0.325800  0.844900  1.0  0.1002
  H  H71  1  0.152400  0.268600  0.857700  1.0  0.1428
  H  H72  1  0.055100  0.161800  0.843400  1.0  0.0625
  H  H73  1  0.010100  0.235300  0.674800  1.0  0.0654
  H  H74  1  0.105200  0.344700  0.683600  1.0  0.1288
  H  H75  1  0.470200  0.249800  0.843600  1.0  0.3257
  H  H76  1  0.417100  0.235600  0.899200  1.0  0.3121
  H  H77  1  0.037900  0.889300  0.099200  1.0  0.0752
  H  H78  1  0.084900  0.785700  0.033800  1.0  0.1324
  H  H79  1  0.286700  0.758600  0.145600  1.0  0.1244
  H  H80  1  0.226800  0.857900  0.210800  1.0  0.0673
  H  H81  1  0.151100  0.701900  0.970200  1.0  0.0766
  H  H82  1  0.205700  0.592700  0.912700  1.0  0.1211
  H  H83  1  0.302900  0.497200  0.957800  1.0  0.0912
  H  H84  1  0.298000  0.635100  0.114400  1.0  0.0998
  H  H85  1  0.545600  0.381100  0.211700  1.0  0.1098
  H  H86  1  0.566400  0.268700  0.279700  1.0  0.117
  H  H87  1  0.463300  0.164900  0.290800  1.0  0.103
  H  H88  1  0.325800  0.276300  0.155100  1.0  0.0997
  H  H89  1  0.268600  0.152400  0.142300  1.0  0.1439
  H  H90  1  0.161800  0.055100  0.156600  1.0  0.0612
  H  H91  1  0.235300  0.010100  0.325200  1.0  0.0653
  H  H92  1  0.344700  0.105200  0.316400  1.0  0.1285
  H  H93  1  0.249800  0.470200  0.156400  1.0  0.3273
  H  H94  1  0.235600  0.417100  0.100800  1.0  0.3108
  H  H95  1  0.962100  0.110700  0.599200  1.0  0.0749
  H  H96  1  0.915100  0.214300  0.533800  1.0  0.1321
  H  H97  1  0.713300  0.241400  0.645600  1.0  0.1241
  H  H98  1  0.773200  0.142100  0.710800  1.0  0.0674
  H  H99  1  0.848900  0.298100  0.470200  1.0  0.0761
  H  H100  1  0.794300  0.407300  0.412700  1.0  0.1211
  H  H101  1  0.697100  0.502800  0.457800  1.0  0.0923
  H  H102  1  0.702000  0.364900  0.614400  1.0  0.0997
  H  H103  1  0.454400  0.618900  0.711700  1.0  0.1098
  H  H104  1  0.433600  0.731300  0.779700  1.0  0.1164
  H  H105  1  0.536700  0.835100  0.790800  1.0  0.1028
  H  H106  1  0.674200  0.723700  0.655100  1.0  0.0998
  H  H107  1  0.731400  0.847600  0.642300  1.0  0.1434
  H  H108  1  0.838200  0.944900  0.656600  1.0  0.0616
  H  H109  1  0.764700  0.989900  0.825200  1.0  0.0657
  H  H110  1  0.655300  0.894800  0.816400  1.0  0.1285
  H  H111  1  0.750200  0.529800  0.656400  1.0  0.3282
  H  H112  1  0.764400  0.582900  0.600800  1.0  0.3116
  H  H113  1  0.389300  0.462100  0.349200  1.0  0.0753
  H  H114  1  0.285700  0.415100  0.283800  1.0  0.1331
  H  H115  1  0.258600  0.213300  0.395600  1.0  0.1247
  H  H116  1  0.357900  0.273200  0.460800  1.0  0.067
  H  H117  1  0.201900  0.348900  0.220200  1.0  0.0771
  H  H118  1  0.092700  0.294300  0.162700  1.0  0.1214
  H  H119  1  0.997200  0.197100  0.207800  1.0  0.0921
  H  H120  1  0.135100  0.202000  0.364400  1.0  0.0996
  H  H121  1  0.881100  0.954400  0.461700  1.0  0.1098
  H  H122  1  0.768700  0.933600  0.529700  1.0  0.1172
  H  H123  1  0.664900  0.036700  0.540800  1.0  0.1034
  H  H124  1  0.776300  0.174200  0.405100  1.0  0.1002
  H  H125  1  0.652400  0.231400  0.392300  1.0  0.143
  H  H126  1  0.555100  0.338200  0.406600  1.0  0.0618
  H  H127  1  0.510100  0.264700  0.575200  1.0  0.0653
  H  H128  1  0.605200  0.155300  0.566400  1.0  0.1286
  H  H129  1  0.970200  0.250200  0.406400  1.0  0.3271
  H  H130  1  0.917100  0.264400  0.350800  1.0  0.3114
  H  H131  1  0.610700  0.537900  0.849200  1.0  0.0748
  H  H132  1  0.714300  0.584900  0.783800  1.0  0.1322
  H  H133  1  0.741400  0.786700  0.895600  1.0  0.1242
  H  H134  1  0.642100  0.726800  0.960800  1.0  0.0668
  H  H135  1  0.798100  0.651100  0.720200  1.0  0.0777
  H  H136  1  0.907300  0.705700  0.662700  1.0  0.1209
  H  H137  1  0.002800  0.802900  0.707800  1.0  0.0916
  H  H138  1  0.864900  0.798000  0.864400  1.0  0.1002
  H  H139  1  0.118900  0.045600  0.961700  1.0  0.1099
  H  H140  1  0.231300  0.066400  0.029700  1.0  0.1163
  H  H141  1  0.335100  0.963300  0.040800  1.0  0.1034
  H  H142  1  0.223700  0.825800  0.905100  1.0  0.1003
  H  H143  1  0.347600  0.768600  0.892300  1.0  0.1429
  H  H144  1  0.444900  0.661800  0.906600  1.0  0.0622
  H  H145  1  0.489900  0.735300  0.075200  1.0  0.066
  H  H146  1  0.394800  0.844700  0.066400  1.0  0.1283
  H  H147  1  0.029800  0.749800  0.906400  1.0  0.3265
  H  H148  1  0.082900  0.735600  0.850800  1.0  0.3122
  C  C149  1  0.412500  0.359300  0.639800  1.0  0.1728
  C  C150  1  0.384600  0.297900  0.679500  1.0  -0.1993
  C  C151  1  0.310800  0.253200  0.665200  1.0  0.1157
  C  C152  1  0.267300  0.281200  0.613700  1.0  -0.2037
  C  C153  1  0.302600  0.342300  0.575600  1.0  0.1442
  C  C154  1  0.279700  0.181800  0.701800  1.0  0.0059
  C  C155  1  0.307400  0.166100  0.762100  1.0  -0.073
  C  C156  1  0.276200  0.100600  0.795900  1.0  -0.0795
  C  C157  1  0.217200  0.044500  0.769600  1.0  -0.0504
  C  C158  1  0.189300  0.060100  0.709700  1.0  -0.0497
  C  C159  1  0.220800  0.126500  0.676800  1.0  -0.1106
  C  C160  1  0.127000  0.003400  0.679600  1.0  0.2467
  C  C161  1  0.075000  0.907800  0.617200  1.0  0.2508
  C  C162  1  0.067500  0.838500  0.572700  1.0  -0.0188
  C  C163  1  0.995000  0.837200  0.535400  1.0  -0.0742
  C  C164  1  0.983300  0.771100  0.494700  1.0  -0.0655
  C  C165  1  0.044000  0.708100  0.489100  1.0  -0.1071
  C  C166  1  0.115400  0.707700  0.526800  1.0  0.0113
  C  C167  1  0.126000  0.775000  0.568900  1.0  -0.1134
  C  C168  1  0.181100  0.642100  0.521300  1.0  0.1168
  C  C169  1  0.237000  0.624600  0.569000  1.0  -0.1914
  C  C170  1  0.301000  0.566200  0.560000  1.0  0.1649
  C  C171  1  0.258600  0.540000  0.462500  1.0  0.1763
  C  C172  1  0.192600  0.597100  0.467400  1.0  -0.2188
  C  C173  1  0.587500  0.640700  0.139800  1.0  0.1728
  C  C174  1  0.615400  0.702100  0.179500  1.0  -0.1997
  C  C175  1  0.689200  0.746800  0.165200  1.0  0.1163
  C  C176  1  0.732700  0.718800  0.113700  1.0  -0.2046
  C  C177  1  0.697400  0.657700  0.075600  1.0  0.1444
  C  C178  1  0.720300  0.818200  0.201800  1.0  0.0066
  C  C179  1  0.692600  0.833900  0.262100  1.0  -0.0731
  C  C180  1  0.723800  0.899400  0.295900  1.0  -0.0797
  C  C181  1  0.782800  0.955500  0.269600  1.0  -0.0533
  C  C182  1  0.810700  0.939900  0.209700  1.0  -0.0494
  C  C183  1  0.779200  0.873500  0.176800  1.0  -0.1108
  C  C184  1  0.873000  0.996600  0.179600  1.0  0.2459
  C  C185  1  0.925000  0.092200  0.117200  1.0  0.2511
  C  C186  1  0.932500  0.161500  0.072700  1.0  -0.0192
  C  C187  1  0.005000  0.162800  0.035400  1.0  -0.0743
  C  C188  1  0.016700  0.228900  0.994700  1.0  -0.065
  C  C189  1  0.956000  0.291900  0.989100  1.0  -0.1079
  C  C190  1  0.884600  0.292300  0.026800  1.0  0.0103
  C  C191  1  0.874000  0.225000  0.068900  1.0  -0.1149
  C  C192  1  0.818900  0.357900  0.021300  1.0  0.1166
  C  C193  1  0.763000  0.375400  0.069000  1.0  -0.1911
  C  C194  1  0.699000  0.433800  0.060000  1.0  0.1645
  C  C195  1  0.741400  0.460000  0.962500  1.0  0.1776
  C  C196  1  0.807400  0.402900  0.967400  1.0  -0.2177
  C  C197  1  0.140700  0.912500  0.389800  1.0  0.1719
  C  C198  1  0.202100  0.884600  0.429500  1.0  -0.2016
  C  C199  1  0.246800  0.810800  0.415200  1.0  0.1154
  C  C200  1  0.218800  0.767300  0.363700  1.0  -0.2032
  C  C201  1  0.157700  0.802600  0.325600  1.0  0.1421
  C  C202  1  0.318200  0.779700  0.451800  1.0  0.0063
  C  C203  1  0.333900  0.807400  0.512100  1.0  -0.073
  C  C204  1  0.399400  0.776200  0.545900  1.0  -0.079
  C  C205  1  0.455500  0.717200  0.519600  1.0  -0.0543
  C  C206  1  0.439900  0.689300  0.459700  1.0  -0.0486
  C  C207  1  0.373500  0.720800  0.426800  1.0  -0.1114
  C  C208  1  0.496600  0.627000  0.429600  1.0  0.2484
  C  C209  1  0.592200  0.575000  0.367200  1.0  0.2517
  C  C210  1  0.661500  0.567500  0.322700  1.0  -0.02
  C  C211  1  0.662800  0.495000  0.285400  1.0  -0.0743
  C  C212  1  0.728900  0.483300  0.244700  1.0  -0.0628
  C  C213  1  0.791900  0.544000  0.239100  1.0  -0.1084
  C  C214  1  0.792300  0.615400  0.276800  1.0  0.0106
  C  C215  1  0.725000  0.626000  0.318900  1.0  -0.1129
  C  C216  1  0.857900  0.681100  0.271300  1.0  0.1179
  C  C217  1  0.875400  0.737000  0.319000  1.0  -0.1915
  C  C218  1  0.933800  0.801000  0.310000  1.0  0.1649
  C  C219  1  0.960000  0.758600  0.212500  1.0  0.176
  C  C220  1  0.902900  0.692600  0.217400  1.0  -0.2184
  C  C221  1  0.859300  0.087500  0.889800  1.0  0.1713
  C  C222  1  0.797900  0.115400  0.929500  1.0  -0.2016
  C  C223  1  0.753200  0.189200  0.915200  1.0  0.1158
  C  C224  1  0.781200  0.232700  0.863700  1.0  -0.2034
  C  C225  1  0.842300  0.197400  0.825600  1.0  0.1438
  C  C226  1  0.681800  0.220300  0.951800  1.0  0.0071
  C  C227  1  0.666100  0.192600  0.012100  1.0  -0.073
  C  C228  1  0.600600  0.223800  0.045900  1.0  -0.0783
  C  C229  1  0.544500  0.282800  0.019600  1.0  -0.0536
  C  C230  1  0.560100  0.310700  0.959700  1.0  -0.0497
  C  C231  1  0.626500  0.279200  0.926800  1.0  -0.1109
  C  C232  1  0.503400  0.373000  0.929600  1.0  0.248
  C  C233  1  0.407800  0.425000  0.867200  1.0  0.2515
  C  C234  1  0.338500  0.432500  0.822700  1.0  -0.0197
  C  C235  1  0.337200  0.505000  0.785400  1.0  -0.074
  C  C236  1  0.271100  0.516700  0.744700  1.0  -0.0632
  C  C237  1  0.208100  0.456000  0.739100  1.0  -0.1078
  C  C238  1  0.207700  0.384600  0.776800  1.0  0.0128
  C  C239  1  0.275000  0.374000  0.818900  1.0  -0.1127
  C  C240  1  0.142100  0.318900  0.771300  1.0  0.1175
  C  C241  1  0.124600  0.263000  0.819000  1.0  -0.192
  C  C242  1  0.066200  0.199000  0.810000  1.0  0.1642
  C  C243  1  0.040000  0.241400  0.712500  1.0  0.1759
  C  C244  1  0.097100  0.307400  0.717400  1.0  -0.2182
  C  C245  1  0.087500  0.859300  0.110200  1.0  0.1728
  C  C246  1  0.115400  0.797900  0.070500  1.0  -0.1994
  C  C247  1  0.189200  0.753200  0.084800  1.0  0.1163
  C  C248  1  0.232700  0.781200  0.136300  1.0  -0.2042
  C  C249  1  0.197400  0.842300  0.174400  1.0  0.1445
  C  C250  1  0.220300  0.681800  0.048200  1.0  0.0066
  C  C251  1  0.192600  0.666100  0.987900  1.0  -0.0724
  C  C252  1  0.223800  0.600600  0.954100  1.0  -0.0808
  C  C253  1  0.282800  0.544500  0.980400  1.0  -0.0535
  C  C254  1  0.310700  0.560100  0.040300  1.0  -0.0495
  C  C255  1  0.279200  0.626500  0.073200  1.0  -0.111
  C  C256  1  0.373000  0.503400  0.070400  1.0  0.2463
  C  C257  1  0.425000  0.407800  0.132800  1.0  0.2511
  C  C258  1  0.432500  0.338500  0.177300  1.0  -0.0188
  C  C259  1  0.505000  0.337200  0.214600  1.0  -0.0748
  C  C260  1  0.516700  0.271100  0.255300  1.0  -0.0648
  C  C261  1  0.456000  0.208100  0.260900  1.0  -0.1081
  C  C262  1  0.384600  0.207700  0.223200  1.0  0.0109
  C  C263  1  0.374000  0.275000  0.181100  1.0  -0.1146
  C  C264  1  0.318900  0.142100  0.228700  1.0  0.1167
  C  C265  1  0.263000  0.124600  0.181000  1.0  -0.1921
  C  C266  1  0.199000  0.066200  0.190000  1.0  0.1645
  C  C267  1  0.241400  0.040000  0.287500  1.0  0.1773
  C  C268  1  0.307400  0.097100  0.282600  1.0  -0.2184
  C  C269  1  0.912500  0.140700  0.610200  1.0  0.1728
  C  C270  1  0.884600  0.202100  0.570500  1.0  -0.1997
  C  C271  1  0.810800  0.246800  0.584800  1.0  0.1157
  C  C272  1  0.767300  0.218800  0.636300  1.0  -0.2039
  C  C273  1  0.802600  0.157700  0.674400  1.0  0.1443
  C  C274  1  0.779700  0.318200  0.548200  1.0  0.0051
  C  C275  1  0.807400  0.333900  0.487900  1.0  -0.073
  C  C276  1  0.776200  0.399400  0.454100  1.0  -0.0791
  C  C277  1  0.717200  0.455500  0.480400  1.0  -0.0519
  C  C278  1  0.689300  0.439900  0.540300  1.0  -0.049
  C  C279  1  0.720800  0.373500  0.573200  1.0  -0.1107
  C  C280  1  0.627000  0.496600  0.570400  1.0  0.247
  C  C281  1  0.575000  0.592200  0.632800  1.0  0.2509
  C  C282  1  0.567500  0.661500  0.677300  1.0  -0.0189
  C  C283  1  0.495000  0.662800  0.714600  1.0  -0.0744
  C  C284  1  0.483300  0.728900  0.755300  1.0  -0.0654
  C  C285  1  0.544000  0.791900  0.760900  1.0  -0.1071
  C  C286  1  0.615400  0.792300  0.723200  1.0  0.0111
  C  C287  1  0.626000  0.725000  0.681100  1.0  -0.1137
  C  C288  1  0.681100  0.857900  0.728700  1.0  0.1177
  C  C289  1  0.737000  0.875400  0.681000  1.0  -0.1916
  C  C290  1  0.801000  0.933800  0.690000  1.0  0.1646
  C  C291  1  0.758600  0.960000  0.787500  1.0  0.1761
  C  C292  1  0.692600  0.902900  0.782600  1.0  -0.2187
  C  C293  1  0.359300  0.412500  0.360200  1.0  0.1714
  C  C294  1  0.297900  0.384600  0.320500  1.0  -0.2008
  C  C295  1  0.253200  0.310800  0.334800  1.0  0.1159
  C  C296  1  0.281200  0.267300  0.386300  1.0  -0.2036
  C  C297  1  0.342300  0.302600  0.424400  1.0  0.1437
  C  C298  1  0.181800  0.279700  0.298200  1.0  0.0059
  C  C299  1  0.166100  0.307400  0.237900  1.0  -0.0729
  C  C300  1  0.100600  0.276200  0.204100  1.0  -0.0786
  C  C301  1  0.044500  0.217200  0.230400  1.0  -0.0549
  C  C302  1  0.060100  0.189300  0.290300  1.0  -0.0491
  C  C303  1  0.126500  0.220800  0.323200  1.0  -0.1117
  C  C304  1  0.003400  0.127000  0.320400  1.0  0.248
  C  C305  1  0.907800  0.075000  0.382800  1.0  0.2518
  C  C306  1  0.838500  0.067500  0.427300  1.0  -0.0197
  C  C307  1  0.837200  0.995000  0.464600  1.0  -0.0746
  C  C308  1  0.771100  0.983300  0.505300  1.0  -0.0634
  C  C309  1  0.708100  0.044000  0.510900  1.0  -0.1074
  C  C310  1  0.707700  0.115400  0.473200  1.0  0.0116
  C  C311  1  0.775000  0.126000  0.431100  1.0  -0.1136
  C  C312  1  0.642100  0.181100  0.478700  1.0  0.1179
  C  C313  1  0.624600  0.237000  0.431000  1.0  -0.1923
  C  C314  1  0.566200  0.301000  0.440000  1.0  0.164
  C  C315  1  0.540000  0.258600  0.537500  1.0  0.1757
  C  C316  1  0.597100  0.192600  0.532600  1.0  -0.2182
  C  C317  1  0.640700  0.587500  0.860200  1.0  0.1719
  C  C318  1  0.702100  0.615400  0.820500  1.0  -0.2018
  C  C319  1  0.746800  0.689200  0.834800  1.0  0.1154
  C  C320  1  0.718800  0.732700  0.886300  1.0  -0.2027
  C  C321  1  0.657700  0.697400  0.924400  1.0  0.1425
  C  C322  1  0.818200  0.720300  0.798200  1.0  0.0063
  C  C323  1  0.833900  0.692600  0.737900  1.0  -0.0729
  C  C324  1  0.899400  0.723800  0.704100  1.0  -0.0787
  C  C325  1  0.955500  0.782800  0.730400  1.0  -0.0551
  C  C326  1  0.939900  0.810700  0.790300  1.0  -0.0487
  C  C327  1  0.873500  0.779200  0.823200  1.0  -0.1107
  C  C328  1  0.996600  0.873000  0.820400  1.0  0.2484
  C  C329  1  0.092200  0.925000  0.882800  1.0  0.2513
  C  C330  1  0.161500  0.932500  0.927300  1.0  -0.0195
  C  C331  1  0.162800  0.005000  0.964600  1.0  -0.0744
  C  C332  1  0.228900  0.016700  0.005300  1.0  -0.0628
  C  C333  1  0.291900  0.956000  0.010900  1.0  -0.108
  C  C334  1  0.292300  0.884600  0.973200  1.0  0.0116
  C  C335  1  0.225000  0.874000  0.931100  1.0  -0.1128
  C  C336  1  0.357900  0.818900  0.978700  1.0  0.1177
  C  C337  1  0.375400  0.763000  0.931000  1.0  -0.1922
  C  C338  1  0.433800  0.699000  0.940000  1.0  0.1644
  C  C339  1  0.460000  0.741400  0.037500  1.0  0.1761
  C  C340  1  0.402900  0.807400  0.032600  1.0  -0.2179
  N  N341  1  0.375100  0.379700  0.587800  1.0  -0.3436
  N  N342  1  0.044700  0.005700  0.684500  1.0  -0.2424
  N  N343  1  0.011500  0.945100  0.644500  1.0  -0.303
  N  N344  1  0.149100  0.942900  0.638000  1.0  0.0945
  N  N345  1  0.230100  0.926100  0.616100  1.0  -0.5552
  N  N346  1  0.313400  0.524500  0.506800  1.0  -0.3597
  N  N347  1  0.624900  0.620300  0.087800  1.0  -0.3443
  N  N348  1  0.955300  0.994300  0.184500  1.0  -0.242
  N  N349  1  0.988500  0.054900  0.144500  1.0  -0.3033
  N  N350  1  0.850900  0.057100  0.138000  1.0  0.0946
  N  N351  1  0.769900  0.073900  0.116100  1.0  -0.5556
  N  N352  1  0.686600  0.475500  0.006800  1.0  -0.3604
  N  N353  1  0.120300  0.875100  0.337800  1.0  -0.3431
  N  N354  1  0.494300  0.544700  0.434500  1.0  -0.2415
  N  N355  1  0.554900  0.511500  0.394500  1.0  -0.3015
  N  N356  1  0.557100  0.649100  0.388000  1.0  0.0946
  N  N357  1  0.573900  0.730100  0.366100  1.0  -0.5574
  N  N358  1  0.975500  0.813400  0.256800  1.0  -0.3594
  N  N359  1  0.879700  0.124900  0.837800  1.0  -0.3435
  N  N360  1  0.505700  0.455300  0.934500  1.0  -0.2416
  N  N361  1  0.445100  0.488500  0.894500  1.0  -0.3015
  N  N362  1  0.442900  0.350900  0.888000  1.0  0.0947
  N  N363  1  0.426100  0.269900  0.866100  1.0  -0.5568
  N  N364  1  0.024500  0.186600  0.756800  1.0  -0.3604
  N  N365  1  0.124900  0.879700  0.162200  1.0  -0.3439
  N  N366  1  0.455300  0.505700  0.065500  1.0  -0.2424
  N  N367  1  0.488500  0.445100  0.105500  1.0  -0.3018
  N  N368  1  0.350900  0.442900  0.112000  1.0  0.0946
  N  N369  1  0.269900  0.426100  0.133900  1.0  -0.5552
  N  N370  1  0.186600  0.024500  0.243200  1.0  -0.3599
  N  N371  1  0.875100  0.120300  0.662200  1.0  -0.3421
  N  N372  1  0.544700  0.494300  0.565500  1.0  -0.2426
  N  N373  1  0.511500  0.554900  0.605500  1.0  -0.3015
  N  N374  1  0.649100  0.557100  0.612000  1.0  0.0944
  N  N375  1  0.730100  0.573900  0.633900  1.0  -0.5545
  N  N376  1  0.813400  0.975500  0.743200  1.0  -0.3602
  N  N377  1  0.379700  0.375100  0.412200  1.0  -0.3421
  N  N378  1  0.005700  0.044700  0.315500  1.0  -0.2411
  N  N379  1  0.945100  0.011500  0.355500  1.0  -0.2998
  N  N380  1  0.942900  0.149100  0.362000  1.0  0.0947
  N  N381  1  0.926100  0.230100  0.383900  1.0  -0.558
  N  N382  1  0.524500  0.313400  0.493200  1.0  -0.3601
  N  N383  1  0.620300  0.624900  0.912200  1.0  -0.3428
  N  N384  1  0.994300  0.955300  0.815500  1.0  -0.2419
  N  N385  1  0.054900  0.988500  0.855500  1.0  -0.2998
  N  N386  1  0.057100  0.850900  0.862000  1.0  0.0946
  N  N387  1  0.073900  0.769900  0.883900  1.0  -0.5563
  N  N388  1  0.475500  0.686600  0.993200  1.0  -0.3593
  Cl  Cl389  1  0.379160  0.620840  0.250000  1.0  1.5254
  Cl  Cl390  1  0.620840  0.379160  0.750000  1.0  1.5256
  Cl  Cl391  1  0.879160  0.879160  0.000000  1.0  1.5252
  Cl  Cl392  1  0.120840  0.120840  0.500000  1.0  1.5257
  Cl  Cl393  1  0.269230  0.269230  0.000000  1.0  1.4277
  Cl  Cl394  1  0.730770  0.730770  0.500000  1.0  1.4282
  Cl  Cl395  1  0.230770  0.769230  0.750000  1.0  1.4276
  Cl  Cl396  1  0.769230  0.230770  0.250000  1.0  1.4279
  O  O397  1  0.405000  0.661900  0.191100  1.0  -0.6118
  O  O398  1  0.338300  0.560100  0.218400  1.0  -0.5369
  O  O399  1  0.338100  0.595000  0.308900  1.0  -0.6121
  O  O400  1  0.439900  0.661700  0.281600  1.0  -0.539
  O  O401  1  0.595000  0.338100  0.691100  1.0  -0.6126
  O  O402  1  0.661700  0.439900  0.718400  1.0  -0.5356
  O  O403  1  0.661900  0.405000  0.808900  1.0  -0.6124
  O  O404  1  0.560100  0.338300  0.781600  1.0  -0.5394
  O  O405  1  0.838100  0.905000  0.941100  1.0  -0.6125
  O  O406  1  0.939900  0.838300  0.968400  1.0  -0.5384
  O  O407  1  0.905000  0.838100  0.058900  1.0  -0.6125
  O  O408  1  0.838300  0.939900  0.031600  1.0  -0.5371
  O  O409  1  0.161900  0.095000  0.441100  1.0  -0.6126
  O  O410  1  0.060100  0.161700  0.468400  1.0  -0.5381
  O  O411  1  0.095000  0.161900  0.558900  1.0  -0.6119
  O  O412  1  0.161700  0.060100  0.531600  1.0  -0.537
  O  O413  1  0.235500  0.235000  0.948300  1.0  -0.5929
  O  O414  1  0.343900  0.217700  0.996000  1.0  -0.5227
  O  O415  1  0.235000  0.235500  0.051700  1.0  -0.5936
  O  O416  1  0.217700  0.343900  0.004000  1.0  -0.5238
  O  O417  1  0.764500  0.765000  0.448300  1.0  -0.5928
  O  O418  1  0.656100  0.782300  0.496000  1.0  -0.5227
  O  O419  1  0.765000  0.764500  0.551700  1.0  -0.5935
  O  O420  1  0.782300  0.656100  0.504000  1.0  -0.5234
  O  O421  1  0.265000  0.735500  0.698300  1.0  -0.5922
  O  O422  1  0.282300  0.843900  0.746000  1.0  -0.5233
  O  O423  1  0.264500  0.735000  0.801700  1.0  -0.5935
  O  O424  1  0.156100  0.717700  0.754000  1.0  -0.5225
  O  O425  1  0.735000  0.264500  0.198300  1.0  -0.5927
  O  O426  1  0.717700  0.156100  0.246000  1.0  -0.5233
  O  O427  1  0.735500  0.265000  0.301700  1.0  -0.5943
  O  O428  1  0.843900  0.282300  0.254000  1.0  -0.5229
