# generated using pymatgen
data_CdH36C48N12(ClO4)2
_symmetry_space_group_name_H-M   'P 1'
_cell_length_a   15.84400000
_cell_length_b   15.84400000
_cell_length_c   21.83700000
_cell_angle_alpha   90.00000000
_cell_angle_beta   90.00000000
_cell_angle_gamma   90.00000000
_symmetry_Int_Tables_number   1
_chemical_formula_structural   CdH36C48N12(ClO4)2
_chemical_formula_sum   'Cd4 H144 C192 N48 Cl8 O32'
_cell_volume   5481.79312123
_cell_formula_units_Z   4
loop_
 _symmetry_equiv_pos_site_id
 _symmetry_equiv_pos_as_xyz
  1  'x, y, z'
loop_
 _atom_site_type_symbol
 _atom_site_label
 _atom_site_symmetry_multiplicity
 _atom_site_fract_x
 _atom_site_fract_y
 _atom_site_fract_z
 _atom_site_occupancy
 _atom_site_charge
  Cd  Cd1  1  0.942280  0.057720  0.750000  1.0  0.7926
  Cd  Cd2  1  0.057720  0.942280  0.250000  1.0  0.7922
  Cd  Cd3  1  0.442280  0.442280  0.500000  1.0  0.7924
  Cd  Cd4  1  0.557720  0.557720  0.000000  1.0  0.7924
  H  H5  1  0.463900  0.388600  0.650300  1.0  0.0772
  H  H6  1  0.416000  0.286500  0.714400  1.0  0.125
  H  H7  1  0.215300  0.259700  0.604400  1.0  0.1244
  H  H8  1  0.272500  0.359200  0.541400  1.0  0.0714
  H  H9  1  0.347500  0.203300  0.779400  1.0  0.0798
  H  H10  1  0.295200  0.092600  0.834800  1.0  0.1097
  H  H11  1  0.199300  0.999500  0.792500  1.0  0.0993
  H  H12  1  0.204100  0.135500  0.637100  1.0  0.1098
  H  H13  1  0.956900  0.880900  0.540300  1.0  0.1072
  H  H14  1  0.938500  0.771200  0.470400  1.0  0.1103
  H  H15  1  0.038400  0.666500  0.462100  1.0  0.108
  H  H16  1  0.174200  0.775900  0.594600  1.0  0.0972
  H  H17  1  0.155200  0.604200  0.436500  1.0  0.1312
  H  H18  1  0.266000  0.512200  0.426700  1.0  0.0631
  H  H19  1  0.337300  0.555500  0.593700  1.0  0.0619
  H  H20  1  0.233000  0.651700  0.607200  1.0  0.1412
  H  H21  1  0.256800  0.974800  0.608800  1.0  0.3231
  H  H22  1  0.259900  0.898500  0.645600  1.0  0.3048
  H  H23  1  0.536100  0.611400  0.150300  1.0  0.0773
  H  H24  1  0.584000  0.713500  0.214400  1.0  0.1251
  H  H25  1  0.784700  0.740300  0.104400  1.0  0.1247
  H  H26  1  0.727500  0.640800  0.041400  1.0  0.0719
  H  H27  1  0.652500  0.796700  0.279400  1.0  0.0797
  H  H28  1  0.704800  0.907400  0.334800  1.0  0.1097
  H  H29  1  0.800700  0.000500  0.292500  1.0  0.0991
  H  H30  1  0.795900  0.864500  0.137100  1.0  0.1102
  H  H31  1  0.043100  0.119100  0.040300  1.0  0.1074
  H  H32  1  0.061500  0.228800  0.970400  1.0  0.1104
  H  H33  1  0.961600  0.333500  0.962100  1.0  0.1081
  H  H34  1  0.825800  0.224100  0.094600  1.0  0.0972
  H  H35  1  0.844800  0.395800  0.936500  1.0  0.1311
  H  H36  1  0.734000  0.487800  0.926700  1.0  0.0634
  H  H37  1  0.662700  0.444500  0.093700  1.0  0.0619
  H  H38  1  0.767000  0.348300  0.107200  1.0  0.1406
  H  H39  1  0.743200  0.025200  0.108800  1.0  0.3214
  H  H40  1  0.740100  0.101500  0.145600  1.0  0.3056
  H  H41  1  0.111400  0.963900  0.400300  1.0  0.0781
  H  H42  1  0.213500  0.916000  0.464400  1.0  0.1262
  H  H43  1  0.240300  0.715300  0.354400  1.0  0.1246
  H  H44  1  0.140800  0.772500  0.291400  1.0  0.0712
  H  H45  1  0.296700  0.847500  0.529400  1.0  0.0806
  H  H46  1  0.407400  0.795200  0.584800  1.0  0.11
  H  H47  1  0.500500  0.699300  0.542500  1.0  0.0992
  H  H48  1  0.364500  0.704100  0.387100  1.0  0.1099
  H  H49  1  0.619100  0.456900  0.290300  1.0  0.1075
  H  H50  1  0.728800  0.438500  0.220400  1.0  0.1111
  H  H51  1  0.833500  0.538400  0.212100  1.0  0.1075
  H  H52  1  0.724100  0.674200  0.344600  1.0  0.0974
  H  H53  1  0.895800  0.655200  0.186500  1.0  0.1313
  H  H54  1  0.987800  0.766000  0.176700  1.0  0.0631
  H  H55  1  0.944500  0.837300  0.343700  1.0  0.062
  H  H56  1  0.848300  0.733000  0.357200  1.0  0.1406
  H  H57  1  0.525200  0.756800  0.358800  1.0  0.3229
  H  H58  1  0.601500  0.759900  0.395600  1.0  0.3045
  H  H59  1  0.888600  0.036100  0.900300  1.0  0.078
  H  H60  1  0.786500  0.084000  0.964400  1.0  0.1259
  H  H61  1  0.759700  0.284700  0.854400  1.0  0.1247
  H  H62  1  0.859200  0.227500  0.791400  1.0  0.0712
  H  H63  1  0.703300  0.152500  0.029400  1.0  0.0805
  H  H64  1  0.592600  0.204800  0.084800  1.0  0.1101
  H  H65  1  0.499500  0.300700  0.042500  1.0  0.0994
  H  H66  1  0.635500  0.295900  0.887100  1.0  0.1099
  H  H67  1  0.380900  0.543100  0.790300  1.0  0.1072
  H  H68  1  0.271200  0.561500  0.720400  1.0  0.1114
  H  H69  1  0.166500  0.461600  0.712100  1.0  0.108
  H  H70  1  0.275900  0.325800  0.844600  1.0  0.098
  H  H71  1  0.104200  0.344800  0.686500  1.0  0.1314
  H  H72  1  0.012200  0.234000  0.676700  1.0  0.0632
  H  H73  1  0.055500  0.162700  0.843700  1.0  0.0625
  H  H74  1  0.151700  0.267000  0.857200  1.0  0.1404
  H  H75  1  0.474800  0.243200  0.858800  1.0  0.323
  H  H76  1  0.398500  0.240100  0.895600  1.0  0.3053
  H  H77  1  0.036100  0.888600  0.099700  1.0  0.0777
  H  H78  1  0.084000  0.786500  0.035600  1.0  0.126
  H  H79  1  0.284700  0.759700  0.145600  1.0  0.1254
  H  H80  1  0.227500  0.859200  0.208600  1.0  0.0718
  H  H81  1  0.152500  0.703300  0.970600  1.0  0.0792
  H  H82  1  0.204800  0.592600  0.915200  1.0  0.11
  H  H83  1  0.300700  0.499500  0.957500  1.0  0.0988
  H  H84  1  0.295900  0.635500  0.112900  1.0  0.1092
  H  H85  1  0.543100  0.380900  0.209700  1.0  0.107
  H  H86  1  0.561500  0.271200  0.279600  1.0  0.1111
  H  H87  1  0.461600  0.166500  0.287900  1.0  0.1082
  H  H88  1  0.325800  0.275900  0.155400  1.0  0.0971
  H  H89  1  0.344800  0.104200  0.313500  1.0  0.1309
  H  H90  1  0.234000  0.012200  0.323300  1.0  0.063
  H  H91  1  0.162700  0.055500  0.156300  1.0  0.0609
  H  H92  1  0.267000  0.151700  0.142800  1.0  0.142
  H  H93  1  0.243200  0.474800  0.141200  1.0  0.3228
  H  H94  1  0.240100  0.398500  0.104400  1.0  0.3065
  H  H95  1  0.963900  0.111400  0.599700  1.0  0.0772
  H  H96  1  0.916000  0.213500  0.535600  1.0  0.1256
  H  H97  1  0.715300  0.240300  0.645600  1.0  0.1249
  H  H98  1  0.772500  0.140800  0.708600  1.0  0.0716
  H  H99  1  0.847500  0.296700  0.470600  1.0  0.0799
  H  H100  1  0.795200  0.407400  0.415200  1.0  0.1103
  H  H101  1  0.699300  0.500500  0.457500  1.0  0.0994
  H  H102  1  0.704100  0.364500  0.612900  1.0  0.1091
  H  H103  1  0.456900  0.619100  0.709700  1.0  0.1071
  H  H104  1  0.438500  0.728800  0.779600  1.0  0.1106
  H  H105  1  0.538400  0.833500  0.787900  1.0  0.1082
  H  H106  1  0.674200  0.724100  0.655400  1.0  0.0969
  H  H107  1  0.655200  0.895800  0.813500  1.0  0.1314
  H  H108  1  0.766000  0.987800  0.823300  1.0  0.0631
  H  H109  1  0.837300  0.944500  0.656300  1.0  0.0613
  H  H110  1  0.733000  0.848300  0.642800  1.0  0.1416
  H  H111  1  0.756800  0.525200  0.641200  1.0  0.3227
  H  H112  1  0.759900  0.601500  0.604400  1.0  0.3058
  H  H113  1  0.388600  0.463900  0.349700  1.0  0.0783
  H  H114  1  0.286500  0.416000  0.285600  1.0  0.1268
  H  H115  1  0.259700  0.215300  0.395600  1.0  0.1252
  H  H116  1  0.359200  0.272500  0.458600  1.0  0.0714
  H  H117  1  0.203300  0.347500  0.220600  1.0  0.0803
  H  H118  1  0.092600  0.295200  0.165200  1.0  0.1103
  H  H119  1  0.999500  0.199300  0.207500  1.0  0.0996
  H  H120  1  0.135500  0.204100  0.362900  1.0  0.1089
  H  H121  1  0.880900  0.956900  0.459700  1.0  0.1075
  H  H122  1  0.771200  0.938500  0.529600  1.0  0.1118
  H  H123  1  0.666500  0.038400  0.537900  1.0  0.1079
  H  H124  1  0.775900  0.174200  0.405400  1.0  0.0977
  H  H125  1  0.604200  0.155200  0.563500  1.0  0.1317
  H  H126  1  0.512200  0.266000  0.573300  1.0  0.0629
  H  H127  1  0.555500  0.337300  0.406300  1.0  0.0612
  H  H128  1  0.651700  0.233000  0.392800  1.0  0.1413
  H  H129  1  0.974800  0.256800  0.391200  1.0  0.3226
  H  H130  1  0.898500  0.259900  0.354400  1.0  0.3053
  H  H131  1  0.611400  0.536100  0.849700  1.0  0.0776
  H  H132  1  0.713500  0.584000  0.785600  1.0  0.1261
  H  H133  1  0.740300  0.784700  0.895600  1.0  0.1249
  H  H134  1  0.640800  0.727500  0.958600  1.0  0.0712
  H  H135  1  0.796700  0.652500  0.720600  1.0  0.0807
  H  H136  1  0.907400  0.704800  0.665200  1.0  0.11
  H  H137  1  0.000500  0.800700  0.707500  1.0  0.0988
  H  H138  1  0.864500  0.795900  0.862900  1.0  0.1091
  H  H139  1  0.119100  0.043100  0.959700  1.0  0.1074
  H  H140  1  0.228800  0.061500  0.029600  1.0  0.1114
  H  H141  1  0.333500  0.961600  0.037900  1.0  0.1078
  H  H142  1  0.224100  0.825800  0.905400  1.0  0.0979
  H  H143  1  0.395800  0.844800  0.063500  1.0  0.1309
  H  H144  1  0.487800  0.734000  0.073300  1.0  0.0634
  H  H145  1  0.444500  0.662700  0.906300  1.0  0.0618
  H  H146  1  0.348300  0.767000  0.892800  1.0  0.1413
  H  H147  1  0.025200  0.743200  0.891200  1.0  0.3225
  H  H148  1  0.101500  0.740100  0.854400  1.0  0.3051
  C  C149  1  0.415100  0.359500  0.639600  1.0  0.1676
  C  C150  1  0.386300  0.298500  0.678700  1.0  -0.1815
  C  C151  1  0.311600  0.253700  0.665100  1.0  0.1
  C  C152  1  0.268100  0.282100  0.613600  1.0  -0.1923
  C  C153  1  0.302400  0.342800  0.576100  1.0  0.1461
  C  C154  1  0.280800  0.181300  0.702700  1.0  0.009
  C  C155  1  0.307900  0.167300  0.761800  1.0  -0.0696
  C  C156  1  0.276900  0.100700  0.794800  1.0  -0.069
  C  C157  1  0.218900  0.045200  0.769900  1.0  -0.0543
  C  C158  1  0.190000  0.059400  0.709900  1.0  -0.0448
  C  C159  1  0.222100  0.126700  0.677100  1.0  -0.1124
  C  C160  1  0.127500  0.003800  0.680300  1.0  0.2474
  C  C161  1  0.076300  0.908400  0.617800  1.0  0.2557
  C  C162  1  0.068500  0.839300  0.574000  1.0  -0.0199
  C  C163  1  0.997000  0.838300  0.537200  1.0  -0.0608
  C  C164  1  0.986100  0.772300  0.495300  1.0  -0.0716
  C  C165  1  0.045400  0.709400  0.490700  1.0  -0.0964
  C  C166  1  0.115600  0.709500  0.528700  1.0  0.0105
  C  C167  1  0.126700  0.775100  0.569600  1.0  -0.1041
  C  C168  1  0.182300  0.642000  0.522300  1.0  0.1125
  C  C169  1  0.192700  0.596800  0.468900  1.0  -0.2175
  C  C170  1  0.259100  0.540500  0.463700  1.0  0.1779
  C  C171  1  0.301100  0.566500  0.561200  1.0  0.1763
  C  C172  1  0.238300  0.624200  0.569700  1.0  -0.193
  C  C173  1  0.584900  0.640500  0.139600  1.0  0.1676
  C  C174  1  0.613700  0.701500  0.178700  1.0  -0.1811
  C  C175  1  0.688400  0.746300  0.165100  1.0  0.1002
  C  C176  1  0.731900  0.717900  0.113600  1.0  -0.1934
  C  C177  1  0.697600  0.657200  0.076100  1.0  0.1463
  C  C178  1  0.719200  0.818700  0.202700  1.0  0.009
  C  C179  1  0.692100  0.832700  0.261800  1.0  -0.07
  C  C180  1  0.723100  0.899300  0.294800  1.0  -0.068
  C  C181  1  0.781100  0.954800  0.269900  1.0  -0.0565
  C  C182  1  0.810000  0.940600  0.209900  1.0  -0.0448
  C  C183  1  0.777900  0.873300  0.177100  1.0  -0.1132
  C  C184  1  0.872500  0.996200  0.180300  1.0  0.2469
  C  C185  1  0.923700  0.091600  0.117800  1.0  0.2562
  C  C186  1  0.931500  0.160700  0.074000  1.0  -0.0203
  C  C187  1  0.003000  0.161700  0.037200  1.0  -0.0628
  C  C188  1  0.013900  0.227700  0.995300  1.0  -0.0722
  C  C189  1  0.954600  0.290600  0.990700  1.0  -0.0962
  C  C190  1  0.884400  0.290500  0.028700  1.0  0.0095
  C  C191  1  0.873300  0.224900  0.069600  1.0  -0.1044
  C  C192  1  0.817700  0.358000  0.022300  1.0  0.1118
  C  C193  1  0.807300  0.403200  0.968900  1.0  -0.2168
  C  C194  1  0.740900  0.459500  0.963700  1.0  0.1798
  C  C195  1  0.698900  0.433500  0.061200  1.0  0.1761
  C  C196  1  0.761700  0.375800  0.069700  1.0  -0.1929
  C  C197  1  0.140500  0.915100  0.389600  1.0  0.1672
  C  C198  1  0.201500  0.886300  0.428700  1.0  -0.1845
  C  C199  1  0.246300  0.811600  0.415100  1.0  0.1003
  C  C200  1  0.217900  0.768100  0.363600  1.0  -0.191
  C  C201  1  0.157200  0.802400  0.326100  1.0  0.144
  C  C202  1  0.318700  0.780800  0.452700  1.0  0.0098
  C  C203  1  0.332700  0.807900  0.511800  1.0  -0.0697
  C  C204  1  0.399300  0.776900  0.544800  1.0  -0.0677
  C  C205  1  0.454800  0.718900  0.519900  1.0  -0.0612
  C  C206  1  0.440600  0.690000  0.459900  1.0  -0.0434
  C  C207  1  0.373300  0.722100  0.427100  1.0  -0.1146
  C  C208  1  0.496200  0.627500  0.430300  1.0  0.2491
  C  C209  1  0.591600  0.576300  0.367800  1.0  0.2569
  C  C210  1  0.660700  0.568500  0.324000  1.0  -0.0203
  C  C211  1  0.661700  0.497000  0.287200  1.0  -0.0635
  C  C212  1  0.727700  0.486100  0.245300  1.0  -0.0689
  C  C213  1  0.790600  0.545400  0.240700  1.0  -0.0962
  C  C214  1  0.790500  0.615600  0.278700  1.0  0.0102
  C  C215  1  0.724900  0.626700  0.319600  1.0  -0.1032
  C  C216  1  0.858000  0.682300  0.272300  1.0  0.1125
  C  C217  1  0.903200  0.692700  0.218900  1.0  -0.2171
  C  C218  1  0.959500  0.759100  0.213700  1.0  0.1777
  C  C219  1  0.933500  0.801100  0.311200  1.0  0.1757
  C  C220  1  0.875800  0.738300  0.319700  1.0  -0.1931
  C  C221  1  0.859500  0.084900  0.889600  1.0  0.1668
  C  C222  1  0.798500  0.113700  0.928700  1.0  -0.1834
  C  C223  1  0.753700  0.188400  0.915100  1.0  0.1003
  C  C224  1  0.782100  0.231900  0.863600  1.0  -0.192
  C  C225  1  0.842800  0.197600  0.826100  1.0  0.1458
  C  C226  1  0.681300  0.219200  0.952700  1.0  0.0091
  C  C227  1  0.667300  0.192100  0.011800  1.0  -0.0708
  C  C228  1  0.600700  0.223100  0.044800  1.0  -0.0691
  C  C229  1  0.545200  0.281100  0.019900  1.0  -0.06
  C  C230  1  0.559400  0.310000  0.959900  1.0  -0.044
  C  C231  1  0.626700  0.277900  0.927100  1.0  -0.1145
  C  C232  1  0.503800  0.372500  0.930300  1.0  0.2485
  C  C233  1  0.408400  0.423700  0.867800  1.0  0.2565
  C  C234  1  0.339300  0.431500  0.824000  1.0  -0.0209
  C  C235  1  0.338300  0.503000  0.787200  1.0  -0.0638
  C  C236  1  0.272300  0.513900  0.745300  1.0  -0.0682
  C  C237  1  0.209400  0.454600  0.740700  1.0  -0.0957
  C  C238  1  0.209500  0.384400  0.778700  1.0  0.0112
  C  C239  1  0.275100  0.373300  0.819600  1.0  -0.1028
  C  C240  1  0.142000  0.317700  0.772300  1.0  0.1131
  C  C241  1  0.096800  0.307300  0.718900  1.0  -0.2164
  C  C242  1  0.040500  0.240900  0.713700  1.0  0.1776
  C  C243  1  0.066500  0.198900  0.811200  1.0  0.1757
  C  C244  1  0.124200  0.261700  0.819700  1.0  -0.1937
  C  C245  1  0.084900  0.859500  0.110400  1.0  0.1674
  C  C246  1  0.113700  0.798500  0.071300  1.0  -0.182
  C  C247  1  0.188400  0.753700  0.084900  1.0  0.0998
  C  C248  1  0.231900  0.782100  0.136400  1.0  -0.1939
  C  C249  1  0.197600  0.842800  0.173900  1.0  0.1459
  C  C250  1  0.219200  0.681300  0.047300  1.0  0.0092
  C  C251  1  0.192100  0.667300  0.988200  1.0  -0.0692
  C  C252  1  0.223100  0.600700  0.955200  1.0  -0.0702
  C  C253  1  0.281100  0.545200  0.980100  1.0  -0.0571
  C  C254  1  0.310000  0.559400  0.040100  1.0  -0.0454
  C  C255  1  0.277900  0.626700  0.072900  1.0  -0.1121
  C  C256  1  0.372500  0.503800  0.069700  1.0  0.2475
  C  C257  1  0.423700  0.408400  0.132200  1.0  0.2559
  C  C258  1  0.431500  0.339300  0.176000  1.0  -0.0202
  C  C259  1  0.503000  0.338300  0.212800  1.0  -0.0627
  C  C260  1  0.513900  0.272300  0.254700  1.0  -0.0718
  C  C261  1  0.454600  0.209400  0.259300  1.0  -0.0978
  C  C262  1  0.384400  0.209500  0.221300  1.0  0.0097
  C  C263  1  0.373300  0.275100  0.180400  1.0  -0.1042
  C  C264  1  0.317700  0.142000  0.227700  1.0  0.1124
  C  C265  1  0.307300  0.096800  0.281100  1.0  -0.2174
  C  C266  1  0.240900  0.040500  0.286300  1.0  0.1797
  C  C267  1  0.198900  0.066500  0.188800  1.0  0.1761
  C  C268  1  0.261700  0.124200  0.180300  1.0  -0.1938
  C  C269  1  0.915100  0.140500  0.610400  1.0  0.1672
  C  C270  1  0.886300  0.201500  0.571300  1.0  -0.1819
  C  C271  1  0.811600  0.246300  0.584900  1.0  0.0997
  C  C272  1  0.768100  0.217900  0.636400  1.0  -0.1926
  C  C273  1  0.802400  0.157200  0.673900  1.0  0.1465
  C  C274  1  0.780800  0.318700  0.547300  1.0  0.0083
  C  C275  1  0.807900  0.332700  0.488200  1.0  -0.069
  C  C276  1  0.776900  0.399300  0.455200  1.0  -0.0684
  C  C277  1  0.718900  0.454800  0.480100  1.0  -0.0559
  C  C278  1  0.690000  0.440600  0.540100  1.0  -0.0447
  C  C279  1  0.722100  0.373300  0.572900  1.0  -0.1116
  C  C280  1  0.627500  0.496200  0.569700  1.0  0.2476
  C  C281  1  0.576300  0.591600  0.632200  1.0  0.2555
  C  C282  1  0.568500  0.660700  0.676000  1.0  -0.0199
  C  C283  1  0.497000  0.661700  0.712800  1.0  -0.0612
  C  C284  1  0.486100  0.727700  0.754700  1.0  -0.0717
  C  C285  1  0.545400  0.790600  0.759300  1.0  -0.0969
  C  C286  1  0.615600  0.790500  0.721300  1.0  0.0102
  C  C287  1  0.626700  0.724900  0.680400  1.0  -0.1043
  C  C288  1  0.682300  0.858000  0.727700  1.0  0.1127
  C  C289  1  0.692700  0.903200  0.781100  1.0  -0.2171
  C  C290  1  0.759100  0.959500  0.786300  1.0  0.1782
  C  C291  1  0.801100  0.933500  0.688800  1.0  0.1762
  C  C292  1  0.738300  0.875800  0.680300  1.0  -0.1939
  C  C293  1  0.359500  0.415100  0.360400  1.0  0.1669
  C  C294  1  0.298500  0.386300  0.321300  1.0  -0.1843
  C  C295  1  0.253700  0.311600  0.334900  1.0  0.0999
  C  C296  1  0.282100  0.268100  0.386400  1.0  -0.1918
  C  C297  1  0.342800  0.302400  0.423900  1.0  0.1452
  C  C298  1  0.181300  0.280800  0.297300  1.0  0.0089
  C  C299  1  0.167300  0.307900  0.238200  1.0  -0.0696
  C  C300  1  0.100700  0.276900  0.205200  1.0  -0.0685
  C  C301  1  0.045200  0.218900  0.230100  1.0  -0.0623
  C  C302  1  0.059400  0.190000  0.290100  1.0  -0.0431
  C  C303  1  0.126700  0.222100  0.322900  1.0  -0.1132
  C  C304  1  0.003800  0.127500  0.319700  1.0  0.2488
  C  C305  1  0.908400  0.076300  0.382200  1.0  0.2565
  C  C306  1  0.839300  0.068500  0.426000  1.0  -0.0203
  C  C307  1  0.838300  0.997000  0.462800  1.0  -0.0644
  C  C308  1  0.772300  0.986100  0.504700  1.0  -0.0687
  C  C309  1  0.709400  0.045400  0.509300  1.0  -0.0969
  C  C310  1  0.709500  0.115600  0.471300  1.0  0.0104
  C  C311  1  0.775100  0.126700  0.430400  1.0  -0.1035
  C  C312  1  0.642000  0.182300  0.477700  1.0  0.113
  C  C313  1  0.596800  0.192700  0.531100  1.0  -0.2166
  C  C314  1  0.540500  0.259100  0.536300  1.0  0.1777
  C  C315  1  0.566500  0.301100  0.438800  1.0  0.1751
  C  C316  1  0.624200  0.238300  0.430300  1.0  -0.1943
  C  C317  1  0.640500  0.584900  0.860400  1.0  0.167
  C  C318  1  0.701500  0.613700  0.821300  1.0  -0.1842
  C  C319  1  0.746300  0.688400  0.834900  1.0  0.0999
  C  C320  1  0.717900  0.731900  0.886400  1.0  -0.192
  C  C321  1  0.657200  0.697600  0.923900  1.0  0.1445
  C  C322  1  0.818700  0.719200  0.797300  1.0  0.0095
  C  C323  1  0.832700  0.692100  0.738200  1.0  -0.07
  C  C324  1  0.899300  0.723100  0.705200  1.0  -0.0702
  C  C325  1  0.954800  0.781100  0.730100  1.0  -0.0615
  C  C326  1  0.940600  0.810000  0.790100  1.0  -0.0442
  C  C327  1  0.873300  0.777900  0.822900  1.0  -0.1136
  C  C328  1  0.996200  0.872500  0.819700  1.0  0.2494
  C  C329  1  0.091600  0.923700  0.882200  1.0  0.2563
  C  C330  1  0.160700  0.931500  0.926000  1.0  -0.0204
  C  C331  1  0.161700  0.003000  0.962800  1.0  -0.0631
  C  C332  1  0.227700  0.013900  0.004700  1.0  -0.0688
  C  C333  1  0.290600  0.954600  0.009300  1.0  -0.0968
  C  C334  1  0.290500  0.884400  0.971300  1.0  0.0104
  C  C335  1  0.224900  0.873300  0.930400  1.0  -0.1028
  C  C336  1  0.358000  0.817700  0.977700  1.0  0.1126
  C  C337  1  0.403200  0.807300  0.031100  1.0  -0.2163
  C  C338  1  0.459500  0.740900  0.036300  1.0  0.1779
  C  C339  1  0.433500  0.698900  0.938800  1.0  0.1758
  C  C340  1  0.375800  0.761700  0.930300  1.0  -0.1942
  N  N341  1  0.377500  0.379600  0.587400  1.0  -0.3544
  N  N342  1  0.045700  0.006000  0.684200  1.0  -0.2402
  N  N343  1  0.012800  0.944800  0.645000  1.0  -0.3086
  N  N344  1  0.149800  0.943800  0.638900  1.0  0.0913
  N  N345  1  0.231000  0.926200  0.617100  1.0  -0.5517
  N  N346  1  0.313700  0.524500  0.508700  1.0  -0.3676
  N  N347  1  0.622500  0.620400  0.087400  1.0  -0.3549
  N  N348  1  0.954300  0.994000  0.184200  1.0  -0.2405
  N  N349  1  0.987200  0.055200  0.145000  1.0  -0.309
  N  N350  1  0.850200  0.056200  0.138900  1.0  0.091
  N  N351  1  0.769000  0.073800  0.117100  1.0  -0.5515
  N  N352  1  0.686300  0.475500  0.008700  1.0  -0.3676
  N  N353  1  0.120400  0.877500  0.337400  1.0  -0.3538
  N  N354  1  0.494000  0.545700  0.434200  1.0  -0.2396
  N  N355  1  0.555200  0.512800  0.395000  1.0  -0.3074
  N  N356  1  0.556200  0.649800  0.388900  1.0  0.0913
  N  N357  1  0.573800  0.731000  0.367100  1.0  -0.5521
  N  N358  1  0.975500  0.813700  0.258700  1.0  -0.3671
  N  N359  1  0.879600  0.122500  0.837400  1.0  -0.3546
  N  N360  1  0.506000  0.454300  0.934200  1.0  -0.2404
  N  N361  1  0.444800  0.487200  0.895000  1.0  -0.3077
  N  N362  1  0.443800  0.350200  0.888900  1.0  0.091
  N  N363  1  0.426200  0.269000  0.867100  1.0  -0.5515
  N  N364  1  0.024500  0.186300  0.758700  1.0  -0.3678
  N  N365  1  0.122500  0.879600  0.162600  1.0  -0.3542
  N  N366  1  0.454300  0.506000  0.065800  1.0  -0.2405
  N  N367  1  0.487200  0.444800  0.105000  1.0  -0.3091
  N  N368  1  0.350200  0.443800  0.111100  1.0  0.0912
  N  N369  1  0.269000  0.426200  0.132900  1.0  -0.5514
  N  N370  1  0.186300  0.024500  0.241300  1.0  -0.3676
  N  N371  1  0.877500  0.120400  0.662600  1.0  -0.3537
  N  N372  1  0.545700  0.494000  0.565800  1.0  -0.2401
  N  N373  1  0.512800  0.555200  0.605000  1.0  -0.3083
  N  N374  1  0.649800  0.556200  0.611100  1.0  0.0912
  N  N375  1  0.731000  0.573800  0.632900  1.0  -0.5512
  N  N376  1  0.813700  0.975500  0.741300  1.0  -0.3684
  N  N377  1  0.379600  0.377500  0.412600  1.0  -0.3538
  N  N378  1  0.006000  0.045700  0.315800  1.0  -0.2397
  N  N379  1  0.944800  0.012800  0.355000  1.0  -0.3074
  N  N380  1  0.943800  0.149800  0.361100  1.0  0.0912
  N  N381  1  0.926200  0.231000  0.382900  1.0  -0.5525
  N  N382  1  0.524500  0.313700  0.491300  1.0  -0.3678
  N  N383  1  0.620400  0.622500  0.912600  1.0  -0.3537
  N  N384  1  0.994000  0.954300  0.815800  1.0  -0.24
  N  N385  1  0.055200  0.987200  0.855000  1.0  -0.3076
  N  N386  1  0.056200  0.850200  0.861100  1.0  0.0912
  N  N387  1  0.073800  0.769000  0.882900  1.0  -0.5518
  N  N388  1  0.475500  0.686300  0.991300  1.0  -0.3675
  Cl  Cl389  1  0.879220  0.879220  0.000000  1.0  1.8759
  Cl  Cl390  1  0.268780  0.268780  0.000000  1.0  1.291
  Cl  Cl391  1  0.120780  0.120780  0.500000  1.0  1.8754
  Cl  Cl392  1  0.731220  0.731220  0.500000  1.0  1.2922
  Cl  Cl393  1  0.620780  0.379220  0.750000  1.0  1.8756
  Cl  Cl394  1  0.231220  0.768780  0.750000  1.0  1.292
  Cl  Cl395  1  0.379220  0.620780  0.250000  1.0  1.8759
  Cl  Cl396  1  0.768780  0.231220  0.250000  1.0  1.2903
  O  O397  1  0.823600  0.886100  0.956600  1.0  -0.6976
  O  O398  1  0.942500  0.862900  0.967500  1.0  -0.6575
  O  O399  1  0.886100  0.823600  0.043400  1.0  -0.6972
  O  O400  1  0.862900  0.942500  0.032500  1.0  -0.6568
  O  O401  1  0.236900  0.234100  0.948900  1.0  -0.5409
  O  O402  1  0.211900  0.334700  0.992000  1.0  -0.5094
  O  O403  1  0.234100  0.236900  0.051100  1.0  -0.5408
  O  O404  1  0.334700  0.211900  0.008000  1.0  -0.5104
  O  O405  1  0.176400  0.113900  0.456600  1.0  -0.6988
  O  O406  1  0.057500  0.137100  0.467500  1.0  -0.6576
  O  O407  1  0.113900  0.176400  0.543400  1.0  -0.6979
  O  O408  1  0.137100  0.057500  0.532500  1.0  -0.6571
  O  O409  1  0.763100  0.765900  0.448900  1.0  -0.5404
  O  O410  1  0.788100  0.665300  0.492000  1.0  -0.5104
  O  O411  1  0.765900  0.763100  0.551100  1.0  -0.5402
  O  O412  1  0.665300  0.788100  0.508000  1.0  -0.51
  O  O413  1  0.613900  0.323600  0.706600  1.0  -0.6991
  O  O414  1  0.637100  0.442500  0.717500  1.0  -0.6576
  O  O415  1  0.676400  0.386100  0.793400  1.0  -0.6979
  O  O416  1  0.557500  0.362900  0.782500  1.0  -0.6576
  O  O417  1  0.265900  0.736900  0.698900  1.0  -0.5407
  O  O418  1  0.165300  0.711900  0.742000  1.0  -0.5093
  O  O419  1  0.263100  0.734100  0.801100  1.0  -0.5402
  O  O420  1  0.288100  0.834700  0.758000  1.0  -0.5111
  O  O421  1  0.386100  0.676400  0.206600  1.0  -0.6986
  O  O422  1  0.362900  0.557500  0.217500  1.0  -0.6572
  O  O423  1  0.323600  0.613900  0.293400  1.0  -0.6958
  O  O424  1  0.442500  0.637100  0.282500  1.0  -0.6579
  O  O425  1  0.734100  0.263100  0.198900  1.0  -0.5412
  O  O426  1  0.834700  0.288100  0.242000  1.0  -0.5098
  O  O427  1  0.736900  0.265900  0.301100  1.0  -0.5408
  O  O428  1  0.711900  0.165300  0.258000  1.0  -0.5098
