# generated using pymatgen
data_CdH36(C4N)12
_symmetry_space_group_name_H-M   'P 1'
_cell_length_a   15.87920000
_cell_length_b   15.87920000
_cell_length_c   21.59400000
_cell_angle_alpha   90.00000000
_cell_angle_beta   90.00000000
_cell_angle_gamma   90.00000000
_symmetry_Int_Tables_number   1
_chemical_formula_structural   CdH36(C4N)12
_chemical_formula_sum   'Cd4 H144 C192 N48'
_cell_volume   5444.90534707
_cell_formula_units_Z   4
loop_
 _symmetry_equiv_pos_site_id
 _symmetry_equiv_pos_as_xyz
  1  'x, y, z'
loop_
 _atom_site_type_symbol
 _atom_site_label
 _atom_site_symmetry_multiplicity
 _atom_site_fract_x
 _atom_site_fract_y
 _atom_site_fract_z
 _atom_site_occupancy
 _atom_site_charge
  Cd  Cd1  1  0.058390  0.941610  0.250000  1.0  0.7765
  Cd  Cd2  1  0.941610  0.058390  0.750000  1.0  0.7774
  Cd  Cd3  1  0.558390  0.558390  0.500000  1.0  0.7764
  Cd  Cd4  1  0.441610  0.441610  0.000000  1.0  0.7774
  H  H5  1  0.542500  0.610000  0.347900  1.0  0.0538
  H  H6  1  0.586800  0.714400  0.284100  1.0  0.1101
  H  H7  1  0.786000  0.741600  0.396900  1.0  0.1114
  H  H8  1  0.729500  0.641700  0.459600  1.0  0.0616
  H  H9  1  0.654000  0.799500  0.220500  1.0  0.0682
  H  H10  1  0.701100  0.913800  0.166300  1.0  0.0873
  H  H11  1  0.797100  0.006100  0.209200  1.0  0.1034
  H  H12  1  0.802800  0.861100  0.362400  1.0  0.1106
  H  H13  1  0.048000  0.124000  0.460100  1.0  0.1087
  H  H14  1  0.065500  0.234800  0.527600  1.0  0.0888
  H  H15  1  0.966800  0.338000  0.534400  1.0  0.0901
  H  H16  1  0.826200  0.225100  0.407300  1.0  0.0822
  H  H17  1  0.846200  0.397800  0.564600  1.0  0.1079
  H  H18  1  0.734600  0.488500  0.574800  1.0  0.0496
  H  H19  1  0.659600  0.441200  0.407400  1.0  0.0456
  H  H20  1  0.768600  0.349400  0.392600  1.0  0.1007
  H  H21  1  0.744700  0.028200  0.391400  1.0  0.2974
  H  H22  1  0.741600  0.104500  0.354700  1.0  0.3142
  H  H23  1  0.457500  0.390000  0.847900  1.0  0.0541
  H  H24  1  0.413200  0.285600  0.784100  1.0  0.111
  H  H25  1  0.214000  0.258400  0.896900  1.0  0.1104
  H  H26  1  0.270500  0.358300  0.959600  1.0  0.0624
  H  H27  1  0.346000  0.200500  0.720500  1.0  0.0684
  H  H28  1  0.298900  0.086200  0.666300  1.0  0.0859
  H  H29  1  0.202900  0.993900  0.709200  1.0  0.1023
  H  H30  1  0.197200  0.138900  0.862400  1.0  0.1103
  H  H31  1  0.952000  0.876000  0.960100  1.0  0.1087
  H  H32  1  0.934500  0.765200  0.027600  1.0  0.089
  H  H33  1  0.033200  0.662000  0.034400  1.0  0.0899
  H  H34  1  0.173800  0.774900  0.907300  1.0  0.0817
  H  H35  1  0.153800  0.602200  0.064600  1.0  0.106
  H  H36  1  0.265400  0.511500  0.074800  1.0  0.0507
  H  H37  1  0.340400  0.558800  0.907400  1.0  0.0453
  H  H38  1  0.231400  0.650600  0.892600  1.0  0.1007
  H  H39  1  0.255300  0.971800  0.891400  1.0  0.2959
  H  H40  1  0.258400  0.895500  0.854700  1.0  0.3141
  H  H41  1  0.890000  0.042500  0.597900  1.0  0.054
  H  H42  1  0.785600  0.086800  0.534100  1.0  0.1117
  H  H43  1  0.758400  0.286000  0.646900  1.0  0.1102
  H  H44  1  0.858300  0.229500  0.709600  1.0  0.0624
  H  H45  1  0.700500  0.154000  0.470500  1.0  0.0677
  H  H46  1  0.586200  0.201100  0.416300  1.0  0.0865
  H  H47  1  0.493900  0.297100  0.459200  1.0  0.1026
  H  H48  1  0.638900  0.302800  0.612400  1.0  0.1103
  H  H49  1  0.376000  0.548000  0.710100  1.0  0.108
  H  H50  1  0.265200  0.565500  0.777600  1.0  0.0895
  H  H51  1  0.162000  0.466800  0.784400  1.0  0.0899
  H  H52  1  0.274900  0.326200  0.657300  1.0  0.0826
  H  H53  1  0.102200  0.346200  0.814600  1.0  0.1075
  H  H54  1  0.011500  0.234600  0.824800  1.0  0.0505
  H  H55  1  0.058800  0.159600  0.657400  1.0  0.0458
  H  H56  1  0.150600  0.268600  0.642600  1.0  0.1
  H  H57  1  0.471800  0.244700  0.641400  1.0  0.2983
  H  H58  1  0.395500  0.241600  0.604700  1.0  0.3133
  H  H59  1  0.110000  0.957500  0.097900  1.0  0.0537
  H  H60  1  0.214400  0.913200  0.034100  1.0  0.1118
  H  H61  1  0.241600  0.714000  0.146900  1.0  0.1107
  H  H62  1  0.141700  0.770500  0.209600  1.0  0.0629
  H  H63  1  0.299500  0.846000  0.970500  1.0  0.0697
  H  H64  1  0.413800  0.798900  0.916300  1.0  0.0863
  H  H65  1  0.506100  0.702900  0.959200  1.0  0.1017
  H  H66  1  0.361100  0.697200  0.112400  1.0  0.1105
  H  H67  1  0.624000  0.452000  0.210100  1.0  0.1083
  H  H68  1  0.734800  0.434500  0.277600  1.0  0.0893
  H  H69  1  0.838000  0.533200  0.284400  1.0  0.0896
  H  H70  1  0.725100  0.673800  0.157300  1.0  0.0826
  H  H71  1  0.897800  0.653800  0.314600  1.0  0.1061
  H  H72  1  0.988500  0.765400  0.324800  1.0  0.0501
  H  H73  1  0.941200  0.840400  0.157400  1.0  0.0453
  H  H74  1  0.849400  0.731400  0.142600  1.0  0.1002
  H  H75  1  0.528200  0.755300  0.141400  1.0  0.2982
  H  H76  1  0.604500  0.758400  0.104700  1.0  0.314
  H  H77  1  0.957500  0.110000  0.902100  1.0  0.0555
  H  H78  1  0.913200  0.214400  0.965900  1.0  0.1116
  H  H79  1  0.714000  0.241600  0.853100  1.0  0.1091
  H  H80  1  0.770500  0.141700  0.790400  1.0  0.0626
  H  H81  1  0.846000  0.299500  0.029500  1.0  0.068
  H  H82  1  0.798900  0.413800  0.083700  1.0  0.0861
  H  H83  1  0.702900  0.506100  0.040800  1.0  0.1024
  H  H84  1  0.697200  0.361100  0.887600  1.0  0.1103
  H  H85  1  0.452000  0.624000  0.789900  1.0  0.1086
  H  H86  1  0.434500  0.734800  0.722400  1.0  0.0892
  H  H87  1  0.533200  0.838000  0.715600  1.0  0.0912
  H  H88  1  0.673800  0.725100  0.842700  1.0  0.0822
  H  H89  1  0.653800  0.897800  0.685400  1.0  0.1053
  H  H90  1  0.765400  0.988500  0.675200  1.0  0.0499
  H  H91  1  0.840400  0.941200  0.842600  1.0  0.0454
  H  H92  1  0.731400  0.849400  0.857400  1.0  0.1009
  H  H93  1  0.755300  0.528200  0.858600  1.0  0.2947
  H  H94  1  0.758400  0.604500  0.895300  1.0  0.3131
  H  H95  1  0.042500  0.890000  0.402100  1.0  0.0534
  H  H96  1  0.086800  0.785600  0.465900  1.0  0.111
  H  H97  1  0.286000  0.758400  0.353100  1.0  0.1098
  H  H98  1  0.229500  0.858300  0.290400  1.0  0.0621
  H  H99  1  0.154000  0.700500  0.529500  1.0  0.0685
  H  H100  1  0.201100  0.586200  0.583700  1.0  0.0863
  H  H101  1  0.297100  0.493900  0.540800  1.0  0.1036
  H  H102  1  0.302800  0.638900  0.387600  1.0  0.1104
  H  H103  1  0.548000  0.376000  0.289900  1.0  0.1084
  H  H104  1  0.565500  0.265200  0.222400  1.0  0.0889
  H  H105  1  0.466800  0.162000  0.215600  1.0  0.0907
  H  H106  1  0.326200  0.274900  0.342700  1.0  0.0821
  H  H107  1  0.346200  0.102200  0.185400  1.0  0.1059
  H  H108  1  0.234600  0.011500  0.175200  1.0  0.0495
  H  H109  1  0.159600  0.058800  0.342600  1.0  0.0452
  H  H110  1  0.268600  0.150600  0.357400  1.0  0.101
  H  H111  1  0.244700  0.471800  0.358600  1.0  0.2964
  H  H112  1  0.241600  0.395500  0.395300  1.0  0.3143
  H  H113  1  0.610000  0.542500  0.652100  1.0  0.0548
  H  H114  1  0.714400  0.586800  0.715900  1.0  0.1122
  H  H115  1  0.741600  0.786000  0.603100  1.0  0.1109
  H  H116  1  0.641700  0.729500  0.540400  1.0  0.0604
  H  H117  1  0.799500  0.654000  0.779500  1.0  0.0686
  H  H118  1  0.913800  0.701100  0.833700  1.0  0.0875
  H  H119  1  0.006100  0.797100  0.790800  1.0  0.1029
  H  H120  1  0.861100  0.802800  0.637600  1.0  0.1101
  H  H121  1  0.124000  0.048000  0.539900  1.0  0.108
  H  H122  1  0.234800  0.065500  0.472400  1.0  0.0894
  H  H123  1  0.338000  0.966800  0.465600  1.0  0.0907
  H  H124  1  0.225100  0.826200  0.592700  1.0  0.0831
  H  H125  1  0.397800  0.846200  0.435400  1.0  0.1061
  H  H126  1  0.488500  0.734600  0.425200  1.0  0.0501
  H  H127  1  0.441200  0.659600  0.592600  1.0  0.0456
  H  H128  1  0.349400  0.768600  0.607400  1.0  0.1003
  H  H129  1  0.028200  0.744700  0.608600  1.0  0.2974
  H  H130  1  0.104500  0.741600  0.645300  1.0  0.3142
  H  H131  1  0.390000  0.457500  0.152100  1.0  0.0538
  H  H132  1  0.285600  0.413200  0.215900  1.0  0.1128
  H  H133  1  0.258400  0.214000  0.103100  1.0  0.1086
  H  H134  1  0.358300  0.270500  0.040400  1.0  0.0633
  H  H135  1  0.200500  0.346000  0.279500  1.0  0.0688
  H  H136  1  0.086200  0.298900  0.333700  1.0  0.0864
  H  H137  1  0.993900  0.202900  0.290800  1.0  0.102
  H  H138  1  0.138900  0.197200  0.137600  1.0  0.1104
  H  H139  1  0.876000  0.952000  0.039900  1.0  0.1083
  H  H140  1  0.765200  0.934500  0.972400  1.0  0.0892
  H  H141  1  0.662000  0.033200  0.965600  1.0  0.0901
  H  H142  1  0.774900  0.173800  0.092700  1.0  0.0828
  H  H143  1  0.602200  0.153800  0.935400  1.0  0.1053
  H  H144  1  0.511500  0.265400  0.925200  1.0  0.0499
  H  H145  1  0.558800  0.340400  0.092600  1.0  0.045
  H  H146  1  0.650600  0.231400  0.107400  1.0  0.1007
  H  H147  1  0.971800  0.255300  0.108600  1.0  0.2979
  H  H148  1  0.895500  0.258400  0.145300  1.0  0.3141
  C  C149  1  0.590200  0.640200  0.359400  1.0  0.1676
  C  C150  1  0.616800  0.701900  0.319900  1.0  -0.2059
  C  C151  1  0.691900  0.746600  0.335000  1.0  0.0802
  C  C152  1  0.733800  0.718600  0.387000  1.0  -0.2148
  C  C153  1  0.700000  0.657700  0.424300  1.0  0.1402
  C  C154  1  0.721300  0.818700  0.297700  1.0  -0.0179
  C  C155  1  0.693100  0.835400  0.238700  1.0  -0.1146
  C  C156  1  0.721500  0.904100  0.206000  1.0  -0.1032
  C  C157  1  0.779500  0.958600  0.230900  1.0  -0.1187
  C  C158  1  0.811700  0.940700  0.290100  1.0  -0.0087
  C  C159  1  0.781900  0.871900  0.323000  1.0  -0.1535
  C  C160  1  0.874800  0.996200  0.320700  1.0  0.2255
  C  C161  1  0.924900  0.092200  0.383000  1.0  0.2394
  C  C162  1  0.933600  0.161700  0.427500  1.0  -0.0349
  C  C163  1  0.007100  0.165700  0.463300  1.0  -0.1
  C  C164  1  0.017500  0.232000  0.503000  1.0  -0.1076
  C  C165  1  0.958500  0.293800  0.506800  1.0  -0.1203
  C  C166  1  0.886600  0.292900  0.471000  1.0  0.0073
  C  C167  1  0.874400  0.226900  0.431700  1.0  -0.1718
  C  C168  1  0.819100  0.357900  0.477800  1.0  0.0944
  C  C169  1  0.808400  0.404300  0.532100  1.0  -0.2199
  C  C170  1  0.741600  0.459900  0.537500  1.0  0.1658
  C  C171  1  0.697500  0.432400  0.439600  1.0  0.1682
  C  C172  1  0.762600  0.375800  0.430800  1.0  -0.2211
  C  C173  1  0.409800  0.359800  0.859400  1.0  0.1679
  C  C174  1  0.383200  0.298100  0.819900  1.0  -0.2058
  C  C175  1  0.308100  0.253400  0.835000  1.0  0.0808
  C  C176  1  0.266200  0.281400  0.887000  1.0  -0.2124
  C  C177  1  0.300000  0.342300  0.924300  1.0  0.1406
  C  C178  1  0.278700  0.181300  0.797700  1.0  -0.0185
  C  C179  1  0.306900  0.164600  0.738700  1.0  -0.1158
  C  C180  1  0.278500  0.095900  0.706000  1.0  -0.1076
  C  C181  1  0.220500  0.041400  0.730900  1.0  -0.1188
  C  C182  1  0.188300  0.059300  0.790100  1.0  -0.0086
  C  C183  1  0.218100  0.128100  0.823000  1.0  -0.1509
  C  C184  1  0.125200  0.003800  0.820700  1.0  0.2251
  C  C185  1  0.075100  0.907800  0.883000  1.0  0.2435
  C  C186  1  0.066400  0.838300  0.927500  1.0  -0.035
  C  C187  1  0.992900  0.834300  0.963300  1.0  -0.1013
  C  C188  1  0.982500  0.768000  0.003000  1.0  -0.109
  C  C189  1  0.041500  0.706200  0.006800  1.0  -0.1198
  C  C190  1  0.113400  0.707100  0.971000  1.0  0.0082
  C  C191  1  0.125600  0.773100  0.931700  1.0  -0.1725
  C  C192  1  0.180900  0.642100  0.977800  1.0  0.0947
  C  C193  1  0.191600  0.595700  0.032100  1.0  -0.2181
  C  C194  1  0.258400  0.540100  0.037500  1.0  0.1658
  C  C195  1  0.302500  0.567600  0.939600  1.0  0.1682
  C  C196  1  0.237400  0.624200  0.930800  1.0  -0.2197
  C  C197  1  0.859800  0.090200  0.609400  1.0  0.1665
  C  C198  1  0.798100  0.116800  0.569900  1.0  -0.2101
  C  C199  1  0.753400  0.191900  0.585000  1.0  0.0805
  C  C200  1  0.781400  0.233800  0.637000  1.0  -0.2148
  C  C201  1  0.842300  0.200000  0.674300  1.0  0.1385
  C  C202  1  0.681300  0.221300  0.547700  1.0  -0.0181
  C  C203  1  0.664600  0.193100  0.488700  1.0  -0.1175
  C  C204  1  0.595900  0.221500  0.456000  1.0  -0.1082
  C  C205  1  0.541400  0.279500  0.480900  1.0  -0.1214
  C  C206  1  0.559300  0.311700  0.540100  1.0  -0.0085
  C  C207  1  0.628100  0.281900  0.573000  1.0  -0.1522
  C  C208  1  0.503800  0.374800  0.570700  1.0  0.2259
  C  C209  1  0.407800  0.424900  0.633000  1.0  0.243
  C  C210  1  0.338300  0.433600  0.677500  1.0  -0.0336
  C  C211  1  0.334300  0.507100  0.713300  1.0  -0.1004
  C  C212  1  0.268000  0.517500  0.753000  1.0  -0.1051
  C  C213  1  0.206200  0.458500  0.756800  1.0  -0.1196
  C  C214  1  0.207100  0.386600  0.721000  1.0  0.009
  C  C215  1  0.273100  0.374400  0.681700  1.0  -0.1708
  C  C216  1  0.142100  0.319100  0.727800  1.0  0.095
  C  C217  1  0.095700  0.308400  0.782100  1.0  -0.2184
  C  C218  1  0.040100  0.241600  0.787500  1.0  0.1642
  C  C219  1  0.067600  0.197500  0.689600  1.0  0.1668
  C  C220  1  0.124200  0.262600  0.680800  1.0  -0.2219
  C  C221  1  0.140200  0.909800  0.109400  1.0  0.1677
  C  C222  1  0.201900  0.883200  0.069900  1.0  -0.2095
  C  C223  1  0.246600  0.808100  0.085000  1.0  0.0802
  C  C224  1  0.218600  0.766200  0.137000  1.0  -0.2138
  C  C225  1  0.157700  0.800000  0.174300  1.0  0.1382
  C  C226  1  0.318700  0.778700  0.047700  1.0  -0.019
  C  C227  1  0.335400  0.806900  0.988700  1.0  -0.1158
  C  C228  1  0.404100  0.778500  0.956000  1.0  -0.1014
  C  C229  1  0.458600  0.720500  0.980900  1.0  -0.1257
  C  C230  1  0.440700  0.688300  0.040100  1.0  -0.0076
  C  C231  1  0.371900  0.718100  0.073000  1.0  -0.1532
  C  C232  1  0.496200  0.625200  0.070700  1.0  0.2264
  C  C233  1  0.592200  0.575100  0.133000  1.0  0.2401
  C  C234  1  0.661700  0.566400  0.177500  1.0  -0.0328
  C  C235  1  0.665700  0.492900  0.213300  1.0  -0.0999
  C  C236  1  0.732000  0.482500  0.253000  1.0  -0.1081
  C  C237  1  0.793800  0.541500  0.256800  1.0  -0.1187
  C  C238  1  0.792900  0.613400  0.221000  1.0  0.0085
  C  C239  1  0.726900  0.625600  0.181700  1.0  -0.1714
  C  C240  1  0.857900  0.680900  0.227800  1.0  0.0943
  C  C241  1  0.904300  0.691600  0.282100  1.0  -0.2227
  C  C242  1  0.959900  0.758400  0.287500  1.0  0.1641
  C  C243  1  0.932400  0.802500  0.189600  1.0  0.1676
  C  C244  1  0.875800  0.737400  0.180800  1.0  -0.2215
  C  C245  1  0.909800  0.140200  0.890600  1.0  0.1673
  C  C246  1  0.883200  0.201900  0.930100  1.0  -0.2054
  C  C247  1  0.808100  0.246600  0.915000  1.0  0.0815
  C  C248  1  0.766200  0.218600  0.863000  1.0  -0.2147
  C  C249  1  0.800000  0.157700  0.825700  1.0  0.1422
  C  C250  1  0.778700  0.318700  0.952300  1.0  -0.0174
  C  C251  1  0.806900  0.335400  0.011300  1.0  -0.1157
  C  C252  1  0.778500  0.404100  0.044000  1.0  -0.1083
  C  C253  1  0.720500  0.458600  0.019100  1.0  -0.1177
  C  C254  1  0.688300  0.440700  0.959900  1.0  -0.0086
  C  C255  1  0.718100  0.371900  0.927000  1.0  -0.1508
  C  C256  1  0.625200  0.496200  0.929300  1.0  0.2251
  C  C257  1  0.575100  0.592200  0.867000  1.0  0.2389
  C  C258  1  0.566400  0.661700  0.822500  1.0  -0.0357
  C  C259  1  0.492900  0.665700  0.786700  1.0  -0.0983
  C  C260  1  0.482500  0.732000  0.747000  1.0  -0.1135
  C  C261  1  0.541500  0.793800  0.743200  1.0  -0.12
  C  C262  1  0.613400  0.792900  0.779000  1.0  0.0073
  C  C263  1  0.625600  0.726900  0.818300  1.0  -0.1718
  C  C264  1  0.680900  0.857900  0.772200  1.0  0.095
  C  C265  1  0.691600  0.904300  0.717900  1.0  -0.2256
  C  C266  1  0.758400  0.959900  0.712500  1.0  0.1662
  C  C267  1  0.802500  0.932400  0.810400  1.0  0.169
  C  C268  1  0.737400  0.875800  0.819200  1.0  -0.2216
  C  C269  1  0.090200  0.859800  0.390600  1.0  0.1679
  C  C270  1  0.116800  0.798100  0.430100  1.0  -0.2051
  C  C271  1  0.191900  0.753400  0.415000  1.0  0.0813
  C  C272  1  0.233800  0.781400  0.363000  1.0  -0.2172
  C  C273  1  0.200000  0.842300  0.325700  1.0  0.1407
  C  C274  1  0.221300  0.681300  0.452300  1.0  -0.0181
  C  C275  1  0.193100  0.664600  0.511300  1.0  -0.1152
  C  C276  1  0.221500  0.595900  0.544000  1.0  -0.1036
  C  C277  1  0.279500  0.541400  0.519100  1.0  -0.1194
  C  C278  1  0.311700  0.559300  0.459900  1.0  -0.0093
  C  C279  1  0.281900  0.628100  0.427000  1.0  -0.1519
  C  C280  1  0.374800  0.503800  0.429300  1.0  0.2253
  C  C281  1  0.424900  0.407800  0.367000  1.0  0.2372
  C  C282  1  0.433600  0.338300  0.322500  1.0  -0.0348
  C  C283  1  0.507100  0.334300  0.286700  1.0  -0.0992
  C  C284  1  0.517500  0.268000  0.247000  1.0  -0.1066
  C  C285  1  0.458500  0.206200  0.243200  1.0  -0.1201
  C  C286  1  0.386600  0.207100  0.279000  1.0  0.0075
  C  C287  1  0.374400  0.273100  0.318300  1.0  -0.1702
  C  C288  1  0.319100  0.142100  0.272200  1.0  0.0944
  C  C289  1  0.308400  0.095700  0.217900  1.0  -0.2185
  C  C290  1  0.241600  0.040100  0.212500  1.0  0.1664
  C  C291  1  0.197500  0.067600  0.310400  1.0  0.1688
  C  C292  1  0.262600  0.124200  0.319200  1.0  -0.2213
  C  C293  1  0.640200  0.590200  0.640600  1.0  0.1673
  C  C294  1  0.701900  0.616800  0.680100  1.0  -0.209
  C  C295  1  0.746600  0.691900  0.665000  1.0  0.0812
  C  C296  1  0.718600  0.733800  0.613000  1.0  -0.2157
  C  C297  1  0.657700  0.700000  0.575700  1.0  0.1389
  C  C298  1  0.818700  0.721300  0.702300  1.0  -0.0184
  C  C299  1  0.835400  0.693100  0.761300  1.0  -0.1169
  C  C300  1  0.904100  0.721500  0.794000  1.0  -0.1009
  C  C301  1  0.958600  0.779500  0.769100  1.0  -0.1233
  C  C302  1  0.940700  0.811700  0.709900  1.0  -0.0084
  C  C303  1  0.871900  0.781900  0.677000  1.0  -0.1524
  C  C304  1  0.996200  0.874800  0.679300  1.0  0.2261
  C  C305  1  0.092200  0.924900  0.617000  1.0  0.2367
  C  C306  1  0.161700  0.933600  0.572500  1.0  -0.0336
  C  C307  1  0.165700  0.007100  0.536700  1.0  -0.1003
  C  C308  1  0.232000  0.017500  0.497000  1.0  -0.107
  C  C309  1  0.293800  0.958500  0.493200  1.0  -0.1194
  C  C310  1  0.292900  0.886600  0.529000  1.0  0.0075
  C  C311  1  0.226900  0.874400  0.568300  1.0  -0.1716
  C  C312  1  0.357900  0.819100  0.522200  1.0  0.0942
  C  C313  1  0.404300  0.808400  0.467900  1.0  -0.2182
  C  C314  1  0.459900  0.741600  0.462500  1.0  0.1646
  C  C315  1  0.432400  0.697500  0.560400  1.0  0.1682
  C  C316  1  0.375800  0.762600  0.569200  1.0  -0.222
  C  C317  1  0.359800  0.409800  0.140600  1.0  0.1666
  C  C318  1  0.298100  0.383200  0.180100  1.0  -0.2094
  C  C319  1  0.253400  0.308100  0.165000  1.0  0.0812
  C  C320  1  0.281400  0.266200  0.113000  1.0  -0.2159
  C  C321  1  0.342300  0.300000  0.075700  1.0  0.1387
  C  C322  1  0.181300  0.278700  0.202300  1.0  -0.0177
  C  C323  1  0.164600  0.306900  0.261300  1.0  -0.1164
  C  C324  1  0.095900  0.278500  0.294000  1.0  -0.1065
  C  C325  1  0.041400  0.220500  0.269100  1.0  -0.1212
  C  C326  1  0.059300  0.188300  0.209900  1.0  -0.0089
  C  C327  1  0.128100  0.218100  0.177000  1.0  -0.151
  C  C328  1  0.003800  0.125200  0.179300  1.0  0.2256
  C  C329  1  0.907800  0.075100  0.117000  1.0  0.2437
  C  C330  1  0.838300  0.066400  0.072500  1.0  -0.0333
  C  C331  1  0.834300  0.992900  0.036700  1.0  -0.1009
  C  C332  1  0.768000  0.982500  0.997000  1.0  -0.1052
  C  C333  1  0.706200  0.041500  0.993200  1.0  -0.1193
  C  C334  1  0.707100  0.113400  0.029000  1.0  0.0094
  C  C335  1  0.773100  0.125600  0.068300  1.0  -0.1701
  C  C336  1  0.642100  0.180900  0.022200  1.0  0.0952
  C  C337  1  0.595700  0.191600  0.967900  1.0  -0.218
  C  C338  1  0.540100  0.258400  0.962500  1.0  0.1648
  C  C339  1  0.567600  0.302500  0.060400  1.0  0.1671
  C  C340  1  0.624200  0.237400  0.069200  1.0  -0.2226
  N  N341  1  0.625700  0.619800  0.412300  1.0  -0.3597
  N  N342  1  0.955300  0.994200  0.316400  1.0  -0.1934
  N  N343  1  0.988800  0.054700  0.355500  1.0  -0.3145
  N  N344  1  0.852500  0.056900  0.361800  1.0  0.0765
  N  N345  1  0.770500  0.076800  0.383200  1.0  -0.5828
  N  N346  1  0.686700  0.474600  0.491900  1.0  -0.3744
  N  N347  1  0.374300  0.380200  0.912300  1.0  -0.3598
  N  N348  1  0.044700  0.005800  0.816400  1.0  -0.1935
  N  N349  1  0.011200  0.945300  0.855500  1.0  -0.3193
  N  N350  1  0.147500  0.943100  0.861800  1.0  0.077
  N  N351  1  0.229500  0.923200  0.883200  1.0  -0.5838
  N  N352  1  0.313300  0.525400  0.991900  1.0  -0.3749
  N  N353  1  0.880200  0.125700  0.662300  1.0  -0.3594
  N  N354  1  0.505800  0.455300  0.566400  1.0  -0.1946
  N  N355  1  0.445300  0.488800  0.605500  1.0  -0.316
  N  N356  1  0.443100  0.352500  0.611800  1.0  0.0774
  N  N357  1  0.423200  0.270500  0.633200  1.0  -0.5844
  N  N358  1  0.025400  0.186700  0.741900  1.0  -0.3745
  N  N359  1  0.119800  0.874300  0.162300  1.0  -0.3608
  N  N360  1  0.494200  0.544700  0.066400  1.0  -0.1941
  N  N361  1  0.554700  0.511200  0.105500  1.0  -0.3146
  N  N362  1  0.556900  0.647500  0.111800  1.0  0.0795
  N  N363  1  0.576800  0.729500  0.133200  1.0  -0.5839
  N  N364  1  0.974600  0.813300  0.241900  1.0  -0.3742
  N  N365  1  0.874300  0.119800  0.837700  1.0  -0.3597
  N  N366  1  0.544700  0.494200  0.933600  1.0  -0.1938
  N  N367  1  0.511200  0.554700  0.894500  1.0  -0.318
  N  N368  1  0.647500  0.556900  0.888200  1.0  0.0801
  N  N369  1  0.729500  0.576800  0.866800  1.0  -0.582
  N  N370  1  0.813300  0.974600  0.758100  1.0  -0.3752
  N  N371  1  0.125700  0.880200  0.337700  1.0  -0.36
  N  N372  1  0.455300  0.505800  0.433600  1.0  -0.1927
  N  N373  1  0.488800  0.445300  0.394500  1.0  -0.3154
  N  N374  1  0.352500  0.443100  0.388200  1.0  0.0764
  N  N375  1  0.270500  0.423200  0.366800  1.0  -0.5832
  N  N376  1  0.186700  0.025400  0.258100  1.0  -0.374
  N  N377  1  0.619800  0.625700  0.587700  1.0  -0.3606
  N  N378  1  0.994200  0.955300  0.683600  1.0  -0.1942
  N  N379  1  0.054700  0.988800  0.644500  1.0  -0.3149
  N  N380  1  0.056900  0.852500  0.638200  1.0  0.0777
  N  N381  1  0.076800  0.770500  0.616800  1.0  -0.5844
  N  N382  1  0.474600  0.686700  0.508100  1.0  -0.3743
  N  N383  1  0.380200  0.374300  0.087700  1.0  -0.3599
  N  N384  1  0.005800  0.044700  0.183600  1.0  -0.1938
  N  N385  1  0.945300  0.011200  0.144500  1.0  -0.3194
  N  N386  1  0.943100  0.147500  0.138200  1.0  0.0774
  N  N387  1  0.923200  0.229500  0.116800  1.0  -0.5845
  N  N388  1  0.525400  0.313300  0.008100  1.0  -0.3742
