# generated using pymatgen
data_CdH36C48N12(ClO4)2
_symmetry_space_group_name_H-M   'P 1'
_cell_length_a   15.82710000
_cell_length_b   15.82710000
_cell_length_c   21.85600000
_cell_angle_alpha   90.00000000
_cell_angle_beta   90.00000000
_cell_angle_gamma   90.00000000
_symmetry_Int_Tables_number   1
_chemical_formula_structural   CdH36C48N12(ClO4)2
_chemical_formula_sum   'Cd4 H144 C192 N48 Cl8 O32'
_cell_volume   5474.86449542
_cell_formula_units_Z   4
loop_
 _symmetry_equiv_pos_site_id
 _symmetry_equiv_pos_as_xyz
  1  'x, y, z'
loop_
 _atom_site_type_symbol
 _atom_site_label
 _atom_site_symmetry_multiplicity
 _atom_site_fract_x
 _atom_site_fract_y
 _atom_site_fract_z
 _atom_site_occupancy
 _atom_site_charge
  Cd  Cd1  1  0.942300  0.057700  0.750000  1.0  0.8039
  Cd  Cd2  1  0.057700  0.942300  0.250000  1.0  0.8038
  Cd  Cd3  1  0.442300  0.442300  0.500000  1.0  0.804
  Cd  Cd4  1  0.557700  0.557700  0.000000  1.0  0.8037
  H  H5  1  0.464700  0.388000  0.649900  1.0  0.0775
  H  H6  1  0.416600  0.285900  0.713600  1.0  0.1277
  H  H7  1  0.215900  0.259800  0.605000  1.0  0.1302
  H  H8  1  0.272900  0.360100  0.541500  1.0  0.0717
  H  H9  1  0.347600  0.204200  0.779600  1.0  0.0815
  H  H10  1  0.297000  0.091600  0.834000  1.0  0.1098
  H  H11  1  0.198800  0.000600  0.792500  1.0  0.1004
  H  H12  1  0.204200  0.135800  0.637100  1.0  0.1138
  H  H13  1  0.957500  0.881700  0.540500  1.0  0.1064
  H  H14  1  0.938600  0.772000  0.471100  1.0  0.1104
  H  H15  1  0.039400  0.668300  0.461500  1.0  0.1112
  H  H16  1  0.173700  0.776200  0.595200  1.0  0.0972
  H  H17  1  0.154900  0.604000  0.437200  1.0  0.1293
  H  H18  1  0.265200  0.511200  0.427500  1.0  0.0622
  H  H19  1  0.338800  0.557300  0.593300  1.0  0.0621
  H  H20  1  0.233000  0.650900  0.607800  1.0  0.1356
  H  H21  1  0.257400  0.975600  0.609100  1.0  0.3237
  H  H22  1  0.260500  0.899300  0.645800  1.0  0.31
  H  H23  1  0.535300  0.612000  0.149900  1.0  0.0778
  H  H24  1  0.583400  0.714100  0.213600  1.0  0.1274
  H  H25  1  0.784100  0.740200  0.105000  1.0  0.1306
  H  H26  1  0.727100  0.639900  0.041500  1.0  0.0721
  H  H27  1  0.652400  0.795800  0.279600  1.0  0.0814
  H  H28  1  0.703000  0.908400  0.334000  1.0  0.11
  H  H29  1  0.801200  0.999400  0.292500  1.0  0.1001
  H  H30  1  0.795800  0.864200  0.137100  1.0  0.1143
  H  H31  1  0.042500  0.118300  0.040500  1.0  0.1067
  H  H32  1  0.061400  0.228000  0.971100  1.0  0.1104
  H  H33  1  0.960600  0.331700  0.961500  1.0  0.1114
  H  H34  1  0.826300  0.223800  0.095200  1.0  0.0973
  H  H35  1  0.845100  0.396000  0.937200  1.0  0.1293
  H  H36  1  0.734800  0.488800  0.927500  1.0  0.0623
  H  H37  1  0.661200  0.442700  0.093300  1.0  0.0618
  H  H38  1  0.767000  0.349100  0.107800  1.0  0.1357
  H  H39  1  0.742600  0.024400  0.109100  1.0  0.3225
  H  H40  1  0.739500  0.100700  0.145800  1.0  0.3102
  H  H41  1  0.112000  0.964700  0.399900  1.0  0.0784
  H  H42  1  0.214100  0.916600  0.463600  1.0  0.129
  H  H43  1  0.240200  0.715900  0.355000  1.0  0.1302
  H  H44  1  0.139900  0.772900  0.291500  1.0  0.0714
  H  H45  1  0.295800  0.847600  0.529600  1.0  0.0819
  H  H46  1  0.408400  0.797000  0.584000  1.0  0.1103
  H  H47  1  0.499400  0.698800  0.542500  1.0  0.1004
  H  H48  1  0.364200  0.704200  0.387100  1.0  0.1143
  H  H49  1  0.618300  0.457500  0.290500  1.0  0.1068
  H  H50  1  0.728000  0.438600  0.221100  1.0  0.1111
  H  H51  1  0.831700  0.539400  0.211500  1.0  0.1105
  H  H52  1  0.723800  0.673700  0.345200  1.0  0.0978
  H  H53  1  0.896000  0.654900  0.187200  1.0  0.1293
  H  H54  1  0.988800  0.765200  0.177500  1.0  0.0623
  H  H55  1  0.942700  0.838800  0.343300  1.0  0.0619
  H  H56  1  0.849100  0.733000  0.357800  1.0  0.1354
  H  H57  1  0.524400  0.757400  0.359100  1.0  0.3235
  H  H58  1  0.600700  0.760500  0.395800  1.0  0.3104
  H  H59  1  0.888000  0.035300  0.899900  1.0  0.0783
  H  H60  1  0.785900  0.083400  0.963600  1.0  0.1282
  H  H61  1  0.759800  0.284100  0.855000  1.0  0.1305
  H  H62  1  0.860100  0.227100  0.791500  1.0  0.0712
  H  H63  1  0.704200  0.152400  0.029600  1.0  0.0821
  H  H64  1  0.591600  0.203000  0.084000  1.0  0.1105
  H  H65  1  0.500600  0.301200  0.042500  1.0  0.1006
  H  H66  1  0.635800  0.295800  0.887100  1.0  0.1141
  H  H67  1  0.381700  0.542500  0.790500  1.0  0.1064
  H  H68  1  0.272000  0.561400  0.721100  1.0  0.1111
  H  H69  1  0.168300  0.460600  0.711500  1.0  0.1107
  H  H70  1  0.276200  0.326300  0.845200  1.0  0.0981
  H  H71  1  0.104000  0.345100  0.687200  1.0  0.1294
  H  H72  1  0.011200  0.234800  0.677500  1.0  0.0622
  H  H73  1  0.057300  0.161200  0.843300  1.0  0.0623
  H  H74  1  0.150900  0.267000  0.857800  1.0  0.1353
  H  H75  1  0.475600  0.242600  0.859100  1.0  0.3236
  H  H76  1  0.399300  0.239500  0.895800  1.0  0.3105
  H  H77  1  0.035300  0.888000  0.100100  1.0  0.0779
  H  H78  1  0.083400  0.785900  0.036400  1.0  0.1284
  H  H79  1  0.284100  0.759800  0.145000  1.0  0.1311
  H  H80  1  0.227100  0.860100  0.208500  1.0  0.0718
  H  H81  1  0.152400  0.704200  0.970400  1.0  0.0811
  H  H82  1  0.203000  0.591600  0.916000  1.0  0.1101
  H  H83  1  0.301200  0.500600  0.957500  1.0  0.1
  H  H84  1  0.295800  0.635800  0.112900  1.0  0.1142
  H  H85  1  0.542500  0.381700  0.209500  1.0  0.1063
  H  H86  1  0.561400  0.272000  0.278900  1.0  0.1108
  H  H87  1  0.460600  0.168300  0.288500  1.0  0.1117
  H  H88  1  0.326300  0.276200  0.154800  1.0  0.0972
  H  H89  1  0.345100  0.104000  0.312800  1.0  0.129
  H  H90  1  0.234800  0.011200  0.322500  1.0  0.0619
  H  H91  1  0.161200  0.057300  0.156700  1.0  0.061
  H  H92  1  0.267000  0.150900  0.142200  1.0  0.1367
  H  H93  1  0.242600  0.475600  0.140900  1.0  0.3238
  H  H94  1  0.239500  0.399300  0.104200  1.0  0.3099
  H  H95  1  0.964700  0.112000  0.600100  1.0  0.0775
  H  H96  1  0.916600  0.214100  0.536400  1.0  0.1286
  H  H97  1  0.715900  0.240200  0.645000  1.0  0.1304
  H  H98  1  0.772900  0.139900  0.708500  1.0  0.0716
  H  H99  1  0.847600  0.295800  0.470400  1.0  0.0818
  H  H100  1  0.797000  0.408400  0.416000  1.0  0.1102
  H  H101  1  0.698800  0.499400  0.457500  1.0  0.1012
  H  H102  1  0.704200  0.364200  0.612900  1.0  0.114
  H  H103  1  0.457500  0.618300  0.709500  1.0  0.1065
  H  H104  1  0.438600  0.728000  0.778900  1.0  0.1106
  H  H105  1  0.539400  0.831700  0.788500  1.0  0.1121
  H  H106  1  0.673700  0.723800  0.654800  1.0  0.097
  H  H107  1  0.654900  0.896000  0.812800  1.0  0.1297
  H  H108  1  0.765200  0.988800  0.822500  1.0  0.0621
  H  H109  1  0.838800  0.942700  0.656700  1.0  0.0616
  H  H110  1  0.733000  0.849100  0.642200  1.0  0.1364
  H  H111  1  0.757400  0.524400  0.640900  1.0  0.3235
  H  H112  1  0.760500  0.600700  0.604200  1.0  0.3104
  H  H113  1  0.388000  0.464700  0.350100  1.0  0.0785
  H  H114  1  0.285900  0.416600  0.286400  1.0  0.1293
  H  H115  1  0.259800  0.215900  0.395000  1.0  0.1307
  H  H116  1  0.360100  0.272900  0.458500  1.0  0.0711
  H  H117  1  0.204200  0.347600  0.220400  1.0  0.0818
  H  H118  1  0.091600  0.297000  0.166000  1.0  0.1103
  H  H119  1  0.000600  0.198800  0.207500  1.0  0.101
  H  H120  1  0.135800  0.204200  0.362900  1.0  0.1139
  H  H121  1  0.881700  0.957500  0.459500  1.0  0.1068
  H  H122  1  0.772000  0.938600  0.528900  1.0  0.1117
  H  H123  1  0.668300  0.039400  0.538500  1.0  0.1113
  H  H124  1  0.776200  0.173700  0.404800  1.0  0.0981
  H  H125  1  0.604000  0.154900  0.562800  1.0  0.1294
  H  H126  1  0.511200  0.265200  0.572500  1.0  0.0619
  H  H127  1  0.557300  0.338800  0.406700  1.0  0.0616
  H  H128  1  0.650900  0.233000  0.392200  1.0  0.1361
  H  H129  1  0.975600  0.257400  0.390900  1.0  0.3235
  H  H130  1  0.899300  0.260500  0.354200  1.0  0.311
  H  H131  1  0.612000  0.535300  0.850100  1.0  0.078
  H  H132  1  0.714100  0.583400  0.786400  1.0  0.1293
  H  H133  1  0.740200  0.784100  0.895000  1.0  0.1306
  H  H134  1  0.639900  0.727100  0.958500  1.0  0.0712
  H  H135  1  0.795800  0.652400  0.720400  1.0  0.0822
  H  H136  1  0.908400  0.703000  0.666000  1.0  0.1102
  H  H137  1  0.999400  0.801200  0.707500  1.0  0.1006
  H  H138  1  0.864200  0.795800  0.862900  1.0  0.1142
  H  H139  1  0.118300  0.042500  0.959500  1.0  0.1067
  H  H140  1  0.228000  0.061400  0.028900  1.0  0.1111
  H  H141  1  0.331700  0.960600  0.038500  1.0  0.1108
  H  H142  1  0.223800  0.826300  0.904800  1.0  0.0982
  H  H143  1  0.396000  0.845100  0.062800  1.0  0.1291
  H  H144  1  0.488800  0.734800  0.072500  1.0  0.0625
  H  H145  1  0.442700  0.661200  0.906700  1.0  0.0619
  H  H146  1  0.349100  0.767000  0.892200  1.0  0.1365
  H  H147  1  0.024400  0.742600  0.890900  1.0  0.3238
  H  H148  1  0.100700  0.739500  0.854200  1.0  0.311
  C  C149  1  0.415500  0.359300  0.639400  1.0  0.1693
  C  C150  1  0.386600  0.298300  0.678200  1.0  -0.1863
  C  C151  1  0.312500  0.254300  0.665000  1.0  0.1051
  C  C152  1  0.268800  0.282400  0.613900  1.0  -0.1928
  C  C153  1  0.302800  0.343700  0.576100  1.0  0.1455
  C  C154  1  0.281300  0.182200  0.702300  1.0  0.002
  C  C155  1  0.308400  0.167900  0.761800  1.0  -0.0707
  C  C156  1  0.277700  0.100700  0.794300  1.0  -0.0751
  C  C157  1  0.218900  0.046000  0.769800  1.0  -0.051
  C  C158  1  0.190000  0.060100  0.710100  1.0  -0.0589
  C  C159  1  0.222300  0.127200  0.677100  1.0  -0.1212
  C  C160  1  0.127500  0.004100  0.680500  1.0  0.2454
  C  C161  1  0.076800  0.909000  0.618300  1.0  0.2548
  C  C162  1  0.068900  0.839400  0.574400  1.0  -0.0128
  C  C163  1  0.997400  0.838900  0.537400  1.0  -0.064
  C  C164  1  0.986500  0.773300  0.495700  1.0  -0.0657
  C  C165  1  0.046000  0.710700  0.490600  1.0  -0.1044
  C  C166  1  0.115700  0.710500  0.528600  1.0  0.0062
  C  C167  1  0.126400  0.775800  0.570000  1.0  -0.1018
  C  C168  1  0.182300  0.642500  0.522600  1.0  0.1106
  C  C169  1  0.192500  0.596800  0.469500  1.0  -0.2146
  C  C170  1  0.258900  0.540000  0.464300  1.0  0.1809
  C  C171  1  0.301700  0.567200  0.561100  1.0  0.1727
  C  C172  1  0.238600  0.624200  0.570100  1.0  -0.1853
  C  C173  1  0.584500  0.640700  0.139400  1.0  0.1698
  C  C174  1  0.613400  0.701700  0.178200  1.0  -0.1869
  C  C175  1  0.687500  0.745700  0.165000  1.0  0.1049
  C  C176  1  0.731200  0.717600  0.113900  1.0  -0.1936
  C  C177  1  0.697200  0.656300  0.076100  1.0  0.1458
  C  C178  1  0.718700  0.817800  0.202300  1.0  0.0027
  C  C179  1  0.691600  0.832100  0.261800  1.0  -0.0714
  C  C180  1  0.722300  0.899300  0.294300  1.0  -0.0736
  C  C181  1  0.781100  0.954000  0.269800  1.0  -0.0533
  C  C182  1  0.810000  0.939900  0.210100  1.0  -0.058
  C  C183  1  0.777700  0.872800  0.177100  1.0  -0.1219
  C  C184  1  0.872500  0.995900  0.180500  1.0  0.2454
  C  C185  1  0.923200  0.091000  0.118300  1.0  0.2552
  C  C186  1  0.931100  0.160600  0.074400  1.0  -0.0132
  C  C187  1  0.002600  0.161100  0.037400  1.0  -0.0664
  C  C188  1  0.013500  0.226700  0.995700  1.0  -0.0645
  C  C189  1  0.954000  0.289300  0.990600  1.0  -0.105
  C  C190  1  0.884300  0.289500  0.028600  1.0  0.0045
  C  C191  1  0.873600  0.224200  0.070000  1.0  -0.1022
  C  C192  1  0.817700  0.357500  0.022600  1.0  0.1097
  C  C193  1  0.807500  0.403200  0.969500  1.0  -0.2142
  C  C194  1  0.741100  0.460000  0.964300  1.0  0.1828
  C  C195  1  0.698300  0.432800  0.061100  1.0  0.1727
  C  C196  1  0.761400  0.375800  0.070100  1.0  -0.1855
  C  C197  1  0.140700  0.915500  0.389400  1.0  0.1692
  C  C198  1  0.201700  0.886600  0.428200  1.0  -0.1897
  C  C199  1  0.245700  0.812500  0.415000  1.0  0.1044
  C  C200  1  0.217600  0.768800  0.363900  1.0  -0.1911
  C  C201  1  0.156300  0.802800  0.326100  1.0  0.1429
  C  C202  1  0.317800  0.781300  0.452300  1.0  0.0024
  C  C203  1  0.332100  0.808400  0.511800  1.0  -0.0704
  C  C204  1  0.399300  0.777700  0.544300  1.0  -0.0733
  C  C205  1  0.454000  0.718900  0.519800  1.0  -0.0596
  C  C206  1  0.439900  0.690000  0.460100  1.0  -0.0574
  C  C207  1  0.372800  0.722300  0.427100  1.0  -0.1231
  C  C208  1  0.495900  0.627500  0.430500  1.0  0.2482
  C  C209  1  0.591000  0.576800  0.368300  1.0  0.2561
  C  C210  1  0.660600  0.568900  0.324400  1.0  -0.014
  C  C211  1  0.661100  0.497400  0.287400  1.0  -0.0644
  C  C212  1  0.726700  0.486500  0.245700  1.0  -0.0611
  C  C213  1  0.789300  0.546000  0.240600  1.0  -0.1046
  C  C214  1  0.789500  0.615700  0.278600  1.0  0.005
  C  C215  1  0.724200  0.626400  0.320000  1.0  -0.1007
  C  C216  1  0.857500  0.682300  0.272600  1.0  0.1102
  C  C217  1  0.903200  0.692500  0.219500  1.0  -0.2147
  C  C218  1  0.960000  0.758900  0.214300  1.0  0.1809
  C  C219  1  0.932800  0.801700  0.311100  1.0  0.1724
  C  C220  1  0.875800  0.738600  0.320100  1.0  -0.186
  C  C221  1  0.859300  0.084500  0.889400  1.0  0.1691
  C  C222  1  0.798300  0.113400  0.928200  1.0  -0.1888
  C  C223  1  0.754300  0.187500  0.915000  1.0  0.1049
  C  C224  1  0.782400  0.231200  0.863900  1.0  -0.1917
  C  C225  1  0.843700  0.197200  0.826100  1.0  0.1447
  C  C226  1  0.682200  0.218700  0.952300  1.0  0.0025
  C  C227  1  0.667900  0.191600  0.011800  1.0  -0.0701
  C  C228  1  0.600700  0.222300  0.044300  1.0  -0.074
  C  C229  1  0.546000  0.281100  0.019800  1.0  -0.0586
  C  C230  1  0.560100  0.310000  0.960100  1.0  -0.0579
  C  C231  1  0.627200  0.277700  0.927100  1.0  -0.1231
  C  C232  1  0.504100  0.372500  0.930500  1.0  0.2474
  C  C233  1  0.409000  0.423200  0.868300  1.0  0.2557
  C  C234  1  0.339400  0.431100  0.824400  1.0  -0.0142
  C  C235  1  0.338900  0.502600  0.787400  1.0  -0.0665
  C  C236  1  0.273300  0.513500  0.745700  1.0  -0.0617
  C  C237  1  0.210700  0.454000  0.740600  1.0  -0.1041
  C  C238  1  0.210500  0.384300  0.778600  1.0  0.0062
  C  C239  1  0.275800  0.373600  0.820000  1.0  -0.1008
  C  C240  1  0.142500  0.317700  0.772600  1.0  0.1113
  C  C241  1  0.096800  0.307500  0.719500  1.0  -0.2139
  C  C242  1  0.040000  0.241100  0.714300  1.0  0.1808
  C  C243  1  0.067200  0.198300  0.811100  1.0  0.1718
  C  C244  1  0.124200  0.261400  0.820100  1.0  -0.1858
  C  C245  1  0.084500  0.859300  0.110600  1.0  0.1693
  C  C246  1  0.113400  0.798300  0.071800  1.0  -0.1866
  C  C247  1  0.187500  0.754300  0.085000  1.0  0.1049
  C  C248  1  0.231200  0.782400  0.136100  1.0  -0.1937
  C  C249  1  0.197200  0.843700  0.173900  1.0  0.1458
  C  C250  1  0.218700  0.682200  0.047700  1.0  0.0029
  C  C251  1  0.191600  0.667900  0.988200  1.0  -0.0701
  C  C252  1  0.222300  0.600700  0.955700  1.0  -0.0758
  C  C253  1  0.281100  0.546000  0.980200  1.0  -0.0542
  C  C254  1  0.310000  0.560100  0.039900  1.0  -0.0592
  C  C255  1  0.277700  0.627200  0.072900  1.0  -0.1203
  C  C256  1  0.372500  0.504100  0.069500  1.0  0.2455
  C  C257  1  0.423200  0.409000  0.131700  1.0  0.2543
  C  C258  1  0.431100  0.339400  0.175600  1.0  -0.0129
  C  C259  1  0.502600  0.338900  0.212600  1.0  -0.0662
  C  C260  1  0.513500  0.273300  0.254300  1.0  -0.0647
  C  C261  1  0.454000  0.210700  0.259400  1.0  -0.1056
  C  C262  1  0.384300  0.210500  0.221400  1.0  0.0049
  C  C263  1  0.373600  0.275800  0.180000  1.0  -0.1025
  C  C264  1  0.317700  0.142500  0.227400  1.0  0.1102
  C  C265  1  0.307500  0.096800  0.280500  1.0  -0.2147
  C  C266  1  0.241100  0.040000  0.285700  1.0  0.1823
  C  C267  1  0.198300  0.067200  0.188900  1.0  0.1726
  C  C268  1  0.261400  0.124200  0.179900  1.0  -0.186
  C  C269  1  0.915500  0.140700  0.610600  1.0  0.1692
  C  C270  1  0.886600  0.201700  0.571800  1.0  -0.1871
  C  C271  1  0.812500  0.245700  0.585000  1.0  0.1043
  C  C272  1  0.768800  0.217600  0.636100  1.0  -0.1929
  C  C273  1  0.802800  0.156300  0.673900  1.0  0.1457
  C  C274  1  0.781300  0.317800  0.547700  1.0  0.0015
  C  C275  1  0.808400  0.332100  0.488200  1.0  -0.0709
  C  C276  1  0.777700  0.399300  0.455700  1.0  -0.075
  C  C277  1  0.718900  0.454000  0.480200  1.0  -0.052
  C  C278  1  0.690000  0.439900  0.539900  1.0  -0.0582
  C  C279  1  0.722300  0.372800  0.572900  1.0  -0.1187
  C  C280  1  0.627500  0.495900  0.569500  1.0  0.2454
  C  C281  1  0.576800  0.591000  0.631700  1.0  0.2544
  C  C282  1  0.568900  0.660600  0.675600  1.0  -0.0129
  C  C283  1  0.497400  0.661100  0.712600  1.0  -0.064
  C  C284  1  0.486500  0.726700  0.754300  1.0  -0.0658
  C  C285  1  0.546000  0.789300  0.759400  1.0  -0.1044
  C  C286  1  0.615700  0.789500  0.721400  1.0  0.0053
  C  C287  1  0.626400  0.724200  0.680000  1.0  -0.1016
  C  C288  1  0.682300  0.857500  0.727400  1.0  0.1107
  C  C289  1  0.692500  0.903200  0.780500  1.0  -0.2142
  C  C290  1  0.758900  0.960000  0.785700  1.0  0.1814
  C  C291  1  0.801700  0.932800  0.688900  1.0  0.1724
  C  C292  1  0.738600  0.875800  0.679900  1.0  -0.1858
  C  C293  1  0.359300  0.415500  0.360600  1.0  0.1689
  C  C294  1  0.298300  0.386600  0.321800  1.0  -0.1894
  C  C295  1  0.254300  0.312500  0.335000  1.0  0.1044
  C  C296  1  0.282400  0.268800  0.386100  1.0  -0.192
  C  C297  1  0.343700  0.302800  0.423900  1.0  0.144
  C  C298  1  0.182200  0.281300  0.297700  1.0  0.0025
  C  C299  1  0.167900  0.308400  0.238200  1.0  -0.0707
  C  C300  1  0.100700  0.277700  0.205700  1.0  -0.0742
  C  C301  1  0.046000  0.218900  0.230200  1.0  -0.0605
  C  C302  1  0.060100  0.190000  0.289900  1.0  -0.0576
  C  C303  1  0.127200  0.222300  0.322900  1.0  -0.1211
  C  C304  1  0.004100  0.127500  0.319500  1.0  0.2474
  C  C305  1  0.909000  0.076800  0.381700  1.0  0.2552
  C  C306  1  0.839400  0.068900  0.425600  1.0  -0.0141
  C  C307  1  0.838900  0.997400  0.462600  1.0  -0.0664
  C  C308  1  0.773300  0.986500  0.504300  1.0  -0.0617
  C  C309  1  0.710700  0.046000  0.509400  1.0  -0.1044
  C  C310  1  0.710500  0.115700  0.471400  1.0  0.0056
  C  C311  1  0.775800  0.126400  0.430000  1.0  -0.1013
  C  C312  1  0.642500  0.182300  0.477400  1.0  0.1112
  C  C313  1  0.596800  0.192500  0.530500  1.0  -0.214
  C  C314  1  0.540000  0.258900  0.535700  1.0  0.1803
  C  C315  1  0.567200  0.301700  0.438900  1.0  0.1717
  C  C316  1  0.624200  0.238600  0.429900  1.0  -0.186
  C  C317  1  0.640700  0.584500  0.860600  1.0  0.169
  C  C318  1  0.701700  0.613400  0.821800  1.0  -0.1888
  C  C319  1  0.745700  0.687500  0.835000  1.0  0.1042
  C  C320  1  0.717600  0.731200  0.886100  1.0  -0.1915
  C  C321  1  0.656300  0.697200  0.923900  1.0  0.1437
  C  C322  1  0.817800  0.718700  0.797700  1.0  0.0014
  C  C323  1  0.832100  0.691600  0.738200  1.0  -0.0704
  C  C324  1  0.899300  0.722300  0.705700  1.0  -0.0754
  C  C325  1  0.954000  0.781100  0.730200  1.0  -0.0594
  C  C326  1  0.939900  0.810000  0.789900  1.0  -0.0582
  C  C327  1  0.872800  0.777700  0.822900  1.0  -0.1208
  C  C328  1  0.995900  0.872500  0.819500  1.0  0.2479
  C  C329  1  0.091000  0.923200  0.881700  1.0  0.2548
  C  C330  1  0.160600  0.931100  0.925600  1.0  -0.0135
  C  C331  1  0.161100  0.002600  0.962600  1.0  -0.0646
  C  C332  1  0.226700  0.013500  0.004300  1.0  -0.062
  C  C333  1  0.289300  0.954000  0.009400  1.0  -0.1052
  C  C334  1  0.289500  0.884300  0.971400  1.0  0.0052
  C  C335  1  0.224200  0.873600  0.930000  1.0  -0.1006
  C  C336  1  0.357500  0.817700  0.977400  1.0  0.1102
  C  C337  1  0.403200  0.807500  0.030500  1.0  -0.2141
  C  C338  1  0.460000  0.741100  0.035700  1.0  0.1811
  C  C339  1  0.432800  0.698300  0.938900  1.0  0.1718
  C  C340  1  0.375800  0.761400  0.929900  1.0  -0.1862
  N  N341  1  0.377400  0.380100  0.587500  1.0  -0.3518
  N  N342  1  0.046000  0.006100  0.685000  1.0  -0.235
  N  N343  1  0.013300  0.945100  0.645600  1.0  -0.3076
  N  N344  1  0.150100  0.944200  0.639190  1.0  0.0928
  N  N345  1  0.231600  0.927000  0.617400  1.0  -0.552
  N  N346  1  0.313900  0.524200  0.508700  1.0  -0.3666
  N  N347  1  0.622600  0.619900  0.087500  1.0  -0.3525
  N  N348  1  0.954000  0.993900  0.185000  1.0  -0.2351
  N  N349  1  0.986700  0.054900  0.145600  1.0  -0.3083
  N  N350  1  0.849900  0.055800  0.139190  1.0  0.0923
  N  N351  1  0.768400  0.073000  0.117400  1.0  -0.5514
  N  N352  1  0.686100  0.475800  0.008700  1.0  -0.3668
  N  N353  1  0.119900  0.877400  0.337500  1.0  -0.3517
  N  N354  1  0.493900  0.546000  0.435000  1.0  -0.2344
  N  N355  1  0.554900  0.513300  0.395600  1.0  -0.3066
  N  N356  1  0.555800  0.650100  0.389190  1.0  0.0921
  N  N357  1  0.573000  0.731600  0.367400  1.0  -0.5523
  N  N358  1  0.975800  0.813900  0.258700  1.0  -0.366
  N  N359  1  0.880100  0.122600  0.837500  1.0  -0.3525
  N  N360  1  0.506100  0.454000  0.935000  1.0  -0.2346
  N  N361  1  0.445100  0.486700  0.895600  1.0  -0.3068
  N  N362  1  0.444200  0.349900  0.889190  1.0  0.0924
  N  N363  1  0.427000  0.268400  0.867400  1.0  -0.5517
  N  N364  1  0.024200  0.186100  0.758700  1.0  -0.3666
  N  N365  1  0.122600  0.880100  0.162500  1.0  -0.3518
  N  N366  1  0.454000  0.506100  0.065000  1.0  -0.2351
  N  N367  1  0.486700  0.445100  0.104400  1.0  -0.3084
  N  N368  1  0.349900  0.444200  0.110810  1.0  0.0923
  N  N369  1  0.268400  0.427000  0.132600  1.0  -0.5514
  N  N370  1  0.186100  0.024200  0.241300  1.0  -0.3665
  N  N371  1  0.877400  0.119900  0.662500  1.0  -0.3513
  N  N372  1  0.546000  0.493900  0.565000  1.0  -0.2353
  N  N373  1  0.513300  0.554900  0.604400  1.0  -0.3075
  N  N374  1  0.650100  0.555800  0.610810  1.0  0.0927
  N  N375  1  0.731600  0.573000  0.632600  1.0  -0.5515
  N  N376  1  0.813900  0.975800  0.741300  1.0  -0.3672
  N  N377  1  0.380100  0.377400  0.412500  1.0  -0.3515
  N  N378  1  0.006100  0.046000  0.315000  1.0  -0.2341
  N  N379  1  0.945100  0.013300  0.354400  1.0  -0.3063
  N  N380  1  0.944200  0.150100  0.360810  1.0  0.0921
  N  N381  1  0.927000  0.231600  0.382600  1.0  -0.5528
  N  N382  1  0.524200  0.313900  0.491300  1.0  -0.3665
  N  N383  1  0.619900  0.622600  0.912500  1.0  -0.3517
  N  N384  1  0.993900  0.954000  0.815000  1.0  -0.2349
  N  N385  1  0.054900  0.986700  0.854400  1.0  -0.3069
  N  N386  1  0.055800  0.849900  0.860810  1.0  0.0924
  N  N387  1  0.073000  0.768400  0.882600  1.0  -0.552
  N  N388  1  0.475800  0.686100  0.991300  1.0  -0.3661
  Cl  Cl389  1  0.879060  0.879060  0.000000  1.0  1.8343
  Cl  Cl390  1  0.268810  0.268810  0.000000  1.0  1.2948
  Cl  Cl391  1  0.120940  0.120940  0.500000  1.0  1.834
  Cl  Cl392  1  0.731190  0.731190  0.500000  1.0  1.2965
  Cl  Cl393  1  0.620940  0.379060  0.750000  1.0  1.8341
  Cl  Cl394  1  0.231190  0.768810  0.750000  1.0  1.295
  Cl  Cl395  1  0.379060  0.620940  0.250000  1.0  1.8343
  Cl  Cl396  1  0.768810  0.231190  0.250000  1.0  1.2958
  O  O397  1  0.822700  0.886000  0.956300  1.0  -0.6831
  O  O398  1  0.944700  0.864400  0.967800  1.0  -0.657
  O  O399  1  0.886000  0.822700  0.043700  1.0  -0.6817
  O  O400  1  0.864400  0.944700  0.032200  1.0  -0.6562
  O  O401  1  0.233100  0.237200  0.950100  1.0  -0.5443
  O  O402  1  0.211800  0.332500  0.002000  1.0  -0.5118
  O  O403  1  0.237200  0.233100  0.049900  1.0  -0.5432
  O  O404  1  0.332500  0.211800  0.998000  1.0  -0.5116
  O  O405  1  0.177300  0.114000  0.456300  1.0  -0.6834
  O  O406  1  0.055300  0.135600  0.467800  1.0  -0.6562
  O  O407  1  0.114000  0.177300  0.543700  1.0  -0.6823
  O  O408  1  0.135600  0.055300  0.532200  1.0  -0.656
  O  O409  1  0.766900  0.762800  0.450100  1.0  -0.5436
  O  O410  1  0.788200  0.667500  0.502000  1.0  -0.512
  O  O411  1  0.762800  0.766900  0.549900  1.0  -0.5425
  O  O412  1  0.667500  0.788200  0.498000  1.0  -0.511
  O  O413  1  0.614000  0.322700  0.706300  1.0  -0.6837
  O  O414  1  0.635600  0.444700  0.717800  1.0  -0.6566
  O  O415  1  0.677300  0.386000  0.793700  1.0  -0.6819
  O  O416  1  0.555300  0.364400  0.782200  1.0  -0.6551
  O  O417  1  0.262800  0.733100  0.700100  1.0  -0.5444
  O  O418  1  0.167500  0.711800  0.752000  1.0  -0.5108
  O  O419  1  0.266900  0.737200  0.799900  1.0  -0.5422
  O  O420  1  0.288200  0.832500  0.748000  1.0  -0.5115
  O  O421  1  0.386000  0.677300  0.206300  1.0  -0.6839
  O  O422  1  0.364400  0.555300  0.217800  1.0  -0.6564
  O  O423  1  0.322700  0.614000  0.293700  1.0  -0.6808
  O  O424  1  0.444700  0.635600  0.282200  1.0  -0.6552
  O  O425  1  0.737200  0.266900  0.200100  1.0  -0.5447
  O  O426  1  0.832500  0.288200  0.252000  1.0  -0.5129
  O  O427  1  0.733100  0.262800  0.299900  1.0  -0.5435
  O  O428  1  0.711800  0.167500  0.248000  1.0  -0.5107
