# generated using pymatgen
data_CdH36C48N12(ClO4)2
_symmetry_space_group_name_H-M   'P 1'
_cell_length_a   15.83180000
_cell_length_b   15.83180000
_cell_length_c   21.95700000
_cell_angle_alpha   90.00000000
_cell_angle_beta   90.00000000
_cell_angle_gamma   90.00000000
_symmetry_Int_Tables_number   1
_chemical_formula_structural   CdH36C48N12(ClO4)2
_chemical_formula_sum   'Cd4 H144 C192 N48 Cl8 O32'
_cell_volume   5503.43183396
_cell_formula_units_Z   4
loop_
 _symmetry_equiv_pos_site_id
 _symmetry_equiv_pos_as_xyz
  1  'x, y, z'
loop_
 _atom_site_type_symbol
 _atom_site_label
 _atom_site_symmetry_multiplicity
 _atom_site_fract_x
 _atom_site_fract_y
 _atom_site_fract_z
 _atom_site_occupancy
 _atom_site_charge
  Cd  Cd1  1  0.942590  0.057410  0.750000  1.0  0.7912
  Cd  Cd2  1  0.057410  0.942590  0.250000  1.0  0.791
  Cd  Cd3  1  0.442590  0.442590  0.500000  1.0  0.7911
  Cd  Cd4  1  0.557410  0.557410  0.000000  1.0  0.791
  H  H5  1  0.465000  0.388500  0.649700  1.0  0.0791
  H  H6  1  0.417800  0.285500  0.712600  1.0  0.1251
  H  H7  1  0.216800  0.258800  0.604300  1.0  0.1311
  H  H8  1  0.273500  0.360300  0.542000  1.0  0.0685
  H  H9  1  0.347100  0.204200  0.779700  1.0  0.0812
  H  H10  1  0.295700  0.091900  0.833300  1.0  0.1101
  H  H11  1  0.198300  0.001600  0.792700  1.0  0.1023
  H  H12  1  0.205600  0.134900  0.636600  1.0  0.1136
  H  H13  1  0.958000  0.882200  0.539900  1.0  0.1067
  H  H14  1  0.938000  0.771100  0.472700  1.0  0.1074
  H  H15  1  0.040300  0.669600  0.460900  1.0  0.1135
  H  H16  1  0.173900  0.776400  0.594900  1.0  0.098
  H  H17  1  0.155700  0.605100  0.437100  1.0  0.1326
  H  H18  1  0.266500  0.511900  0.427600  1.0  0.0618
  H  H19  1  0.337300  0.556400  0.593600  1.0  0.0625
  H  H20  1  0.232500  0.650500  0.607700  1.0  0.1328
  H  H21  1  0.257500  0.976700  0.609000  1.0  0.3217
  H  H22  1  0.260600  0.900400  0.645700  1.0  0.3148
  H  H23  1  0.535000  0.611500  0.149700  1.0  0.0796
  H  H24  1  0.582200  0.714500  0.212600  1.0  0.1249
  H  H25  1  0.783200  0.741200  0.104300  1.0  0.1314
  H  H26  1  0.726500  0.639700  0.042000  1.0  0.0689
  H  H27  1  0.652900  0.795800  0.279700  1.0  0.0812
  H  H28  1  0.704300  0.908100  0.333333  1.0  0.1106
  H  H29  1  0.801700  0.998400  0.292700  1.0  0.1027
  H  H30  1  0.794400  0.865100  0.136600  1.0  0.1143
  H  H31  1  0.042000  0.117800  0.039900  1.0  0.1068
  H  H32  1  0.062000  0.228900  0.972700  1.0  0.1075
  H  H33  1  0.959700  0.330400  0.960900  1.0  0.1136
  H  H34  1  0.826100  0.223600  0.094900  1.0  0.0982
  H  H35  1  0.844300  0.394900  0.937100  1.0  0.1321
  H  H36  1  0.733500  0.488100  0.927600  1.0  0.0617
  H  H37  1  0.662700  0.443600  0.093600  1.0  0.0621
  H  H38  1  0.767500  0.349500  0.107700  1.0  0.1327
  H  H39  1  0.742500  0.023300  0.109000  1.0  0.3205
  H  H40  1  0.739400  0.099600  0.145700  1.0  0.3147
  H  H41  1  0.111500  0.965000  0.399700  1.0  0.0805
  H  H42  1  0.214500  0.917800  0.462600  1.0  0.1263
  H  H43  1  0.241200  0.716800  0.354300  1.0  0.1312
  H  H44  1  0.139700  0.773500  0.292000  1.0  0.0686
  H  H45  1  0.295800  0.847100  0.529700  1.0  0.0821
  H  H46  1  0.408100  0.795700  0.583300  1.0  0.1109
  H  H47  1  0.498400  0.698300  0.542700  1.0  0.1025
  H  H48  1  0.365100  0.705600  0.386600  1.0  0.1139
  H  H49  1  0.617800  0.458000  0.289900  1.0  0.107
  H  H50  1  0.728900  0.438000  0.222700  1.0  0.108
  H  H51  1  0.830400  0.540300  0.210900  1.0  0.1128
  H  H52  1  0.723600  0.673900  0.344900  1.0  0.0988
  H  H53  1  0.894900  0.655700  0.187100  1.0  0.1325
  H  H54  1  0.988100  0.766500  0.177600  1.0  0.0617
  H  H55  1  0.943600  0.837300  0.343600  1.0  0.0628
  H  H56  1  0.849500  0.732500  0.357700  1.0  0.1322
  H  H57  1  0.523300  0.757500  0.359000  1.0  0.3219
  H  H58  1  0.599600  0.760600  0.395700  1.0  0.3152
  H  H59  1  0.888500  0.035000  0.899700  1.0  0.0802
  H  H60  1  0.785500  0.082200  0.962600  1.0  0.1256
  H  H61  1  0.758800  0.283200  0.854300  1.0  0.1314
  H  H62  1  0.860300  0.226500  0.792000  1.0  0.0685
  H  H63  1  0.704200  0.152900  0.029700  1.0  0.082
  H  H64  1  0.591900  0.204300  0.083300  1.0  0.111
  H  H65  1  0.501600  0.301700  0.042700  1.0  0.1027
  H  H66  1  0.634900  0.294400  0.886600  1.0  0.1139
  H  H67  1  0.382200  0.542000  0.789900  1.0  0.1068
  H  H68  1  0.271100  0.562000  0.722700  1.0  0.1082
  H  H69  1  0.169600  0.459700  0.710900  1.0  0.1135
  H  H70  1  0.276400  0.326100  0.844900  1.0  0.0991
  H  H71  1  0.105100  0.344300  0.687100  1.0  0.1325
  H  H72  1  0.011900  0.233500  0.677600  1.0  0.0618
  H  H73  1  0.056400  0.162700  0.843600  1.0  0.0629
  H  H74  1  0.150500  0.267500  0.857700  1.0  0.1322
  H  H75  1  0.476700  0.242500  0.859000  1.0  0.3219
  H  H76  1  0.400400  0.239400  0.895700  1.0  0.3154
  H  H77  1  0.035000  0.888500  0.100300  1.0  0.0794
  H  H78  1  0.082200  0.785500  0.037400  1.0  0.1258
  H  H79  1  0.283200  0.758800  0.145700  1.0  0.1321
  H  H80  1  0.226500  0.860300  0.208000  1.0  0.0686
  H  H81  1  0.152900  0.704200  0.970300  1.0  0.081
  H  H82  1  0.204300  0.591900  0.916700  1.0  0.1104
  H  H83  1  0.301700  0.501600  0.957300  1.0  0.1022
  H  H84  1  0.294400  0.634900  0.113400  1.0  0.114
  H  H85  1  0.542000  0.382200  0.210100  1.0  0.1067
  H  H86  1  0.562000  0.271100  0.277300  1.0  0.1078
  H  H87  1  0.459700  0.169600  0.289100  1.0  0.1139
  H  H88  1  0.326100  0.276400  0.155100  1.0  0.098
  H  H89  1  0.344300  0.105100  0.312900  1.0  0.1319
  H  H90  1  0.233500  0.011900  0.322400  1.0  0.0614
  H  H91  1  0.162700  0.056400  0.156400  1.0  0.0616
  H  H92  1  0.267500  0.150500  0.142300  1.0  0.1338
  H  H93  1  0.242500  0.476700  0.141000  1.0  0.3217
  H  H94  1  0.239400  0.400400  0.104300  1.0  0.3147
  H  H95  1  0.965000  0.111500  0.600300  1.0  0.0793
  H  H96  1  0.917800  0.214500  0.537400  1.0  0.126
  H  H97  1  0.716800  0.241200  0.645700  1.0  0.1313
  H  H98  1  0.773500  0.139700  0.708000  1.0  0.0686
  H  H99  1  0.847100  0.295800  0.470300  1.0  0.0816
  H  H100  1  0.795700  0.408100  0.416700  1.0  0.1101
  H  H101  1  0.698300  0.498400  0.457300  1.0  0.1034
  H  H102  1  0.705600  0.365100  0.613400  1.0  0.1138
  H  H103  1  0.458000  0.617800  0.710100  1.0  0.1066
  H  H104  1  0.438000  0.728900  0.777300  1.0  0.1073
  H  H105  1  0.540300  0.830400  0.789100  1.0  0.1146
  H  H106  1  0.673900  0.723600  0.655100  1.0  0.0979
  H  H107  1  0.655700  0.894900  0.812900  1.0  0.1327
  H  H108  1  0.766500  0.988100  0.822400  1.0  0.0616
  H  H109  1  0.837300  0.943600  0.656400  1.0  0.0621
  H  H110  1  0.732500  0.849500  0.642300  1.0  0.1337
  H  H111  1  0.757500  0.523300  0.641000  1.0  0.3211
  H  H112  1  0.760600  0.599600  0.604300  1.0  0.3148
  H  H113  1  0.388500  0.465000  0.350300  1.0  0.0803
  H  H114  1  0.285500  0.417800  0.287400  1.0  0.1263
  H  H115  1  0.258800  0.216800  0.395700  1.0  0.1317
  H  H116  1  0.360300  0.273500  0.458000  1.0  0.0684
  H  H117  1  0.204200  0.347100  0.220300  1.0  0.0825
  H  H118  1  0.091900  0.295700  0.166700  1.0  0.1104
  H  H119  1  0.001600  0.198300  0.207300  1.0  0.1033
  H  H120  1  0.134900  0.205600  0.363400  1.0  0.1138
  H  H121  1  0.882200  0.958000  0.460100  1.0  0.1071
  H  H122  1  0.771100  0.938000  0.527300  1.0  0.1085
  H  H123  1  0.669600  0.040300  0.539100  1.0  0.1142
  H  H124  1  0.776400  0.173900  0.405100  1.0  0.0989
  H  H125  1  0.605100  0.155700  0.562900  1.0  0.1327
  H  H126  1  0.511900  0.266500  0.572400  1.0  0.0614
  H  H127  1  0.556400  0.337300  0.406400  1.0  0.0624
  H  H128  1  0.650500  0.232500  0.392300  1.0  0.1331
  H  H129  1  0.976700  0.257500  0.391000  1.0  0.3214
  H  H130  1  0.900400  0.260600  0.354300  1.0  0.3159
  H  H131  1  0.611500  0.535000  0.850300  1.0  0.08
  H  H132  1  0.714500  0.582200  0.787400  1.0  0.1266
  H  H133  1  0.741200  0.783200  0.895700  1.0  0.1314
  H  H134  1  0.639700  0.726500  0.958000  1.0  0.0685
  H  H135  1  0.795800  0.652900  0.720300  1.0  0.082
  H  H136  1  0.908100  0.704300  0.666667  1.0  0.1108
  H  H137  1  0.998400  0.801700  0.707300  1.0  0.1031
  H  H138  1  0.865100  0.794400  0.863400  1.0  0.114
  H  H139  1  0.117800  0.042000  0.960100  1.0  0.1071
  H  H140  1  0.228900  0.062000  0.027300  1.0  0.1077
  H  H141  1  0.330400  0.959700  0.039100  1.0  0.1131
  H  H142  1  0.223600  0.826100  0.905100  1.0  0.099
  H  H143  1  0.394900  0.844300  0.062900  1.0  0.1323
  H  H144  1  0.488100  0.733500  0.072400  1.0  0.062
  H  H145  1  0.443600  0.662700  0.906400  1.0  0.0627
  H  H146  1  0.349500  0.767500  0.892300  1.0  0.1334
  H  H147  1  0.023300  0.742500  0.891000  1.0  0.3219
  H  H148  1  0.099600  0.739400  0.854300  1.0  0.3157
  C  C149  1  0.416200  0.359300  0.639000  1.0  0.1679
  C  C150  1  0.387600  0.298200  0.677400  1.0  -0.1861
  C  C151  1  0.312900  0.254200  0.664500  1.0  0.1084
  C  C152  1  0.269400  0.281800  0.613500  1.0  -0.2027
  C  C153  1  0.303700  0.343500  0.576200  1.0  0.1516
  C  C154  1  0.281400  0.182600  0.702000  1.0  0.0114
  C  C155  1  0.308000  0.168200  0.761700  1.0  -0.0763
  C  C156  1  0.276700  0.100900  0.793700  1.0  -0.078
  C  C157  1  0.218700  0.046700  0.769800  1.0  -0.0582
  C  C158  1  0.190000  0.060300  0.709600  1.0  -0.0511
  C  C159  1  0.222900  0.127000  0.676700  1.0  -0.1203
  C  C160  1  0.127800  0.004000  0.680700  1.0  0.2556
  C  C161  1  0.076700  0.908800  0.617900  1.0  0.2628
  C  C162  1  0.069200  0.840000  0.574500  1.0  -0.012
  C  C163  1  0.997700  0.839100  0.537300  1.0  -0.0685
  C  C164  1  0.986600  0.773200  0.496400  1.0  -0.0653
  C  C165  1  0.046500  0.711200  0.490400  1.0  -0.1023
  C  C166  1  0.115600  0.710700  0.528300  1.0  0.0107
  C  C167  1  0.126500  0.776200  0.569800  1.0  -0.1016
  C  C168  1  0.182800  0.643000  0.522700  1.0  0.1095
  C  C169  1  0.193000  0.597600  0.469300  1.0  -0.2115
  C  C170  1  0.259800  0.540500  0.464300  1.0  0.1816
  C  C171  1  0.300900  0.567100  0.561200  1.0  0.1745
  C  C172  1  0.238400  0.624100  0.570100  1.0  -0.1889
  C  C173  1  0.583800  0.640700  0.139000  1.0  0.1681
  C  C174  1  0.612400  0.701800  0.177400  1.0  -0.1858
  C  C175  1  0.687100  0.745800  0.164500  1.0  0.1084
  C  C176  1  0.730600  0.718200  0.113500  1.0  -0.204
  C  C177  1  0.696300  0.656500  0.076200  1.0  0.152
  C  C178  1  0.718600  0.817400  0.202000  1.0  0.0112
  C  C179  1  0.692000  0.831800  0.261700  1.0  -0.0787
  C  C180  1  0.723300  0.899100  0.293700  1.0  -0.0774
  C  C181  1  0.781300  0.953300  0.269800  1.0  -0.0617
  C  C182  1  0.810000  0.939700  0.209600  1.0  -0.0508
  C  C183  1  0.777100  0.873000  0.176700  1.0  -0.1216
  C  C184  1  0.872200  0.996000  0.180700  1.0  0.255
  C  C185  1  0.923300  0.091200  0.117900  1.0  0.2622
  C  C186  1  0.930800  0.160000  0.074500  1.0  -0.0123
  C  C187  1  0.002300  0.160900  0.037300  1.0  -0.0698
  C  C188  1  0.013400  0.226800  0.996400  1.0  -0.0645
  C  C189  1  0.953500  0.288800  0.990400  1.0  -0.1022
  C  C190  1  0.884400  0.289300  0.028300  1.0  0.0089
  C  C191  1  0.873500  0.223800  0.069800  1.0  -0.1021
  C  C192  1  0.817200  0.357000  0.022700  1.0  0.1088
  C  C193  1  0.807000  0.402400  0.969300  1.0  -0.2125
  C  C194  1  0.740200  0.459500  0.964300  1.0  0.1826
  C  C195  1  0.699100  0.432900  0.061200  1.0  0.1742
  C  C196  1  0.761600  0.375900  0.070100  1.0  -0.1892
  C  C197  1  0.140700  0.916200  0.389000  1.0  0.1673
  C  C198  1  0.201800  0.887600  0.427400  1.0  -0.189
  C  C199  1  0.245800  0.812900  0.414500  1.0  0.1078
  C  C200  1  0.218200  0.769400  0.363500  1.0  -0.2011
  C  C201  1  0.156500  0.803700  0.326200  1.0  0.1497
  C  C202  1  0.317400  0.781400  0.452000  1.0  0.0112
  C  C203  1  0.331800  0.808000  0.511700  1.0  -0.0772
  C  C204  1  0.399100  0.776700  0.543700  1.0  -0.0768
  C  C205  1  0.453300  0.718700  0.519800  1.0  -0.0657
  C  C206  1  0.439700  0.690000  0.459600  1.0  -0.0501
  C  C207  1  0.373000  0.722900  0.426700  1.0  -0.1221
  C  C208  1  0.496000  0.627800  0.430700  1.0  0.258
  C  C209  1  0.591200  0.576700  0.367900  1.0  0.2631
  C  C210  1  0.660000  0.569200  0.324500  1.0  -0.0133
  C  C211  1  0.660900  0.497700  0.287300  1.0  -0.0697
  C  C212  1  0.726800  0.486600  0.246400  1.0  -0.0607
  C  C213  1  0.788800  0.546500  0.240400  1.0  -0.1031
  C  C214  1  0.789300  0.615600  0.278300  1.0  0.0096
  C  C215  1  0.723800  0.626500  0.319800  1.0  -0.1009
  C  C216  1  0.857000  0.682800  0.272700  1.0  0.1092
  C  C217  1  0.902400  0.693000  0.219300  1.0  -0.2127
  C  C218  1  0.959500  0.759800  0.214300  1.0  0.1806
  C  C219  1  0.932900  0.800900  0.311200  1.0  0.1741
  C  C220  1  0.875900  0.738400  0.320100  1.0  -0.1893
  C  C221  1  0.859300  0.083800  0.889000  1.0  0.1675
  C  C222  1  0.798200  0.112400  0.927400  1.0  -0.1885
  C  C223  1  0.754200  0.187100  0.914500  1.0  0.1081
  C  C224  1  0.781800  0.230600  0.863500  1.0  -0.202
  C  C225  1  0.843500  0.196300  0.826200  1.0  0.1513
  C  C226  1  0.682600  0.218600  0.952000  1.0  0.0113
  C  C227  1  0.668200  0.192000  0.011700  1.0  -0.0761
  C  C228  1  0.600900  0.223300  0.043700  1.0  -0.0777
  C  C229  1  0.546700  0.281300  0.019800  1.0  -0.0643
  C  C230  1  0.560300  0.310000  0.959600  1.0  -0.0507
  C  C231  1  0.627000  0.277100  0.926700  1.0  -0.1224
  C  C232  1  0.504000  0.372200  0.930700  1.0  0.2581
  C  C233  1  0.408800  0.423300  0.867900  1.0  0.2629
  C  C234  1  0.340000  0.430800  0.824500  1.0  -0.0132
  C  C235  1  0.339100  0.502300  0.787300  1.0  -0.0711
  C  C236  1  0.273200  0.513400  0.746400  1.0  -0.0613
  C  C237  1  0.211200  0.453500  0.740400  1.0  -0.1021
  C  C238  1  0.210700  0.384400  0.778300  1.0  0.0103
  C  C239  1  0.276200  0.373500  0.819800  1.0  -0.1008
  C  C240  1  0.143000  0.317200  0.772700  1.0  0.11
  C  C241  1  0.097600  0.307000  0.719300  1.0  -0.2129
  C  C242  1  0.040500  0.240200  0.714300  1.0  0.1814
  C  C243  1  0.067100  0.199100  0.811200  1.0  0.1734
  C  C244  1  0.124100  0.261600  0.820100  1.0  -0.1895
  C  C245  1  0.083800  0.859300  0.111000  1.0  0.168
  C  C246  1  0.112400  0.798200  0.072600  1.0  -0.1861
  C  C247  1  0.187100  0.754200  0.085500  1.0  0.1081
  C  C248  1  0.230600  0.781800  0.136500  1.0  -0.204
  C  C249  1  0.196300  0.843500  0.173800  1.0  0.1524
  C  C250  1  0.218600  0.682600  0.048000  1.0  0.0114
  C  C251  1  0.192000  0.668200  0.988300  1.0  -0.077
  C  C252  1  0.223300  0.600900  0.956300  1.0  -0.0788
  C  C253  1  0.281300  0.546700  0.980200  1.0  -0.0618
  C  C254  1  0.310000  0.560300  0.040400  1.0  -0.0515
  C  C255  1  0.277100  0.627000  0.073300  1.0  -0.1207
  C  C256  1  0.372200  0.504000  0.069300  1.0  0.2551
  C  C257  1  0.423300  0.408800  0.132100  1.0  0.2617
  C  C258  1  0.430800  0.340000  0.175500  1.0  -0.0118
  C  C259  1  0.502300  0.339100  0.212700  1.0  -0.0694
  C  C260  1  0.513400  0.273200  0.253600  1.0  -0.0646
  C  C261  1  0.453500  0.211200  0.259600  1.0  -0.1033
  C  C262  1  0.384400  0.210700  0.221700  1.0  0.01
  C  C263  1  0.373500  0.276200  0.180200  1.0  -0.102
  C  C264  1  0.317200  0.143000  0.227300  1.0  0.109
  C  C265  1  0.307000  0.097600  0.280700  1.0  -0.2135
  C  C266  1  0.240200  0.040500  0.285700  1.0  0.1824
  C  C267  1  0.199100  0.067100  0.188800  1.0  0.1742
  C  C268  1  0.261600  0.124100  0.179900  1.0  -0.1895
  C  C269  1  0.916200  0.140700  0.611000  1.0  0.1675
  C  C270  1  0.887600  0.201800  0.572600  1.0  -0.1863
  C  C271  1  0.812900  0.245800  0.585500  1.0  0.1072
  C  C272  1  0.769400  0.218200  0.636500  1.0  -0.2028
  C  C273  1  0.803700  0.156500  0.673800  1.0  0.152
  C  C274  1  0.781400  0.317400  0.548000  1.0  0.0106
  C  C275  1  0.808000  0.331800  0.488300  1.0  -0.0765
  C  C276  1  0.776700  0.399100  0.456300  1.0  -0.0778
  C  C277  1  0.718700  0.453300  0.480200  1.0  -0.0587
  C  C278  1  0.690000  0.439700  0.540400  1.0  -0.0502
  C  C279  1  0.722900  0.373000  0.573300  1.0  -0.119
  C  C280  1  0.627800  0.496000  0.569300  1.0  0.2558
  C  C281  1  0.576700  0.591200  0.632100  1.0  0.2622
  C  C282  1  0.569200  0.660000  0.675500  1.0  -0.012
  C  C283  1  0.497700  0.660900  0.712700  1.0  -0.0686
  C  C284  1  0.486600  0.726800  0.753600  1.0  -0.066
  C  C285  1  0.546500  0.788800  0.759600  1.0  -0.1019
  C  C286  1  0.615600  0.789300  0.721700  1.0  0.0102
  C  C287  1  0.626500  0.723800  0.680200  1.0  -0.1017
  C  C288  1  0.682800  0.857000  0.727300  1.0  0.1095
  C  C289  1  0.693000  0.902400  0.780700  1.0  -0.2117
  C  C290  1  0.759800  0.959500  0.785700  1.0  0.1813
  C  C291  1  0.800900  0.932900  0.688800  1.0  0.174
  C  C292  1  0.738400  0.875900  0.679900  1.0  -0.1896
  C  C293  1  0.359300  0.416200  0.361000  1.0  0.1674
  C  C294  1  0.298200  0.387600  0.322600  1.0  -0.1893
  C  C295  1  0.254200  0.312900  0.335500  1.0  0.1071
  C  C296  1  0.281800  0.269400  0.386500  1.0  -0.202
  C  C297  1  0.343500  0.303700  0.423800  1.0  0.1511
  C  C298  1  0.182600  0.281400  0.298000  1.0  0.0106
  C  C299  1  0.168200  0.308000  0.238300  1.0  -0.0781
  C  C300  1  0.100900  0.276700  0.206300  1.0  -0.0777
  C  C301  1  0.046700  0.218700  0.230200  1.0  -0.0676
  C  C302  1  0.060300  0.190000  0.290400  1.0  -0.0508
  C  C303  1  0.127000  0.222900  0.323300  1.0  -0.1209
  C  C304  1  0.004000  0.127800  0.319300  1.0  0.2578
  C  C305  1  0.908800  0.076700  0.382100  1.0  0.2627
  C  C306  1  0.840000  0.069200  0.425500  1.0  -0.0134
  C  C307  1  0.839100  0.997700  0.462700  1.0  -0.0715
  C  C308  1  0.773200  0.986600  0.503600  1.0  -0.0616
  C  C309  1  0.711200  0.046500  0.509600  1.0  -0.1024
  C  C310  1  0.710700  0.115600  0.471700  1.0  0.0098
  C  C311  1  0.776200  0.126500  0.430200  1.0  -0.1012
  C  C312  1  0.643000  0.182800  0.477300  1.0  0.11
  C  C313  1  0.597600  0.193000  0.530700  1.0  -0.2125
  C  C314  1  0.540500  0.259800  0.535700  1.0  0.1802
  C  C315  1  0.567100  0.300900  0.438800  1.0  0.1729
  C  C316  1  0.624100  0.238400  0.429900  1.0  -0.1901
  C  C317  1  0.640700  0.583800  0.861000  1.0  0.1673
  C  C318  1  0.701800  0.612400  0.822600  1.0  -0.1887
  C  C319  1  0.745800  0.687100  0.835500  1.0  0.107
  C  C320  1  0.718200  0.730600  0.886500  1.0  -0.2016
  C  C321  1  0.656500  0.696300  0.923800  1.0  0.1504
  C  C322  1  0.817400  0.718600  0.798000  1.0  0.0105
  C  C323  1  0.831800  0.692000  0.738300  1.0  -0.0764
  C  C324  1  0.899100  0.723300  0.706300  1.0  -0.0804
  C  C325  1  0.953300  0.781300  0.730200  1.0  -0.067
  C  C326  1  0.939700  0.810000  0.790400  1.0  -0.05
  C  C327  1  0.873000  0.777100  0.823300  1.0  -0.1208
  C  C328  1  0.996000  0.872200  0.819300  1.0  0.2583
  C  C329  1  0.091200  0.923300  0.882100  1.0  0.2621
  C  C330  1  0.160000  0.930800  0.925500  1.0  -0.0126
  C  C331  1  0.160900  0.002300  0.962700  1.0  -0.0694
  C  C332  1  0.226800  0.013400  0.003600  1.0  -0.0616
  C  C333  1  0.288800  0.953500  0.009600  1.0  -0.1028
  C  C334  1  0.289300  0.884400  0.971700  1.0  0.0089
  C  C335  1  0.223800  0.873500  0.930200  1.0  -0.1006
  C  C336  1  0.357000  0.817200  0.977300  1.0  0.109
  C  C337  1  0.402400  0.807000  0.030700  1.0  -0.2133
  C  C338  1  0.459500  0.740200  0.035700  1.0  0.1815
  C  C339  1  0.432900  0.699100  0.938800  1.0  0.1736
  C  C340  1  0.375900  0.761600  0.929900  1.0  -0.1899
  N  N341  1  0.378100  0.379600  0.587100  1.0  -0.3485
  N  N342  1  0.046700  0.005600  0.685400  1.0  -0.234
  N  N343  1  0.013700  0.944800  0.645700  1.0  -0.3112
  N  N344  1  0.150400  0.944700  0.638900  1.0  0.0895
  N  N345  1  0.231700  0.928100  0.617300  1.0  -0.5588
  N  N346  1  0.314300  0.524600  0.508900  1.0  -0.3671
  N  N347  1  0.621900  0.620400  0.087100  1.0  -0.3495
  N  N348  1  0.953300  0.994400  0.185400  1.0  -0.2343
  N  N349  1  0.986300  0.055200  0.145700  1.0  -0.3115
  N  N350  1  0.849600  0.055300  0.138900  1.0  0.0898
  N  N351  1  0.768300  0.071900  0.117300  1.0  -0.5584
  N  N352  1  0.685700  0.475400  0.008900  1.0  -0.3668
  N  N353  1  0.120400  0.878100  0.337100  1.0  -0.3485
  N  N354  1  0.494400  0.546700  0.435400  1.0  -0.2333
  N  N355  1  0.555200  0.513700  0.395700  1.0  -0.3106
  N  N356  1  0.555300  0.650400  0.388900  1.0  0.0896
  N  N357  1  0.571900  0.731700  0.367300  1.0  -0.5586
  N  N358  1  0.975400  0.814300  0.258900  1.0  -0.3661
  N  N359  1  0.879600  0.121900  0.837100  1.0  -0.3497
  N  N360  1  0.505600  0.453300  0.935400  1.0  -0.2333
  N  N361  1  0.444800  0.486300  0.895700  1.0  -0.3107
  N  N362  1  0.444700  0.349600  0.888900  1.0  0.0898
  N  N363  1  0.428100  0.268300  0.867300  1.0  -0.5583
  N  N364  1  0.024600  0.185700  0.758900  1.0  -0.3667
  N  N365  1  0.121900  0.879600  0.162900  1.0  -0.3489
  N  N366  1  0.453300  0.505600  0.064600  1.0  -0.2341
  N  N367  1  0.486300  0.444800  0.104300  1.0  -0.3114
  N  N368  1  0.349600  0.444700  0.111100  1.0  0.09
  N  N369  1  0.268300  0.428100  0.132700  1.0  -0.5588
  N  N370  1  0.185700  0.024600  0.241100  1.0  -0.3667
  N  N371  1  0.878100  0.120400  0.662900  1.0  -0.3479
  N  N372  1  0.546700  0.494400  0.564600  1.0  -0.2339
  N  N373  1  0.513700  0.555200  0.604300  1.0  -0.3107
  N  N374  1  0.650400  0.555300  0.611100  1.0  0.0895
  N  N375  1  0.731700  0.571900  0.632700  1.0  -0.5581
  N  N376  1  0.814300  0.975400  0.741100  1.0  -0.3675
  N  N377  1  0.379600  0.378100  0.412900  1.0  -0.3486
  N  N378  1  0.005600  0.046700  0.314600  1.0  -0.2327
  N  N379  1  0.944800  0.013700  0.354300  1.0  -0.31
  N  N380  1  0.944700  0.150400  0.361100  1.0  0.0897
  N  N381  1  0.928100  0.231700  0.382700  1.0  -0.5584
  N  N382  1  0.524600  0.314300  0.491100  1.0  -0.3666
  N  N383  1  0.620400  0.621900  0.912900  1.0  -0.3488
  N  N384  1  0.994400  0.953300  0.814600  1.0  -0.2334
  N  N385  1  0.055200  0.986300  0.854300  1.0  -0.3108
  N  N386  1  0.055300  0.849600  0.861100  1.0  0.0899
  N  N387  1  0.071900  0.768300  0.882700  1.0  -0.5587
  N  N388  1  0.475400  0.685700  0.991100  1.0  -0.3662
  Cl  Cl389  1  0.879480  0.879480  0.000000  1.0  1.8094
  Cl  Cl390  1  0.269300  0.269300  0.000000  1.0  1.2331
  Cl  Cl391  1  0.120520  0.120520  0.500000  1.0  1.8086
  Cl  Cl392  1  0.730700  0.730700  0.500000  1.0  1.2358
  Cl  Cl393  1  0.620520  0.379480  0.750000  1.0  1.8092
  Cl  Cl394  1  0.230700  0.769300  0.750000  1.0  1.2342
  Cl  Cl395  1  0.379480  0.620520  0.250000  1.0  1.8087
  Cl  Cl396  1  0.769300  0.230700  0.250000  1.0  1.234
  O  O397  1  0.823800  0.886000  0.954800  1.0  -0.6747
  O  O398  1  0.945400  0.865500  0.968000  1.0  -0.6486
  O  O399  1  0.886000  0.823800  0.045200  1.0  -0.6769
  O  O400  1  0.865500  0.945400  0.032000  1.0  -0.649
  O  O401  1  0.229400  0.246400  0.951300  1.0  -0.4976
  O  O402  1  0.213800  0.330000  0.016000  1.0  -0.5352
  O  O403  1  0.246400  0.229400  0.048700  1.0  -0.4951
  O  O404  1  0.330000  0.213800  0.984000  1.0  -0.5348
  O  O405  1  0.176200  0.114000  0.454800  1.0  -0.6762
  O  O406  1  0.054600  0.134500  0.468000  1.0  -0.6468
  O  O407  1  0.114000  0.176200  0.545200  1.0  -0.6766
  O  O408  1  0.134500  0.054600  0.532000  1.0  -0.6491
  O  O409  1  0.770600  0.753600  0.451300  1.0  -0.4978
  O  O410  1  0.786200  0.670000  0.516000  1.0  -0.5357
  O  O411  1  0.753600  0.770600  0.548700  1.0  -0.4957
  O  O412  1  0.670000  0.786200  0.484000  1.0  -0.5345
  O  O413  1  0.614000  0.323800  0.704800  1.0  -0.6766
  O  O414  1  0.634500  0.445400  0.718000  1.0  -0.649
  O  O415  1  0.676200  0.386000  0.795200  1.0  -0.6763
  O  O416  1  0.554600  0.365500  0.782000  1.0  -0.6477
  O  O417  1  0.253600  0.729400  0.701300  1.0  -0.4972
  O  O418  1  0.170000  0.713800  0.766000  1.0  -0.5341
  O  O419  1  0.270600  0.746400  0.798700  1.0  -0.4946
  O  O420  1  0.286200  0.830000  0.734000  1.0  -0.5347
  O  O421  1  0.386000  0.676200  0.204800  1.0  -0.6766
  O  O422  1  0.365500  0.554600  0.218000  1.0  -0.6492
  O  O423  1  0.323800  0.614000  0.295200  1.0  -0.6746
  O  O424  1  0.445400  0.634500  0.282000  1.0  -0.6482
  O  O425  1  0.746400  0.270600  0.201300  1.0  -0.4972
  O  O426  1  0.830000  0.286200  0.266000  1.0  -0.5351
  O  O427  1  0.729400  0.253600  0.298700  1.0  -0.4954
  O  O428  1  0.713800  0.170000  0.234000  1.0  -0.535
