# generated using pymatgen
data_CdH36C48N12(ClO4)2
_symmetry_space_group_name_H-M   'P 1'
_cell_length_a   15.89260000
_cell_length_b   15.89260000
_cell_length_c   21.97200000
_cell_angle_alpha   90.00000000
_cell_angle_beta   90.00000000
_cell_angle_gamma   90.00000000
_symmetry_Int_Tables_number   1
_chemical_formula_structural   CdH36C48N12(ClO4)2
_chemical_formula_sum   'Cd4 H144 C192 N48 Cl8 O32'
_cell_volume   5549.57207215
_cell_formula_units_Z   4
loop_
 _symmetry_equiv_pos_site_id
 _symmetry_equiv_pos_as_xyz
  1  'x, y, z'
loop_
 _atom_site_type_symbol
 _atom_site_label
 _atom_site_symmetry_multiplicity
 _atom_site_fract_x
 _atom_site_fract_y
 _atom_site_fract_z
 _atom_site_occupancy
 _atom_site_charge
  Cd  Cd1  1  0.943700  0.056300  0.250000  1.0  0.7996
  Cd  Cd2  1  0.056300  0.943700  0.750000  1.0  0.7991
  Cd  Cd3  1  0.443700  0.443700  0.500000  1.0  0.7995
  Cd  Cd4  1  0.556300  0.556300  0.000000  1.0  0.7991
  H  H5  1  0.464400  0.390500  0.351000  1.0  0.0767
  H  H6  1  0.418100  0.284900  0.287300  1.0  0.1291
  H  H7  1  0.217800  0.257200  0.397000  1.0  0.1196
  H  H8  1  0.275200  0.356100  0.461100  1.0  0.0765
  H  H9  1  0.348900  0.204500  0.221900  1.0  0.0779
  H  H10  1  0.295900  0.093500  0.165800  1.0  0.1165
  H  H11  1  0.198800  0.000200  0.208400  1.0  0.0941
  H  H12  1  0.205500  0.133200  0.365200  1.0  0.1062
  H  H13  1  0.956300  0.880500  0.457900  1.0  0.11
  H  H14  1  0.939700  0.770400  0.528300  1.0  0.1115
  H  H15  1  0.038000  0.666200  0.537000  1.0  0.1103
  H  H16  1  0.176500  0.776600  0.403800  1.0  0.1015
  H  H17  1  0.233000  0.651300  0.391100  1.0  0.1334
  H  H18  1  0.339000  0.554800  0.404300  1.0  0.0636
  H  H19  1  0.266100  0.512300  0.571800  1.0  0.0678
  H  H20  1  0.157300  0.607800  0.561800  1.0  0.1258
  H  H21  1  0.260600  0.974700  0.389100  1.0  0.3262
  H  H22  1  0.259400  0.893300  0.356000  1.0  0.3115
  H  H23  1  0.535600  0.609500  0.851000  1.0  0.0763
  H  H24  1  0.581900  0.715100  0.787300  1.0  0.1295
  H  H25  1  0.782200  0.742800  0.897000  1.0  0.12
  H  H26  1  0.724800  0.643900  0.961100  1.0  0.0765
  H  H27  1  0.651100  0.795500  0.721900  1.0  0.0779
  H  H28  1  0.704100  0.906500  0.665800  1.0  0.1168
  H  H29  1  0.801200  0.999800  0.708400  1.0  0.0947
  H  H30  1  0.794500  0.866800  0.865200  1.0  0.1064
  H  H31  1  0.043700  0.119500  0.957900  1.0  0.1099
  H  H32  1  0.060300  0.229600  0.028300  1.0  0.1114
  H  H33  1  0.962000  0.333800  0.037000  1.0  0.1102
  H  H34  1  0.823500  0.223400  0.903800  1.0  0.1018
  H  H35  1  0.767000  0.348700  0.891100  1.0  0.1335
  H  H36  1  0.661000  0.445200  0.904300  1.0  0.0636
  H  H37  1  0.733900  0.487700  0.071800  1.0  0.0672
  H  H38  1  0.842700  0.392200  0.061800  1.0  0.1251
  H  H39  1  0.739400  0.025300  0.889100  1.0  0.3269
  H  H40  1  0.740600  0.106700  0.856000  1.0  0.3116
  H  H41  1  0.109500  0.964400  0.601000  1.0  0.0773
  H  H42  1  0.215100  0.918100  0.537300  1.0  0.1294
  H  H43  1  0.242800  0.717800  0.647000  1.0  0.1202
  H  H44  1  0.143900  0.775200  0.711100  1.0  0.0763
  H  H45  1  0.295500  0.848900  0.471900  1.0  0.0792
  H  H46  1  0.406500  0.795900  0.415800  1.0  0.1172
  H  H47  1  0.499800  0.698800  0.458400  1.0  0.0939
  H  H48  1  0.366800  0.705500  0.615200  1.0  0.106
  H  H49  1  0.619500  0.456300  0.707900  1.0  0.1095
  H  H50  1  0.729600  0.439700  0.778300  1.0  0.1121
  H  H51  1  0.833800  0.538000  0.787000  1.0  0.1099
  H  H52  1  0.723400  0.676500  0.653800  1.0  0.1019
  H  H53  1  0.848700  0.733000  0.641100  1.0  0.1327
  H  H54  1  0.945200  0.839000  0.654300  1.0  0.0643
  H  H55  1  0.987700  0.766100  0.821800  1.0  0.0678
  H  H56  1  0.892200  0.657300  0.811800  1.0  0.1258
  H  H57  1  0.525300  0.760600  0.639100  1.0  0.3271
  H  H58  1  0.606700  0.759400  0.606000  1.0  0.3125
  H  H59  1  0.890500  0.035600  0.101000  1.0  0.0766
  H  H60  1  0.784900  0.081900  0.037300  1.0  0.1294
  H  H61  1  0.757200  0.282200  0.147000  1.0  0.12
  H  H62  1  0.856100  0.224800  0.211100  1.0  0.0758
  H  H63  1  0.704500  0.151100  0.971900  1.0  0.078
  H  H64  1  0.593500  0.204100  0.915800  1.0  0.1167
  H  H65  1  0.500200  0.301200  0.958400  1.0  0.0945
  H  H66  1  0.633200  0.294500  0.115200  1.0  0.1065
  H  H67  1  0.380500  0.543700  0.207900  1.0  0.1097
  H  H68  1  0.270400  0.560300  0.278300  1.0  0.1118
  H  H69  1  0.166200  0.462000  0.287000  1.0  0.11
  H  H70  1  0.276600  0.323500  0.153800  1.0  0.1025
  H  H71  1  0.151300  0.267000  0.141100  1.0  0.1326
  H  H72  1  0.054800  0.161000  0.154300  1.0  0.0647
  H  H73  1  0.012300  0.233900  0.321800  1.0  0.0678
  H  H74  1  0.107800  0.342700  0.311800  1.0  0.1257
  H  H75  1  0.474700  0.239400  0.139100  1.0  0.3276
  H  H76  1  0.393300  0.240600  0.106000  1.0  0.3119
  H  H77  1  0.035600  0.890500  0.899000  1.0  0.0769
  H  H78  1  0.081900  0.784900  0.962700  1.0  0.1294
  H  H79  1  0.282200  0.757200  0.853000  1.0  0.1193
  H  H80  1  0.224800  0.856100  0.788900  1.0  0.0767
  H  H81  1  0.151100  0.704500  0.028100  1.0  0.0778
  H  H82  1  0.204100  0.593500  0.084200  1.0  0.1172
  H  H83  1  0.301200  0.500200  0.041600  1.0  0.094
  H  H84  1  0.294500  0.633200  0.884800  1.0  0.1062
  H  H85  1  0.543700  0.380500  0.792100  1.0  0.1099
  H  H86  1  0.560300  0.270400  0.721700  1.0  0.1115
  H  H87  1  0.462000  0.166200  0.713000  1.0  0.1099
  H  H88  1  0.323500  0.276600  0.846200  1.0  0.1016
  H  H89  1  0.267000  0.151300  0.858900  1.0  0.1336
  H  H90  1  0.161000  0.054800  0.845700  1.0  0.0637
  H  H91  1  0.233900  0.012300  0.678200  1.0  0.0668
  H  H92  1  0.342700  0.107800  0.688200  1.0  0.1255
  H  H93  1  0.239400  0.474700  0.860900  1.0  0.3275
  H  H94  1  0.240600  0.393300  0.894000  1.0  0.312
  H  H95  1  0.964400  0.109500  0.399000  1.0  0.0771
  H  H96  1  0.918100  0.215100  0.462700  1.0  0.1291
  H  H97  1  0.717800  0.242800  0.353000  1.0  0.1187
  H  H98  1  0.775200  0.143900  0.288900  1.0  0.0764
  H  H99  1  0.848900  0.295500  0.528100  1.0  0.0778
  H  H100  1  0.795900  0.406500  0.584200  1.0  0.1163
  H  H101  1  0.698800  0.499800  0.541600  1.0  0.0936
  H  H102  1  0.705500  0.366800  0.384800  1.0  0.1061
  H  H103  1  0.456300  0.619500  0.292100  1.0  0.1097
  H  H104  1  0.439700  0.729600  0.221700  1.0  0.1114
  H  H105  1  0.538000  0.833800  0.213000  1.0  0.1106
  H  H106  1  0.676500  0.723400  0.346200  1.0  0.1015
  H  H107  1  0.733000  0.848700  0.358900  1.0  0.1334
  H  H108  1  0.839000  0.945200  0.345700  1.0  0.0638
  H  H109  1  0.766100  0.987700  0.178200  1.0  0.0668
  H  H110  1  0.657300  0.892200  0.188200  1.0  0.1259
  H  H111  1  0.760600  0.525300  0.360900  1.0  0.3273
  H  H112  1  0.759400  0.606700  0.394000  1.0  0.311
  H  H113  1  0.390500  0.464400  0.649000  1.0  0.077
  H  H114  1  0.284900  0.418100  0.712700  1.0  0.1295
  H  H115  1  0.257200  0.217800  0.603000  1.0  0.1192
  H  H116  1  0.356100  0.275200  0.538900  1.0  0.0761
  H  H117  1  0.204500  0.348900  0.778100  1.0  0.0788
  H  H118  1  0.093500  0.295900  0.834200  1.0  0.117
  H  H119  1  0.000200  0.198800  0.791600  1.0  0.0937
  H  H120  1  0.133200  0.205500  0.634800  1.0  0.1064
  H  H121  1  0.880500  0.956300  0.542100  1.0  0.1098
  H  H122  1  0.770400  0.939700  0.471700  1.0  0.1118
  H  H123  1  0.666200  0.038000  0.463000  1.0  0.1095
  H  H124  1  0.776600  0.176500  0.596200  1.0  0.102
  H  H125  1  0.651300  0.233000  0.608900  1.0  0.133
  H  H126  1  0.554800  0.339000  0.595700  1.0  0.0638
  H  H127  1  0.512300  0.266100  0.428200  1.0  0.0668
  H  H128  1  0.607800  0.157300  0.438200  1.0  0.1259
  H  H129  1  0.974700  0.260600  0.610900  1.0  0.3277
  H  H130  1  0.893300  0.259400  0.644000  1.0  0.3122
  H  H131  1  0.609500  0.535600  0.149000  1.0  0.0771
  H  H132  1  0.715100  0.581900  0.212700  1.0  0.1289
  H  H133  1  0.742800  0.782200  0.103000  1.0  0.1195
  H  H134  1  0.643900  0.724800  0.038900  1.0  0.0759
  H  H135  1  0.795500  0.651100  0.278100  1.0  0.078
  H  H136  1  0.906500  0.704100  0.334200  1.0  0.1165
  H  H137  1  0.999800  0.801200  0.291600  1.0  0.0937
  H  H138  1  0.866800  0.794500  0.134800  1.0  0.106
  H  H139  1  0.119500  0.043700  0.042100  1.0  0.1097
  H  H140  1  0.229600  0.060300  0.971700  1.0  0.1122
  H  H141  1  0.333800  0.962000  0.963000  1.0  0.1099
  H  H142  1  0.223400  0.823500  0.096200  1.0  0.1022
  H  H143  1  0.348700  0.767000  0.108900  1.0  0.1327
  H  H144  1  0.445200  0.661000  0.095700  1.0  0.0643
  H  H145  1  0.487700  0.733900  0.928200  1.0  0.0673
  H  H146  1  0.392200  0.842700  0.938200  1.0  0.1262
  H  H147  1  0.025300  0.739400  0.110900  1.0  0.327
  H  H148  1  0.106700  0.740600  0.144000  1.0  0.3127
  C  C149  1  0.415400  0.360100  0.362200  1.0  0.1725
  C  C150  1  0.387300  0.297400  0.323200  1.0  -0.1954
  C  C151  1  0.313500  0.252500  0.336500  1.0  0.101
  C  C152  1  0.271300  0.280400  0.387600  1.0  -0.1945
  C  C153  1  0.305000  0.341000  0.425200  1.0  0.1342
  C  C154  1  0.283200  0.181300  0.299300  1.0  0.0108
  C  C155  1  0.308900  0.167600  0.239900  1.0  -0.0716
  C  C156  1  0.277500  0.101500  0.206500  1.0  -0.0756
  C  C157  1  0.219400  0.046500  0.231400  1.0  -0.0636
  C  C158  1  0.191500  0.060200  0.291400  1.0  -0.0442
  C  C159  1  0.223600  0.125300  0.324400  1.0  -0.1179
  C  C160  1  0.128400  0.004100  0.320500  1.0  0.245
  C  C161  1  0.077400  0.908700  0.381200  1.0  0.2604
  C  C162  1  0.068600  0.840200  0.425300  1.0  -0.0242
  C  C163  1  0.997900  0.837900  0.461200  1.0  -0.0762
  C  C164  1  0.988200  0.771700  0.503000  1.0  -0.0684
  C  C165  1  0.045900  0.710000  0.508100  1.0  -0.111
  C  C166  1  0.118600  0.710000  0.470400  1.0  0.0136
  C  C167  1  0.128500  0.775400  0.429500  1.0  -0.1086
  C  C168  1  0.183500  0.642900  0.476700  1.0  0.1141
  C  C169  1  0.239100  0.624100  0.429300  1.0  -0.194
  C  C170  1  0.302500  0.566500  0.437500  1.0  0.1644
  C  C171  1  0.260200  0.541800  0.534400  1.0  0.1708
  C  C172  1  0.194700  0.599200  0.528700  1.0  -0.2038
  C  C173  1  0.584600  0.639900  0.862200  1.0  0.1729
  C  C174  1  0.612700  0.702600  0.823200  1.0  -0.1949
  C  C175  1  0.686500  0.747500  0.836500  1.0  0.1003
  C  C176  1  0.728700  0.719600  0.887600  1.0  -0.1945
  C  C177  1  0.695000  0.659000  0.925200  1.0  0.135
  C  C178  1  0.716800  0.818700  0.799300  1.0  0.012
  C  C179  1  0.691100  0.832400  0.739900  1.0  -0.0713
  C  C180  1  0.722500  0.898500  0.706500  1.0  -0.0755
  C  C181  1  0.780600  0.953500  0.731400  1.0  -0.0643
  C  C182  1  0.808500  0.939800  0.791400  1.0  -0.0442
  C  C183  1  0.776400  0.874700  0.824400  1.0  -0.1186
  C  C184  1  0.871600  0.995900  0.820500  1.0  0.2455
  C  C185  1  0.922600  0.091300  0.881200  1.0  0.2602
  C  C186  1  0.931400  0.159800  0.925300  1.0  -0.0237
  C  C187  1  0.002100  0.162100  0.961200  1.0  -0.0775
  C  C188  1  0.011800  0.228300  0.003000  1.0  -0.0678
  C  C189  1  0.954100  0.290000  0.008100  1.0  -0.1109
  C  C190  1  0.881400  0.290000  0.970400  1.0  0.0136
  C  C191  1  0.871500  0.224600  0.929500  1.0  -0.1085
  C  C192  1  0.816500  0.357100  0.976700  1.0  0.114
  C  C193  1  0.760900  0.375900  0.929300  1.0  -0.1945
  C  C194  1  0.697500  0.433500  0.937500  1.0  0.1645
  C  C195  1  0.739800  0.458200  0.034400  1.0  0.1705
  C  C196  1  0.805300  0.400800  0.028700  1.0  -0.2053
  C  C197  1  0.139900  0.915400  0.612200  1.0  0.1713
  C  C198  1  0.202600  0.887300  0.573200  1.0  -0.1969
  C  C199  1  0.247500  0.813500  0.586500  1.0  0.1004
  C  C200  1  0.219600  0.771300  0.637600  1.0  -0.1934
  C  C201  1  0.159000  0.805000  0.675200  1.0  0.1325
  C  C202  1  0.318700  0.783200  0.549300  1.0  0.0111
  C  C203  1  0.332400  0.808900  0.489900  1.0  -0.0714
  C  C204  1  0.398500  0.777500  0.456500  1.0  -0.0742
  C  C205  1  0.453500  0.719400  0.481400  1.0  -0.0668
  C  C206  1  0.439800  0.691500  0.541400  1.0  -0.0429
  C  C207  1  0.374700  0.723600  0.574400  1.0  -0.1184
  C  C208  1  0.495900  0.628400  0.570500  1.0  0.2472
  C  C209  1  0.591300  0.577400  0.631200  1.0  0.2612
  C  C210  1  0.659800  0.568600  0.675300  1.0  -0.0236
  C  C211  1  0.662100  0.497900  0.711200  1.0  -0.0774
  C  C212  1  0.728300  0.488200  0.753000  1.0  -0.066
  C  C213  1  0.790000  0.545900  0.758100  1.0  -0.1115
  C  C214  1  0.790000  0.618600  0.720400  1.0  0.0128
  C  C215  1  0.724600  0.628500  0.679500  1.0  -0.1074
  C  C216  1  0.857100  0.683500  0.726700  1.0  0.1138
  C  C217  1  0.875900  0.739100  0.679300  1.0  -0.195
  C  C218  1  0.933500  0.802500  0.687500  1.0  0.1647
  C  C219  1  0.958200  0.760200  0.784400  1.0  0.1699
  C  C220  1  0.900800  0.694700  0.778700  1.0  -0.2051
  C  C221  1  0.860100  0.084600  0.112200  1.0  0.1718
  C  C222  1  0.797400  0.112700  0.073200  1.0  -0.196
  C  C223  1  0.752500  0.186500  0.086500  1.0  0.1005
  C  C224  1  0.780400  0.228700  0.137600  1.0  -0.1926
  C  C225  1  0.841000  0.195000  0.175200  1.0  0.1332
  C  C226  1  0.681300  0.216800  0.049300  1.0  0.0117
  C  C227  1  0.667600  0.191100  0.989900  1.0  -0.0715
  C  C228  1  0.601500  0.222500  0.956500  1.0  -0.0757
  C  C229  1  0.546500  0.280600  0.981400  1.0  -0.0662
  C  C230  1  0.560200  0.308500  0.041400  1.0  -0.0441
  C  C231  1  0.625300  0.276400  0.074400  1.0  -0.1183
  C  C232  1  0.504100  0.371600  0.070500  1.0  0.2471
  C  C233  1  0.408700  0.422600  0.131200  1.0  0.2606
  C  C234  1  0.340200  0.431400  0.175300  1.0  -0.0242
  C  C235  1  0.337900  0.502100  0.211200  1.0  -0.0777
  C  C236  1  0.271700  0.511800  0.253000  1.0  -0.0651
  C  C237  1  0.210000  0.454100  0.258100  1.0  -0.1107
  C  C238  1  0.210000  0.381400  0.220400  1.0  0.0142
  C  C239  1  0.275400  0.371500  0.179500  1.0  -0.1067
  C  C240  1  0.142900  0.316500  0.226700  1.0  0.1152
  C  C241  1  0.124100  0.260900  0.179300  1.0  -0.1942
  C  C242  1  0.066500  0.197500  0.187500  1.0  0.1635
  C  C243  1  0.041800  0.239800  0.284400  1.0  0.1691
  C  C244  1  0.099200  0.305300  0.278700  1.0  -0.2057
  C  C245  1  0.084600  0.860100  0.887800  1.0  0.1726
  C  C246  1  0.112700  0.797400  0.926800  1.0  -0.1939
  C  C247  1  0.186500  0.752500  0.913500  1.0  0.1018
  C  C248  1  0.228700  0.780400  0.862400  1.0  -0.1941
  C  C249  1  0.195000  0.841000  0.824800  1.0  0.135
  C  C250  1  0.216800  0.681300  0.950700  1.0  0.012
  C  C251  1  0.191100  0.667600  0.010100  1.0  -0.0718
  C  C252  1  0.222500  0.601500  0.043500  1.0  -0.0748
  C  C253  1  0.280600  0.546500  0.018600  1.0  -0.063
  C  C254  1  0.308500  0.560200  0.958600  1.0  -0.0442
  C  C255  1  0.276400  0.625300  0.925600  1.0  -0.118
  C  C256  1  0.371600  0.504100  0.929500  1.0  0.2452
  C  C257  1  0.422600  0.408700  0.868800  1.0  0.2607
  C  C258  1  0.431400  0.340200  0.824700  1.0  -0.0238
  C  C259  1  0.502100  0.337900  0.788800  1.0  -0.0768
  C  C260  1  0.511800  0.271700  0.747000  1.0  -0.0672
  C  C261  1  0.454100  0.210000  0.741900  1.0  -0.1124
  C  C262  1  0.381400  0.210000  0.779600  1.0  0.0133
  C  C263  1  0.371500  0.275400  0.820500  1.0  -0.1081
  C  C264  1  0.316500  0.142900  0.773300  1.0  0.1143
  C  C265  1  0.260900  0.124100  0.820700  1.0  -0.1935
  C  C266  1  0.197500  0.066500  0.812500  1.0  0.1642
  C  C267  1  0.239800  0.041800  0.715600  1.0  0.1708
  C  C268  1  0.305300  0.099200  0.721300  1.0  -0.2049
  C  C269  1  0.915400  0.139900  0.387800  1.0  0.1723
  C  C270  1  0.887300  0.202600  0.426800  1.0  -0.1948
  C  C271  1  0.813500  0.247500  0.413500  1.0  0.1019
  C  C272  1  0.771300  0.219600  0.362400  1.0  -0.1941
  C  C273  1  0.805000  0.159000  0.324800  1.0  0.1351
  C  C274  1  0.783200  0.318700  0.450700  1.0  0.0115
  C  C275  1  0.808900  0.332400  0.510100  1.0  -0.0722
  C  C276  1  0.777500  0.398500  0.543500  1.0  -0.0741
  C  C277  1  0.719400  0.453500  0.518600  1.0  -0.0634
  C  C278  1  0.691500  0.439800  0.458600  1.0  -0.0435
  C  C279  1  0.723600  0.374700  0.425600  1.0  -0.1176
  C  C280  1  0.628400  0.495900  0.429500  1.0  0.2445
  C  C281  1  0.577400  0.591300  0.368800  1.0  0.2607
  C  C282  1  0.568600  0.659800  0.324700  1.0  -0.0239
  C  C283  1  0.497900  0.662100  0.288800  1.0  -0.0763
  C  C284  1  0.488200  0.728300  0.247000  1.0  -0.0681
  C  C285  1  0.545900  0.790000  0.241900  1.0  -0.1105
  C  C286  1  0.618600  0.790000  0.279600  1.0  0.0141
  C  C287  1  0.628500  0.724600  0.320500  1.0  -0.1079
  C  C288  1  0.683500  0.857100  0.273300  1.0  0.1144
  C  C289  1  0.739100  0.875900  0.320700  1.0  -0.1924
  C  C290  1  0.802500  0.933500  0.312500  1.0  0.1643
  C  C291  1  0.760200  0.958200  0.215600  1.0  0.1705
  C  C292  1  0.694700  0.900800  0.221300  1.0  -0.205
  C  C293  1  0.360100  0.415400  0.637800  1.0  0.171
  C  C294  1  0.297400  0.387300  0.676800  1.0  -0.1951
  C  C295  1  0.252500  0.313500  0.663500  1.0  0.1017
  C  C296  1  0.280400  0.271300  0.612400  1.0  -0.1929
  C  C297  1  0.341000  0.305000  0.574800  1.0  0.1342
  C  C298  1  0.181300  0.283200  0.700700  1.0  0.0118
  C  C299  1  0.167600  0.308900  0.760100  1.0  -0.0722
  C  C300  1  0.101500  0.277500  0.793500  1.0  -0.0743
  C  C301  1  0.046500  0.219400  0.768600  1.0  -0.0669
  C  C302  1  0.060200  0.191500  0.708600  1.0  -0.0432
  C  C303  1  0.125300  0.223600  0.675600  1.0  -0.1181
  C  C304  1  0.004100  0.128400  0.679500  1.0  0.2466
  C  C305  1  0.908700  0.077400  0.618800  1.0  0.2612
  C  C306  1  0.840200  0.068600  0.574700  1.0  -0.0237
  C  C307  1  0.837900  0.997900  0.538800  1.0  -0.0776
  C  C308  1  0.771700  0.988200  0.497000  1.0  -0.0645
  C  C309  1  0.710000  0.045900  0.491900  1.0  -0.1115
  C  C310  1  0.710000  0.118600  0.529600  1.0  0.0138
  C  C311  1  0.775400  0.128500  0.570500  1.0  -0.1064
  C  C312  1  0.642900  0.183500  0.523300  1.0  0.1151
  C  C313  1  0.624100  0.239100  0.570700  1.0  -0.1931
  C  C314  1  0.566500  0.302500  0.562500  1.0  0.1635
  C  C315  1  0.541800  0.260200  0.465600  1.0  0.1692
  C  C316  1  0.599200  0.194700  0.471300  1.0  -0.2057
  C  C317  1  0.639900  0.584600  0.137800  1.0  0.1716
  C  C318  1  0.702600  0.612700  0.176800  1.0  -0.1956
  C  C319  1  0.747500  0.686500  0.163500  1.0  0.1021
  C  C320  1  0.719600  0.728700  0.112400  1.0  -0.1918
  C  C321  1  0.659000  0.695000  0.074800  1.0  0.1328
  C  C322  1  0.818700  0.716800  0.200700  1.0  0.0117
  C  C323  1  0.832400  0.691100  0.260100  1.0  -0.072
  C  C324  1  0.898500  0.722500  0.293500  1.0  -0.0735
  C  C325  1  0.953500  0.780600  0.268600  1.0  -0.0656
  C  C326  1  0.939800  0.808500  0.208600  1.0  -0.0431
  C  C327  1  0.874700  0.776400  0.175600  1.0  -0.1179
  C  C328  1  0.995900  0.871600  0.179500  1.0  0.2467
  C  C329  1  0.091300  0.922600  0.118800  1.0  0.261
  C  C330  1  0.159800  0.931400  0.074700  1.0  -0.0236
  C  C331  1  0.162100  0.002100  0.038800  1.0  -0.0775
  C  C332  1  0.228300  0.011800  0.997000  1.0  -0.0652
  C  C333  1  0.290000  0.954100  0.991900  1.0  -0.1115
  C  C334  1  0.290000  0.881400  0.029600  1.0  0.0134
  C  C335  1  0.224600  0.871500  0.070500  1.0  -0.1069
  C  C336  1  0.357100  0.816500  0.023300  1.0  0.1146
  C  C337  1  0.375900  0.760900  0.070700  1.0  -0.1929
  C  C338  1  0.433500  0.697500  0.062500  1.0  0.1643
  C  C339  1  0.458200  0.739800  0.965600  1.0  0.1692
  C  C340  1  0.400800  0.805300  0.971300  1.0  -0.2058
  N  N341  1  0.378800  0.379600  0.413000  1.0  -0.3463
  N  N342  1  0.014900  0.944200  0.354000  1.0  -0.2997
  N  N343  1  0.047500  0.005200  0.316300  1.0  -0.222
  N  N344  1  0.150300  0.943900  0.361600  1.0  0.0939
  N  N345  1  0.231800  0.925900  0.383500  1.0  -0.5594
  N  N346  1  0.315000  0.526200  0.490100  1.0  -0.361
  N  N347  1  0.621200  0.620400  0.913000  1.0  -0.3455
  N  N348  1  0.985100  0.055800  0.854000  1.0  -0.3003
  N  N349  1  0.952500  0.994800  0.816300  1.0  -0.2218
  N  N350  1  0.849700  0.056100  0.861600  1.0  0.093
  N  N351  1  0.768200  0.074100  0.883500  1.0  -0.5596
  N  N352  1  0.685000  0.473800  0.990100  1.0  -0.3608
  N  N353  1  0.120400  0.878800  0.663000  1.0  -0.3446
  N  N354  1  0.555800  0.514900  0.604000  1.0  -0.2979
  N  N355  1  0.494800  0.547500  0.566300  1.0  -0.2218
  N  N356  1  0.556100  0.650300  0.611600  1.0  0.0937
  N  N357  1  0.574100  0.731800  0.633500  1.0  -0.5603
  N  N358  1  0.973800  0.815000  0.740100  1.0  -0.3602
  N  N359  1  0.879600  0.121200  0.163000  1.0  -0.3438
  N  N360  1  0.444200  0.485100  0.104000  1.0  -0.2985
  N  N361  1  0.505200  0.452500  0.066300  1.0  -0.2222
  N  N362  1  0.443900  0.349700  0.111600  1.0  0.0939
  N  N363  1  0.425900  0.268200  0.133500  1.0  -0.5598
  N  N364  1  0.026200  0.185000  0.240100  1.0  -0.3612
  N  N365  1  0.121200  0.879600  0.837000  1.0  -0.3464
  N  N366  1  0.485100  0.444200  0.896000  1.0  -0.3006
  N  N367  1  0.452500  0.505200  0.933700  1.0  -0.2221
  N  N368  1  0.349700  0.443900  0.888400  1.0  0.0932
  N  N369  1  0.268200  0.425900  0.866500  1.0  -0.5594
  N  N370  1  0.185000  0.026200  0.759900  1.0  -0.3602
  N  N371  1  0.878800  0.120400  0.337000  1.0  -0.3458
  N  N372  1  0.514900  0.555800  0.396000  1.0  -0.2997
  N  N373  1  0.547500  0.494800  0.433700  1.0  -0.2222
  N  N374  1  0.650300  0.556100  0.388400  1.0  0.0936
  N  N375  1  0.731800  0.574100  0.366500  1.0  -0.5585
  N  N376  1  0.815000  0.973800  0.259900  1.0  -0.3617
  N  N377  1  0.379600  0.378800  0.587000  1.0  -0.3445
  N  N378  1  0.944200  0.014900  0.646000  1.0  -0.2982
  N  N379  1  0.005200  0.047500  0.683700  1.0  -0.2212
  N  N380  1  0.943900  0.150300  0.638400  1.0  0.0937
  N  N381  1  0.925900  0.231800  0.616500  1.0  -0.5598
  N  N382  1  0.526200  0.315000  0.509900  1.0  -0.3607
  N  N383  1  0.620400  0.621200  0.087000  1.0  -0.3447
  N  N384  1  0.055800  0.985100  0.146000  1.0  -0.2987
  N  N385  1  0.994800  0.952500  0.183700  1.0  -0.2223
  N  N386  1  0.056100  0.849700  0.138400  1.0  0.0939
  N  N387  1  0.074100  0.768200  0.116500  1.0  -0.559
  N  N388  1  0.473800  0.685000  0.009900  1.0  -0.3606
  Cl  Cl389  1  0.880410  0.880410  0.000000  1.0  1.6104
  Cl  Cl390  1  0.268830  0.268830  0.000000  1.0  1.4233
  Cl  Cl391  1  0.119590  0.119590  0.500000  1.0  1.6103
  Cl  Cl392  1  0.731170  0.731170  0.500000  1.0  1.4262
  Cl  Cl393  1  0.619590  0.380410  0.250000  1.0  1.6105
  Cl  Cl394  1  0.231170  0.768830  0.250000  1.0  1.4271
  Cl  Cl395  1  0.380410  0.619590  0.750000  1.0  1.6105
  Cl  Cl396  1  0.768830  0.231170  0.750000  1.0  1.4216
  O  O397  1  0.824000  0.901600  0.049700  1.0  -0.6612
  O  O398  1  0.937700  0.848300  0.034400  1.0  -0.5368
  O  O399  1  0.901600  0.824000  0.950300  1.0  -0.6631
  O  O400  1  0.848300  0.937700  0.965600  1.0  -0.5361
  O  O401  1  0.239000  0.228700  0.050300  1.0  -0.6276
  O  O402  1  0.336800  0.215300  0.998000  1.0  -0.4987
  O  O403  1  0.228700  0.239000  0.949700  1.0  -0.6283
  O  O404  1  0.215300  0.336800  0.002000  1.0  -0.4981
  O  O405  1  0.176000  0.098400  0.549700  1.0  -0.6617
  O  O406  1  0.062300  0.151700  0.534400  1.0  -0.5369
  O  O407  1  0.098400  0.176000  0.450300  1.0  -0.6636
  O  O408  1  0.151700  0.062300  0.465600  1.0  -0.5362
  O  O409  1  0.761000  0.771300  0.550300  1.0  -0.6274
  O  O410  1  0.663200  0.784700  0.498000  1.0  -0.4973
  O  O411  1  0.771300  0.761000  0.449700  1.0  -0.6276
  O  O412  1  0.784700  0.663200  0.502000  1.0  -0.499
  O  O413  1  0.598400  0.324000  0.299700  1.0  -0.6623
  O  O414  1  0.651700  0.437700  0.284400  1.0  -0.536
  O  O415  1  0.676000  0.401600  0.200300  1.0  -0.6621
  O  O416  1  0.562300  0.348300  0.215600  1.0  -0.5361
  O  O417  1  0.271300  0.739000  0.300300  1.0  -0.6268
  O  O418  1  0.284700  0.836800  0.248000  1.0  -0.4978
  O  O419  1  0.261000  0.728700  0.199700  1.0  -0.6265
  O  O420  1  0.163200  0.715300  0.252000  1.0  -0.498
  O  O421  1  0.401600  0.676000  0.799700  1.0  -0.663
  O  O422  1  0.348300  0.562300  0.784400  1.0  -0.5361
  O  O423  1  0.324000  0.598400  0.700300  1.0  -0.6628
  O  O424  1  0.437700  0.651700  0.715600  1.0  -0.537
  O  O425  1  0.728700  0.261000  0.800300  1.0  -0.6284
  O  O426  1  0.715300  0.163200  0.748000  1.0  -0.498
  O  O427  1  0.739000  0.271300  0.699700  1.0  -0.6272
  O  O428  1  0.836800  0.284700  0.752000  1.0  -0.4988
