# generated using pymatgen
data_CdH36C48N12(ClO4)2
_symmetry_space_group_name_H-M   'P 1'
_cell_length_a   15.93700000
_cell_length_b   15.93700000
_cell_length_c   21.88400000
_cell_angle_alpha   90.00000000
_cell_angle_beta   90.00000000
_cell_angle_gamma   90.00000000
_symmetry_Int_Tables_number   1
_chemical_formula_structural   CdH36C48N12(ClO4)2
_chemical_formula_sum   'Cd4 H144 C192 N48 Cl8 O32'
_cell_volume   5558.27271360
_cell_formula_units_Z   4
loop_
 _symmetry_equiv_pos_site_id
 _symmetry_equiv_pos_as_xyz
  1  'x, y, z'
loop_
 _atom_site_type_symbol
 _atom_site_label
 _atom_site_symmetry_multiplicity
 _atom_site_fract_x
 _atom_site_fract_y
 _atom_site_fract_z
 _atom_site_occupancy
 _atom_site_charge
  Cd  Cd1  1  0.942650  0.057350  0.250000  1.0  0.8044
  Cd  Cd2  1  0.057350  0.942650  0.750000  1.0  0.8041
  Cd  Cd3  1  0.442650  0.442650  0.500000  1.0  0.8044
  Cd  Cd4  1  0.557350  0.557350  0.000000  1.0  0.8041
  H  H5  1  0.463600  0.390000  0.350700  1.0  0.0766
  H  H6  1  0.416300  0.284900  0.285300  1.0  0.1334
  H  H7  1  0.215300  0.259200  0.396200  1.0  0.1203
  H  H8  1  0.273600  0.357900  0.460400  1.0  0.0733
  H  H9  1  0.349300  0.201800  0.220800  1.0  0.0813
  H  H10  1  0.294400  0.092800  0.164700  1.0  0.1112
  H  H11  1  0.199200  0.997900  0.208200  1.0  0.0991
  H  H12  1  0.203600  0.136100  0.364200  1.0  0.1097
  H  H13  1  0.955700  0.878700  0.459100  1.0  0.1075
  H  H14  1  0.937900  0.769900  0.528400  1.0  0.1132
  H  H15  1  0.037700  0.665500  0.538400  1.0  0.1095
  H  H16  1  0.175700  0.776200  0.404100  1.0  0.1004
  H  H17  1  0.233500  0.651600  0.391200  1.0  0.1377
  H  H18  1  0.340200  0.555700  0.405400  1.0  0.0623
  H  H19  1  0.265800  0.511000  0.573600  1.0  0.0738
  H  H20  1  0.155000  0.603700  0.562600  1.0  0.1247
  H  H21  1  0.260100  0.973600  0.388400  1.0  0.317
  H  H22  1  0.259000  0.892100  0.355300  1.0  0.3092
  H  H23  1  0.536400  0.610000  0.850700  1.0  0.0765
  H  H24  1  0.583700  0.715100  0.785300  1.0  0.134
  H  H25  1  0.784700  0.740800  0.896200  1.0  0.1206
  H  H26  1  0.726400  0.642100  0.960400  1.0  0.0734
  H  H27  1  0.650700  0.798200  0.720800  1.0  0.0813
  H  H28  1  0.705600  0.907200  0.664700  1.0  0.1118
  H  H29  1  0.800800  0.002100  0.708200  1.0  0.0993
  H  H30  1  0.796400  0.863900  0.864200  1.0  0.1096
  H  H31  1  0.044300  0.121300  0.959100  1.0  0.1074
  H  H32  1  0.062100  0.230100  0.028400  1.0  0.1133
  H  H33  1  0.962300  0.334500  0.038400  1.0  0.1092
  H  H34  1  0.824300  0.223800  0.904100  1.0  0.1008
  H  H35  1  0.766500  0.348400  0.891200  1.0  0.1373
  H  H36  1  0.659800  0.444300  0.905400  1.0  0.0627
  H  H37  1  0.734200  0.489000  0.073600  1.0  0.0731
  H  H38  1  0.845000  0.396300  0.062600  1.0  0.1242
  H  H39  1  0.739900  0.026400  0.888400  1.0  0.3157
  H  H40  1  0.741000  0.107900  0.855300  1.0  0.3089
  H  H41  1  0.110000  0.963600  0.600700  1.0  0.0768
  H  H42  1  0.215100  0.916300  0.535300  1.0  0.134
  H  H43  1  0.240800  0.715300  0.646200  1.0  0.1204
  H  H44  1  0.142100  0.773600  0.710400  1.0  0.0732
  H  H45  1  0.298200  0.849300  0.470800  1.0  0.0825
  H  H46  1  0.407200  0.794400  0.414700  1.0  0.112
  H  H47  1  0.502100  0.699200  0.458200  1.0  0.0985
  H  H48  1  0.363900  0.703600  0.614200  1.0  0.1096
  H  H49  1  0.621300  0.455700  0.709100  1.0  0.1076
  H  H50  1  0.730100  0.437900  0.778400  1.0  0.1138
  H  H51  1  0.834500  0.537700  0.788400  1.0  0.1093
  H  H52  1  0.723800  0.675700  0.654100  1.0  0.1011
  H  H53  1  0.848400  0.733500  0.641200  1.0  0.1369
  H  H54  1  0.944300  0.840200  0.655400  1.0  0.0626
  H  H55  1  0.989000  0.765800  0.823600  1.0  0.0739
  H  H56  1  0.896300  0.655000  0.812600  1.0  0.1245
  H  H57  1  0.526400  0.760100  0.638400  1.0  0.3164
  H  H58  1  0.607900  0.759000  0.605300  1.0  0.309
  H  H59  1  0.890000  0.036400  0.100700  1.0  0.0763
  H  H60  1  0.784900  0.083700  0.035300  1.0  0.1341
  H  H61  1  0.759200  0.284700  0.146200  1.0  0.1205
  H  H62  1  0.857900  0.226400  0.210400  1.0  0.0729
  H  H63  1  0.701800  0.150700  0.970800  1.0  0.082
  H  H64  1  0.592800  0.205600  0.914700  1.0  0.1117
  H  H65  1  0.497900  0.300800  0.958200  1.0  0.0992
  H  H66  1  0.636100  0.296400  0.114200  1.0  0.1095
  H  H67  1  0.378700  0.544300  0.209100  1.0  0.1075
  H  H68  1  0.269900  0.562100  0.278400  1.0  0.1135
  H  H69  1  0.165500  0.462300  0.288400  1.0  0.1091
  H  H70  1  0.276200  0.324300  0.154100  1.0  0.1017
  H  H71  1  0.151600  0.266500  0.141200  1.0  0.137
  H  H72  1  0.055700  0.159800  0.155400  1.0  0.0633
  H  H73  1  0.011000  0.234200  0.323600  1.0  0.0739
  H  H74  1  0.103700  0.345000  0.312600  1.0  0.1246
  H  H75  1  0.473600  0.239900  0.138400  1.0  0.3169
  H  H76  1  0.392100  0.241000  0.105300  1.0  0.3087
  H  H77  1  0.036400  0.890000  0.899300  1.0  0.0769
  H  H78  1  0.083700  0.784900  0.964700  1.0  0.1339
  H  H79  1  0.284700  0.759200  0.853800  1.0  0.1201
  H  H80  1  0.226400  0.857900  0.789600  1.0  0.0736
  H  H81  1  0.150700  0.701800  0.029200  1.0  0.0811
  H  H82  1  0.205600  0.592800  0.085300  1.0  0.1119
  H  H83  1  0.300800  0.497900  0.041800  1.0  0.0986
  H  H84  1  0.296400  0.636100  0.885800  1.0  0.1097
  H  H85  1  0.544300  0.378700  0.790900  1.0  0.1072
  H  H86  1  0.562100  0.269900  0.721600  1.0  0.1133
  H  H87  1  0.462300  0.165500  0.711600  1.0  0.1094
  H  H88  1  0.324300  0.276200  0.845900  1.0  0.1007
  H  H89  1  0.266500  0.151600  0.858800  1.0  0.1374
  H  H90  1  0.159800  0.055700  0.844600  1.0  0.0627
  H  H91  1  0.234200  0.011000  0.676400  1.0  0.0722
  H  H92  1  0.345000  0.103700  0.687400  1.0  0.1241
  H  H93  1  0.239900  0.473600  0.861600  1.0  0.3176
  H  H94  1  0.241000  0.392100  0.894700  1.0  0.3095
  H  H95  1  0.963600  0.110000  0.399300  1.0  0.077
  H  H96  1  0.916300  0.215100  0.464700  1.0  0.1335
  H  H97  1  0.715300  0.240800  0.353800  1.0  0.1202
  H  H98  1  0.773600  0.142100  0.289600  1.0  0.0732
  H  H99  1  0.849300  0.298200  0.529200  1.0  0.0814
  H  H100  1  0.794400  0.407200  0.585300  1.0  0.1113
  H  H101  1  0.699200  0.502100  0.541800  1.0  0.0984
  H  H102  1  0.703600  0.363900  0.385800  1.0  0.1094
  H  H103  1  0.455700  0.621300  0.290900  1.0  0.1073
  H  H104  1  0.437900  0.730100  0.221600  1.0  0.1133
  H  H105  1  0.537700  0.834500  0.211600  1.0  0.1099
  H  H106  1  0.675700  0.723800  0.345900  1.0  0.1005
  H  H107  1  0.733500  0.848400  0.358800  1.0  0.1367
  H  H108  1  0.840200  0.944300  0.344600  1.0  0.0625
  H  H109  1  0.765800  0.989000  0.176400  1.0  0.0729
  H  H110  1  0.655000  0.896300  0.187400  1.0  0.1246
  H  H111  1  0.760100  0.526400  0.361600  1.0  0.3171
  H  H112  1  0.759000  0.607900  0.394700  1.0  0.3085
  H  H113  1  0.390000  0.463600  0.649300  1.0  0.0768
  H  H114  1  0.284900  0.416300  0.714700  1.0  0.1339
  H  H115  1  0.259200  0.215300  0.603800  1.0  0.1199
  H  H116  1  0.357900  0.273600  0.539600  1.0  0.0729
  H  H117  1  0.201800  0.349300  0.779200  1.0  0.0823
  H  H118  1  0.092800  0.294400  0.835300  1.0  0.112
  H  H119  1  0.997900  0.199200  0.791800  1.0  0.0982
  H  H120  1  0.136100  0.203600  0.635800  1.0  0.1096
  H  H121  1  0.878700  0.955700  0.540900  1.0  0.1077
  H  H122  1  0.769900  0.937900  0.471600  1.0  0.1135
  H  H123  1  0.665500  0.037700  0.461600  1.0  0.1088
  H  H124  1  0.776200  0.175700  0.595900  1.0  0.1013
  H  H125  1  0.651600  0.233500  0.608800  1.0  0.1369
  H  H126  1  0.555700  0.340200  0.594600  1.0  0.0627
  H  H127  1  0.511000  0.265800  0.426400  1.0  0.0727
  H  H128  1  0.603700  0.155000  0.437400  1.0  0.1246
  H  H129  1  0.973600  0.260100  0.611600  1.0  0.3166
  H  H130  1  0.892100  0.259000  0.644700  1.0  0.3093
  H  H131  1  0.610000  0.536400  0.149300  1.0  0.0768
  H  H132  1  0.715100  0.583700  0.214700  1.0  0.1337
  H  H133  1  0.740800  0.784700  0.103800  1.0  0.1205
  H  H134  1  0.642100  0.726400  0.039600  1.0  0.0728
  H  H135  1  0.798200  0.650700  0.279200  1.0  0.0822
  H  H136  1  0.907200  0.705600  0.335300  1.0  0.1116
  H  H137  1  0.002100  0.800800  0.291800  1.0  0.098
  H  H138  1  0.863900  0.796400  0.135800  1.0  0.1095
  H  H139  1  0.121300  0.044300  0.040900  1.0  0.1076
  H  H140  1  0.230100  0.062100  0.971600  1.0  0.114
  H  H141  1  0.334500  0.962300  0.961600  1.0  0.1099
  H  H142  1  0.223800  0.824300  0.095900  1.0  0.1015
  H  H143  1  0.348400  0.766500  0.108800  1.0  0.1366
  H  H144  1  0.444300  0.659800  0.094600  1.0  0.0631
  H  H145  1  0.489000  0.734200  0.926400  1.0  0.0733
  H  H146  1  0.396300  0.845000  0.937400  1.0  0.1246
  H  H147  1  0.026400  0.739900  0.111600  1.0  0.3166
  H  H148  1  0.107900  0.741000  0.144700  1.0  0.3094
  C  C149  1  0.414100  0.360300  0.361500  1.0  0.1708
  C  C150  1  0.385900  0.297400  0.321500  1.0  -0.191
  C  C151  1  0.312000  0.253000  0.335700  1.0  0.1051
  C  C152  1  0.269000  0.281700  0.386900  1.0  -0.1837
  C  C153  1  0.303200  0.342400  0.424400  1.0  0.1337
  C  C154  1  0.281400  0.181300  0.298000  1.0  0.0168
  C  C155  1  0.308300  0.166100  0.238700  1.0  -0.0756
  C  C156  1  0.276600  0.100500  0.205700  1.0  -0.0729
  C  C157  1  0.218800  0.044800  0.230800  1.0  -0.0691
  C  C158  1  0.190100  0.060200  0.290900  1.0  -0.047
  C  C159  1  0.222200  0.126900  0.323500  1.0  -0.1205
  C  C160  1  0.127500  0.003600  0.320700  1.0  0.2441
  C  C161  1  0.076500  0.908500  0.381700  1.0  0.2504
  C  C162  1  0.068600  0.839300  0.425700  1.0  -0.0183
  C  C163  1  0.997200  0.836100  0.462400  1.0  -0.0664
  C  C164  1  0.986700  0.771300  0.503500  1.0  -0.0651
  C  C165  1  0.045200  0.708800  0.509100  1.0  -0.1125
  C  C166  1  0.117400  0.709100  0.470500  1.0  0.011
  C  C167  1  0.127600  0.775000  0.429700  1.0  -0.1084
  C  C168  1  0.182500  0.642000  0.476800  1.0  0.1123
  C  C169  1  0.239000  0.624000  0.429400  1.0  -0.1907
  C  C170  1  0.302700  0.566400  0.438200  1.0  0.1696
  C  C171  1  0.259100  0.540100  0.536000  1.0  0.1637
  C  C172  1  0.193300  0.596400  0.529700  1.0  -0.1989
  C  C173  1  0.585900  0.639700  0.861500  1.0  0.1707
  C  C174  1  0.614100  0.702600  0.821500  1.0  -0.1904
  C  C175  1  0.688000  0.747000  0.835700  1.0  0.105
  C  C176  1  0.731000  0.718300  0.886900  1.0  -0.184
  C  C177  1  0.696800  0.657600  0.924400  1.0  0.1341
  C  C178  1  0.718600  0.818700  0.798000  1.0  0.0177
  C  C179  1  0.691700  0.833900  0.738700  1.0  -0.0758
  C  C180  1  0.723400  0.899500  0.705700  1.0  -0.0728
  C  C181  1  0.781200  0.955200  0.730800  1.0  -0.0694
  C  C182  1  0.809900  0.939800  0.790900  1.0  -0.0466
  C  C183  1  0.777800  0.873100  0.823500  1.0  -0.1205
  C  C184  1  0.872500  0.996400  0.820700  1.0  0.2431
  C  C185  1  0.923500  0.091500  0.881700  1.0  0.2502
  C  C186  1  0.931400  0.160700  0.925700  1.0  -0.0187
  C  C187  1  0.002800  0.163900  0.962400  1.0  -0.0674
  C  C188  1  0.013300  0.228700  0.003500  1.0  -0.0649
  C  C189  1  0.954800  0.291200  0.009100  1.0  -0.113
  C  C190  1  0.882600  0.290900  0.970500  1.0  0.0118
  C  C191  1  0.872400  0.225000  0.929700  1.0  -0.1084
  C  C192  1  0.817500  0.358000  0.976800  1.0  0.1127
  C  C193  1  0.761000  0.376000  0.929400  1.0  -0.1915
  C  C194  1  0.697300  0.433600  0.938200  1.0  0.1695
  C  C195  1  0.740900  0.459900  0.036000  1.0  0.164
  C  C196  1  0.806700  0.403600  0.029700  1.0  -0.1989
  C  C197  1  0.139700  0.914100  0.611500  1.0  0.1697
  C  C198  1  0.202600  0.885900  0.571500  1.0  -0.1938
  C  C199  1  0.247000  0.812000  0.585700  1.0  0.1043
  C  C200  1  0.218300  0.769000  0.636900  1.0  -0.1822
  C  C201  1  0.157600  0.803200  0.674400  1.0  0.1319
  C  C202  1  0.318700  0.781400  0.548000  1.0  0.0164
  C  C203  1  0.333900  0.808300  0.488700  1.0  -0.0765
  C  C204  1  0.399500  0.776600  0.455700  1.0  -0.0724
  C  C205  1  0.455200  0.718800  0.480800  1.0  -0.0734
  C  C206  1  0.439800  0.690100  0.540900  1.0  -0.0457
  C  C207  1  0.373100  0.722200  0.573500  1.0  -0.1206
  C  C208  1  0.496400  0.627500  0.570700  1.0  0.2456
  C  C209  1  0.591500  0.576500  0.631700  1.0  0.2511
  C  C210  1  0.660700  0.568600  0.675700  1.0  -0.0185
  C  C211  1  0.663900  0.497200  0.712400  1.0  -0.0671
  C  C212  1  0.728700  0.486700  0.753500  1.0  -0.0619
  C  C213  1  0.791200  0.545200  0.759100  1.0  -0.1131
  C  C214  1  0.790900  0.617400  0.720500  1.0  0.0131
  C  C215  1  0.725000  0.627600  0.679700  1.0  -0.1072
  C  C216  1  0.858000  0.682500  0.726800  1.0  0.1118
  C  C217  1  0.876000  0.739000  0.679400  1.0  -0.1916
  C  C218  1  0.933600  0.802700  0.688200  1.0  0.1695
  C  C219  1  0.959900  0.759100  0.786000  1.0  0.1622
  C  C220  1  0.903600  0.693300  0.779700  1.0  -0.1993
  C  C221  1  0.860300  0.085900  0.111500  1.0  0.1697
  C  C222  1  0.797400  0.114100  0.071500  1.0  -0.1932
  C  C223  1  0.753000  0.188000  0.085700  1.0  0.1046
  C  C224  1  0.781700  0.231000  0.136900  1.0  -0.182
  C  C225  1  0.842400  0.196800  0.174400  1.0  0.1328
  C  C226  1  0.681300  0.218600  0.048000  1.0  0.0166
  C  C227  1  0.666100  0.191700  0.988700  1.0  -0.0771
  C  C228  1  0.600500  0.223400  0.955700  1.0  -0.0737
  C  C229  1  0.544800  0.281200  0.980800  1.0  -0.0723
  C  C230  1  0.560200  0.309900  0.040900  1.0  -0.0468
  C  C231  1  0.626900  0.277800  0.073500  1.0  -0.1206
  C  C232  1  0.503600  0.372500  0.070700  1.0  0.2454
  C  C233  1  0.408500  0.423500  0.131700  1.0  0.2506
  C  C234  1  0.339300  0.431400  0.175700  1.0  -0.0193
  C  C235  1  0.336100  0.502800  0.212400  1.0  -0.0683
  C  C236  1  0.271300  0.513300  0.253500  1.0  -0.0631
  C  C237  1  0.208800  0.454800  0.259100  1.0  -0.1133
  C  C238  1  0.209100  0.382600  0.220500  1.0  0.0125
  C  C239  1  0.275000  0.372400  0.179700  1.0  -0.1067
  C  C240  1  0.142000  0.317500  0.226800  1.0  0.1127
  C  C241  1  0.124000  0.261000  0.179400  1.0  -0.1913
  C  C242  1  0.066400  0.197300  0.188200  1.0  0.1686
  C  C243  1  0.040100  0.240900  0.286000  1.0  0.1624
  C  C244  1  0.096400  0.306700  0.279700  1.0  -0.2
  C  C245  1  0.085900  0.860300  0.888500  1.0  0.1709
  C  C246  1  0.114100  0.797400  0.928500  1.0  -0.1903
  C  C247  1  0.188000  0.753000  0.914300  1.0  0.1053
  C  C248  1  0.231000  0.781700  0.863100  1.0  -0.1833
  C  C249  1  0.196800  0.842400  0.825600  1.0  0.1339
  C  C250  1  0.218600  0.681300  0.952000  1.0  0.0178
  C  C251  1  0.191700  0.666100  0.011300  1.0  -0.076
  C  C252  1  0.223400  0.600500  0.044300  1.0  -0.0718
  C  C253  1  0.281200  0.544800  0.019200  1.0  -0.0684
  C  C254  1  0.309900  0.560200  0.959100  1.0  -0.0473
  C  C255  1  0.277800  0.626900  0.926500  1.0  -0.1206
  C  C256  1  0.372500  0.503600  0.929300  1.0  0.2432
  C  C257  1  0.423500  0.408500  0.868300  1.0  0.2507
  C  C258  1  0.431400  0.339300  0.824300  1.0  -0.0191
  C  C259  1  0.502800  0.336100  0.787600  1.0  -0.0664
  C  C260  1  0.513300  0.271300  0.746500  1.0  -0.0639
  C  C261  1  0.454800  0.208800  0.740900  1.0  -0.1138
  C  C262  1  0.382600  0.209100  0.779500  1.0  0.0121
  C  C263  1  0.372400  0.275000  0.820300  1.0  -0.1079
  C  C264  1  0.317500  0.142000  0.773200  1.0  0.1125
  C  C265  1  0.261000  0.124000  0.820600  1.0  -0.1906
  C  C266  1  0.197300  0.066400  0.811800  1.0  0.17
  C  C267  1  0.240900  0.040100  0.714000  1.0  0.1637
  C  C268  1  0.306700  0.096400  0.720300  1.0  -0.1983
  C  C269  1  0.914100  0.139700  0.388500  1.0  0.1711
  C  C270  1  0.885900  0.202600  0.428500  1.0  -0.1915
  C  C271  1  0.812000  0.247000  0.414300  1.0  0.1051
  C  C272  1  0.769000  0.218300  0.363100  1.0  -0.1827
  C  C273  1  0.803200  0.157600  0.325600  1.0  0.1346
  C  C274  1  0.781400  0.318700  0.452000  1.0  0.0178
  C  C275  1  0.808300  0.333900  0.511300  1.0  -0.0766
  C  C276  1  0.776600  0.399500  0.544300  1.0  -0.0714
  C  C277  1  0.718800  0.455200  0.519200  1.0  -0.0675
  C  C278  1  0.690100  0.439800  0.459100  1.0  -0.0459
  C  C279  1  0.722200  0.373100  0.426500  1.0  -0.1201
  C  C280  1  0.627500  0.496400  0.429300  1.0  0.2439
  C  C281  1  0.576500  0.591500  0.368300  1.0  0.2506
  C  C282  1  0.568600  0.660700  0.324300  1.0  -0.0186
  C  C283  1  0.497200  0.663900  0.287600  1.0  -0.0667
  C  C284  1  0.486700  0.728700  0.246500  1.0  -0.0648
  C  C285  1  0.545200  0.791200  0.240900  1.0  -0.1122
  C  C286  1  0.617400  0.790900  0.279500  1.0  0.0113
  C  C287  1  0.627600  0.725000  0.320300  1.0  -0.1074
  C  C288  1  0.682500  0.858000  0.273200  1.0  0.113
  C  C289  1  0.739000  0.876000  0.320600  1.0  -0.19
  C  C290  1  0.802700  0.933600  0.311800  1.0  0.1696
  C  C291  1  0.759100  0.959900  0.214000  1.0  0.1642
  C  C292  1  0.693300  0.903600  0.220300  1.0  -0.199
  C  C293  1  0.360300  0.414100  0.638500  1.0  0.1699
  C  C294  1  0.297400  0.385900  0.678500  1.0  -0.1936
  C  C295  1  0.253000  0.312000  0.664300  1.0  0.1049
  C  C296  1  0.281700  0.269000  0.613100  1.0  -0.1818
  C  C297  1  0.342400  0.303200  0.575600  1.0  0.1333
  C  C298  1  0.181300  0.281400  0.702000  1.0  0.017
  C  C299  1  0.166100  0.308300  0.761300  1.0  -0.0779
  C  C300  1  0.100500  0.276600  0.794300  1.0  -0.0719
  C  C301  1  0.044800  0.218800  0.769200  1.0  -0.0722
  C  C302  1  0.060200  0.190100  0.709100  1.0  -0.0463
  C  C303  1  0.126900  0.222200  0.676500  1.0  -0.121
  C  C304  1  0.003600  0.127500  0.679300  1.0  0.2452
  C  C305  1  0.908500  0.076500  0.618300  1.0  0.2512
  C  C306  1  0.839300  0.068600  0.574300  1.0  -0.019
  C  C307  1  0.836100  0.997200  0.537600  1.0  -0.0676
  C  C308  1  0.771300  0.986700  0.496500  1.0  -0.0621
  C  C309  1  0.708800  0.045200  0.490900  1.0  -0.1136
  C  C310  1  0.709100  0.117400  0.529500  1.0  0.0121
  C  C311  1  0.775000  0.127600  0.570300  1.0  -0.1062
  C  C312  1  0.642000  0.182500  0.523200  1.0  0.1126
  C  C313  1  0.624000  0.239000  0.570600  1.0  -0.1906
  C  C314  1  0.566400  0.302700  0.561800  1.0  0.1692
  C  C315  1  0.540100  0.259100  0.464000  1.0  0.1617
  C  C316  1  0.596400  0.193300  0.470300  1.0  -0.1996
  C  C317  1  0.639700  0.585900  0.138500  1.0  0.1699
  C  C318  1  0.702600  0.614100  0.178500  1.0  -0.1931
  C  C319  1  0.747000  0.688000  0.164300  1.0  0.1047
  C  C320  1  0.718300  0.731000  0.113100  1.0  -0.181
  C  C321  1  0.657600  0.696800  0.075600  1.0  0.1322
  C  C322  1  0.818700  0.718600  0.202000  1.0  0.0171
  C  C323  1  0.833900  0.691700  0.261300  1.0  -0.0768
  C  C324  1  0.899500  0.723400  0.294300  1.0  -0.072
  C  C325  1  0.955200  0.781200  0.269200  1.0  -0.0725
  C  C326  1  0.939800  0.809900  0.209100  1.0  -0.0462
  C  C327  1  0.873100  0.777800  0.176500  1.0  -0.1202
  C  C328  1  0.996400  0.872500  0.179300  1.0  0.2457
  C  C329  1  0.091500  0.923500  0.118300  1.0  0.2507
  C  C330  1  0.160700  0.931400  0.074300  1.0  -0.0193
  C  C331  1  0.163900  0.002800  0.037600  1.0  -0.0676
  C  C332  1  0.228700  0.013300  0.996500  1.0  -0.0618
  C  C333  1  0.291200  0.954800  0.990900  1.0  -0.1131
  C  C334  1  0.290900  0.882600  0.029500  1.0  0.0136
  C  C335  1  0.225000  0.872400  0.070300  1.0  -0.1068
  C  C336  1  0.358000  0.817500  0.023200  1.0  0.1123
  C  C337  1  0.376000  0.761000  0.070600  1.0  -0.1904
  C  C338  1  0.433600  0.697300  0.061800  1.0  0.1694
  C  C339  1  0.459900  0.740900  0.964000  1.0  0.1622
  C  C340  1  0.403600  0.806700  0.970300  1.0  -0.1981
  N  N341  1  0.377000  0.380500  0.412000  1.0  -0.343
  N  N342  1  0.013900  0.944800  0.354800  1.0  -0.2948
  N  N343  1  0.045800  0.005900  0.316500  1.0  -0.2382
  N  N344  1  0.149600  0.943600  0.361000  1.0  0.0924
  N  N345  1  0.231400  0.924800  0.382800  1.0  -0.556
  N  N346  1  0.313900  0.525400  0.490400  1.0  -0.3646
  N  N347  1  0.623000  0.619500  0.912000  1.0  -0.3431
  N  N348  1  0.986100  0.055200  0.854800  1.0  -0.296
  N  N349  1  0.954200  0.994100  0.816500  1.0  -0.2388
  N  N350  1  0.850400  0.056400  0.861000  1.0  0.0913
  N  N351  1  0.768600  0.075200  0.882800  1.0  -0.5559
  N  N352  1  0.686100  0.474600  0.990400  1.0  -0.3647
  N  N353  1  0.119500  0.877000  0.662000  1.0  -0.343
  N  N354  1  0.555200  0.513900  0.604800  1.0  -0.2942
  N  N355  1  0.494100  0.545800  0.566500  1.0  -0.2383
  N  N356  1  0.556400  0.649600  0.611000  1.0  0.0924
  N  N357  1  0.575200  0.731400  0.632800  1.0  -0.5569
  N  N358  1  0.974600  0.813900  0.740400  1.0  -0.3641
  N  N359  1  0.880500  0.123000  0.162000  1.0  -0.3421
  N  N360  1  0.444800  0.486100  0.104800  1.0  -0.294
  N  N361  1  0.505900  0.454200  0.066500  1.0  -0.239
  N  N362  1  0.443600  0.350400  0.111000  1.0  0.0922
  N  N363  1  0.424800  0.268600  0.132800  1.0  -0.5558
  N  N364  1  0.025400  0.186100  0.240400  1.0  -0.3654
  N  N365  1  0.123000  0.880500  0.838000  1.0  -0.3434
  N  N366  1  0.486100  0.444800  0.895200  1.0  -0.296
  N  N367  1  0.454200  0.505900  0.933500  1.0  -0.2385
  N  N368  1  0.350400  0.443600  0.889000  1.0  0.0915
  N  N369  1  0.268600  0.424800  0.867200  1.0  -0.556
  N  N370  1  0.186100  0.025400  0.759600  1.0  -0.3642
  N  N371  1  0.877000  0.119500  0.338000  1.0  -0.3431
  N  N372  1  0.513900  0.555200  0.395200  1.0  -0.2951
  N  N373  1  0.545800  0.494100  0.433500  1.0  -0.2388
  N  N374  1  0.649600  0.556400  0.389000  1.0  0.0923
  N  N375  1  0.731400  0.575200  0.367200  1.0  -0.5552
  N  N376  1  0.813900  0.974600  0.259600  1.0  -0.3653
  N  N377  1  0.380500  0.377000  0.588000  1.0  -0.3427
  N  N378  1  0.944800  0.013900  0.645200  1.0  -0.2947
  N  N379  1  0.005900  0.045800  0.683500  1.0  -0.238
  N  N380  1  0.943600  0.149600  0.639000  1.0  0.0922
  N  N381  1  0.924800  0.231400  0.617200  1.0  -0.5558
  N  N382  1  0.525400  0.313900  0.509600  1.0  -0.3652
  N  N383  1  0.619500  0.623000  0.088000  1.0  -0.3432
  N  N384  1  0.055200  0.986100  0.145200  1.0  -0.2942
  N  N385  1  0.994100  0.954200  0.183500  1.0  -0.2385
  N  N386  1  0.056400  0.850400  0.139000  1.0  0.0926
  N  N387  1  0.075200  0.768600  0.117200  1.0  -0.5557
  N  N388  1  0.474600  0.686100  0.009600  1.0  -0.3642
  Cl  Cl389  1  0.879390  0.879390  0.000000  1.0  1.6215
  Cl  Cl390  1  0.268040  0.268040  0.000000  1.0  1.4501
  Cl  Cl391  1  0.120610  0.120610  0.500000  1.0  1.6212
  Cl  Cl392  1  0.731960  0.731960  0.500000  1.0  1.4544
  Cl  Cl393  1  0.620610  0.379390  0.250000  1.0  1.6213
  Cl  Cl394  1  0.231960  0.768040  0.250000  1.0  1.4549
  Cl  Cl395  1  0.379390  0.620610  0.750000  1.0  1.6215
  Cl  Cl396  1  0.768040  0.231960  0.750000  1.0  1.449
  O  O397  1  0.820700  0.901700  0.048700  1.0  -0.6628
  O  O398  1  0.940400  0.859200  0.034100  1.0  -0.5571
  O  O399  1  0.901700  0.820700  0.951300  1.0  -0.6625
  O  O400  1  0.859200  0.940400  0.965900  1.0  -0.5566
  O  O401  1  0.235700  0.228400  0.049400  1.0  -0.6297
  O  O402  1  0.337000  0.217000  0.998600  1.0  -0.5024
  O  O403  1  0.228400  0.235700  0.950600  1.0  -0.6316
  O  O404  1  0.217000  0.337000  0.001400  1.0  -0.5008
  O  O405  1  0.179300  0.098300  0.548700  1.0  -0.6623
  O  O406  1  0.059600  0.140800  0.534100  1.0  -0.5567
  O  O407  1  0.098300  0.179300  0.451300  1.0  -0.6629
  O  O408  1  0.140800  0.059600  0.465900  1.0  -0.5577
  O  O409  1  0.764300  0.771600  0.549400  1.0  -0.6297
  O  O410  1  0.663000  0.783000  0.498600  1.0  -0.5008
  O  O411  1  0.771600  0.764300  0.450600  1.0  -0.6308
  O  O412  1  0.783000  0.663000  0.501400  1.0  -0.5011
  O  O413  1  0.598300  0.320700  0.298700  1.0  -0.6628
  O  O414  1  0.640800  0.440400  0.284100  1.0  -0.5569
  O  O415  1  0.679300  0.401700  0.201300  1.0  -0.6628
  O  O416  1  0.559600  0.359200  0.215900  1.0  -0.5569
  O  O417  1  0.271600  0.735700  0.299400  1.0  -0.6293
  O  O418  1  0.283000  0.837000  0.248600  1.0  -0.5009
  O  O419  1  0.264300  0.728400  0.200600  1.0  -0.6296
  O  O420  1  0.163000  0.717000  0.251400  1.0  -0.5005
  O  O421  1  0.401700  0.679300  0.798700  1.0  -0.6635
  O  O422  1  0.359200  0.559600  0.784100  1.0  -0.5567
  O  O423  1  0.320700  0.598300  0.701300  1.0  -0.6632
  O  O424  1  0.440400  0.640800  0.715900  1.0  -0.5573
  O  O425  1  0.728400  0.264300  0.799400  1.0  -0.6305
  O  O426  1  0.717000  0.163000  0.748600  1.0  -0.5016
  O  O427  1  0.735700  0.271600  0.700600  1.0  -0.6303
  O  O428  1  0.837000  0.283000  0.751400  1.0  -0.5018
