# generated using pymatgen
data_CdH36(C4N)12
_symmetry_space_group_name_H-M   'P 1'
_cell_length_a   15.86350000
_cell_length_b   15.86350000
_cell_length_c   21.46300000
_cell_angle_alpha   90.00000000
_cell_angle_beta   90.00000000
_cell_angle_gamma   90.00000000
_symmetry_Int_Tables_number   1
_chemical_formula_structural   CdH36(C4N)12
_chemical_formula_sum   'Cd4 H144 C192 N48'
_cell_volume   5401.17751998
_cell_formula_units_Z   4
loop_
 _symmetry_equiv_pos_site_id
 _symmetry_equiv_pos_as_xyz
  1  'x, y, z'
loop_
 _atom_site_type_symbol
 _atom_site_label
 _atom_site_symmetry_multiplicity
 _atom_site_fract_x
 _atom_site_fract_y
 _atom_site_fract_z
 _atom_site_occupancy
 _atom_site_charge
  Cd  Cd1  1  0.940630  0.059370  0.750000  1.0  0.7757
  Cd  Cd2  1  0.059370  0.940630  0.250000  1.0  0.7758
  Cd  Cd3  1  0.440630  0.440630  0.000000  1.0  0.7758
  Cd  Cd4  1  0.559370  0.559370  0.500000  1.0  0.7756
  H  H5  1  0.611600  0.538800  0.652000  1.0  0.0595
  H  H6  1  0.714800  0.588100  0.718000  1.0  0.1139
  H  H7  1  0.740400  0.789100  0.604100  1.0  0.1098
  H  H8  1  0.640000  0.732000  0.540200  1.0  0.0628
  H  H9  1  0.799400  0.651600  0.781200  1.0  0.0737
  H  H10  1  0.915500  0.699400  0.836200  1.0  0.0927
  H  H11  1  0.007100  0.800900  0.791900  1.0  0.0818
  H  H12  1  0.860200  0.805800  0.638000  1.0  0.1127
  H  H13  1  0.122400  0.047500  0.539300  1.0  0.0989
  H  H14  1  0.235400  0.068400  0.473000  1.0  0.0902
  H  H15  1  0.339000  0.966900  0.462400  1.0  0.0963
  H  H16  1  0.223600  0.825600  0.593400  1.0  0.0803
  H  H17  1  0.400800  0.851200  0.435000  1.0  0.12
  H  H18  1  0.494300  0.739900  0.424800  1.0  0.0526
  H  H19  1  0.439300  0.658000  0.592100  1.0  0.0484
  H  H20  1  0.346100  0.767900  0.607400  1.0  0.1116
  H  H21  1  0.102200  0.741400  0.648900  1.0  0.316
  H  H22  1  0.027600  0.743800  0.607200  1.0  0.3116
  H  H23  1  0.388400  0.461200  0.152000  1.0  0.0597
  H  H24  1  0.285200  0.411900  0.218000  1.0  0.114
  H  H25  1  0.259600  0.210900  0.104100  1.0  0.1091
  H  H26  1  0.360000  0.268000  0.040200  1.0  0.0632
  H  H27  1  0.200600  0.348400  0.281200  1.0  0.0734
  H  H28  1  0.084500  0.300600  0.336200  1.0  0.0927
  H  H29  1  0.992900  0.199100  0.291900  1.0  0.0817
  H  H30  1  0.139800  0.194200  0.138000  1.0  0.1126
  H  H31  1  0.877600  0.952500  0.039300  1.0  0.0989
  H  H32  1  0.764600  0.931600  0.973000  1.0  0.0903
  H  H33  1  0.661000  0.033100  0.962400  1.0  0.0953
  H  H34  1  0.776400  0.174400  0.093400  1.0  0.0799
  H  H35  1  0.599200  0.148800  0.935000  1.0  0.1195
  H  H36  1  0.505700  0.260100  0.924800  1.0  0.0523
  H  H37  1  0.560700  0.342000  0.092100  1.0  0.048
  H  H38  1  0.653900  0.232100  0.107400  1.0  0.1117
  H  H39  1  0.897800  0.258600  0.148900  1.0  0.3159
  H  H40  1  0.972400  0.256200  0.107200  1.0  0.3113
  H  H41  1  0.961200  0.111600  0.902000  1.0  0.0601
  H  H42  1  0.911900  0.214800  0.968000  1.0  0.1128
  H  H43  1  0.710900  0.240400  0.854100  1.0  0.1112
  H  H44  1  0.768000  0.140000  0.790200  1.0  0.0622
  H  H45  1  0.848400  0.299400  0.031200  1.0  0.0727
  H  H46  1  0.800600  0.415500  0.086200  1.0  0.0922
  H  H47  1  0.699100  0.507100  0.041900  1.0  0.0822
  H  H48  1  0.694200  0.360200  0.888000  1.0  0.1132
  H  H49  1  0.452500  0.622400  0.789300  1.0  0.0991
  H  H50  1  0.431600  0.735400  0.723000  1.0  0.0905
  H  H51  1  0.533100  0.839000  0.712400  1.0  0.0962
  H  H52  1  0.674400  0.723600  0.843400  1.0  0.0794
  H  H53  1  0.648800  0.900800  0.685000  1.0  0.1194
  H  H54  1  0.760100  0.994300  0.674800  1.0  0.0517
  H  H55  1  0.842000  0.939300  0.842100  1.0  0.0477
  H  H56  1  0.732100  0.846100  0.857400  1.0  0.1117
  H  H57  1  0.758600  0.602200  0.898900  1.0  0.3159
  H  H58  1  0.756200  0.527600  0.857200  1.0  0.3112
  H  H59  1  0.038800  0.888400  0.402000  1.0  0.0596
  H  H60  1  0.088100  0.785200  0.468000  1.0  0.1129
  H  H61  1  0.289100  0.759600  0.354100  1.0  0.1112
  H  H62  1  0.232000  0.860000  0.290200  1.0  0.0634
  H  H63  1  0.151600  0.700600  0.531200  1.0  0.0728
  H  H64  1  0.199400  0.584500  0.586200  1.0  0.0923
  H  H65  1  0.300900  0.492900  0.541900  1.0  0.0821
  H  H66  1  0.305800  0.639800  0.388000  1.0  0.113
  H  H67  1  0.547500  0.377600  0.289300  1.0  0.0993
  H  H68  1  0.568400  0.264600  0.223000  1.0  0.0903
  H  H69  1  0.466900  0.161000  0.212400  1.0  0.0961
  H  H70  1  0.325600  0.276400  0.343400  1.0  0.0794
  H  H71  1  0.351200  0.099200  0.185000  1.0  0.1198
  H  H72  1  0.239900  0.005700  0.174800  1.0  0.0518
  H  H73  1  0.158000  0.060700  0.342100  1.0  0.0478
  H  H74  1  0.267900  0.153900  0.357400  1.0  0.1118
  H  H75  1  0.241400  0.397800  0.398900  1.0  0.3159
  H  H76  1  0.243800  0.472400  0.357200  1.0  0.3113
  H  H77  1  0.888400  0.038800  0.598000  1.0  0.0597
  H  H78  1  0.785200  0.088100  0.532000  1.0  0.1138
  H  H79  1  0.759600  0.289100  0.645900  1.0  0.1103
  H  H80  1  0.860000  0.232000  0.709800  1.0  0.0628
  H  H81  1  0.700600  0.151600  0.468800  1.0  0.0726
  H  H82  1  0.584500  0.199400  0.413800  1.0  0.0929
  H  H83  1  0.492900  0.300900  0.458100  1.0  0.0803
  H  H84  1  0.639800  0.305800  0.612000  1.0  0.1123
  H  H85  1  0.377600  0.547500  0.710700  1.0  0.0989
  H  H86  1  0.264600  0.568400  0.777000  1.0  0.0903
  H  H87  1  0.161000  0.466900  0.787600  1.0  0.0949
  H  H88  1  0.276400  0.325600  0.656600  1.0  0.0806
  H  H89  1  0.099200  0.351200  0.815000  1.0  0.1198
  H  H90  1  0.005700  0.239900  0.825200  1.0  0.0526
  H  H91  1  0.060700  0.158000  0.657900  1.0  0.0482
  H  H92  1  0.153900  0.267900  0.642600  1.0  0.1115
  H  H93  1  0.397800  0.241400  0.601100  1.0  0.3142
  H  H94  1  0.472400  0.243800  0.642800  1.0  0.3115
  H  H95  1  0.111600  0.961200  0.098000  1.0  0.0599
  H  H96  1  0.214800  0.911900  0.032000  1.0  0.1137
  H  H97  1  0.240400  0.710900  0.145900  1.0  0.1107
  H  H98  1  0.140000  0.768000  0.209800  1.0  0.0634
  H  H99  1  0.299400  0.848400  0.968800  1.0  0.0742
  H  H100  1  0.415500  0.800600  0.913800  1.0  0.0934
  H  H101  1  0.507100  0.699100  0.958100  1.0  0.0804
  H  H102  1  0.360200  0.694200  0.112000  1.0  0.1126
  H  H103  1  0.622400  0.452500  0.210700  1.0  0.0994
  H  H104  1  0.735400  0.431600  0.277000  1.0  0.0903
  H  H105  1  0.839000  0.533100  0.287600  1.0  0.0948
  H  H106  1  0.723600  0.674400  0.156600  1.0  0.0802
  H  H107  1  0.900800  0.648800  0.315000  1.0  0.12
  H  H108  1  0.994300  0.760100  0.325200  1.0  0.0522
  H  H109  1  0.939300  0.842000  0.157900  1.0  0.0482
  H  H110  1  0.846100  0.732100  0.142600  1.0  0.1115
  H  H111  1  0.602200  0.758600  0.101100  1.0  0.3154
  H  H112  1  0.527600  0.756200  0.142800  1.0  0.3124
  H  H113  1  0.538800  0.611600  0.348000  1.0  0.0598
  H  H114  1  0.588100  0.714800  0.282000  1.0  0.1127
  H  H115  1  0.789100  0.740400  0.395900  1.0  0.112
  H  H116  1  0.732000  0.640000  0.459800  1.0  0.0632
  H  H117  1  0.651600  0.799400  0.218800  1.0  0.0724
  H  H118  1  0.699400  0.915500  0.163800  1.0  0.0924
  H  H119  1  0.800900  0.007100  0.208100  1.0  0.0804
  H  H120  1  0.805800  0.860200  0.362000  1.0  0.1132
  H  H121  1  0.047500  0.122400  0.460700  1.0  0.0998
  H  H122  1  0.068400  0.235400  0.527000  1.0  0.0903
  H  H123  1  0.966900  0.339000  0.537600  1.0  0.0947
  H  H124  1  0.825600  0.223600  0.406600  1.0  0.08
  H  H125  1  0.851200  0.400800  0.565000  1.0  0.1195
  H  H126  1  0.739900  0.494300  0.575200  1.0  0.0511
  H  H127  1  0.658000  0.439300  0.407900  1.0  0.0479
  H  H128  1  0.767900  0.346100  0.392600  1.0  0.1115
  H  H129  1  0.741400  0.102200  0.351100  1.0  0.3151
  H  H130  1  0.743800  0.027600  0.392800  1.0  0.311
  H  H131  1  0.461200  0.388400  0.848000  1.0  0.0599
  H  H132  1  0.411900  0.285200  0.782000  1.0  0.1128
  H  H133  1  0.210900  0.259600  0.895900  1.0  0.1124
  H  H134  1  0.268000  0.360000  0.959800  1.0  0.0618
  H  H135  1  0.348400  0.200600  0.718800  1.0  0.0731
  H  H136  1  0.300600  0.084500  0.663800  1.0  0.0926
  H  H137  1  0.199100  0.992900  0.708100  1.0  0.0806
  H  H138  1  0.194200  0.139800  0.862000  1.0  0.113
  H  H139  1  0.952500  0.877600  0.960700  1.0  0.0996
  H  H140  1  0.931600  0.764600  0.027000  1.0  0.0901
  H  H141  1  0.033100  0.661000  0.037600  1.0  0.0955
  H  H142  1  0.174400  0.776400  0.906600  1.0  0.0794
  H  H143  1  0.148800  0.599200  0.065000  1.0  0.12
  H  H144  1  0.260100  0.505700  0.075200  1.0  0.0522
  H  H145  1  0.342000  0.560700  0.907900  1.0  0.0476
  H  H146  1  0.232100  0.653900  0.892600  1.0  0.1116
  H  H147  1  0.258600  0.897800  0.851100  1.0  0.3156
  H  H148  1  0.256200  0.972400  0.892800  1.0  0.3107
  C  C149  1  0.640700  0.589000  0.640900  1.0  0.1425
  C  C150  1  0.702100  0.618200  0.680900  1.0  -0.2191
  C  C151  1  0.745700  0.692100  0.666500  1.0  0.087
  C  C152  1  0.717300  0.735400  0.613800  1.0  -0.2391
  C  C153  1  0.656700  0.701400  0.576200  1.0  0.1334
  C  C154  1  0.818300  0.722500  0.703700  1.0  0.0229
  C  C155  1  0.835600  0.692400  0.762900  1.0  -0.0961
  C  C156  1  0.904500  0.720900  0.795600  1.0  -0.1066
  C  C157  1  0.959100  0.781600  0.769600  1.0  -0.1035
  C  C158  1  0.940900  0.812400  0.710600  1.0  -0.0432
  C  C159  1  0.871900  0.783700  0.678300  1.0  -0.1373
  C  C160  1  0.996200  0.874700  0.680000  1.0  0.2358
  C  C161  1  0.092700  0.925900  0.617300  1.0  0.2359
  C  C162  1  0.162400  0.934500  0.573100  1.0  -0.0045
  C  C163  1  0.165900  0.006500  0.536700  1.0  -0.1265
  C  C164  1  0.232400  0.018300  0.497100  1.0  -0.0913
  C  C165  1  0.294700  0.958800  0.491600  1.0  -0.131
  C  C166  1  0.293200  0.886600  0.528600  1.0  0.0031
  C  C167  1  0.226200  0.875100  0.568600  1.0  -0.145
  C  C168  1  0.359400  0.819500  0.521900  1.0  0.0801
  C  C169  1  0.406800  0.811600  0.467800  1.0  -0.2214
  C  C170  1  0.463000  0.745000  0.462400  1.0  0.1577
  C  C171  1  0.431400  0.697700  0.559400  1.0  0.1638
  C  C172  1  0.374600  0.762700  0.568700  1.0  -0.2224
  C  C173  1  0.359300  0.411000  0.140900  1.0  0.1423
  C  C174  1  0.297900  0.381800  0.180900  1.0  -0.2199
  C  C175  1  0.254300  0.307900  0.166500  1.0  0.0879
  C  C176  1  0.282700  0.264600  0.113800  1.0  -0.2397
  C  C177  1  0.343300  0.298600  0.076200  1.0  0.1341
  C  C178  1  0.181700  0.277500  0.203700  1.0  0.0223
  C  C179  1  0.164400  0.307600  0.262900  1.0  -0.0975
  C  C180  1  0.095500  0.279100  0.295600  1.0  -0.1074
  C  C181  1  0.040900  0.218400  0.269600  1.0  -0.103
  C  C182  1  0.059100  0.187600  0.210600  1.0  -0.0441
  C  C183  1  0.128100  0.216300  0.178300  1.0  -0.1366
  C  C184  1  0.003800  0.125300  0.180000  1.0  0.2359
  C  C185  1  0.907300  0.074100  0.117300  1.0  0.2359
  C  C186  1  0.837600  0.065500  0.073100  1.0  -0.0044
  C  C187  1  0.834100  0.993500  0.036700  1.0  -0.1275
  C  C188  1  0.767600  0.981700  0.997100  1.0  -0.0913
  C  C189  1  0.705300  0.041200  0.991600  1.0  -0.1306
  C  C190  1  0.706800  0.113400  0.028600  1.0  0.0042
  C  C191  1  0.773800  0.124900  0.068600  1.0  -0.1446
  C  C192  1  0.640600  0.180500  0.021900  1.0  0.0802
  C  C193  1  0.593200  0.188400  0.967800  1.0  -0.2217
  C  C194  1  0.537000  0.255000  0.962400  1.0  0.1565
  C  C195  1  0.568600  0.302300  0.059400  1.0  0.1635
  C  C196  1  0.625400  0.237300  0.068700  1.0  -0.2232
  C  C197  1  0.911000  0.140700  0.890900  1.0  0.1429
  C  C198  1  0.881800  0.202100  0.930900  1.0  -0.2167
  C  C199  1  0.807900  0.245700  0.916500  1.0  0.0873
  C  C200  1  0.764600  0.217300  0.863800  1.0  -0.2369
  C  C201  1  0.798600  0.156700  0.826200  1.0  0.1355
  C  C202  1  0.777500  0.318300  0.953700  1.0  0.0228
  C  C203  1  0.807600  0.335600  0.012900  1.0  -0.0944
  C  C204  1  0.779100  0.404500  0.045600  1.0  -0.107
  C  C205  1  0.718400  0.459100  0.019600  1.0  -0.1043
  C  C206  1  0.687600  0.440900  0.960600  1.0  -0.0435
  C  C207  1  0.716300  0.371900  0.928300  1.0  -0.1365
  C  C208  1  0.625300  0.496200  0.930000  1.0  0.2349
  C  C209  1  0.574100  0.592700  0.867300  1.0  0.2356
  C  C210  1  0.565500  0.662400  0.823100  1.0  -0.0055
  C  C211  1  0.493500  0.665900  0.786700  1.0  -0.1249
  C  C212  1  0.481700  0.732400  0.747100  1.0  -0.0928
  C  C213  1  0.541200  0.794700  0.741600  1.0  -0.131
  C  C214  1  0.613400  0.793200  0.778600  1.0  0.0043
  C  C215  1  0.624900  0.726200  0.818600  1.0  -0.1454
  C  C216  1  0.680500  0.859400  0.771900  1.0  0.0787
  C  C217  1  0.688400  0.906800  0.717800  1.0  -0.222
  C  C218  1  0.755000  0.963000  0.712400  1.0  0.1591
  C  C219  1  0.802300  0.931400  0.809400  1.0  0.1645
  C  C220  1  0.737300  0.874600  0.818700  1.0  -0.2221
  C  C221  1  0.089000  0.859300  0.390900  1.0  0.144
  C  C222  1  0.118200  0.797900  0.430900  1.0  -0.2178
  C  C223  1  0.192100  0.754300  0.416500  1.0  0.0874
  C  C224  1  0.235400  0.782700  0.363800  1.0  -0.2386
  C  C225  1  0.201400  0.843300  0.326200  1.0  0.1356
  C  C226  1  0.222500  0.681700  0.453700  1.0  0.0227
  C  C227  1  0.192400  0.664400  0.512900  1.0  -0.093
  C  C228  1  0.220900  0.595500  0.545600  1.0  -0.1067
  C  C229  1  0.281600  0.540900  0.519600  1.0  -0.1055
  C  C230  1  0.312400  0.559100  0.460600  1.0  -0.0448
  C  C231  1  0.283700  0.628100  0.428300  1.0  -0.1366
  C  C232  1  0.374700  0.503800  0.430000  1.0  0.2347
  C  C233  1  0.425900  0.407300  0.367300  1.0  0.2357
  C  C234  1  0.434500  0.337600  0.323100  1.0  -0.0053
  C  C235  1  0.506500  0.334100  0.286700  1.0  -0.1254
  C  C236  1  0.518300  0.267600  0.247100  1.0  -0.0923
  C  C237  1  0.458800  0.205300  0.241600  1.0  -0.1323
  C  C238  1  0.386600  0.206800  0.278600  1.0  0.0023
  C  C239  1  0.375100  0.273800  0.318600  1.0  -0.1463
  C  C240  1  0.319500  0.140600  0.271900  1.0  0.0808
  C  C241  1  0.311600  0.093200  0.217800  1.0  -0.2234
  C  C242  1  0.245000  0.037000  0.212400  1.0  0.1591
  C  C243  1  0.197700  0.068600  0.309400  1.0  0.1646
  C  C244  1  0.262700  0.125400  0.318700  1.0  -0.2214
  C  C245  1  0.859300  0.089000  0.609100  1.0  0.1423
  C  C246  1  0.797900  0.118200  0.569100  1.0  -0.2199
  C  C247  1  0.754300  0.192100  0.583500  1.0  0.0869
  C  C248  1  0.782700  0.235400  0.636200  1.0  -0.2396
  C  C249  1  0.843300  0.201400  0.673800  1.0  0.1337
  C  C250  1  0.681700  0.222500  0.546300  1.0  0.0222
  C  C251  1  0.664400  0.192400  0.487100  1.0  -0.0964
  C  C252  1  0.595500  0.220900  0.454400  1.0  -0.1054
  C  C253  1  0.540900  0.281600  0.480400  1.0  -0.1029
  C  C254  1  0.559100  0.312400  0.539400  1.0  -0.0439
  C  C255  1  0.628100  0.283700  0.571700  1.0  -0.1367
  C  C256  1  0.503800  0.374700  0.570000  1.0  0.2361
  C  C257  1  0.407300  0.425900  0.632700  1.0  0.2362
  C  C258  1  0.337600  0.434500  0.676900  1.0  -0.0047
  C  C259  1  0.334100  0.506500  0.713300  1.0  -0.1275
  C  C260  1  0.267600  0.518300  0.752900  1.0  -0.0918
  C  C261  1  0.205300  0.458800  0.758400  1.0  -0.1312
  C  C262  1  0.206800  0.386600  0.721400  1.0  0.0053
  C  C263  1  0.273800  0.375100  0.681400  1.0  -0.1446
  C  C264  1  0.140600  0.319500  0.728100  1.0  0.0795
  C  C265  1  0.093200  0.311600  0.782200  1.0  -0.2223
  C  C266  1  0.037000  0.245000  0.787600  1.0  0.157
  C  C267  1  0.068600  0.197700  0.690600  1.0  0.1634
  C  C268  1  0.125400  0.262700  0.681300  1.0  -0.2238
  C  C269  1  0.140700  0.911000  0.109100  1.0  0.1428
  C  C270  1  0.202100  0.881800  0.069100  1.0  -0.219
  C  C271  1  0.245700  0.807900  0.083500  1.0  0.0858
  C  C272  1  0.217300  0.764600  0.136200  1.0  -0.24
  C  C273  1  0.156700  0.798600  0.173800  1.0  0.1324
  C  C274  1  0.318300  0.777500  0.046300  1.0  0.0219
  C  C275  1  0.335600  0.807600  0.987100  1.0  -0.0959
  C  C276  1  0.404500  0.779100  0.954400  1.0  -0.1066
  C  C277  1  0.459100  0.718400  0.980400  1.0  -0.1043
  C  C278  1  0.440900  0.687600  0.039400  1.0  -0.0424
  C  C279  1  0.371900  0.716300  0.071700  1.0  -0.1368
  C  C280  1  0.496200  0.625300  0.070000  1.0  0.2362
  C  C281  1  0.592700  0.574100  0.132700  1.0  0.2355
  C  C282  1  0.662400  0.565500  0.176900  1.0  -0.0045
  C  C283  1  0.665900  0.493500  0.213300  1.0  -0.1267
  C  C284  1  0.732400  0.481700  0.252900  1.0  -0.091
  C  C285  1  0.794700  0.541200  0.258400  1.0  -0.1313
  C  C286  1  0.793200  0.613400  0.221400  1.0  0.0027
  C  C287  1  0.726200  0.624900  0.181400  1.0  -0.1456
  C  C288  1  0.859400  0.680500  0.228100  1.0  0.0804
  C  C289  1  0.906800  0.688400  0.282200  1.0  -0.2225
  C  C290  1  0.963000  0.755000  0.287600  1.0  0.1568
  C  C291  1  0.931400  0.802300  0.190600  1.0  0.1638
  C  C292  1  0.874600  0.737300  0.181300  1.0  -0.2241
  C  C293  1  0.589000  0.640700  0.359100  1.0  0.1443
  C  C294  1  0.618200  0.702100  0.319100  1.0  -0.2178
  C  C295  1  0.692100  0.745700  0.333500  1.0  0.0865
  C  C296  1  0.735400  0.717300  0.386200  1.0  -0.2387
  C  C297  1  0.701400  0.656700  0.423800  1.0  0.1351
  C  C298  1  0.722500  0.818300  0.296300  1.0  0.0221
  C  C299  1  0.692400  0.835600  0.237100  1.0  -0.0928
  C  C300  1  0.720900  0.904500  0.204400  1.0  -0.1057
  C  C301  1  0.781600  0.959100  0.230400  1.0  -0.1047
  C  C302  1  0.812400  0.940900  0.289400  1.0  -0.0442
  C  C303  1  0.783700  0.871900  0.321700  1.0  -0.1361
  C  C304  1  0.874700  0.996200  0.320000  1.0  0.235
  C  C305  1  0.925900  0.092700  0.382700  1.0  0.2355
  C  C306  1  0.934500  0.162400  0.426900  1.0  -0.0052
  C  C307  1  0.006500  0.165900  0.463300  1.0  -0.1265
  C  C308  1  0.018300  0.232400  0.502900  1.0  -0.0931
  C  C309  1  0.958800  0.294700  0.508400  1.0  -0.1314
  C  C310  1  0.886600  0.293200  0.471400  1.0  0.0033
  C  C311  1  0.875100  0.226200  0.431400  1.0  -0.1466
  C  C312  1  0.819500  0.359400  0.478100  1.0  0.0807
  C  C313  1  0.811600  0.406800  0.532200  1.0  -0.2229
  C  C314  1  0.745000  0.463000  0.537600  1.0  0.1592
  C  C315  1  0.697700  0.431400  0.440600  1.0  0.1646
  C  C316  1  0.762700  0.374600  0.431300  1.0  -0.2229
  C  C317  1  0.411000  0.359300  0.859100  1.0  0.1439
  C  C318  1  0.381800  0.297900  0.819100  1.0  -0.2164
  C  C319  1  0.307900  0.254300  0.833500  1.0  0.0862
  C  C320  1  0.264600  0.282700  0.886200  1.0  -0.2376
  C  C321  1  0.298600  0.343300  0.923800  1.0  0.1352
  C  C322  1  0.277500  0.181700  0.796300  1.0  0.0222
  C  C323  1  0.307600  0.164400  0.737100  1.0  -0.0934
  C  C324  1  0.279100  0.095500  0.704400  1.0  -0.106
  C  C325  1  0.218400  0.040900  0.730400  1.0  -0.1058
  C  C326  1  0.187600  0.059100  0.789400  1.0  -0.0432
  C  C327  1  0.216300  0.128100  0.821700  1.0  -0.1365
  C  C328  1  0.125300  0.003800  0.820000  1.0  0.2349
  C  C329  1  0.074100  0.907300  0.882700  1.0  0.2356
  C  C330  1  0.065500  0.837600  0.926900  1.0  -0.0055
  C  C331  1  0.993500  0.834100  0.963300  1.0  -0.1246
  C  C332  1  0.981700  0.767600  0.002900  1.0  -0.0928
  C  C333  1  0.041200  0.705300  0.008400  1.0  -0.1319
  C  C334  1  0.113400  0.706800  0.971400  1.0  0.0037
  C  C335  1  0.124900  0.773800  0.931400  1.0  -0.1459
  C  C336  1  0.180500  0.640600  0.978100  1.0  0.0789
  C  C337  1  0.188400  0.593200  0.032200  1.0  -0.2233
  C  C338  1  0.255000  0.537000  0.037600  1.0  0.1586
  C  C339  1  0.302300  0.568600  0.940600  1.0  0.1641
  C  C340  1  0.237300  0.625400  0.931300  1.0  -0.222
  N  N341  1  0.619400  0.626700  0.587700  1.0  -0.369
  N  N342  1  0.993600  0.956500  0.683100  1.0  -0.2241
  N  N343  1  0.054400  0.989500  0.644100  1.0  -0.3082
  N  N344  1  0.057400  0.852800  0.638840  1.0  0.0613
  N  N345  1  0.076300  0.770400  0.617800  1.0  -0.5807
  N  N346  1  0.475700  0.687700  0.507000  1.0  -0.3743
  N  N347  1  0.380600  0.373300  0.087700  1.0  -0.369
  N  N348  1  0.006400  0.043500  0.183100  1.0  -0.2233
  N  N349  1  0.945600  0.010500  0.144100  1.0  -0.3081
  N  N350  1  0.942600  0.147200  0.138840  1.0  0.0616
  N  N351  1  0.923700  0.229600  0.117800  1.0  -0.5818
  N  N352  1  0.524300  0.312300  0.007000  1.0  -0.3743
  N  N353  1  0.873300  0.119400  0.837700  1.0  -0.3681
  N  N354  1  0.543500  0.493600  0.933100  1.0  -0.2241
  N  N355  1  0.510500  0.554400  0.894100  1.0  -0.3088
  N  N356  1  0.647200  0.557400  0.888840  1.0  0.0615
  N  N357  1  0.729600  0.576300  0.867800  1.0  -0.5798
  N  N358  1  0.812300  0.975700  0.757000  1.0  -0.3755
  N  N359  1  0.126700  0.880600  0.337700  1.0  -0.3679
  N  N360  1  0.456500  0.506400  0.433100  1.0  -0.2231
  N  N361  1  0.489500  0.445600  0.394100  1.0  -0.3087
  N  N362  1  0.352800  0.442600  0.388840  1.0  0.0608
  N  N363  1  0.270400  0.423700  0.367800  1.0  -0.5795
  N  N364  1  0.187700  0.024300  0.257000  1.0  -0.374
  N  N365  1  0.880600  0.126700  0.662300  1.0  -0.3687
  N  N366  1  0.506400  0.456500  0.566900  1.0  -0.2236
  N  N367  1  0.445600  0.489500  0.605900  1.0  -0.3064
  N  N368  1  0.442600  0.352800  0.611160  1.0  0.0616
  N  N369  1  0.423700  0.270400  0.632200  1.0  -0.5804
  N  N370  1  0.024300  0.187700  0.743000  1.0  -0.3747
  N  N371  1  0.119400  0.873300  0.162300  1.0  -0.3691
  N  N372  1  0.493600  0.543500  0.066900  1.0  -0.223
  N  N373  1  0.554400  0.510500  0.105900  1.0  -0.3062
  N  N374  1  0.557400  0.647200  0.111160  1.0  0.0612
  N  N375  1  0.576300  0.729600  0.132200  1.0  -0.5808
  N  N376  1  0.975700  0.812300  0.243000  1.0  -0.3739
  N  N377  1  0.626700  0.619400  0.412300  1.0  -0.3676
  N  N378  1  0.956500  0.993600  0.316900  1.0  -0.223
  N  N379  1  0.989500  0.054400  0.355900  1.0  -0.3071
  N  N380  1  0.852800  0.057400  0.361160  1.0  0.0606
  N  N381  1  0.770400  0.076300  0.382200  1.0  -0.5792
  N  N382  1  0.687700  0.475700  0.493000  1.0  -0.3744
  N  N383  1  0.373300  0.380600  0.912300  1.0  -0.3681
  N  N384  1  0.043500  0.006400  0.816900  1.0  -0.223
  N  N385  1  0.010500  0.945600  0.855900  1.0  -0.3069
  N  N386  1  0.147200  0.942600  0.861160  1.0  0.0619
  N  N387  1  0.229600  0.923700  0.882200  1.0  -0.5799
  N  N388  1  0.312300  0.524300  0.993000  1.0  -0.3752
