# generated using pymatgen
data_CdH36C48N12ClO4
_symmetry_space_group_name_H-M   'P 1'
_cell_length_a   15.84960000
_cell_length_b   15.84960000
_cell_length_c   21.70900000
_cell_angle_alpha   90.00000000
_cell_angle_beta   90.00000000
_cell_angle_gamma   90.00000000
_symmetry_Int_Tables_number   1
_chemical_formula_structural   CdH36C48N12ClO4
_chemical_formula_sum   'Cd4 H144 C192 N48 Cl4 O16'
_cell_volume   5453.51398585
_cell_formula_units_Z   4
loop_
 _symmetry_equiv_pos_site_id
 _symmetry_equiv_pos_as_xyz
  1  'x, y, z'
loop_
 _atom_site_type_symbol
 _atom_site_label
 _atom_site_symmetry_multiplicity
 _atom_site_fract_x
 _atom_site_fract_y
 _atom_site_fract_z
 _atom_site_occupancy
 _atom_site_charge
  Cd  Cd1  1  0.941210  0.058790  0.750000  1.0  0.7887
  Cd  Cd2  1  0.058790  0.941210  0.250000  1.0  0.7888
  Cd  Cd3  1  0.441210  0.441210  0.500000  1.0  0.7889
  Cd  Cd4  1  0.558790  0.558790  0.000000  1.0  0.7887
  H  H5  1  0.464200  0.386700  0.649300  1.0  0.0748
  H  H6  1  0.415200  0.286500  0.715200  1.0  0.1296
  H  H7  1  0.212400  0.260900  0.604200  1.0  0.127
  H  H8  1  0.269800  0.361100  0.540900  1.0  0.0693
  H  H9  1  0.347300  0.204500  0.780400  1.0  0.0771
  H  H10  1  0.295700  0.090400  0.835600  1.0  0.0956
  H  H11  1  0.197300  0.999000  0.792600  1.0  0.0879
  H  H12  1  0.197700  0.139800  0.637300  1.0  0.1106
  H  H13  1  0.956100  0.881200  0.540800  1.0  0.1042
  H  H14  1  0.935000  0.769600  0.473100  1.0  0.0977
  H  H15  1  0.037400  0.665600  0.461700  1.0  0.1069
  H  H16  1  0.175400  0.776500  0.595600  1.0  0.0879
  H  H17  1  0.150400  0.601700  0.437300  1.0  0.1261
  H  H18  1  0.259600  0.504400  0.427900  1.0  0.0594
  H  H19  1  0.342400  0.559900  0.592300  1.0  0.0506
  H  H20  1  0.235200  0.654100  0.608300  1.0  0.1208
  H  H21  1  0.259700  0.897600  0.647700  1.0  0.313
  H  H22  1  0.257800  0.975300  0.609400  1.0  0.3243
  H  H23  1  0.535800  0.613300  0.149300  1.0  0.0752
  H  H24  1  0.584800  0.713500  0.215200  1.0  0.1299
  H  H25  1  0.787600  0.739100  0.104200  1.0  0.127
  H  H26  1  0.730200  0.638900  0.040900  1.0  0.0698
  H  H27  1  0.652700  0.795500  0.280400  1.0  0.0773
  H  H28  1  0.704300  0.909600  0.335600  1.0  0.0962
  H  H29  1  0.802700  0.001000  0.292600  1.0  0.0874
  H  H30  1  0.802300  0.860200  0.137300  1.0  0.1113
  H  H31  1  0.043900  0.118800  0.040800  1.0  0.1042
  H  H32  1  0.065000  0.230400  0.973100  1.0  0.0984
  H  H33  1  0.962600  0.334400  0.961700  1.0  0.1072
  H  H34  1  0.824600  0.223500  0.095600  1.0  0.0879
  H  H35  1  0.849600  0.398300  0.937300  1.0  0.1257
  H  H36  1  0.740400  0.495600  0.927900  1.0  0.0594
  H  H37  1  0.657600  0.440100  0.092300  1.0  0.0509
  H  H38  1  0.764800  0.345900  0.108300  1.0  0.1208
  H  H39  1  0.740300  0.102400  0.147700  1.0  0.3134
  H  H40  1  0.742200  0.024700  0.109400  1.0  0.3251
  H  H41  1  0.113300  0.964200  0.399300  1.0  0.0755
  H  H42  1  0.213500  0.915200  0.465200  1.0  0.1305
  H  H43  1  0.239100  0.712400  0.354200  1.0  0.1272
  H  H44  1  0.138900  0.769800  0.290900  1.0  0.0689
  H  H45  1  0.295500  0.847300  0.530400  1.0  0.0773
  H  H46  1  0.409600  0.795700  0.585600  1.0  0.0966
  H  H47  1  0.501000  0.697300  0.542600  1.0  0.0873
  H  H48  1  0.360200  0.697700  0.387300  1.0  0.1107
  H  H49  1  0.618800  0.456100  0.290800  1.0  0.1039
  H  H50  1  0.730400  0.435000  0.223100  1.0  0.0976
  H  H51  1  0.834400  0.537400  0.211700  1.0  0.1069
  H  H52  1  0.723500  0.675400  0.345600  1.0  0.0875
  H  H53  1  0.898300  0.650400  0.187300  1.0  0.1261
  H  H54  1  0.995600  0.759600  0.177900  1.0  0.0594
  H  H55  1  0.940100  0.842400  0.342300  1.0  0.0515
  H  H56  1  0.845900  0.735200  0.358300  1.0  0.1207
  H  H57  1  0.602400  0.759700  0.397700  1.0  0.3129
  H  H58  1  0.524700  0.757800  0.359400  1.0  0.325
  H  H59  1  0.886700  0.035800  0.899300  1.0  0.0757
  H  H60  1  0.786500  0.084800  0.965200  1.0  0.1307
  H  H61  1  0.760900  0.287600  0.854200  1.0  0.1272
  H  H62  1  0.861100  0.230200  0.790900  1.0  0.069
  H  H63  1  0.704500  0.152700  0.030400  1.0  0.0776
  H  H64  1  0.590400  0.204300  0.085600  1.0  0.0968
  H  H65  1  0.499000  0.302700  0.042600  1.0  0.0872
  H  H66  1  0.639800  0.302300  0.887300  1.0  0.111
  H  H67  1  0.381200  0.543900  0.790800  1.0  0.1036
  H  H68  1  0.269600  0.565000  0.723100  1.0  0.098
  H  H69  1  0.165600  0.462600  0.711700  1.0  0.1069
  H  H70  1  0.276500  0.324600  0.845600  1.0  0.0881
  H  H71  1  0.101700  0.349600  0.687300  1.0  0.126
  H  H72  1  0.004400  0.240400  0.677900  1.0  0.0594
  H  H73  1  0.059900  0.157600  0.842300  1.0  0.0521
  H  H74  1  0.154100  0.264800  0.858300  1.0  0.1206
  H  H75  1  0.397600  0.240300  0.897700  1.0  0.3127
  H  H76  1  0.475300  0.242200  0.859400  1.0  0.3257
  H  H77  1  0.035800  0.886700  0.100700  1.0  0.0748
  H  H78  1  0.084800  0.786500  0.034800  1.0  0.13
  H  H79  1  0.287600  0.760900  0.145800  1.0  0.1276
  H  H80  1  0.230200  0.861100  0.209100  1.0  0.0697
  H  H81  1  0.152700  0.704500  0.969600  1.0  0.077
  H  H82  1  0.204300  0.590400  0.914400  1.0  0.0964
  H  H83  1  0.302700  0.499000  0.957400  1.0  0.0869
  H  H84  1  0.302300  0.639800  0.112700  1.0  0.1119
  H  H85  1  0.543900  0.381200  0.209200  1.0  0.104
  H  H86  1  0.565000  0.269600  0.276900  1.0  0.0979
  H  H87  1  0.462600  0.165600  0.288300  1.0  0.1061
  H  H88  1  0.324600  0.276500  0.154400  1.0  0.088
  H  H89  1  0.349600  0.101700  0.312700  1.0  0.1262
  H  H90  1  0.240400  0.004400  0.322100  1.0  0.0588
  H  H91  1  0.157600  0.059900  0.157700  1.0  0.0509
  H  H92  1  0.264800  0.154100  0.141700  1.0  0.1214
  H  H93  1  0.240300  0.397600  0.102300  1.0  0.3122
  H  H94  1  0.242200  0.475300  0.140600  1.0  0.3247
  H  H95  1  0.964200  0.113300  0.600700  1.0  0.0747
  H  H96  1  0.915200  0.213500  0.534800  1.0  0.1298
  H  H97  1  0.712400  0.239100  0.645800  1.0  0.1274
  H  H98  1  0.769800  0.138900  0.709100  1.0  0.0699
  H  H99  1  0.847300  0.295500  0.469600  1.0  0.0771
  H  H100  1  0.795700  0.409600  0.414400  1.0  0.0963
  H  H101  1  0.697300  0.501000  0.457400  1.0  0.0882
  H  H102  1  0.697700  0.360200  0.612700  1.0  0.1113
  H  H103  1  0.456100  0.618800  0.709200  1.0  0.1043
  H  H104  1  0.435000  0.730400  0.776900  1.0  0.0978
  H  H105  1  0.537400  0.834400  0.788300  1.0  0.1071
  H  H106  1  0.675400  0.723500  0.654400  1.0  0.0877
  H  H107  1  0.650400  0.898300  0.812700  1.0  0.1264
  H  H108  1  0.759600  0.995600  0.822100  1.0  0.0586
  H  H109  1  0.842400  0.940100  0.657700  1.0  0.0508
  H  H110  1  0.735200  0.845900  0.641700  1.0  0.1212
  H  H111  1  0.759700  0.602400  0.602300  1.0  0.3133
  H  H112  1  0.757800  0.524700  0.640600  1.0  0.3251
  H  H113  1  0.386700  0.464200  0.350700  1.0  0.0752
  H  H114  1  0.286500  0.415200  0.284800  1.0  0.1306
  H  H115  1  0.260900  0.212400  0.395800  1.0  0.1277
  H  H116  1  0.361100  0.269800  0.459100  1.0  0.0696
  H  H117  1  0.204500  0.347300  0.219600  1.0  0.0777
  H  H118  1  0.090400  0.295700  0.164400  1.0  0.0967
  H  H119  1  0.999000  0.197300  0.207400  1.0  0.0871
  H  H120  1  0.139800  0.197700  0.362700  1.0  0.1113
  H  H121  1  0.881200  0.956100  0.459200  1.0  0.1038
  H  H122  1  0.769600  0.935000  0.526900  1.0  0.0977
  H  H123  1  0.665600  0.037400  0.538300  1.0  0.1065
  H  H124  1  0.776500  0.175400  0.404400  1.0  0.0883
  H  H125  1  0.601700  0.150400  0.562700  1.0  0.1266
  H  H126  1  0.504400  0.259600  0.572100  1.0  0.059
  H  H127  1  0.559900  0.342400  0.407700  1.0  0.0518
  H  H128  1  0.654100  0.235200  0.391700  1.0  0.1211
  H  H129  1  0.897600  0.259700  0.352300  1.0  0.3128
  H  H130  1  0.975300  0.257800  0.390600  1.0  0.325
  H  H131  1  0.613300  0.535800  0.850700  1.0  0.0751
  H  H132  1  0.713500  0.584800  0.784800  1.0  0.1302
  H  H133  1  0.739100  0.787600  0.895800  1.0  0.1275
  H  H134  1  0.638900  0.730200  0.959100  1.0  0.0694
  H  H135  1  0.795500  0.652700  0.719600  1.0  0.0776
  H  H136  1  0.909600  0.704300  0.664400  1.0  0.0968
  H  H137  1  0.001000  0.802700  0.707400  1.0  0.0869
  H  H138  1  0.860200  0.802300  0.862700  1.0  0.1112
  H  H139  1  0.118800  0.043900  0.959200  1.0  0.1041
  H  H140  1  0.230400  0.065000  0.026900  1.0  0.0977
  H  H141  1  0.334400  0.962600  0.038300  1.0  0.1064
  H  H142  1  0.223500  0.824600  0.904400  1.0  0.0875
  H  H143  1  0.398300  0.849600  0.062700  1.0  0.1262
  H  H144  1  0.495600  0.740400  0.072100  1.0  0.059
  H  H145  1  0.440100  0.657600  0.907700  1.0  0.0521
  H  H146  1  0.345900  0.764800  0.891700  1.0  0.1214
  H  H147  1  0.102400  0.740300  0.852300  1.0  0.3125
  H  H148  1  0.024700  0.742200  0.890600  1.0  0.3248
  C  C149  1  0.413200  0.358500  0.639000  1.0  0.1549
  C  C150  1  0.384500  0.298900  0.678700  1.0  -0.2047
  C  C151  1  0.309300  0.255600  0.665700  1.0  0.0916
  C  C152  1  0.266300  0.283800  0.613800  1.0  -0.2105
  C  C153  1  0.300700  0.344100  0.576300  1.0  0.141
  C  C154  1  0.278500  0.183700  0.702700  1.0  0.0173
  C  C155  1  0.306700  0.168200  0.762200  1.0  -0.0928
  C  C156  1  0.276100  0.100100  0.794900  1.0  -0.0881
  C  C157  1  0.217600  0.045900  0.769700  1.0  -0.1208
  C  C158  1  0.188600  0.060800  0.710100  1.0  -0.0468
  C  C159  1  0.218500  0.129400  0.677700  1.0  -0.1328
  C  C160  1  0.126700  0.005100  0.680300  1.0  0.2417
  C  C161  1  0.075600  0.908600  0.618600  1.0  0.2409
  C  C162  1  0.067600  0.839000  0.574200  1.0  0.0044
  C  C163  1  0.996700  0.837300  0.537900  1.0  -0.1037
  C  C164  1  0.984800  0.771700  0.497400  1.0  -0.0914
  C  C165  1  0.044600  0.708900  0.491600  1.0  -0.1189
  C  C166  1  0.115500  0.709100  0.529500  1.0  0.0168
  C  C167  1  0.126600  0.775000  0.570100  1.0  -0.1346
  C  C168  1  0.181200  0.642000  0.523300  1.0  0.0973
  C  C169  1  0.189400  0.594700  0.470100  1.0  -0.2205
  C  C170  1  0.255500  0.536600  0.464700  1.0  0.1679
  C  C171  1  0.302800  0.568600  0.560100  1.0  0.1717
  C  C172  1  0.239500  0.625700  0.569900  1.0  -0.2275
  C  C173  1  0.586800  0.641500  0.139000  1.0  0.1553
  C  C174  1  0.615500  0.701100  0.178700  1.0  -0.2049
  C  C175  1  0.690700  0.744400  0.165700  1.0  0.0917
  C  C176  1  0.733700  0.716200  0.113800  1.0  -0.21
  C  C177  1  0.699300  0.655900  0.076300  1.0  0.1401
  C  C178  1  0.721500  0.816300  0.202700  1.0  0.0177
  C  C179  1  0.693300  0.831800  0.262200  1.0  -0.0917
  C  C180  1  0.723900  0.899900  0.294900  1.0  -0.0876
  C  C181  1  0.782400  0.954100  0.269700  1.0  -0.1212
  C  C182  1  0.811400  0.939200  0.210100  1.0  -0.0473
  C  C183  1  0.781500  0.870600  0.177700  1.0  -0.1328
  C  C184  1  0.873300  0.994900  0.180300  1.0  0.2413
  C  C185  1  0.924400  0.091400  0.118600  1.0  0.2407
  C  C186  1  0.932400  0.161000  0.074200  1.0  0.0046
  C  C187  1  0.003300  0.162700  0.037900  1.0  -0.1038
  C  C188  1  0.015200  0.228300  0.997400  1.0  -0.0911
  C  C189  1  0.955400  0.291100  0.991600  1.0  -0.1183
  C  C190  1  0.884500  0.290900  0.029500  1.0  0.0161
  C  C191  1  0.873400  0.225000  0.070100  1.0  -0.1349
  C  C192  1  0.818800  0.358000  0.023300  1.0  0.0968
  C  C193  1  0.810600  0.405300  0.970100  1.0  -0.2176
  C  C194  1  0.744500  0.463400  0.964700  1.0  0.1688
  C  C195  1  0.697200  0.431400  0.060100  1.0  0.1721
  C  C196  1  0.760500  0.374300  0.069900  1.0  -0.2276
  C  C197  1  0.141500  0.913200  0.389000  1.0  0.1547
  C  C198  1  0.201100  0.884500  0.428700  1.0  -0.2076
  C  C199  1  0.244400  0.809300  0.415700  1.0  0.0916
  C  C200  1  0.216200  0.766300  0.363800  1.0  -0.2088
  C  C201  1  0.155900  0.800700  0.326300  1.0  0.1385
  C  C202  1  0.316300  0.778500  0.452700  1.0  0.0181
  C  C203  1  0.331800  0.806700  0.512200  1.0  -0.092
  C  C204  1  0.399900  0.776100  0.544900  1.0  -0.0872
  C  C205  1  0.454100  0.717600  0.519700  1.0  -0.1198
  C  C206  1  0.439200  0.688600  0.460100  1.0  -0.046
  C  C207  1  0.370600  0.718500  0.427700  1.0  -0.1331
  C  C208  1  0.494900  0.626700  0.430300  1.0  0.2418
  C  C209  1  0.591400  0.575600  0.368600  1.0  0.2399
  C  C210  1  0.661000  0.567600  0.324200  1.0  0.0044
  C  C211  1  0.662700  0.496700  0.287900  1.0  -0.1038
  C  C212  1  0.728300  0.484800  0.247400  1.0  -0.0889
  C  C213  1  0.791100  0.544600  0.241600  1.0  -0.1188
  C  C214  1  0.790900  0.615500  0.279500  1.0  0.0167
  C  C215  1  0.725000  0.626600  0.320100  1.0  -0.1333
  C  C216  1  0.858000  0.681200  0.273300  1.0  0.0972
  C  C217  1  0.905300  0.689400  0.220100  1.0  -0.2182
  C  C218  1  0.963400  0.755500  0.214700  1.0  0.1678
  C  C219  1  0.931400  0.802800  0.310100  1.0  0.1712
  C  C220  1  0.874300  0.739500  0.319900  1.0  -0.2285
  C  C221  1  0.858500  0.086800  0.889000  1.0  0.1551
  C  C222  1  0.798900  0.115500  0.928700  1.0  -0.2065
  C  C223  1  0.755600  0.190700  0.915700  1.0  0.0918
  C  C224  1  0.783800  0.233700  0.863800  1.0  -0.2093
  C  C225  1  0.844100  0.199300  0.826300  1.0  0.1406
  C  C226  1  0.683700  0.221500  0.952700  1.0  0.018
  C  C227  1  0.668200  0.193300  0.012200  1.0  -0.0923
  C  C228  1  0.600100  0.223900  0.044900  1.0  -0.0874
  C  C229  1  0.545900  0.282400  0.019700  1.0  -0.1191
  C  C230  1  0.560800  0.311400  0.960100  1.0  -0.0472
  C  C231  1  0.629400  0.281500  0.927700  1.0  -0.1331
  C  C232  1  0.505100  0.373300  0.930300  1.0  0.2411
  C  C233  1  0.408600  0.424400  0.868600  1.0  0.2399
  C  C234  1  0.339000  0.432400  0.824200  1.0  0.004
  C  C235  1  0.337300  0.503300  0.787900  1.0  -0.1047
  C  C236  1  0.271700  0.515200  0.747400  1.0  -0.0893
  C  C237  1  0.208900  0.455400  0.741600  1.0  -0.1189
  C  C238  1  0.209100  0.384500  0.779500  1.0  0.0176
  C  C239  1  0.275000  0.373400  0.820100  1.0  -0.1337
  C  C240  1  0.142000  0.318800  0.773300  1.0  0.0966
  C  C241  1  0.094700  0.310600  0.720100  1.0  -0.2185
  C  C242  1  0.036600  0.244500  0.714700  1.0  0.1677
  C  C243  1  0.068600  0.197200  0.810100  1.0  0.1708
  C  C244  1  0.125700  0.260500  0.819900  1.0  -0.2284
  C  C245  1  0.086800  0.858500  0.111000  1.0  0.1555
  C  C246  1  0.115500  0.798900  0.071300  1.0  -0.2058
  C  C247  1  0.190700  0.755600  0.084300  1.0  0.0915
  C  C248  1  0.233700  0.783800  0.136200  1.0  -0.2107
  C  C249  1  0.199300  0.844100  0.173700  1.0  0.1395
  C  C250  1  0.221500  0.683700  0.047300  1.0  0.0182
  C  C251  1  0.193300  0.668200  0.987800  1.0  -0.0915
  C  C252  1  0.223900  0.600100  0.955100  1.0  -0.0872
  C  C253  1  0.282400  0.545900  0.980300  1.0  -0.1229
  C  C254  1  0.311400  0.560800  0.039900  1.0  -0.0479
  C  C255  1  0.281500  0.629400  0.072300  1.0  -0.1326
  C  C256  1  0.373300  0.505100  0.069700  1.0  0.2412
  C  C257  1  0.424400  0.408600  0.131400  1.0  0.2405
  C  C258  1  0.432400  0.339000  0.175800  1.0  0.0049
  C  C259  1  0.503300  0.337300  0.212100  1.0  -0.1036
  C  C260  1  0.515200  0.271700  0.252600  1.0  -0.0901
  C  C261  1  0.455400  0.208900  0.258400  1.0  -0.119
  C  C262  1  0.384500  0.209100  0.220500  1.0  0.0163
  C  C263  1  0.373400  0.275000  0.179900  1.0  -0.1348
  C  C264  1  0.318800  0.142000  0.226700  1.0  0.0976
  C  C265  1  0.310600  0.094700  0.279900  1.0  -0.2193
  C  C266  1  0.244500  0.036600  0.285300  1.0  0.1687
  C  C267  1  0.197200  0.068600  0.189900  1.0  0.1724
  C  C268  1  0.260500  0.125700  0.180100  1.0  -0.2271
  C  C269  1  0.913200  0.141500  0.611000  1.0  0.1552
  C  C270  1  0.884500  0.201100  0.571300  1.0  -0.2052
  C  C271  1  0.809300  0.244400  0.584300  1.0  0.0913
  C  C272  1  0.766300  0.216200  0.636200  1.0  -0.2114
  C  C273  1  0.800700  0.155900  0.673700  1.0  0.1404
  C  C274  1  0.778500  0.316300  0.547300  1.0  0.0172
  C  C275  1  0.806700  0.331800  0.487800  1.0  -0.0922
  C  C276  1  0.776100  0.399900  0.455100  1.0  -0.0871
  C  C277  1  0.717600  0.454100  0.480300  1.0  -0.1207
  C  C278  1  0.688600  0.439200  0.539900  1.0  -0.0468
  C  C279  1  0.718500  0.370600  0.572300  1.0  -0.1326
  C  C280  1  0.626700  0.494900  0.569700  1.0  0.2422
  C  C281  1  0.575600  0.591400  0.631400  1.0  0.2407
  C  C282  1  0.567600  0.661000  0.675800  1.0  0.004
  C  C283  1  0.496700  0.662700  0.712100  1.0  -0.1042
  C  C284  1  0.484800  0.728300  0.752600  1.0  -0.0924
  C  C285  1  0.544600  0.791100  0.758400  1.0  -0.1189
  C  C286  1  0.615500  0.790900  0.720500  1.0  0.0169
  C  C287  1  0.626600  0.725000  0.679900  1.0  -0.1349
  C  C288  1  0.681200  0.858000  0.726700  1.0  0.0974
  C  C289  1  0.689400  0.905300  0.779900  1.0  -0.2215
  C  C290  1  0.755500  0.963400  0.785300  1.0  0.1681
  C  C291  1  0.802800  0.931400  0.689900  1.0  0.1718
  C  C292  1  0.739500  0.874300  0.680100  1.0  -0.2274
  C  C293  1  0.358500  0.413200  0.361000  1.0  0.1553
  C  C294  1  0.298900  0.384500  0.321300  1.0  -0.2073
  C  C295  1  0.255600  0.309300  0.334300  1.0  0.0915
  C  C296  1  0.283800  0.266300  0.386200  1.0  -0.21
  C  C297  1  0.344100  0.300700  0.423700  1.0  0.1397
  C  C298  1  0.183700  0.278500  0.297300  1.0  0.0179
  C  C299  1  0.168200  0.306700  0.237800  1.0  -0.0917
  C  C300  1  0.100100  0.276100  0.205100  1.0  -0.0864
  C  C301  1  0.045900  0.217600  0.230300  1.0  -0.1192
  C  C302  1  0.060800  0.188600  0.289900  1.0  -0.0467
  C  C303  1  0.129400  0.218500  0.322300  1.0  -0.1329
  C  C304  1  0.005100  0.126700  0.319700  1.0  0.2414
  C  C305  1  0.908600  0.075600  0.381400  1.0  0.2396
  C  C306  1  0.839000  0.067600  0.425800  1.0  0.0042
  C  C307  1  0.837300  0.996700  0.462100  1.0  -0.1054
  C  C308  1  0.771700  0.984800  0.502600  1.0  -0.0898
  C  C309  1  0.708900  0.044600  0.508400  1.0  -0.1185
  C  C310  1  0.709100  0.115500  0.470500  1.0  0.0173
  C  C311  1  0.775000  0.126600  0.429900  1.0  -0.1343
  C  C312  1  0.642000  0.181200  0.476700  1.0  0.0972
  C  C313  1  0.594700  0.189400  0.529900  1.0  -0.2198
  C  C314  1  0.536600  0.255500  0.535300  1.0  0.1674
  C  C315  1  0.568600  0.302800  0.439900  1.0  0.1707
  C  C316  1  0.625700  0.239500  0.430100  1.0  -0.2283
  C  C317  1  0.641500  0.586800  0.861000  1.0  0.1554
  C  C318  1  0.701100  0.615500  0.821300  1.0  -0.2075
  C  C319  1  0.744400  0.690700  0.834300  1.0  0.0915
  C  C320  1  0.716200  0.733700  0.886200  1.0  -0.2091
  C  C321  1  0.655900  0.699300  0.923700  1.0  0.1383
  C  C322  1  0.816300  0.721500  0.797300  1.0  0.0177
  C  C323  1  0.831800  0.693300  0.737800  1.0  -0.092
  C  C324  1  0.899900  0.723900  0.705100  1.0  -0.087
  C  C325  1  0.954100  0.782400  0.730300  1.0  -0.1196
  C  C326  1  0.939200  0.811400  0.789900  1.0  -0.0464
  C  C327  1  0.870600  0.781500  0.822300  1.0  -0.1327
  C  C328  1  0.994900  0.873300  0.819700  1.0  0.2417
  C  C329  1  0.091400  0.924400  0.881400  1.0  0.2396
  C  C330  1  0.161000  0.932400  0.925800  1.0  0.0043
  C  C331  1  0.162700  0.003300  0.962100  1.0  -0.1041
  C  C332  1  0.228300  0.015200  0.002600  1.0  -0.0893
  C  C333  1  0.291100  0.955400  0.008400  1.0  -0.1196
  C  C334  1  0.290900  0.884500  0.970500  1.0  0.0175
  C  C335  1  0.225000  0.873400  0.929900  1.0  -0.134
  C  C336  1  0.358000  0.818800  0.976700  1.0  0.0971
  C  C337  1  0.405300  0.810600  0.029900  1.0  -0.2186
  C  C338  1  0.463400  0.744500  0.035300  1.0  0.1677
  C  C339  1  0.431400  0.697200  0.939900  1.0  0.1709
  C  C340  1  0.374300  0.760500  0.930100  1.0  -0.2285
  N  N341  1  0.375200  0.380200  0.586800  1.0  -0.3554
  N  N342  1  0.044800  0.006500  0.683900  1.0  -0.2199
  N  N343  1  0.012100  0.945200  0.645870  1.0  -0.2903
  N  N344  1  0.149500  0.944100  0.639540  1.0  0.0909
  N  N345  1  0.230700  0.926100  0.618100  1.0  -0.5507
  N  N346  1  0.312500  0.524200  0.508200  1.0  -0.3636
  N  N347  1  0.624800  0.619800  0.086800  1.0  -0.3557
  N  N348  1  0.955200  0.993500  0.183900  1.0  -0.2198
  N  N349  1  0.987900  0.054800  0.145870  1.0  -0.2914
  N  N350  1  0.850500  0.055900  0.139540  1.0  0.0909
  N  N351  1  0.769300  0.073900  0.118100  1.0  -0.5512
  N  N352  1  0.687500  0.475800  0.008200  1.0  -0.364
  N  N353  1  0.119800  0.875200  0.336800  1.0  -0.3548
  N  N354  1  0.493500  0.544800  0.433900  1.0  -0.2196
  N  N355  1  0.554800  0.512100  0.395870  1.0  -0.2905
  N  N356  1  0.555900  0.649500  0.389540  1.0  0.0899
  N  N357  1  0.573900  0.730700  0.368100  1.0  -0.5526
  N  N358  1  0.975800  0.812500  0.258200  1.0  -0.3634
  N  N359  1  0.880200  0.124800  0.836800  1.0  -0.3558
  N  N360  1  0.506500  0.455200  0.933900  1.0  -0.2206
  N  N361  1  0.445200  0.487900  0.895870  1.0  -0.2923
  N  N362  1  0.444100  0.350500  0.889540  1.0  0.0903
  N  N363  1  0.426100  0.269300  0.868100  1.0  -0.5516
  N  N364  1  0.024200  0.187500  0.758200  1.0  -0.3641
  N  N365  1  0.124800  0.880200  0.163200  1.0  -0.3555
  N  N366  1  0.455200  0.506500  0.066100  1.0  -0.2201
  N  N367  1  0.487900  0.445200  0.104130  1.0  -0.2912
  N  N368  1  0.350500  0.444100  0.110460  1.0  0.0907
  N  N369  1  0.269300  0.426100  0.131900  1.0  -0.551
  N  N370  1  0.187500  0.024200  0.241800  1.0  -0.3634
  N  N371  1  0.875200  0.119800  0.663200  1.0  -0.3542
  N  N372  1  0.544800  0.493500  0.566100  1.0  -0.2202
  N  N373  1  0.512100  0.554800  0.604130  1.0  -0.2906
  N  N374  1  0.649500  0.555900  0.610460  1.0  0.0905
  N  N375  1  0.730700  0.573900  0.631900  1.0  -0.5504
  N  N376  1  0.812500  0.975800  0.741800  1.0  -0.3646
  N  N377  1  0.380200  0.375200  0.413200  1.0  -0.3546
  N  N378  1  0.006500  0.044800  0.316100  1.0  -0.2198
  N  N379  1  0.945200  0.012100  0.354130  1.0  -0.2908
  N  N380  1  0.944100  0.149500  0.360460  1.0  0.0905
  N  N381  1  0.926100  0.230700  0.381900  1.0  -0.5521
  N  N382  1  0.524200  0.312500  0.491800  1.0  -0.3636
  N  N383  1  0.619800  0.624800  0.913200  1.0  -0.3548
  N  N384  1  0.993500  0.955200  0.816100  1.0  -0.2201
  N  N385  1  0.054800  0.987900  0.854130  1.0  -0.2914
  N  N386  1  0.055900  0.850500  0.860460  1.0  0.0897
  N  N387  1  0.073900  0.769300  0.881900  1.0  -0.5524
  N  N388  1  0.475800  0.687500  0.991800  1.0  -0.3638
  Cl  Cl389  1  0.878040  0.878040  0.000000  1.0  1.9031
  Cl  Cl390  1  0.121960  0.121960  0.500000  1.0  1.9025
  Cl  Cl391  1  0.621960  0.378040  0.750000  1.0  1.9025
  Cl  Cl392  1  0.378040  0.621960  0.250000  1.0  1.9033
  O  O393  1  0.815300  0.886200  0.962200  1.0  -0.6928
  O  O394  1  0.938900  0.875700  0.963300  1.0  -0.6802
  O  O395  1  0.886200  0.815300  0.037800  1.0  -0.6937
  O  O396  1  0.875700  0.938900  0.036700  1.0  -0.6821
  O  O397  1  0.184700  0.113800  0.462200  1.0  -0.6934
  O  O398  1  0.061100  0.124300  0.463300  1.0  -0.6801
  O  O399  1  0.113800  0.184700  0.537800  1.0  -0.6942
  O  O400  1  0.124300  0.061100  0.536700  1.0  -0.6818
  O  O401  1  0.613800  0.315300  0.712200  1.0  -0.6941
  O  O402  1  0.624300  0.438900  0.713300  1.0  -0.6817
  O  O403  1  0.684700  0.386200  0.787800  1.0  -0.6932
  O  O404  1  0.561100  0.375700  0.786700  1.0  -0.6808
  O  O405  1  0.386200  0.684700  0.212200  1.0  -0.6941
  O  O406  1  0.375700  0.561100  0.213300  1.0  -0.6815
  O  O407  1  0.315300  0.613800  0.287800  1.0  -0.6923
  O  O408  1  0.438900  0.624300  0.286700  1.0  -0.6803
