# generated using pymatgen
data_CdH36C48N12(ClO4)2
_symmetry_space_group_name_H-M   'P 1'
_cell_length_a   15.87210000
_cell_length_b   15.87210000
_cell_length_c   21.63600000
_cell_angle_alpha   90.00000000
_cell_angle_beta   90.00000000
_cell_angle_gamma   90.00000000
_symmetry_Int_Tables_number   1
_chemical_formula_structural   CdH36C48N12(ClO4)2
_chemical_formula_sum   'Cd4 H144 C192 N48 Cl8 O32'
_cell_volume   5450.61810976
_cell_formula_units_Z   4
loop_
 _symmetry_equiv_pos_site_id
 _symmetry_equiv_pos_as_xyz
  1  'x, y, z'
loop_
 _atom_site_type_symbol
 _atom_site_label
 _atom_site_symmetry_multiplicity
 _atom_site_fract_x
 _atom_site_fract_y
 _atom_site_fract_z
 _atom_site_occupancy
 _atom_site_charge
  Cd  Cd1  1  0.558310  0.441690  0.250000  1.0  0.7893
  Cd  Cd2  1  0.441690  0.558310  0.750000  1.0  0.7897
  Cd  Cd3  1  0.058310  0.058310  0.500000  1.0  0.7891
  Cd  Cd4  1  0.941690  0.941690  0.000000  1.0  0.7898
  H  H5  1  0.039300  0.110400  0.349300  1.0  0.0756
  H  H6  1  0.086600  0.214600  0.283300  1.0  0.1357
  H  H7  1  0.284900  0.244800  0.397900  1.0  0.1131
  H  H8  1  0.230300  0.138700  0.459100  1.0  0.072
  H  H9  1  0.151900  0.298900  0.219800  1.0  0.0805
  H  H10  1  0.204300  0.412100  0.164400  1.0  0.1117
  H  H11  1  0.300800  0.505900  0.208800  1.0  0.0963
  H  H12  1  0.301600  0.364100  0.364000  1.0  0.1016
  H  H13  1  0.546100  0.620600  0.460200  1.0  0.11
  H  H14  1  0.564400  0.731700  0.530700  1.0  0.1161
  H  H15  1  0.465300  0.837700  0.537200  1.0  0.1021
  H  H16  1  0.326700  0.723400  0.404500  1.0  0.0996
  H  H17  1  0.347200  0.897800  0.564800  1.0  0.1273
  H  H18  1  0.233900  0.988400  0.575800  1.0  0.0679
  H  H19  1  0.160000  0.942700  0.407000  1.0  0.0596
  H  H20  1  0.267800  0.847600  0.391800  1.0  0.1407
  H  H21  1  0.242800  0.527900  0.392000  1.0  0.3229
  H  H22  1  0.242000  0.604800  0.353100  1.0  0.3099
  H  H23  1  0.960700  0.889600  0.849300  1.0  0.0759
  H  H24  1  0.913400  0.785400  0.783300  1.0  0.1351
  H  H25  1  0.715100  0.755200  0.897900  1.0  0.1128
  H  H26  1  0.769700  0.861300  0.959100  1.0  0.0717
  H  H27  1  0.848100  0.701100  0.719800  1.0  0.0808
  H  H28  1  0.795700  0.587900  0.664400  1.0  0.1114
  H  H29  1  0.699200  0.494100  0.708800  1.0  0.0968
  H  H30  1  0.698400  0.635900  0.864000  1.0  0.1011
  H  H31  1  0.453900  0.379400  0.960200  1.0  0.1103
  H  H32  1  0.435600  0.268300  0.030700  1.0  0.1158
  H  H33  1  0.534700  0.162300  0.037200  1.0  0.1029
  H  H34  1  0.673300  0.276600  0.904500  1.0  0.0992
  H  H35  1  0.652800  0.102200  0.064800  1.0  0.1275
  H  H36  1  0.766100  0.011600  0.075800  1.0  0.0685
  H  H37  1  0.840000  0.057300  0.907000  1.0  0.0593
  H  H38  1  0.732200  0.152400  0.891800  1.0  0.14
  H  H39  1  0.757200  0.472100  0.892000  1.0  0.3226
  H  H40  1  0.758000  0.395200  0.853100  1.0  0.3101
  H  H41  1  0.389600  0.539300  0.599300  1.0  0.0756
  H  H42  1  0.285400  0.586600  0.533300  1.0  0.136
  H  H43  1  0.255200  0.784900  0.647900  1.0  0.1136
  H  H44  1  0.361300  0.730300  0.709100  1.0  0.0723
  H  H45  1  0.201100  0.651900  0.469800  1.0  0.0808
  H  H46  1  0.087900  0.704300  0.414400  1.0  0.1121
  H  H47  1  0.994100  0.800800  0.458800  1.0  0.097
  H  H48  1  0.135900  0.801600  0.614000  1.0  0.1012
  H  H49  1  0.879400  0.046100  0.710200  1.0  0.1097
  H  H50  1  0.768300  0.064400  0.780700  1.0  0.1157
  H  H51  1  0.662300  0.965300  0.787200  1.0  0.1026
  H  H52  1  0.776600  0.826700  0.654500  1.0  0.1
  H  H53  1  0.602200  0.847200  0.814800  1.0  0.1275
  H  H54  1  0.511600  0.733900  0.825800  1.0  0.0689
  H  H55  1  0.557300  0.660000  0.657000  1.0  0.0601
  H  H56  1  0.652400  0.767800  0.641800  1.0  0.1394
  H  H57  1  0.972100  0.742800  0.642000  1.0  0.3237
  H  H58  1  0.895200  0.742000  0.603100  1.0  0.3106
  H  H59  1  0.610400  0.460700  0.099300  1.0  0.0761
  H  H60  1  0.714600  0.413400  0.033300  1.0  0.1359
  H  H61  1  0.744800  0.215100  0.147900  1.0  0.1134
  H  H62  1  0.638700  0.269700  0.209100  1.0  0.0721
  H  H63  1  0.798900  0.348100  0.969800  1.0  0.0821
  H  H64  1  0.912100  0.295700  0.914400  1.0  0.1124
  H  H65  1  0.005900  0.199200  0.958800  1.0  0.0966
  H  H66  1  0.864100  0.198400  0.114000  1.0  0.1013
  H  H67  1  0.120600  0.953900  0.210200  1.0  0.1103
  H  H68  1  0.231700  0.935600  0.280700  1.0  0.1159
  H  H69  1  0.337700  0.034700  0.287200  1.0  0.1026
  H  H70  1  0.223400  0.173300  0.154500  1.0  0.0997
  H  H71  1  0.397800  0.152800  0.314800  1.0  0.1275
  H  H72  1  0.488400  0.266100  0.325800  1.0  0.0686
  H  H73  1  0.442700  0.340000  0.157000  1.0  0.0597
  H  H74  1  0.347600  0.232200  0.141800  1.0  0.1397
  H  H75  1  0.027900  0.257200  0.142000  1.0  0.3243
  H  H76  1  0.104800  0.258000  0.103100  1.0  0.3097
  H  H77  1  0.460700  0.610400  0.900700  1.0  0.0758
  H  H78  1  0.413400  0.714600  0.966700  1.0  0.135
  H  H79  1  0.215100  0.744800  0.852100  1.0  0.1128
  H  H80  1  0.269700  0.638700  0.790900  1.0  0.0715
  H  H81  1  0.348100  0.798900  0.030200  1.0  0.0804
  H  H82  1  0.295700  0.912100  0.085600  1.0  0.1113
  H  H83  1  0.199200  0.005900  0.041200  1.0  0.0951
  H  H84  1  0.198400  0.864100  0.886000  1.0  0.1007
  H  H85  1  0.953900  0.120600  0.789800  1.0  0.11
  H  H86  1  0.935600  0.231700  0.719300  1.0  0.1161
  H  H87  1  0.034700  0.337700  0.712800  1.0  0.103
  H  H88  1  0.173300  0.223400  0.845500  1.0  0.0992
  H  H89  1  0.152800  0.397800  0.685200  1.0  0.1277
  H  H90  1  0.266100  0.488400  0.674200  1.0  0.0686
  H  H91  1  0.340000  0.442700  0.843000  1.0  0.0593
  H  H92  1  0.232200  0.347600  0.858200  1.0  0.1398
  H  H93  1  0.257200  0.027900  0.858000  1.0  0.3228
  H  H94  1  0.258000  0.104800  0.896900  1.0  0.3102
  H  H95  1  0.539300  0.389600  0.400700  1.0  0.0757
  H  H96  1  0.586600  0.285400  0.466700  1.0  0.1355
  H  H97  1  0.784900  0.255200  0.352100  1.0  0.113
  H  H98  1  0.730300  0.361300  0.290900  1.0  0.0721
  H  H99  1  0.651900  0.201100  0.530200  1.0  0.0805
  H  H100  1  0.704300  0.087900  0.585600  1.0  0.1118
  H  H101  1  0.800800  0.994100  0.541200  1.0  0.0946
  H  H102  1  0.801600  0.135900  0.386000  1.0  0.1011
  H  H103  1  0.046100  0.879400  0.289800  1.0  0.1099
  H  H104  1  0.064400  0.768300  0.219300  1.0  0.1159
  H  H105  1  0.965300  0.662300  0.212800  1.0  0.1026
  H  H106  1  0.826700  0.776600  0.345500  1.0  0.0991
  H  H107  1  0.847200  0.602200  0.185200  1.0  0.127
  H  H108  1  0.733900  0.511600  0.174200  1.0  0.0684
  H  H109  1  0.660000  0.557300  0.343000  1.0  0.0598
  H  H110  1  0.767800  0.652400  0.358200  1.0  0.1404
  H  H111  1  0.742800  0.972100  0.358000  1.0  0.324
  H  H112  1  0.742000  0.895200  0.396900  1.0  0.3117
  H  H113  1  0.110400  0.039300  0.650700  1.0  0.0756
  H  H114  1  0.214600  0.086600  0.716700  1.0  0.1355
  H  H115  1  0.244800  0.284900  0.602100  1.0  0.1136
  H  H116  1  0.138700  0.230300  0.540900  1.0  0.0722
  H  H117  1  0.298900  0.151900  0.780200  1.0  0.0812
  H  H118  1  0.412100  0.204300  0.835600  1.0  0.1122
  H  H119  1  0.505900  0.300800  0.791200  1.0  0.095
  H  H120  1  0.364100  0.301600  0.636000  1.0  0.101
  H  H121  1  0.620600  0.546100  0.539800  1.0  0.1103
  H  H122  1  0.731700  0.564400  0.469300  1.0  0.1162
  H  H123  1  0.837700  0.465300  0.462800  1.0  0.1027
  H  H124  1  0.723400  0.326700  0.595500  1.0  0.0997
  H  H125  1  0.897800  0.347200  0.435200  1.0  0.1278
  H  H126  1  0.988400  0.233900  0.424200  1.0  0.0692
  H  H127  1  0.942700  0.160000  0.593000  1.0  0.0601
  H  H128  1  0.847600  0.267800  0.608200  1.0  0.1392
  H  H129  1  0.527900  0.242800  0.608000  1.0  0.3241
  H  H130  1  0.604800  0.242000  0.646900  1.0  0.3111
  H  H131  1  0.889600  0.960700  0.150700  1.0  0.0756
  H  H132  1  0.785400  0.913400  0.216700  1.0  0.136
  H  H133  1  0.755200  0.715100  0.102100  1.0  0.1132
  H  H134  1  0.861300  0.769700  0.040900  1.0  0.0716
  H  H135  1  0.701100  0.848100  0.280200  1.0  0.0815
  H  H136  1  0.587900  0.795700  0.335600  1.0  0.112
  H  H137  1  0.494100  0.699200  0.291200  1.0  0.0949
  H  H138  1  0.635900  0.698400  0.136000  1.0  0.1011
  H  H139  1  0.379400  0.453900  0.039800  1.0  0.1099
  H  H140  1  0.268300  0.435600  0.969300  1.0  0.1158
  H  H141  1  0.162300  0.534700  0.962800  1.0  0.1027
  H  H142  1  0.276600  0.673300  0.095500  1.0  0.0997
  H  H143  1  0.102200  0.652800  0.935200  1.0  0.1272
  H  H144  1  0.011600  0.766100  0.924200  1.0  0.0687
  H  H145  1  0.057300  0.840000  0.093000  1.0  0.0597
  H  H146  1  0.152400  0.732200  0.108200  1.0  0.1395
  H  H147  1  0.472100  0.757200  0.108000  1.0  0.3237
  H  H148  1  0.395200  0.758000  0.146900  1.0  0.3111
  C  C149  1  0.088700  0.140600  0.360300  1.0  0.1727
  C  C150  1  0.116700  0.202200  0.320200  1.0  -0.1989
  C  C151  1  0.191400  0.246600  0.335400  1.0  0.1151
  C  C152  1  0.232500  0.219800  0.387000  1.0  -0.1908
  C  C153  1  0.199200  0.156900  0.424100  1.0  0.1435
  C  C154  1  0.220600  0.319000  0.297800  1.0  0.0076
  C  C155  1  0.192600  0.334900  0.238200  1.0  -0.0726
  C  C156  1  0.223400  0.402800  0.205400  1.0  -0.0743
  C  C157  1  0.281700  0.457900  0.231000  1.0  -0.0644
  C  C158  1  0.311300  0.440400  0.290100  1.0  -0.0456
  C  C159  1  0.281400  0.373800  0.323300  1.0  -0.1113
  C  C160  1  0.373900  0.496900  0.320000  1.0  0.2393
  C  C161  1  0.425300  0.591500  0.382700  1.0  0.245
  C  C162  1  0.433300  0.662400  0.427100  1.0  -0.0122
  C  C163  1  0.505100  0.663900  0.463500  1.0  -0.0702
  C  C164  1  0.515900  0.730100  0.504900  1.0  -0.0751
  C  C165  1  0.456800  0.792900  0.508700  1.0  -0.1075
  C  C166  1  0.384800  0.792800  0.471900  1.0  0.0159
  C  C167  1  0.374800  0.725200  0.430500  1.0  -0.1045
  C  C168  1  0.319300  0.858500  0.477500  1.0  0.1163
  C  C169  1  0.308500  0.904400  0.531700  1.0  -0.2164
  C  C170  1  0.241400  0.960000  0.537600  1.0  0.1657
  C  C171  1  0.198400  0.932900  0.439900  1.0  0.1733
  C  C172  1  0.262600  0.875500  0.430500  1.0  -0.1933
  C  C173  1  0.911300  0.859400  0.860300  1.0  0.1728
  C  C174  1  0.883300  0.797800  0.820200  1.0  -0.1978
  C  C175  1  0.808600  0.753400  0.835400  1.0  0.1148
  C  C176  1  0.767500  0.780200  0.887000  1.0  -0.1908
  C  C177  1  0.800800  0.843100  0.924100  1.0  0.1437
  C  C178  1  0.779400  0.681000  0.797800  1.0  0.0072
  C  C179  1  0.807400  0.665100  0.738200  1.0  -0.0736
  C  C180  1  0.776600  0.597200  0.705400  1.0  -0.0747
  C  C181  1  0.718300  0.542100  0.731000  1.0  -0.0628
  C  C182  1  0.688700  0.559600  0.790100  1.0  -0.0461
  C  C183  1  0.718600  0.626200  0.823300  1.0  -0.1116
  C  C184  1  0.626100  0.503100  0.820000  1.0  0.239
  C  C185  1  0.574700  0.408500  0.882700  1.0  0.2449
  C  C186  1  0.566700  0.337600  0.927100  1.0  -0.0118
  C  C187  1  0.494900  0.336100  0.963500  1.0  -0.0692
  C  C188  1  0.484100  0.269900  0.004900  1.0  -0.0759
  C  C189  1  0.543200  0.207100  0.008700  1.0  -0.1076
  C  C190  1  0.615200  0.207200  0.971900  1.0  0.0163
  C  C191  1  0.625200  0.274800  0.930500  1.0  -0.1048
  C  C192  1  0.680700  0.141500  0.977500  1.0  0.1166
  C  C193  1  0.691500  0.095600  0.031700  1.0  -0.2159
  C  C194  1  0.758600  0.040000  0.037600  1.0  0.1655
  C  C195  1  0.801600  0.067100  0.939900  1.0  0.1731
  C  C196  1  0.737400  0.124500  0.930500  1.0  -0.1929
  C  C197  1  0.359400  0.588700  0.610300  1.0  0.1716
  C  C198  1  0.297800  0.616700  0.570200  1.0  -0.2008
  C  C199  1  0.253400  0.691400  0.585400  1.0  0.1149
  C  C200  1  0.280200  0.732500  0.637000  1.0  -0.1907
  C  C201  1  0.343100  0.699200  0.674100  1.0  0.1424
  C  C202  1  0.181000  0.720600  0.547800  1.0  0.0069
  C  C203  1  0.165100  0.692600  0.488200  1.0  -0.0734
  C  C204  1  0.097200  0.723400  0.455400  1.0  -0.0759
  C  C205  1  0.042100  0.781700  0.481000  1.0  -0.065
  C  C206  1  0.059600  0.811300  0.540100  1.0  -0.0458
  C  C207  1  0.126200  0.781400  0.573300  1.0  -0.1116
  C  C208  1  0.003100  0.873900  0.570000  1.0  0.2409
  C  C209  1  0.908500  0.925300  0.632700  1.0  0.2461
  C  C210  1  0.837600  0.933300  0.677100  1.0  -0.0132
  C  C211  1  0.836100  0.005100  0.713500  1.0  -0.0707
  C  C212  1  0.769900  0.015900  0.754900  1.0  -0.0731
  C  C213  1  0.707100  0.956800  0.758700  1.0  -0.1072
  C  C214  1  0.707200  0.884800  0.721900  1.0  0.0175
  C  C215  1  0.774800  0.874800  0.680500  1.0  -0.1034
  C  C216  1  0.641500  0.819300  0.727500  1.0  0.1168
  C  C217  1  0.595600  0.808500  0.781700  1.0  -0.2167
  C  C218  1  0.540000  0.741400  0.787600  1.0  0.165
  C  C219  1  0.567100  0.698400  0.689900  1.0  0.1727
  C  C220  1  0.624500  0.762600  0.680500  1.0  -0.1936
  C  C221  1  0.640600  0.411300  0.110300  1.0  0.1723
  C  C222  1  0.702200  0.383300  0.070200  1.0  -0.2005
  C  C223  1  0.746600  0.308600  0.085400  1.0  0.1145
  C  C224  1  0.719800  0.267500  0.137000  1.0  -0.1904
  C  C225  1  0.656900  0.300800  0.174100  1.0  0.1419
  C  C226  1  0.819000  0.279400  0.047800  1.0  0.0073
  C  C227  1  0.834900  0.307400  0.988200  1.0  -0.0731
  C  C228  1  0.902800  0.276600  0.955400  1.0  -0.0745
  C  C229  1  0.957900  0.218300  0.981000  1.0  -0.0666
  C  C230  1  0.940400  0.188700  0.040100  1.0  -0.045
  C  C231  1  0.873800  0.218600  0.073300  1.0  -0.1124
  C  C232  1  0.996900  0.126100  0.070000  1.0  0.2408
  C  C233  1  0.091500  0.074700  0.132700  1.0  0.2455
  C  C234  1  0.162400  0.066700  0.177100  1.0  -0.0133
  C  C235  1  0.163900  0.994900  0.213500  1.0  -0.0698
  C  C236  1  0.230100  0.984100  0.254900  1.0  -0.0728
  C  C237  1  0.292900  0.043200  0.258700  1.0  -0.1069
  C  C238  1  0.292800  0.115200  0.221900  1.0  0.0165
  C  C239  1  0.225200  0.125200  0.180500  1.0  -0.1044
  C  C240  1  0.358500  0.180700  0.227500  1.0  0.1171
  C  C241  1  0.404400  0.191500  0.281700  1.0  -0.2161
  C  C242  1  0.460000  0.258600  0.287600  1.0  0.1648
  C  C243  1  0.432900  0.301600  0.189900  1.0  0.173
  C  C244  1  0.375500  0.237400  0.180500  1.0  -0.1935
  C  C245  1  0.411300  0.640600  0.889700  1.0  0.1726
  C  C246  1  0.383300  0.702200  0.929800  1.0  -0.1981
  C  C247  1  0.308600  0.746600  0.914600  1.0  0.1153
  C  C248  1  0.267500  0.719800  0.863000  1.0  -0.1909
  C  C249  1  0.300800  0.656900  0.825900  1.0  0.1446
  C  C250  1  0.279400  0.819000  0.952200  1.0  0.008
  C  C251  1  0.307400  0.834900  0.011800  1.0  -0.074
  C  C252  1  0.276600  0.902800  0.044600  1.0  -0.0736
  C  C253  1  0.218300  0.957900  0.019000  1.0  -0.0633
  C  C254  1  0.188700  0.940400  0.959900  1.0  -0.0454
  C  C255  1  0.218600  0.873800  0.926700  1.0  -0.1121
  C  C256  1  0.126100  0.996900  0.930000  1.0  0.2387
  C  C257  1  0.074700  0.091500  0.867300  1.0  0.2449
  C  C258  1  0.066700  0.162400  0.822900  1.0  -0.0119
  C  C259  1  0.994900  0.163900  0.786500  1.0  -0.0689
  C  C260  1  0.984100  0.230100  0.745100  1.0  -0.0763
  C  C261  1  0.043200  0.292900  0.741300  1.0  -0.1069
  C  C262  1  0.115200  0.292800  0.778100  1.0  0.0164
  C  C263  1  0.125200  0.225200  0.819500  1.0  -0.1045
  C  C264  1  0.180700  0.358500  0.772500  1.0  0.1169
  C  C265  1  0.191500  0.404400  0.718300  1.0  -0.2163
  C  C266  1  0.258600  0.460000  0.712400  1.0  0.1655
  C  C267  1  0.301600  0.432900  0.810100  1.0  0.1733
  C  C268  1  0.237400  0.375500  0.819500  1.0  -0.1926
  C  C269  1  0.588700  0.359400  0.389700  1.0  0.1726
  C  C270  1  0.616700  0.297800  0.429800  1.0  -0.1984
  C  C271  1  0.691400  0.253400  0.414600  1.0  0.1148
  C  C272  1  0.732500  0.280200  0.363000  1.0  -0.1914
  C  C273  1  0.699200  0.343100  0.325900  1.0  0.1441
  C  C274  1  0.720600  0.181000  0.452200  1.0  0.0078
  C  C275  1  0.692600  0.165100  0.511800  1.0  -0.0728
  C  C276  1  0.723400  0.097200  0.544600  1.0  -0.0735
  C  C277  1  0.781700  0.042100  0.519000  1.0  -0.0633
  C  C278  1  0.811300  0.059600  0.459900  1.0  -0.0458
  C  C279  1  0.781400  0.126200  0.426700  1.0  -0.1117
  C  C280  1  0.873900  0.003100  0.430000  1.0  0.2385
  C  C281  1  0.925300  0.908500  0.367300  1.0  0.2455
  C  C282  1  0.933300  0.837600  0.322900  1.0  -0.0123
  C  C283  1  0.005100  0.836100  0.286500  1.0  -0.0704
  C  C284  1  0.015900  0.769900  0.245100  1.0  -0.0744
  C  C285  1  0.956800  0.707100  0.241300  1.0  -0.1078
  C  C286  1  0.884800  0.707200  0.278100  1.0  0.0165
  C  C287  1  0.874800  0.774800  0.319500  1.0  -0.1047
  C  C288  1  0.819300  0.641500  0.272500  1.0  0.1165
  C  C289  1  0.808500  0.595600  0.218300  1.0  -0.2159
  C  C290  1  0.741400  0.540000  0.212400  1.0  0.1655
  C  C291  1  0.698400  0.567100  0.310100  1.0  0.1741
  C  C292  1  0.762600  0.624500  0.319500  1.0  -0.1926
  C  C293  1  0.140600  0.088700  0.639700  1.0  0.172
  C  C294  1  0.202200  0.116700  0.679800  1.0  -0.2002
  C  C295  1  0.246600  0.191400  0.664600  1.0  0.1147
  C  C296  1  0.219800  0.232500  0.613000  1.0  -0.1911
  C  C297  1  0.156900  0.199200  0.575900  1.0  0.143
  C  C298  1  0.319000  0.220600  0.702200  1.0  0.0075
  C  C299  1  0.334900  0.192600  0.761800  1.0  -0.0737
  C  C300  1  0.402800  0.223400  0.794600  1.0  -0.0746
  C  C301  1  0.457900  0.281700  0.769000  1.0  -0.0657
  C  C302  1  0.440400  0.311300  0.709900  1.0  -0.0453
  C  C303  1  0.373800  0.281400  0.676700  1.0  -0.1126
  C  C304  1  0.496900  0.373900  0.680000  1.0  0.2405
  C  C305  1  0.591500  0.425300  0.617300  1.0  0.2457
  C  C306  1  0.662400  0.433300  0.572900  1.0  -0.013
  C  C307  1  0.663900  0.505100  0.536500  1.0  -0.0699
  C  C308  1  0.730100  0.515900  0.495100  1.0  -0.0727
  C  C309  1  0.792900  0.456800  0.491300  1.0  -0.1062
  C  C310  1  0.792800  0.384800  0.528100  1.0  0.0165
  C  C311  1  0.725200  0.374800  0.569500  1.0  -0.1046
  C  C312  1  0.858500  0.319300  0.522500  1.0  0.1167
  C  C313  1  0.904400  0.308500  0.468300  1.0  -0.2159
  C  C314  1  0.960000  0.241400  0.462400  1.0  0.1647
  C  C315  1  0.932900  0.198400  0.560100  1.0  0.1731
  C  C316  1  0.875500  0.262600  0.569500  1.0  -0.1928
  C  C317  1  0.859400  0.911300  0.139700  1.0  0.1714
  C  C318  1  0.797800  0.883300  0.179800  1.0  -0.2003
  C  C319  1  0.753400  0.808600  0.164600  1.0  0.1149
  C  C320  1  0.780200  0.767500  0.113000  1.0  -0.1908
  C  C321  1  0.843100  0.800800  0.075900  1.0  0.1433
  C  C322  1  0.681000  0.779400  0.202200  1.0  0.0078
  C  C323  1  0.665100  0.807400  0.261800  1.0  -0.0735
  C  C324  1  0.597200  0.776600  0.294600  1.0  -0.0739
  C  C325  1  0.542100  0.718300  0.269000  1.0  -0.0659
  C  C326  1  0.559600  0.688700  0.209900  1.0  -0.0451
  C  C327  1  0.626200  0.718600  0.176700  1.0  -0.1125
  C  C328  1  0.503100  0.626100  0.180000  1.0  0.2402
  C  C329  1  0.408500  0.574700  0.117300  1.0  0.2458
  C  C330  1  0.337600  0.566700  0.072900  1.0  -0.013
  C  C331  1  0.336100  0.494900  0.036500  1.0  -0.071
  C  C332  1  0.269900  0.484100  0.995100  1.0  -0.0728
  C  C333  1  0.207100  0.543200  0.991300  1.0  -0.1069
  C  C334  1  0.207200  0.615200  0.028100  1.0  0.0174
  C  C335  1  0.274800  0.625200  0.069500  1.0  -0.104
  C  C336  1  0.141500  0.680700  0.022500  1.0  0.1173
  C  C337  1  0.095600  0.691500  0.968300  1.0  -0.2165
  C  C338  1  0.040000  0.758600  0.962400  1.0  0.1646
  C  C339  1  0.067100  0.801600  0.060100  1.0  0.1729
  C  C340  1  0.124500  0.737400  0.069500  1.0  -0.1926
  N  N341  1  0.125300  0.121100  0.412300  1.0  -0.3433
  N  N342  1  0.455600  0.493900  0.316300  1.0  -0.2366
  N  N343  1  0.489000  0.554700  0.355700  1.0  -0.3068
  N  N344  1  0.351900  0.557600  0.361500  1.0  0.0906
  N  N345  1  0.270400  0.576600  0.383000  1.0  -0.5487
  N  N346  1  0.187100  0.975200  0.492000  1.0  -0.3621
  N  N347  1  0.874700  0.878900  0.912300  1.0  -0.3441
  N  N348  1  0.544400  0.506100  0.816300  1.0  -0.2356
  N  N349  1  0.511000  0.445300  0.855700  1.0  -0.3064
  N  N350  1  0.648100  0.442400  0.861500  1.0  0.0911
  N  N351  1  0.729600  0.423400  0.883000  1.0  -0.5489
  N  N352  1  0.812900  0.024800  0.992000  1.0  -0.3617
  N  N353  1  0.378900  0.625300  0.662300  1.0  -0.3429
  N  N354  1  0.006100  0.955600  0.566300  1.0  -0.2358
  N  N355  1  0.945300  0.989000  0.605700  1.0  -0.3047
  N  N356  1  0.942400  0.851900  0.611500  1.0  0.0915
  N  N357  1  0.923400  0.770400  0.633000  1.0  -0.5492
  N  N358  1  0.524800  0.687100  0.742000  1.0  -0.3623
  N  N359  1  0.621100  0.374700  0.162300  1.0  -0.3434
  N  N360  1  0.993900  0.044400  0.066300  1.0  -0.2358
  N  N361  1  0.054700  0.011000  0.105700  1.0  -0.3045
  N  N362  1  0.057600  0.148100  0.111500  1.0  0.0913
  N  N363  1  0.076600  0.229600  0.133000  1.0  -0.5486
  N  N364  1  0.475200  0.312900  0.242000  1.0  -0.3618
  N  N365  1  0.374700  0.621100  0.837700  1.0  -0.344
  N  N366  1  0.044400  0.993900  0.933700  1.0  -0.2362
  N  N367  1  0.011000  0.054700  0.894300  1.0  -0.3066
  N  N368  1  0.148100  0.057600  0.888500  1.0  0.091
  N  N369  1  0.229600  0.076600  0.867000  1.0  -0.5487
  N  N370  1  0.312900  0.475200  0.758000  1.0  -0.3627
  N  N371  1  0.625300  0.378900  0.337700  1.0  -0.3444
  N  N372  1  0.955600  0.006100  0.433700  1.0  -0.2364
  N  N373  1  0.989000  0.945300  0.394300  1.0  -0.307
  N  N374  1  0.851900  0.942400  0.388500  1.0  0.0907
  N  N375  1  0.770400  0.923400  0.367000  1.0  -0.5483
  N  N376  1  0.687100  0.524800  0.258000  1.0  -0.3616
  N  N377  1  0.121100  0.125300  0.587700  1.0  -0.344
  N  N378  1  0.493900  0.455600  0.683700  1.0  -0.2355
  N  N379  1  0.554700  0.489000  0.644300  1.0  -0.3046
  N  N380  1  0.557600  0.351900  0.638500  1.0  0.0916
  N  N381  1  0.576600  0.270400  0.617000  1.0  -0.5486
  N  N382  1  0.975200  0.187100  0.508000  1.0  -0.3619
  N  N383  1  0.878900  0.874700  0.087700  1.0  -0.3436
  N  N384  1  0.506100  0.544400  0.183700  1.0  -0.2355
  N  N385  1  0.445300  0.511000  0.144300  1.0  -0.3052
  N  N386  1  0.442400  0.648100  0.138500  1.0  0.0914
  N  N387  1  0.423400  0.729600  0.117000  1.0  -0.5489
  N  N388  1  0.024800  0.812900  0.008000  1.0  -0.3621
  Cl  Cl389  1  0.230770  0.230770  0.000000  1.0  1.3368
  Cl  Cl390  1  0.620080  0.620080  0.000000  1.0  1.4903
  Cl  Cl391  1  0.769230  0.769230  0.500000  1.0  1.3335
  Cl  Cl392  1  0.379920  0.379920  0.500000  1.0  1.4898
  Cl  Cl393  1  0.269230  0.730770  0.250000  1.0  1.3348
  Cl  Cl394  1  0.879920  0.120080  0.250000  1.0  1.4902
  Cl  Cl395  1  0.730770  0.269230  0.750000  1.0  1.3347
  Cl  Cl396  1  0.120080  0.879920  0.750000  1.0  1.4901
  O  O397  1  0.261300  0.268100  0.052800  1.0  -0.5723
  O  O398  1  0.286300  0.155900  0.008000  1.0  -0.5192
  O  O399  1  0.268100  0.261300  0.947200  1.0  -0.5725
  O  O400  1  0.155900  0.286300  0.992000  1.0  -0.5183
  O  O401  1  0.654700  0.552800  0.969200  1.0  -0.5421
  O  O402  1  0.672900  0.595300  0.050700  1.0  -0.5692
  O  O403  1  0.552800  0.654700  0.030800  1.0  -0.5433
  O  O404  1  0.595300  0.672900  0.949300  1.0  -0.5698
  O  O405  1  0.738700  0.731900  0.552800  1.0  -0.5719
  O  O406  1  0.713700  0.844100  0.508000  1.0  -0.5199
  O  O407  1  0.731900  0.738700  0.447200  1.0  -0.5725
  O  O408  1  0.844100  0.713700  0.492000  1.0  -0.5198
  O  O409  1  0.345300  0.447200  0.469200  1.0  -0.5426
  O  O410  1  0.327100  0.404700  0.550700  1.0  -0.5689
  O  O411  1  0.447200  0.345300  0.530800  1.0  -0.5429
  O  O412  1  0.404700  0.327100  0.449300  1.0  -0.5707
  O  O413  1  0.231900  0.761300  0.302800  1.0  -0.5727
  O  O414  1  0.344100  0.786300  0.258000  1.0  -0.5204
  O  O415  1  0.238700  0.768100  0.197200  1.0  -0.5722
  O  O416  1  0.213700  0.655900  0.242000  1.0  -0.5189
  O  O417  1  0.947200  0.154700  0.219200  1.0  -0.5435
  O  O418  1  0.904700  0.172900  0.300700  1.0  -0.5709
  O  O419  1  0.845300  0.052800  0.280800  1.0  -0.541
  O  O420  1  0.827100  0.095300  0.199300  1.0  -0.569
  O  O421  1  0.768100  0.238700  0.802800  1.0  -0.5728
  O  O422  1  0.655900  0.213700  0.758000  1.0  -0.5183
  O  O423  1  0.761300  0.231900  0.697200  1.0  -0.5722
  O  O424  1  0.786300  0.344100  0.742000  1.0  -0.5189
  O  O425  1  0.052800  0.845300  0.719200  1.0  -0.5427
  O  O426  1  0.095300  0.827100  0.800700  1.0  -0.5707
  O  O427  1  0.154700  0.947200  0.780800  1.0  -0.54
  O  O428  1  0.172900  0.904700  0.699300  1.0  -0.5689
