# generated using pymatgen
data_CdH36C48N12ClO4
_symmetry_space_group_name_H-M   'P 1'
_cell_length_a   15.86330000
_cell_length_b   15.86330000
_cell_length_c   21.76000000
_cell_angle_alpha   90.00000000
_cell_angle_beta   90.00000000
_cell_angle_gamma   90.00000000
_symmetry_Int_Tables_number   1
_chemical_formula_structural   CdH36C48N12ClO4
_chemical_formula_sum   'Cd4 H144 C192 N48 Cl4 O16'
_cell_volume   5475.77968273
_cell_formula_units_Z   4
loop_
 _symmetry_equiv_pos_site_id
 _symmetry_equiv_pos_as_xyz
  1  'x, y, z'
loop_
 _atom_site_type_symbol
 _atom_site_label
 _atom_site_symmetry_multiplicity
 _atom_site_fract_x
 _atom_site_fract_y
 _atom_site_fract_z
 _atom_site_occupancy
 _atom_site_charge
  Cd  Cd1  1  0.940960  0.059040  0.750000  1.0  0.7879
  Cd  Cd2  1  0.059040  0.940960  0.250000  1.0  0.7881
  Cd  Cd3  1  0.440960  0.440960  0.500000  1.0  0.7884
  Cd  Cd4  1  0.559040  0.559040  0.000000  1.0  0.7877
  H  H5  1  0.464600  0.386900  0.649300  1.0  0.0738
  H  H6  1  0.415500  0.286000  0.716100  1.0  0.1319
  H  H7  1  0.210900  0.262500  0.605900  1.0  0.1275
  H  H8  1  0.269800  0.360400  0.540600  1.0  0.0706
  H  H9  1  0.346800  0.204900  0.781100  1.0  0.0715
  H  H10  1  0.295900  0.091100  0.836200  1.0  0.0975
  H  H11  1  0.197700  0.998500  0.792700  1.0  0.0891
  H  H12  1  0.197200  0.139300  0.637200  1.0  0.1159
  H  H13  1  0.955800  0.881100  0.540200  1.0  0.104
  H  H14  1  0.934800  0.769600  0.473000  1.0  0.0974
  H  H15  1  0.036600  0.665900  0.461800  1.0  0.1057
  H  H16  1  0.175200  0.776900  0.595400  1.0  0.0918
  H  H17  1  0.148700  0.601000  0.437500  1.0  0.1277
  H  H18  1  0.258100  0.504100  0.427300  1.0  0.0663
  H  H19  1  0.342600  0.559700  0.591800  1.0  0.0466
  H  H20  1  0.234500  0.654400  0.607800  1.0  0.1187
  H  H21  1  0.260200  0.898700  0.647000  1.0  0.2997
  H  H22  1  0.257000  0.974900  0.607400  1.0  0.3264
  H  H23  1  0.535400  0.613100  0.149300  1.0  0.0741
  H  H24  1  0.584500  0.714000  0.216100  1.0  0.1319
  H  H25  1  0.789100  0.737500  0.105900  1.0  0.128
  H  H26  1  0.730200  0.639600  0.040600  1.0  0.0707
  H  H27  1  0.653200  0.795100  0.281100  1.0  0.0715
  H  H28  1  0.704100  0.908900  0.336200  1.0  0.0981
  H  H29  1  0.802300  0.001500  0.292700  1.0  0.0886
  H  H30  1  0.802800  0.860700  0.137200  1.0  0.1163
  H  H31  1  0.044200  0.118900  0.040200  1.0  0.1039
  H  H32  1  0.065200  0.230400  0.973000  1.0  0.0981
  H  H33  1  0.963400  0.334100  0.961800  1.0  0.1059
  H  H34  1  0.824800  0.223100  0.095400  1.0  0.0916
  H  H35  1  0.851300  0.399000  0.937500  1.0  0.1277
  H  H36  1  0.741900  0.495900  0.927300  1.0  0.0664
  H  H37  1  0.657400  0.440300  0.091800  1.0  0.0468
  H  H38  1  0.765500  0.345600  0.107800  1.0  0.1189
  H  H39  1  0.739800  0.101300  0.147000  1.0  0.2998
  H  H40  1  0.743000  0.025100  0.107400  1.0  0.3261
  H  H41  1  0.113100  0.964600  0.399300  1.0  0.0744
  H  H42  1  0.214000  0.915500  0.466100  1.0  0.1326
  H  H43  1  0.237500  0.710900  0.355900  1.0  0.1279
  H  H44  1  0.139600  0.769800  0.290600  1.0  0.0706
  H  H45  1  0.295100  0.846800  0.531100  1.0  0.0716
  H  H46  1  0.408900  0.795900  0.586200  1.0  0.0986
  H  H47  1  0.501500  0.697700  0.542700  1.0  0.0883
  H  H48  1  0.360700  0.697200  0.387200  1.0  0.1159
  H  H49  1  0.618900  0.455800  0.290200  1.0  0.1038
  H  H50  1  0.730400  0.434800  0.223000  1.0  0.0972
  H  H51  1  0.834100  0.536600  0.211800  1.0  0.1056
  H  H52  1  0.723100  0.675200  0.345400  1.0  0.0915
  H  H53  1  0.899000  0.648700  0.187500  1.0  0.128
  H  H54  1  0.995900  0.758100  0.177300  1.0  0.0664
  H  H55  1  0.940300  0.842600  0.341800  1.0  0.0475
  H  H56  1  0.845600  0.734500  0.357800  1.0  0.1187
  H  H57  1  0.601300  0.760200  0.397000  1.0  0.2991
  H  H58  1  0.525100  0.757000  0.357400  1.0  0.3264
  H  H59  1  0.886900  0.035400  0.899300  1.0  0.0744
  H  H60  1  0.786000  0.084500  0.966100  1.0  0.1324
  H  H61  1  0.762500  0.289100  0.855900  1.0  0.1281
  H  H62  1  0.860400  0.230200  0.790600  1.0  0.0707
  H  H63  1  0.704900  0.153200  0.031100  1.0  0.0716
  H  H64  1  0.591100  0.204100  0.086200  1.0  0.0988
  H  H65  1  0.498500  0.302300  0.042700  1.0  0.0882
  H  H66  1  0.639300  0.302800  0.887200  1.0  0.1163
  H  H67  1  0.381100  0.544200  0.790200  1.0  0.1034
  H  H68  1  0.269600  0.565200  0.723000  1.0  0.0978
  H  H69  1  0.165900  0.463400  0.711800  1.0  0.1054
  H  H70  1  0.276900  0.324800  0.845400  1.0  0.092
  H  H71  1  0.101000  0.351300  0.687500  1.0  0.1277
  H  H72  1  0.004100  0.241900  0.677300  1.0  0.0666
  H  H73  1  0.059700  0.157400  0.841800  1.0  0.048
  H  H74  1  0.154400  0.265500  0.857800  1.0  0.1185
  H  H75  1  0.398700  0.239800  0.897000  1.0  0.2995
  H  H76  1  0.474900  0.243000  0.857400  1.0  0.3266
  H  H77  1  0.035400  0.886900  0.100700  1.0  0.074
  H  H78  1  0.084500  0.786000  0.033900  1.0  0.1322
  H  H79  1  0.289100  0.762500  0.144100  1.0  0.1284
  H  H80  1  0.230200  0.860400  0.209400  1.0  0.0707
  H  H81  1  0.153200  0.704900  0.968900  1.0  0.0713
  H  H82  1  0.204100  0.591100  0.913800  1.0  0.0985
  H  H83  1  0.302300  0.498500  0.957300  1.0  0.088
  H  H84  1  0.302800  0.639300  0.112800  1.0  0.1163
  H  H85  1  0.544200  0.381100  0.209800  1.0  0.1037
  H  H86  1  0.565200  0.269600  0.277000  1.0  0.0977
  H  H87  1  0.463400  0.165900  0.288200  1.0  0.105
  H  H88  1  0.324800  0.276900  0.154600  1.0  0.0919
  H  H89  1  0.351300  0.101000  0.312500  1.0  0.1281
  H  H90  1  0.241900  0.004100  0.322700  1.0  0.0656
  H  H91  1  0.157400  0.059700  0.158200  1.0  0.0468
  H  H92  1  0.265500  0.154400  0.142200  1.0  0.1192
  H  H93  1  0.239800  0.398700  0.103000  1.0  0.2985
  H  H94  1  0.243000  0.474900  0.142600  1.0  0.3266
  H  H95  1  0.964600  0.113100  0.600700  1.0  0.0735
  H  H96  1  0.915500  0.214000  0.533900  1.0  0.1323
  H  H97  1  0.710900  0.237500  0.644100  1.0  0.1282
  H  H98  1  0.769800  0.139600  0.709400  1.0  0.0708
  H  H99  1  0.846800  0.295100  0.468900  1.0  0.0711
  H  H100  1  0.795900  0.408900  0.413800  1.0  0.0981
  H  H101  1  0.697700  0.501500  0.457300  1.0  0.0894
  H  H102  1  0.697200  0.360700  0.612800  1.0  0.1159
  H  H103  1  0.455800  0.618900  0.709800  1.0  0.1041
  H  H104  1  0.434800  0.730400  0.777000  1.0  0.0976
  H  H105  1  0.536600  0.834100  0.788200  1.0  0.1059
  H  H106  1  0.675200  0.723100  0.654600  1.0  0.0918
  H  H107  1  0.648700  0.899000  0.812500  1.0  0.1278
  H  H108  1  0.758100  0.995900  0.822700  1.0  0.0653
  H  H109  1  0.842600  0.940300  0.658200  1.0  0.0469
  H  H110  1  0.734500  0.845600  0.642200  1.0  0.1189
  H  H111  1  0.760200  0.601300  0.603000  1.0  0.2991
  H  H112  1  0.757000  0.525100  0.642600  1.0  0.3258
  H  H113  1  0.386900  0.464600  0.350700  1.0  0.0742
  H  H114  1  0.286000  0.415500  0.283900  1.0  0.1329
  H  H115  1  0.262500  0.210900  0.394100  1.0  0.1286
  H  H116  1  0.360400  0.269800  0.459400  1.0  0.071
  H  H117  1  0.204900  0.346800  0.218900  1.0  0.0716
  H  H118  1  0.091100  0.295900  0.163800  1.0  0.0987
  H  H119  1  0.998500  0.197700  0.207300  1.0  0.088
  H  H120  1  0.139300  0.197200  0.362800  1.0  0.1162
  H  H121  1  0.881100  0.955800  0.459800  1.0  0.1036
  H  H122  1  0.769600  0.934800  0.527000  1.0  0.0974
  H  H123  1  0.665900  0.036600  0.538200  1.0  0.1054
  H  H124  1  0.776900  0.175200  0.404600  1.0  0.0924
  H  H125  1  0.601000  0.148700  0.562500  1.0  0.1282
  H  H126  1  0.504100  0.258100  0.572700  1.0  0.0657
  H  H127  1  0.559700  0.342600  0.408200  1.0  0.0477
  H  H128  1  0.654400  0.234500  0.392200  1.0  0.1188
  H  H129  1  0.898700  0.260200  0.353000  1.0  0.2989
  H  H130  1  0.974900  0.257000  0.392600  1.0  0.3256
  H  H131  1  0.613100  0.535400  0.850700  1.0  0.0738
  H  H132  1  0.714000  0.584500  0.783900  1.0  0.1326
  H  H133  1  0.737500  0.789100  0.894100  1.0  0.1283
  H  H134  1  0.639600  0.730200  0.959400  1.0  0.0708
  H  H135  1  0.795100  0.653200  0.718900  1.0  0.0715
  H  H136  1  0.908900  0.704100  0.663800  1.0  0.0988
  H  H137  1  0.001500  0.802300  0.707300  1.0  0.0878
  H  H138  1  0.860700  0.802800  0.862800  1.0  0.1158
  H  H139  1  0.118900  0.044200  0.959800  1.0  0.1039
  H  H140  1  0.230400  0.065200  0.027000  1.0  0.0974
  H  H141  1  0.334100  0.963400  0.038200  1.0  0.1051
  H  H142  1  0.223100  0.824800  0.904600  1.0  0.0917
  H  H143  1  0.399000  0.851300  0.062500  1.0  0.1279
  H  H144  1  0.495900  0.741900  0.072700  1.0  0.0662
  H  H145  1  0.440300  0.657400  0.908200  1.0  0.048
  H  H146  1  0.345600  0.765500  0.892200  1.0  0.1189
  H  H147  1  0.101300  0.739800  0.853000  1.0  0.2981
  H  H148  1  0.025100  0.743000  0.892600  1.0  0.3261
  C  C149  1  0.413500  0.358700  0.639400  1.0  0.1537
  C  C150  1  0.385000  0.298600  0.679700  1.0  -0.1988
  C  C151  1  0.309000  0.255800  0.665800  1.0  0.092
  C  C152  1  0.265400  0.284400  0.614600  1.0  -0.2006
  C  C153  1  0.300100  0.344100  0.576300  1.0  0.141
  C  C154  1  0.278500  0.184200  0.703300  1.0  0.0154
  C  C155  1  0.306400  0.168400  0.762800  1.0  -0.0844
  C  C156  1  0.276300  0.100600  0.795600  1.0  -0.0906
  C  C157  1  0.217700  0.045600  0.770000  1.0  -0.1191
  C  C158  1  0.188900  0.060600  0.710600  1.0  -0.05
  C  C159  1  0.218000  0.129200  0.677500  1.0  -0.1313
  C  C160  1  0.126600  0.005100  0.680100  1.0  0.2413
  C  C161  1  0.075800  0.909400  0.618300  1.0  0.2365
  C  C162  1  0.067600  0.839000  0.573900  1.0  0.0063
  C  C163  1  0.996400  0.837200  0.537500  1.0  -0.0994
  C  C164  1  0.984600  0.771700  0.497300  1.0  -0.0876
  C  C165  1  0.043900  0.709100  0.491600  1.0  -0.1219
  C  C166  1  0.114800  0.708700  0.529400  1.0  0.0191
  C  C167  1  0.126400  0.775300  0.570100  1.0  -0.1329
  C  C168  1  0.180700  0.641800  0.522900  1.0  0.0937
  C  C169  1  0.188300  0.594200  0.469900  1.0  -0.21
  C  C170  1  0.254200  0.536200  0.464000  1.0  0.1638
  C  C171  1  0.302800  0.568300  0.559800  1.0  0.1738
  C  C172  1  0.238900  0.625900  0.569600  1.0  -0.2289
  C  C173  1  0.586500  0.641300  0.139400  1.0  0.1542
  C  C174  1  0.615000  0.701400  0.179700  1.0  -0.1996
  C  C175  1  0.691000  0.744200  0.165800  1.0  0.092
  C  C176  1  0.734600  0.715600  0.114600  1.0  -0.2009
  C  C177  1  0.699900  0.655900  0.076300  1.0  0.1405
  C  C178  1  0.721500  0.815800  0.203300  1.0  0.0161
  C  C179  1  0.693600  0.831600  0.262800  1.0  -0.0838
  C  C180  1  0.723700  0.899400  0.295600  1.0  -0.0904
  C  C181  1  0.782300  0.954400  0.270000  1.0  -0.1187
  C  C182  1  0.811100  0.939400  0.210600  1.0  -0.0496
  C  C183  1  0.782000  0.870800  0.177500  1.0  -0.1318
  C  C184  1  0.873400  0.994900  0.180100  1.0  0.2414
  C  C185  1  0.924200  0.090600  0.118300  1.0  0.2362
  C  C186  1  0.932400  0.161000  0.073900  1.0  0.0062
  C  C187  1  0.003600  0.162800  0.037500  1.0  -0.0997
  C  C188  1  0.015400  0.228300  0.997300  1.0  -0.0883
  C  C189  1  0.956100  0.290900  0.991600  1.0  -0.1217
  C  C190  1  0.885200  0.291300  0.029400  1.0  0.0178
  C  C191  1  0.873600  0.224700  0.070100  1.0  -0.1333
  C  C192  1  0.819300  0.358200  0.022900  1.0  0.0929
  C  C193  1  0.811700  0.405800  0.969900  1.0  -0.2082
  C  C194  1  0.745800  0.463800  0.964000  1.0  0.1647
  C  C195  1  0.697200  0.431700  0.059800  1.0  0.1734
  C  C196  1  0.761100  0.374100  0.069600  1.0  -0.2292
  C  C197  1  0.141300  0.913500  0.389400  1.0  0.1534
  C  C198  1  0.201400  0.885000  0.429700  1.0  -0.2018
  C  C199  1  0.244200  0.809000  0.415800  1.0  0.0918
  C  C200  1  0.215600  0.765400  0.364600  1.0  -0.1985
  C  C201  1  0.155900  0.800100  0.326300  1.0  0.1386
  C  C202  1  0.315800  0.778500  0.453300  1.0  0.0152
  C  C203  1  0.331600  0.806400  0.512800  1.0  -0.0843
  C  C204  1  0.399400  0.776300  0.545600  1.0  -0.0906
  C  C205  1  0.454400  0.717700  0.520000  1.0  -0.1171
  C  C206  1  0.439400  0.688900  0.460600  1.0  -0.0492
  C  C207  1  0.370800  0.718000  0.427500  1.0  -0.1321
  C  C208  1  0.494900  0.626600  0.430100  1.0  0.2419
  C  C209  1  0.590600  0.575800  0.368300  1.0  0.2358
  C  C210  1  0.661000  0.567600  0.323900  1.0  0.006
  C  C211  1  0.662800  0.496400  0.287500  1.0  -0.1003
  C  C212  1  0.728300  0.484600  0.247300  1.0  -0.0862
  C  C213  1  0.790900  0.543900  0.241600  1.0  -0.1221
  C  C214  1  0.791300  0.614800  0.279400  1.0  0.0188
  C  C215  1  0.724700  0.626400  0.320100  1.0  -0.1316
  C  C216  1  0.858200  0.680700  0.272900  1.0  0.0936
  C  C217  1  0.905800  0.688300  0.219900  1.0  -0.2098
  C  C218  1  0.963800  0.754200  0.214000  1.0  0.1631
  C  C219  1  0.931700  0.802800  0.309800  1.0  0.1736
  C  C220  1  0.874100  0.738900  0.319600  1.0  -0.2299
  C  C221  1  0.858700  0.086500  0.889400  1.0  0.1539
  C  C222  1  0.798600  0.115000  0.929700  1.0  -0.2009
  C  C223  1  0.755800  0.191000  0.915800  1.0  0.0914
  C  C224  1  0.784400  0.234600  0.864600  1.0  -0.1992
  C  C225  1  0.844100  0.199900  0.826300  1.0  0.1408
  C  C226  1  0.684200  0.221500  0.953300  1.0  0.0147
  C  C227  1  0.668400  0.193600  0.012800  1.0  -0.0846
  C  C228  1  0.600600  0.223700  0.045600  1.0  -0.0909
  C  C229  1  0.545600  0.282300  0.020000  1.0  -0.1169
  C  C230  1  0.560600  0.311100  0.960600  1.0  -0.0494
  C  C231  1  0.629200  0.282000  0.927500  1.0  -0.1322
  C  C232  1  0.505100  0.373400  0.930100  1.0  0.2409
  C  C233  1  0.409400  0.424200  0.868300  1.0  0.2356
  C  C234  1  0.339000  0.432400  0.823900  1.0  0.0052
  C  C235  1  0.337200  0.503600  0.787500  1.0  -0.1017
  C  C236  1  0.271700  0.515400  0.747300  1.0  -0.0864
  C  C237  1  0.209100  0.456100  0.741600  1.0  -0.122
  C  C238  1  0.208700  0.385200  0.779400  1.0  0.0204
  C  C239  1  0.275300  0.373600  0.820100  1.0  -0.1325
  C  C240  1  0.141800  0.319300  0.772900  1.0  0.0937
  C  C241  1  0.094200  0.311700  0.719900  1.0  -0.2091
  C  C242  1  0.036200  0.245800  0.714000  1.0  0.1633
  C  C243  1  0.068300  0.197200  0.809800  1.0  0.1726
  C  C244  1  0.125900  0.261100  0.819600  1.0  -0.2296
  C  C245  1  0.086500  0.858700  0.110600  1.0  0.154
  C  C246  1  0.115000  0.798600  0.070300  1.0  -0.1998
  C  C247  1  0.191000  0.755800  0.084200  1.0  0.0913
  C  C248  1  0.234600  0.784400  0.135400  1.0  -0.2013
  C  C249  1  0.199900  0.844100  0.173700  1.0  0.1402
  C  C250  1  0.221500  0.684200  0.046700  1.0  0.0165
  C  C251  1  0.193600  0.668400  0.987200  1.0  -0.0836
  C  C252  1  0.223700  0.600600  0.954400  1.0  -0.0904
  C  C253  1  0.282300  0.545600  0.980000  1.0  -0.1199
  C  C254  1  0.311100  0.560600  0.039400  1.0  -0.0498
  C  C255  1  0.282000  0.629200  0.072500  1.0  -0.1333
  C  C256  1  0.373400  0.505100  0.069900  1.0  0.2417
  C  C257  1  0.424200  0.409400  0.131700  1.0  0.2356
  C  C258  1  0.432400  0.339000  0.176100  1.0  0.0062
  C  C259  1  0.503600  0.337200  0.212500  1.0  -0.0997
  C  C260  1  0.515400  0.271700  0.252700  1.0  -0.0872
  C  C261  1  0.456100  0.209100  0.258400  1.0  -0.1218
  C  C262  1  0.385200  0.208700  0.220600  1.0  0.0186
  C  C263  1  0.373600  0.275300  0.179900  1.0  -0.133
  C  C264  1  0.319300  0.141800  0.227100  1.0  0.0933
  C  C265  1  0.311700  0.094200  0.280100  1.0  -0.2099
  C  C266  1  0.245800  0.036200  0.286000  1.0  0.1649
  C  C267  1  0.197200  0.068300  0.190200  1.0  0.1734
  C  C268  1  0.261100  0.125900  0.180400  1.0  -0.2285
  C  C269  1  0.913500  0.141300  0.610600  1.0  0.1538
  C  C270  1  0.885000  0.201400  0.570300  1.0  -0.1996
  C  C271  1  0.809000  0.244200  0.584200  1.0  0.0914
  C  C272  1  0.765400  0.215600  0.635400  1.0  -0.2015
  C  C273  1  0.800100  0.155900  0.673700  1.0  0.1409
  C  C274  1  0.778500  0.315800  0.546700  1.0  0.0156
  C  C275  1  0.806400  0.331600  0.487200  1.0  -0.0842
  C  C276  1  0.776300  0.399400  0.454400  1.0  -0.0898
  C  C277  1  0.717700  0.454400  0.480000  1.0  -0.1185
  C  C278  1  0.688900  0.439400  0.539400  1.0  -0.0501
  C  C279  1  0.718000  0.370800  0.572500  1.0  -0.1326
  C  C280  1  0.626600  0.494900  0.569900  1.0  0.2424
  C  C281  1  0.575800  0.590600  0.631700  1.0  0.2366
  C  C282  1  0.567600  0.661000  0.676100  1.0  0.0056
  C  C283  1  0.496400  0.662800  0.712500  1.0  -0.0998
  C  C284  1  0.484600  0.728300  0.752700  1.0  -0.0885
  C  C285  1  0.543900  0.790900  0.758400  1.0  -0.1217
  C  C286  1  0.614800  0.791300  0.720600  1.0  0.0187
  C  C287  1  0.626400  0.724700  0.679900  1.0  -0.1329
  C  C288  1  0.680700  0.858200  0.727100  1.0  0.0936
  C  C289  1  0.688300  0.905800  0.780100  1.0  -0.2101
  C  C290  1  0.754200  0.963800  0.786000  1.0  0.1646
  C  C291  1  0.802800  0.931700  0.690200  1.0  0.1734
  C  C292  1  0.738900  0.874100  0.680400  1.0  -0.2284
  C  C293  1  0.358700  0.413500  0.360600  1.0  0.1536
  C  C294  1  0.298600  0.385000  0.320300  1.0  -0.2019
  C  C295  1  0.255800  0.309000  0.334200  1.0  0.0909
  C  C296  1  0.284400  0.265400  0.385400  1.0  -0.1998
  C  C297  1  0.344100  0.300100  0.423700  1.0  0.1405
  C  C298  1  0.184200  0.278500  0.296700  1.0  0.0153
  C  C299  1  0.168400  0.306400  0.237200  1.0  -0.0842
  C  C300  1  0.100600  0.276300  0.204400  1.0  -0.0901
  C  C301  1  0.045600  0.217700  0.230000  1.0  -0.1165
  C  C302  1  0.060600  0.188900  0.289400  1.0  -0.0489
  C  C303  1  0.129200  0.218000  0.322500  1.0  -0.1336
  C  C304  1  0.005100  0.126600  0.319900  1.0  0.2418
  C  C305  1  0.909400  0.075800  0.381700  1.0  0.235
  C  C306  1  0.839000  0.067600  0.426100  1.0  0.0052
  C  C307  1  0.837200  0.996400  0.462500  1.0  -0.1017
  C  C308  1  0.771700  0.984600  0.502700  1.0  -0.087
  C  C309  1  0.709100  0.043900  0.508400  1.0  -0.1213
  C  C310  1  0.708700  0.114800  0.470600  1.0  0.0196
  C  C311  1  0.775300  0.126400  0.429900  1.0  -0.1323
  C  C312  1  0.641800  0.180700  0.477100  1.0  0.0936
  C  C313  1  0.594200  0.188300  0.530100  1.0  -0.2099
  C  C314  1  0.536200  0.254200  0.536000  1.0  0.1636
  C  C315  1  0.568300  0.302800  0.440200  1.0  0.1727
  C  C316  1  0.625900  0.238900  0.430400  1.0  -0.2294
  C  C317  1  0.641300  0.586500  0.860600  1.0  0.1536
  C  C318  1  0.701400  0.615000  0.820300  1.0  -0.2015
  C  C319  1  0.744200  0.691000  0.834200  1.0  0.091
  C  C320  1  0.715600  0.734600  0.885400  1.0  -0.1991
  C  C321  1  0.655900  0.699900  0.923700  1.0  0.1388
  C  C322  1  0.815800  0.721500  0.796700  1.0  0.015
  C  C323  1  0.831600  0.693600  0.737200  1.0  -0.0844
  C  C324  1  0.899400  0.723700  0.704400  1.0  -0.0909
  C  C325  1  0.954400  0.782300  0.730000  1.0  -0.1176
  C  C326  1  0.939400  0.811100  0.789400  1.0  -0.0496
  C  C327  1  0.870800  0.782000  0.822500  1.0  -0.1327
  C  C328  1  0.994900  0.873400  0.819900  1.0  0.2423
  C  C329  1  0.090600  0.924200  0.881700  1.0  0.2356
  C  C330  1  0.161000  0.932400  0.926100  1.0  0.0056
  C  C331  1  0.162800  0.003600  0.962500  1.0  -0.1008
  C  C332  1  0.228300  0.015400  0.002700  1.0  -0.0865
  C  C333  1  0.290900  0.956100  0.008400  1.0  -0.122
  C  C334  1  0.291300  0.885200  0.970600  1.0  0.0196
  C  C335  1  0.224700  0.873600  0.929900  1.0  -0.1325
  C  C336  1  0.358200  0.819300  0.977100  1.0  0.0933
  C  C337  1  0.405800  0.811700  0.030100  1.0  -0.2096
  C  C338  1  0.463800  0.745800  0.036000  1.0  0.1637
  C  C339  1  0.431700  0.697200  0.940200  1.0  0.1724
  C  C340  1  0.374100  0.761100  0.930400  1.0  -0.2299
  N  N341  1  0.374900  0.380400  0.587290  1.0  -0.3614
  N  N342  1  0.044200  0.006500  0.683800  1.0  -0.2297
  N  N343  1  0.011900  0.945300  0.645570  1.0  -0.2859
  N  N344  1  0.149100  0.944400  0.639570  1.0  0.0886
  N  N345  1  0.230400  0.926000  0.617300  1.0  -0.5508
  N  N346  1  0.312000  0.524100  0.508100  1.0  -0.3665
  N  N347  1  0.625100  0.619600  0.087290  1.0  -0.3613
  N  N348  1  0.955800  0.993500  0.183800  1.0  -0.2299
  N  N349  1  0.988100  0.054700  0.145570  1.0  -0.2874
  N  N350  1  0.850900  0.055600  0.139570  1.0  0.0883
  N  N351  1  0.769600  0.074000  0.117300  1.0  -0.5512
  N  N352  1  0.688000  0.475900  0.008100  1.0  -0.3665
  N  N353  1  0.119600  0.874900  0.337290  1.0  -0.3606
  N  N354  1  0.493500  0.544200  0.433800  1.0  -0.2293
  N  N355  1  0.554700  0.511900  0.395570  1.0  -0.2867
  N  N356  1  0.555600  0.649100  0.389570  1.0  0.0879
  N  N357  1  0.574000  0.730400  0.367300  1.0  -0.5526
  N  N358  1  0.975900  0.812000  0.258100  1.0  -0.3663
  N  N359  1  0.880400  0.125100  0.837290  1.0  -0.3615
  N  N360  1  0.506500  0.455800  0.933800  1.0  -0.2303
  N  N361  1  0.445300  0.488100  0.895570  1.0  -0.2877
  N  N362  1  0.444400  0.350900  0.889570  1.0  0.0879
  N  N363  1  0.426000  0.269600  0.867300  1.0  -0.5519
  N  N364  1  0.024100  0.188000  0.758100  1.0  -0.3668
  N  N365  1  0.125100  0.880400  0.162710  1.0  -0.3615
  N  N366  1  0.455800  0.506500  0.066200  1.0  -0.2301
  N  N367  1  0.488100  0.445300  0.104430  1.0  -0.2873
  N  N368  1  0.350900  0.444400  0.110430  1.0  0.0879
  N  N369  1  0.269600  0.426000  0.132700  1.0  -0.5504
  N  N370  1  0.188000  0.024100  0.241900  1.0  -0.3663
  N  N371  1  0.874900  0.119600  0.662710  1.0  -0.3606
  N  N372  1  0.544200  0.493500  0.566200  1.0  -0.2302
  N  N373  1  0.511900  0.554700  0.604430  1.0  -0.2864
  N  N374  1  0.649100  0.555600  0.610430  1.0  0.0882
  N  N375  1  0.730400  0.574000  0.632700  1.0  -0.5506
  N  N376  1  0.812000  0.975900  0.741900  1.0  -0.3674
  N  N377  1  0.380400  0.374900  0.412710  1.0  -0.3607
  N  N378  1  0.006500  0.044200  0.316200  1.0  -0.2298
  N  N379  1  0.945300  0.011900  0.354430  1.0  -0.2875
  N  N380  1  0.944400  0.149100  0.360430  1.0  0.0878
  N  N381  1  0.926000  0.230400  0.382700  1.0  -0.5521
  N  N382  1  0.524100  0.312000  0.491900  1.0  -0.3667
  N  N383  1  0.619600  0.625100  0.912710  1.0  -0.3611
  N  N384  1  0.993500  0.955800  0.816200  1.0  -0.2299
  N  N385  1  0.054700  0.988100  0.854430  1.0  -0.2866
  N  N386  1  0.055600  0.850900  0.860430  1.0  0.0879
  N  N387  1  0.074000  0.769600  0.882700  1.0  -0.5519
  N  N388  1  0.475900  0.688000  0.991900  1.0  -0.3667
  Cl  Cl389  1  0.877390  0.877390  0.000000  1.0  1.8993
  Cl  Cl390  1  0.122610  0.122610  0.500000  1.0  1.8988
  Cl  Cl391  1  0.622610  0.377390  0.750000  1.0  1.8988
  Cl  Cl392  1  0.377390  0.622610  0.250000  1.0  1.8995
  O  O393  1  0.812300  0.883700  0.964800  1.0  -0.7042
  O  O394  1  0.936500  0.873400  0.961100  1.0  -0.6732
  O  O395  1  0.883700  0.812300  0.035200  1.0  -0.7037
  O  O396  1  0.873400  0.936500  0.038900  1.0  -0.6738
  O  O397  1  0.187700  0.116300  0.464800  1.0  -0.7039
  O  O398  1  0.063500  0.126600  0.461100  1.0  -0.6726
  O  O399  1  0.116300  0.187700  0.535200  1.0  -0.7033
  O  O400  1  0.126600  0.063500  0.538900  1.0  -0.6736
  O  O401  1  0.616300  0.312300  0.714800  1.0  -0.7041
  O  O402  1  0.626600  0.436500  0.711100  1.0  -0.6742
  O  O403  1  0.687700  0.383700  0.785200  1.0  -0.7037
  O  O404  1  0.563500  0.373400  0.788900  1.0  -0.6722
  O  O405  1  0.383700  0.687700  0.214800  1.0  -0.7032
  O  O406  1  0.373400  0.563500  0.211100  1.0  -0.674
  O  O407  1  0.312300  0.616300  0.285200  1.0  -0.7037
  O  O408  1  0.436500  0.626600  0.288900  1.0  -0.6725
