# generated using pymatgen
data_CdH36C48N12(ClO4)2
_symmetry_space_group_name_H-M   'P 1'
_cell_length_a   15.87310000
_cell_length_b   15.87310000
_cell_length_c   21.77600000
_cell_angle_alpha   90.00000000
_cell_angle_beta   90.00000000
_cell_angle_gamma   90.00000000
_symmetry_Int_Tables_number   1
_chemical_formula_structural   CdH36C48N12(ClO4)2
_chemical_formula_sum   'Cd4 H144 C192 N48 Cl8 O32'
_cell_volume   5486.57869141
_cell_formula_units_Z   4
loop_
 _symmetry_equiv_pos_site_id
 _symmetry_equiv_pos_as_xyz
  1  'x, y, z'
loop_
 _atom_site_type_symbol
 _atom_site_label
 _atom_site_symmetry_multiplicity
 _atom_site_fract_x
 _atom_site_fract_y
 _atom_site_fract_z
 _atom_site_occupancy
 _atom_site_charge
  Cd  Cd1  1  0.557860  0.442140  0.250000  1.0  0.7948
  Cd  Cd2  1  0.442140  0.557860  0.750000  1.0  0.7951
  Cd  Cd3  1  0.057860  0.057860  0.500000  1.0  0.7949
  Cd  Cd4  1  0.942140  0.942140  0.000000  1.0  0.795
  H  H5  1  0.036500  0.111900  0.349600  1.0  0.0836
  H  H6  1  0.083900  0.215000  0.284800  1.0  0.1374
  H  H7  1  0.284600  0.243100  0.397200  1.0  0.1236
  H  H8  1  0.227400  0.140900  0.459900  1.0  0.0663
  H  H9  1  0.152600  0.296200  0.220000  1.0  0.0765
  H  H10  1  0.204500  0.409800  0.164000  1.0  0.114
  H  H11  1  0.303000  0.503600  0.208400  1.0  0.0979
  H  H12  1  0.297600  0.366400  0.364400  1.0  0.1014
  H  H13  1  0.544800  0.619500  0.461200  1.0  0.1069
  H  H14  1  0.563800  0.729200  0.529200  1.0  0.1144
  H  H15  1  0.464800  0.833300  0.539100  1.0  0.1004
  H  H16  1  0.325000  0.723400  0.404300  1.0  0.0988
  H  H17  1  0.344400  0.892600  0.565200  1.0  0.1307
  H  H18  1  0.233800  0.989100  0.574400  1.0  0.0642
  H  H19  1  0.160400  0.943000  0.406000  1.0  0.0569
  H  H20  1  0.266400  0.848000  0.390900  1.0  0.1432
  H  H21  1  0.241300  0.527000  0.391000  1.0  0.3216
  H  H22  1  0.240500  0.603900  0.352200  1.0  0.3109
  H  H23  1  0.963500  0.888100  0.849600  1.0  0.0839
  H  H24  1  0.916100  0.785000  0.784800  1.0  0.137
  H  H25  1  0.715400  0.756900  0.897200  1.0  0.1233
  H  H26  1  0.772600  0.859100  0.959900  1.0  0.0659
  H  H27  1  0.847400  0.703800  0.720000  1.0  0.0769
  H  H28  1  0.795500  0.590200  0.664000  1.0  0.1135
  H  H29  1  0.697000  0.496400  0.708400  1.0  0.0968
  H  H30  1  0.702400  0.633600  0.864400  1.0  0.1014
  H  H31  1  0.455200  0.380500  0.961200  1.0  0.1068
  H  H32  1  0.436200  0.270800  0.029200  1.0  0.1144
  H  H33  1  0.535200  0.166700  0.039100  1.0  0.1008
  H  H34  1  0.675000  0.276600  0.904300  1.0  0.0984
  H  H35  1  0.655600  0.107400  0.065200  1.0  0.1288
  H  H36  1  0.766200  0.010900  0.074400  1.0  0.0635
  H  H37  1  0.839600  0.057000  0.906000  1.0  0.0569
  H  H38  1  0.733600  0.152000  0.890900  1.0  0.1443
  H  H39  1  0.758700  0.473000  0.891000  1.0  0.3215
  H  H40  1  0.759500  0.396100  0.852200  1.0  0.3112
  H  H41  1  0.388100  0.536500  0.599600  1.0  0.0835
  H  H42  1  0.285000  0.583900  0.534800  1.0  0.1351
  H  H43  1  0.256900  0.784600  0.647200  1.0  0.1235
  H  H44  1  0.359100  0.727400  0.709900  1.0  0.0662
  H  H45  1  0.203800  0.652600  0.470000  1.0  0.0768
  H  H46  1  0.090200  0.704500  0.414000  1.0  0.1144
  H  H47  1  0.996400  0.803000  0.458400  1.0  0.0979
  H  H48  1  0.133600  0.797600  0.614400  1.0  0.1017
  H  H49  1  0.880500  0.044800  0.711200  1.0  0.1068
  H  H50  1  0.770800  0.063800  0.779200  1.0  0.1148
  H  H51  1  0.666667  0.964800  0.789100  1.0  0.1003
  H  H52  1  0.776600  0.825000  0.654300  1.0  0.0993
  H  H53  1  0.607400  0.844400  0.815200  1.0  0.1311
  H  H54  1  0.510900  0.733800  0.824400  1.0  0.0647
  H  H55  1  0.557000  0.660400  0.656000  1.0  0.0577
  H  H56  1  0.652000  0.766400  0.640900  1.0  0.1435
  H  H57  1  0.973000  0.741300  0.641000  1.0  0.3219
  H  H58  1  0.896100  0.740500  0.602200  1.0  0.3114
  H  H59  1  0.611900  0.463500  0.099600  1.0  0.0844
  H  H60  1  0.715000  0.416100  0.034800  1.0  0.1374
  H  H61  1  0.743100  0.215400  0.147200  1.0  0.1237
  H  H62  1  0.640900  0.272600  0.209900  1.0  0.0665
  H  H63  1  0.796200  0.347400  0.970000  1.0  0.0773
  H  H64  1  0.909800  0.295500  0.914000  1.0  0.1144
  H  H65  1  0.003600  0.197000  0.958400  1.0  0.0969
  H  H66  1  0.866400  0.202400  0.114400  1.0  0.1013
  H  H67  1  0.119500  0.955200  0.211200  1.0  0.1071
  H  H68  1  0.229200  0.936200  0.279200  1.0  0.1146
  H  H69  1  0.333333  0.035200  0.289100  1.0  0.1003
  H  H70  1  0.223400  0.175000  0.154300  1.0  0.0988
  H  H71  1  0.392600  0.155600  0.315200  1.0  0.1292
  H  H72  1  0.489100  0.266200  0.324400  1.0  0.0634
  H  H73  1  0.443000  0.339600  0.156000  1.0  0.0571
  H  H74  1  0.348000  0.233600  0.140900  1.0  0.1437
  H  H75  1  0.027000  0.258700  0.141000  1.0  0.3221
  H  H76  1  0.103900  0.259500  0.102200  1.0  0.3108
  H  H77  1  0.463500  0.611900  0.900400  1.0  0.0844
  H  H78  1  0.416100  0.715000  0.965200  1.0  0.1365
  H  H79  1  0.215400  0.743100  0.852800  1.0  0.1233
  H  H80  1  0.272600  0.640900  0.790100  1.0  0.0657
  H  H81  1  0.347400  0.796200  0.030000  1.0  0.0763
  H  H82  1  0.295500  0.909800  0.086000  1.0  0.1141
  H  H83  1  0.197000  0.003600  0.041600  1.0  0.0968
  H  H84  1  0.202400  0.866400  0.885600  1.0  0.102
  H  H85  1  0.955200  0.119500  0.788800  1.0  0.1065
  H  H86  1  0.936200  0.229200  0.720800  1.0  0.1149
  H  H87  1  0.035200  0.333333  0.710900  1.0  0.1009
  H  H88  1  0.175000  0.223400  0.845700  1.0  0.0983
  H  H89  1  0.155600  0.392600  0.684800  1.0  0.1282
  H  H90  1  0.266200  0.489100  0.675600  1.0  0.0632
  H  H91  1  0.339600  0.443000  0.844000  1.0  0.057
  H  H92  1  0.233600  0.348000  0.859100  1.0  0.1442
  H  H93  1  0.258700  0.027000  0.859000  1.0  0.3207
  H  H94  1  0.259500  0.103900  0.897800  1.0  0.3117
  H  H95  1  0.536500  0.388100  0.400400  1.0  0.0841
  H  H96  1  0.583900  0.285000  0.465200  1.0  0.1348
  H  H97  1  0.784600  0.256900  0.352800  1.0  0.1234
  H  H98  1  0.727400  0.359100  0.290100  1.0  0.0662
  H  H99  1  0.652600  0.203800  0.530000  1.0  0.0764
  H  H100  1  0.704500  0.090200  0.586000  1.0  0.1142
  H  H101  1  0.803000  0.996400  0.541600  1.0  0.0976
  H  H102  1  0.797600  0.133600  0.385600  1.0  0.1015
  H  H103  1  0.044800  0.880500  0.288800  1.0  0.1066
  H  H104  1  0.063800  0.770800  0.220800  1.0  0.1133
  H  H105  1  0.964800  0.666667  0.210900  1.0  0.1006
  H  H106  1  0.825000  0.776600  0.345700  1.0  0.0986
  H  H107  1  0.844400  0.607400  0.184800  1.0  0.1289
  H  H108  1  0.733800  0.510900  0.175600  1.0  0.0641
  H  H109  1  0.660400  0.557000  0.344000  1.0  0.0571
  H  H110  1  0.766400  0.652000  0.359100  1.0  0.1447
  H  H111  1  0.741300  0.973000  0.359000  1.0  0.3219
  H  H112  1  0.740500  0.896100  0.397800  1.0  0.3129
  H  H113  1  0.111900  0.036500  0.650400  1.0  0.0843
  H  H114  1  0.215000  0.083900  0.715200  1.0  0.1373
  H  H115  1  0.243100  0.284600  0.602800  1.0  0.1238
  H  H116  1  0.140900  0.227400  0.540100  1.0  0.0662
  H  H117  1  0.296200  0.152600  0.780000  1.0  0.0766
  H  H118  1  0.409800  0.204500  0.836000  1.0  0.1141
  H  H119  1  0.503600  0.303000  0.791600  1.0  0.0983
  H  H120  1  0.366400  0.297600  0.635600  1.0  0.1014
  H  H121  1  0.619500  0.544800  0.538800  1.0  0.1069
  H  H122  1  0.729200  0.563800  0.470800  1.0  0.1149
  H  H123  1  0.833300  0.464800  0.460900  1.0  0.1008
  H  H124  1  0.723400  0.325000  0.595700  1.0  0.099
  H  H125  1  0.892600  0.344400  0.434800  1.0  0.1295
  H  H126  1  0.989100  0.233800  0.425600  1.0  0.0646
  H  H127  1  0.943000  0.160400  0.594000  1.0  0.0577
  H  H128  1  0.848000  0.266400  0.609100  1.0  0.142
  H  H129  1  0.527000  0.241300  0.609000  1.0  0.3196
  H  H130  1  0.603900  0.240500  0.647800  1.0  0.3138
  H  H131  1  0.888100  0.963500  0.150400  1.0  0.0841
  H  H132  1  0.785000  0.916100  0.215200  1.0  0.1372
  H  H133  1  0.756900  0.715400  0.102800  1.0  0.1236
  H  H134  1  0.859100  0.772600  0.040100  1.0  0.0657
  H  H135  1  0.703800  0.847400  0.280000  1.0  0.0769
  H  H136  1  0.590200  0.795500  0.336000  1.0  0.114
  H  H137  1  0.496400  0.697000  0.291600  1.0  0.0965
  H  H138  1  0.633600  0.702400  0.135600  1.0  0.1025
  H  H139  1  0.380500  0.455200  0.038800  1.0  0.1071
  H  H140  1  0.270800  0.436200  0.970800  1.0  0.115
  H  H141  1  0.166700  0.535200  0.960900  1.0  0.1003
  H  H142  1  0.276600  0.675000  0.095700  1.0  0.099
  H  H143  1  0.107400  0.655600  0.934800  1.0  0.1286
  H  H144  1  0.010900  0.766200  0.925600  1.0  0.0632
  H  H145  1  0.057000  0.839600  0.094000  1.0  0.0571
  H  H146  1  0.152000  0.733600  0.109100  1.0  0.1437
  H  H147  1  0.473000  0.758700  0.109000  1.0  0.3216
  H  H148  1  0.396100  0.759500  0.147800  1.0  0.3117
  C  C149  1  0.086400  0.141400  0.360400  1.0  0.1653
  C  C150  1  0.114300  0.202600  0.321300  1.0  -0.1925
  C  C151  1  0.188500  0.247000  0.335600  1.0  0.1121
  C  C152  1  0.231400  0.219400  0.387200  1.0  -0.2027
  C  C153  1  0.197200  0.157500  0.424200  1.0  0.1466
  C  C154  1  0.218500  0.319300  0.298400  1.0  0.0093
  C  C155  1  0.192300  0.333333  0.238300  1.0  -0.0775
  C  C156  1  0.223300  0.400900  0.204900  1.0  -0.081
  C  C157  1  0.282500  0.456600  0.230900  1.0  -0.0554
  C  C158  1  0.309900  0.440800  0.290300  1.0  -0.04
  C  C159  1  0.278500  0.374900  0.323500  1.0  -0.1194
  C  C160  1  0.371900  0.496900  0.319700  1.0  0.2332
  C  C161  1  0.424300  0.591600  0.381900  1.0  0.2445
  C  C162  1  0.432600  0.661600  0.426300  1.0  -0.0245
  C  C163  1  0.504000  0.663200  0.463800  1.0  -0.0662
  C  C164  1  0.514700  0.727700  0.504200  1.0  -0.0622
  C  C165  1  0.456400  0.790000  0.509600  1.0  -0.1044
  C  C166  1  0.382900  0.792000  0.471800  1.0  0.0119
  C  C167  1  0.373100  0.725100  0.430100  1.0  -0.1028
  C  C168  1  0.318100  0.857700  0.478000  1.0  0.1183
  C  C169  1  0.307200  0.901400  0.531700  1.0  -0.2103
  C  C170  1  0.240400  0.959500  0.536800  1.0  0.1763
  C  C171  1  0.198300  0.932500  0.439000  1.0  0.1679
  C  C172  1  0.261000  0.875500  0.429400  1.0  -0.1891
  C  C173  1  0.913600  0.858600  0.860400  1.0  0.1645
  C  C174  1  0.885700  0.797400  0.821300  1.0  -0.1919
  C  C175  1  0.811500  0.753000  0.835600  1.0  0.1127
  C  C176  1  0.768600  0.780600  0.887200  1.0  -0.2022
  C  C177  1  0.802800  0.842500  0.924200  1.0  0.1465
  C  C178  1  0.781500  0.680700  0.798400  1.0  0.0086
  C  C179  1  0.807700  0.666667  0.738300  1.0  -0.0774
  C  C180  1  0.776700  0.599100  0.704900  1.0  -0.0818
  C  C181  1  0.717500  0.543400  0.730900  1.0  -0.0534
  C  C182  1  0.690100  0.559200  0.790300  1.0  -0.0405
  C  C183  1  0.721500  0.625100  0.823500  1.0  -0.1185
  C  C184  1  0.628100  0.503100  0.819700  1.0  0.2341
  C  C185  1  0.575700  0.408400  0.881900  1.0  0.2471
  C  C186  1  0.567400  0.338400  0.926300  1.0  -0.0237
  C  C187  1  0.496000  0.336800  0.963800  1.0  -0.0611
  C  C188  1  0.485300  0.272300  0.004200  1.0  -0.0698
  C  C189  1  0.543600  0.210000  0.009600  1.0  -0.1046
  C  C190  1  0.617100  0.208000  0.971800  1.0  0.0125
  C  C191  1  0.626900  0.274900  0.930100  1.0  -0.1031
  C  C192  1  0.681900  0.142300  0.978000  1.0  0.1176
  C  C193  1  0.692800  0.098600  0.031700  1.0  -0.2114
  C  C194  1  0.759600  0.040500  0.036800  1.0  0.1764
  C  C195  1  0.801700  0.067500  0.939000  1.0  0.1677
  C  C196  1  0.739000  0.124500  0.929400  1.0  -0.1887
  C  C197  1  0.358600  0.586400  0.610400  1.0  0.1645
  C  C198  1  0.297400  0.614300  0.571300  1.0  -0.1947
  C  C199  1  0.253000  0.688500  0.585600  1.0  0.1113
  C  C200  1  0.280600  0.731400  0.637200  1.0  -0.2015
  C  C201  1  0.342500  0.697200  0.674200  1.0  0.1455
  C  C202  1  0.180700  0.718500  0.548400  1.0  0.0081
  C  C203  1  0.166700  0.692300  0.488300  1.0  -0.0771
  C  C204  1  0.099100  0.723300  0.454900  1.0  -0.0829
  C  C205  1  0.043400  0.782500  0.480900  1.0  -0.0569
  C  C206  1  0.059200  0.809900  0.540300  1.0  -0.0405
  C  C207  1  0.125100  0.778500  0.573500  1.0  -0.1195
  C  C208  1  0.003100  0.871900  0.569700  1.0  0.2357
  C  C209  1  0.908400  0.924300  0.631900  1.0  0.2485
  C  C210  1  0.838400  0.932600  0.676300  1.0  -0.0249
  C  C211  1  0.836800  0.004000  0.713800  1.0  -0.062
  C  C212  1  0.772300  0.014700  0.754200  1.0  -0.0625
  C  C213  1  0.710000  0.956400  0.759600  1.0  -0.1052
  C  C214  1  0.708000  0.882900  0.721800  1.0  0.0148
  C  C215  1  0.774900  0.873100  0.680100  1.0  -0.102
  C  C216  1  0.642300  0.818100  0.728000  1.0  0.1187
  C  C217  1  0.598600  0.807200  0.781700  1.0  -0.2106
  C  C218  1  0.540500  0.740400  0.786800  1.0  0.1747
  C  C219  1  0.567500  0.698300  0.689000  1.0  0.1673
  C  C220  1  0.624500  0.761000  0.679400  1.0  -0.19
  C  C221  1  0.641400  0.413600  0.110400  1.0  0.1639
  C  C222  1  0.702600  0.385700  0.071300  1.0  -0.1942
  C  C223  1  0.747000  0.311500  0.085600  1.0  0.1117
  C  C224  1  0.719400  0.268600  0.137200  1.0  -0.202
  C  C225  1  0.657500  0.302800  0.174200  1.0  0.1448
  C  C226  1  0.819300  0.281500  0.048400  1.0  0.0078
  C  C227  1  0.833300  0.307700  0.988300  1.0  -0.0769
  C  C228  1  0.900900  0.276700  0.954900  1.0  -0.0804
  C  C229  1  0.956600  0.217500  0.980900  1.0  -0.0566
  C  C230  1  0.940800  0.190100  0.040300  1.0  -0.0394
  C  C231  1  0.874900  0.221500  0.073500  1.0  -0.1195
  C  C232  1  0.996900  0.128100  0.069700  1.0  0.2354
  C  C233  1  0.091600  0.075700  0.131900  1.0  0.2464
  C  C234  1  0.161600  0.067400  0.176300  1.0  -0.0243
  C  C235  1  0.163200  0.996000  0.213800  1.0  -0.065
  C  C236  1  0.227700  0.985300  0.254200  1.0  -0.0624
  C  C237  1  0.290000  0.043600  0.259600  1.0  -0.1051
  C  C238  1  0.292000  0.117100  0.221800  1.0  0.014
  C  C239  1  0.225100  0.126900  0.180100  1.0  -0.102
  C  C240  1  0.357700  0.181900  0.228000  1.0  0.1188
  C  C241  1  0.401400  0.192800  0.281700  1.0  -0.2108
  C  C242  1  0.459500  0.259600  0.286800  1.0  0.1754
  C  C243  1  0.432500  0.301700  0.189000  1.0  0.1679
  C  C244  1  0.375500  0.239000  0.179400  1.0  -0.1896
  C  C245  1  0.413600  0.641400  0.889600  1.0  0.1641
  C  C246  1  0.385700  0.702600  0.928700  1.0  -0.1917
  C  C247  1  0.311500  0.747000  0.914400  1.0  0.113
  C  C248  1  0.268600  0.719400  0.862800  1.0  -0.2009
  C  C249  1  0.302800  0.657500  0.825800  1.0  0.1484
  C  C250  1  0.281500  0.819300  0.951600  1.0  0.0085
  C  C251  1  0.307700  0.833300  0.011700  1.0  -0.0774
  C  C252  1  0.276700  0.900900  0.045100  1.0  -0.0791
  C  C253  1  0.217500  0.956600  0.019100  1.0  -0.0535
  C  C254  1  0.190100  0.940800  0.959700  1.0  -0.0399
  C  C255  1  0.221500  0.874900  0.926500  1.0  -0.1187
  C  C256  1  0.128100  0.996900  0.930300  1.0  0.2338
  C  C257  1  0.075700  0.091600  0.868100  1.0  0.2456
  C  C258  1  0.067400  0.161600  0.823700  1.0  -0.0244
  C  C259  1  0.996000  0.163200  0.786200  1.0  -0.0613
  C  C260  1  0.985300  0.227700  0.745800  1.0  -0.0669
  C  C261  1  0.043600  0.290000  0.740400  1.0  -0.1065
  C  C262  1  0.117100  0.292000  0.778200  1.0  0.0145
  C  C263  1  0.126900  0.225100  0.819900  1.0  -0.1025
  C  C264  1  0.181900  0.357700  0.772000  1.0  0.1182
  C  C265  1  0.192800  0.401400  0.718300  1.0  -0.2106
  C  C266  1  0.259600  0.459500  0.713200  1.0  0.1763
  C  C267  1  0.301700  0.432500  0.811000  1.0  0.1679
  C  C268  1  0.239000  0.375500  0.820600  1.0  -0.1899
  C  C269  1  0.586400  0.358600  0.389600  1.0  0.1653
  C  C270  1  0.614300  0.297400  0.428700  1.0  -0.1926
  C  C271  1  0.688500  0.253000  0.414400  1.0  0.1131
  C  C272  1  0.731400  0.280600  0.362800  1.0  -0.203
  C  C273  1  0.697200  0.342500  0.325800  1.0  0.1468
  C  C274  1  0.718500  0.180700  0.451600  1.0  0.0083
  C  C275  1  0.692300  0.166700  0.511700  1.0  -0.0766
  C  C276  1  0.723300  0.099100  0.545100  1.0  -0.082
  C  C277  1  0.782500  0.043400  0.519100  1.0  -0.0551
  C  C278  1  0.809900  0.059200  0.459700  1.0  -0.0403
  C  C279  1  0.778500  0.125100  0.426500  1.0  -0.1193
  C  C280  1  0.871900  0.003100  0.430300  1.0  0.2331
  C  C281  1  0.924300  0.908400  0.368100  1.0  0.2459
  C  C282  1  0.932600  0.838400  0.323700  1.0  -0.0242
  C  C283  1  0.004000  0.836800  0.286200  1.0  -0.0618
  C  C284  1  0.014700  0.772300  0.245800  1.0  -0.0628
  C  C285  1  0.956400  0.710000  0.240400  1.0  -0.107
  C  C286  1  0.882900  0.708000  0.278200  1.0  0.014
  C  C287  1  0.873100  0.774900  0.319900  1.0  -0.1023
  C  C288  1  0.818100  0.642300  0.272000  1.0  0.1181
  C  C289  1  0.807200  0.598600  0.218300  1.0  -0.2106
  C  C290  1  0.740400  0.540500  0.213200  1.0  0.1765
  C  C291  1  0.698300  0.567500  0.311000  1.0  0.1684
  C  C292  1  0.761000  0.624500  0.320600  1.0  -0.1891
  C  C293  1  0.141400  0.086400  0.639600  1.0  0.1644
  C  C294  1  0.202600  0.114300  0.678700  1.0  -0.1942
  C  C295  1  0.247000  0.188500  0.664400  1.0  0.1125
  C  C296  1  0.219400  0.231400  0.612800  1.0  -0.2018
  C  C297  1  0.157500  0.197200  0.575800  1.0  0.1452
  C  C298  1  0.319300  0.218500  0.701600  1.0  0.0096
  C  C299  1  0.333333  0.192300  0.761700  1.0  -0.0777
  C  C300  1  0.400900  0.223300  0.795100  1.0  -0.0803
  C  C301  1  0.456600  0.282500  0.769100  1.0  -0.0561
  C  C302  1  0.440800  0.309900  0.709700  1.0  -0.0399
  C  C303  1  0.374900  0.278500  0.676500  1.0  -0.1191
  C  C304  1  0.496900  0.371900  0.680300  1.0  0.2354
  C  C305  1  0.591600  0.424300  0.618100  1.0  0.2438
  C  C306  1  0.661600  0.432600  0.573700  1.0  -0.025
  C  C307  1  0.663200  0.504000  0.536200  1.0  -0.0609
  C  C308  1  0.727700  0.514700  0.495800  1.0  -0.0631
  C  C309  1  0.790000  0.456400  0.490400  1.0  -0.1024
  C  C310  1  0.792000  0.382900  0.528200  1.0  0.0132
  C  C311  1  0.725100  0.373100  0.569900  1.0  -0.1023
  C  C312  1  0.857700  0.318100  0.522000  1.0  0.1187
  C  C313  1  0.901400  0.307200  0.468300  1.0  -0.2102
  C  C314  1  0.959500  0.240400  0.463200  1.0  0.1754
  C  C315  1  0.932500  0.198300  0.561000  1.0  0.1679
  C  C316  1  0.875500  0.261000  0.570600  1.0  -0.1892
  C  C317  1  0.858600  0.913600  0.139600  1.0  0.1634
  C  C318  1  0.797400  0.885700  0.178700  1.0  -0.1939
  C  C319  1  0.753000  0.811500  0.164400  1.0  0.1123
  C  C320  1  0.780600  0.768600  0.112800  1.0  -0.2014
  C  C321  1  0.842500  0.802800  0.075800  1.0  0.1462
  C  C322  1  0.680700  0.781500  0.201600  1.0  0.0096
  C  C323  1  0.666667  0.807700  0.261700  1.0  -0.0786
  C  C324  1  0.599100  0.776700  0.295100  1.0  -0.0799
  C  C325  1  0.543400  0.717500  0.269100  1.0  -0.0567
  C  C326  1  0.559200  0.690100  0.209700  1.0  -0.0398
  C  C327  1  0.625100  0.721500  0.176500  1.0  -0.1194
  C  C328  1  0.503100  0.628100  0.180300  1.0  0.2356
  C  C329  1  0.408400  0.575700  0.118100  1.0  0.2478
  C  C330  1  0.338400  0.567400  0.073700  1.0  -0.0247
  C  C331  1  0.336800  0.496000  0.036200  1.0  -0.0626
  C  C332  1  0.272300  0.485300  0.995800  1.0  -0.0645
  C  C333  1  0.210000  0.543600  0.990400  1.0  -0.1032
  C  C334  1  0.208000  0.617100  0.028200  1.0  0.0126
  C  C335  1  0.274900  0.626900  0.069900  1.0  -0.1012
  C  C336  1  0.142300  0.681900  0.022000  1.0  0.1188
  C  C337  1  0.098600  0.692800  0.968300  1.0  -0.2105
  C  C338  1  0.040500  0.759600  0.963200  1.0  0.1747
  C  C339  1  0.067500  0.801700  0.061000  1.0  0.1676
  C  C340  1  0.124500  0.739000  0.070600  1.0  -0.1895
  N  N341  1  0.124200  0.120200  0.412600  1.0  -0.3487
  N  N342  1  0.455200  0.494600  0.316000  1.0  -0.2364
  N  N343  1  0.487900  0.554100  0.355100  1.0  -0.2862
  N  N344  1  0.350700  0.556600  0.360900  1.0  0.0992
  N  N345  1  0.268900  0.575700  0.382100  1.0  -0.5517
  N  N346  1  0.186100  0.975000  0.491600  1.0  -0.3645
  N  N347  1  0.875800  0.879800  0.912600  1.0  -0.3496
  N  N348  1  0.544800  0.505400  0.816000  1.0  -0.2365
  N  N349  1  0.512100  0.445900  0.855100  1.0  -0.2895
  N  N350  1  0.649300  0.443400  0.860900  1.0  0.0998
  N  N351  1  0.731100  0.424300  0.882100  1.0  -0.5516
  N  N352  1  0.813900  0.025000  0.991600  1.0  -0.3647
  N  N353  1  0.379800  0.624200  0.662600  1.0  -0.3493
  N  N354  1  0.005400  0.955200  0.566000  1.0  -0.2365
  N  N355  1  0.945900  0.987900  0.605100  1.0  -0.287
  N  N356  1  0.943400  0.850700  0.610900  1.0  0.0996
  N  N357  1  0.924300  0.768900  0.632100  1.0  -0.5523
  N  N358  1  0.525000  0.686100  0.741600  1.0  -0.3651
  N  N359  1  0.620200  0.375800  0.162600  1.0  -0.3491
  N  N360  1  0.994600  0.044800  0.066000  1.0  -0.236
  N  N361  1  0.054100  0.012100  0.105100  1.0  -0.2856
  N  N362  1  0.056600  0.149300  0.110900  1.0  0.1
  N  N363  1  0.075700  0.231100  0.132100  1.0  -0.5521
  N  N364  1  0.475000  0.313900  0.241600  1.0  -0.3642
  N  N365  1  0.375800  0.620200  0.837400  1.0  -0.3495
  N  N366  1  0.044800  0.994600  0.934000  1.0  -0.237
  N  N367  1  0.012100  0.054100  0.894900  1.0  -0.2869
  N  N368  1  0.149300  0.056600  0.889100  1.0  0.0999
  N  N369  1  0.231100  0.075700  0.867900  1.0  -0.5509
  N  N370  1  0.313900  0.475000  0.758400  1.0  -0.3656
  N  N371  1  0.624200  0.379800  0.337400  1.0  -0.3493
  N  N372  1  0.955200  0.005400  0.434000  1.0  -0.2366
  N  N373  1  0.987900  0.945900  0.394900  1.0  -0.2862
  N  N374  1  0.850700  0.943400  0.389100  1.0  0.0994
  N  N375  1  0.768900  0.924300  0.367900  1.0  -0.5507
  N  N376  1  0.686100  0.525000  0.258400  1.0  -0.3643
  N  N377  1  0.120200  0.124200  0.587400  1.0  -0.3497
  N  N378  1  0.494600  0.455200  0.684000  1.0  -0.2364
  N  N379  1  0.554100  0.487900  0.644900  1.0  -0.285
  N  N380  1  0.556600  0.350700  0.639100  1.0  0.1002
  N  N381  1  0.575700  0.268900  0.617900  1.0  -0.5512
  N  N382  1  0.975000  0.186100  0.508400  1.0  -0.3648
  N  N383  1  0.879800  0.875800  0.087400  1.0  -0.3493
  N  N384  1  0.505400  0.544800  0.184000  1.0  -0.2354
  N  N385  1  0.445900  0.512100  0.144900  1.0  -0.2883
  N  N386  1  0.443400  0.649300  0.139100  1.0  0.0997
  N  N387  1  0.424300  0.731100  0.117900  1.0  -0.5521
  N  N388  1  0.025000  0.813900  0.008400  1.0  -0.365
  Cl  Cl389  1  0.231620  0.231620  0.000000  1.0  1.473
  Cl  Cl390  1  0.621090  0.621090  0.000000  1.0  1.5716
  Cl  Cl391  1  0.768380  0.768380  0.500000  1.0  1.4739
  Cl  Cl392  1  0.378910  0.378910  0.500000  1.0  1.5369
  Cl  Cl393  1  0.268380  0.731620  0.250000  1.0  1.4743
  Cl  Cl394  1  0.878910  0.121090  0.250000  1.0  1.5375
  Cl  Cl395  1  0.731620  0.268380  0.750000  1.0  1.473
  Cl  Cl396  1  0.121090  0.878910  0.750000  1.0  1.5692
  O  O397  1  0.261300  0.272700  0.052200  1.0  -0.6299
  O  O398  1  0.276900  0.157800  0.008000  1.0  -0.5122
  O  O399  1  0.272700  0.261300  0.947800  1.0  -0.6283
  O  O400  1  0.157800  0.276900  0.992000  1.0  -0.5119
  O  O401  1  0.642000  0.551600  0.971300  1.0  -0.5989
  O  O402  1  0.664500  0.597000  0.053400  1.0  -0.5914
  O  O403  1  0.551600  0.642000  0.028700  1.0  -0.5999
  O  O404  1  0.597000  0.664500  0.946600  1.0  -0.5891
  O  O405  1  0.738700  0.727300  0.552200  1.0  -0.6292
  O  O406  1  0.723100  0.842200  0.508000  1.0  -0.5124
  O  O407  1  0.727300  0.738700  0.447800  1.0  -0.6288
  O  O408  1  0.842200  0.723100  0.492000  1.0  -0.5127
  O  O409  1  0.358000  0.448400  0.471300  1.0  -0.5992
  O  O410  1  0.335500  0.403000  0.553400  1.0  -0.5907
  O  O411  1  0.448400  0.358000  0.528700  1.0  -0.5996
  O  O412  1  0.403000  0.335500  0.446600  1.0  -0.5907
  O  O413  1  0.227300  0.761300  0.302200  1.0  -0.6311
  O  O414  1  0.342200  0.776900  0.258000  1.0  -0.5129
  O  O415  1  0.238700  0.772700  0.197800  1.0  -0.629
  O  O416  1  0.223100  0.657800  0.242000  1.0  -0.5117
  O  O417  1  0.948400  0.142000  0.221300  1.0  -0.5993
  O  O418  1  0.903000  0.164500  0.303400  1.0  -0.59
  O  O419  1  0.858000  0.051600  0.278700  1.0  -0.5993
  O  O420  1  0.835500  0.097000  0.196600  1.0  -0.5906
  O  O421  1  0.772700  0.238700  0.802200  1.0  -0.6296
  O  O422  1  0.657800  0.223100  0.758000  1.0  -0.512
  O  O423  1  0.761300  0.227300  0.697800  1.0  -0.6279
  O  O424  1  0.776900  0.342200  0.742000  1.0  -0.5117
  O  O425  1  0.051600  0.858000  0.721300  1.0  -0.6002
  O  O426  1  0.097000  0.835500  0.803400  1.0  -0.5914
  O  O427  1  0.142000  0.948400  0.778700  1.0  -0.598
  O  O428  1  0.164500  0.903000  0.696600  1.0  -0.5902
