# generated using pymatgen
data_CdH36C48N12(ClO4)2
_symmetry_space_group_name_H-M   'P 1'
_cell_length_a   15.87700000
_cell_length_b   15.87700000
_cell_length_c   21.80600000
_cell_angle_alpha   90.00000000
_cell_angle_beta   90.00000000
_cell_angle_gamma   90.00000000
_symmetry_Int_Tables_number   1
_chemical_formula_structural   CdH36C48N12(ClO4)2
_chemical_formula_sum   'Cd4 H144 C192 N48 Cl8 O32'
_cell_volume   5496.83748697
_cell_formula_units_Z   4
loop_
 _symmetry_equiv_pos_site_id
 _symmetry_equiv_pos_as_xyz
  1  'x, y, z'
loop_
 _atom_site_type_symbol
 _atom_site_label
 _atom_site_symmetry_multiplicity
 _atom_site_fract_x
 _atom_site_fract_y
 _atom_site_fract_z
 _atom_site_occupancy
 _atom_site_charge
  Cd  Cd1  1  0.557810  0.442190  0.250000  1.0  0.8
  Cd  Cd2  1  0.442190  0.557810  0.750000  1.0  0.8003
  Cd  Cd3  1  0.057810  0.057810  0.500000  1.0  0.8
  Cd  Cd4  1  0.942190  0.942190  0.000000  1.0  0.8003
  H  H5  1  0.036600  0.110900  0.350600  1.0  0.0828
  H  H6  1  0.084100  0.214600  0.284500  1.0  0.1387
  H  H7  1  0.284400  0.243400  0.396800  1.0  0.1232
  H  H8  1  0.227800  0.141100  0.459400  1.0  0.0657
  H  H9  1  0.153400  0.294800  0.220200  1.0  0.0818
  H  H10  1  0.202500  0.410400  0.164600  1.0  0.1147
  H  H11  1  0.304300  0.503400  0.208600  1.0  0.0998
  H  H12  1  0.297600  0.365200  0.364700  1.0  0.1067
  H  H13  1  0.545100  0.619400  0.460900  1.0  0.1089
  H  H14  1  0.563400  0.728500  0.530400  1.0  0.1192
  H  H15  1  0.464400  0.833600  0.538600  1.0  0.1006
  H  H16  1  0.325100  0.724700  0.403800  1.0  0.1036
  H  H17  1  0.344100  0.891800  0.565100  1.0  0.1325
  H  H18  1  0.234600  0.989400  0.574100  1.0  0.0671
  H  H19  1  0.161000  0.943100  0.406000  1.0  0.0624
  H  H20  1  0.266700  0.848500  0.391200  1.0  0.1427
  H  H21  1  0.241600  0.527200  0.391200  1.0  0.3222
  H  H22  1  0.240700  0.604100  0.352300  1.0  0.2962
  H  H23  1  0.963400  0.889100  0.850600  1.0  0.0832
  H  H24  1  0.915900  0.785400  0.784500  1.0  0.1383
  H  H25  1  0.715600  0.756600  0.896800  1.0  0.1227
  H  H26  1  0.772200  0.858900  0.959400  1.0  0.0656
  H  H27  1  0.846600  0.705200  0.720200  1.0  0.0819
  H  H28  1  0.797500  0.589600  0.664600  1.0  0.1147
  H  H29  1  0.695700  0.496600  0.708600  1.0  0.0997
  H  H30  1  0.702400  0.634800  0.864700  1.0  0.1067
  H  H31  1  0.454900  0.380600  0.960900  1.0  0.1089
  H  H32  1  0.436600  0.271500  0.030400  1.0  0.119
  H  H33  1  0.535600  0.166400  0.038600  1.0  0.101
  H  H34  1  0.674900  0.275300  0.903800  1.0  0.1031
  H  H35  1  0.655900  0.108200  0.065100  1.0  0.1327
  H  H36  1  0.765400  0.010600  0.074100  1.0  0.0674
  H  H37  1  0.839000  0.056900  0.906000  1.0  0.0624
  H  H38  1  0.733300  0.151500  0.891200  1.0  0.1424
  H  H39  1  0.758400  0.472800  0.891200  1.0  0.3212
  H  H40  1  0.759300  0.395900  0.852300  1.0  0.2966
  H  H41  1  0.389100  0.536600  0.600600  1.0  0.0827
  H  H42  1  0.285400  0.584100  0.534500  1.0  0.1391
  H  H43  1  0.256600  0.784400  0.646800  1.0  0.1232
  H  H44  1  0.358900  0.727800  0.709400  1.0  0.0657
  H  H45  1  0.205200  0.653400  0.470200  1.0  0.0819
  H  H46  1  0.089600  0.702500  0.414600  1.0  0.1154
  H  H47  1  0.996600  0.804300  0.458600  1.0  0.0996
  H  H48  1  0.134800  0.797600  0.614700  1.0  0.1066
  H  H49  1  0.880600  0.045100  0.710900  1.0  0.1087
  H  H50  1  0.771500  0.063400  0.780400  1.0  0.1195
  H  H51  1  0.666400  0.964400  0.788600  1.0  0.1008
  H  H52  1  0.775300  0.825100  0.653800  1.0  0.1041
  H  H53  1  0.608200  0.844100  0.815100  1.0  0.1335
  H  H54  1  0.510600  0.734600  0.824100  1.0  0.0674
  H  H55  1  0.556900  0.661000  0.656000  1.0  0.063
  H  H56  1  0.651500  0.766700  0.641200  1.0  0.1417
  H  H57  1  0.972800  0.741600  0.641200  1.0  0.3225
  H  H58  1  0.895900  0.740700  0.602300  1.0  0.2966
  H  H59  1  0.610900  0.463400  0.100600  1.0  0.0832
  H  H60  1  0.714600  0.415900  0.034500  1.0  0.1392
  H  H61  1  0.743400  0.215600  0.146800  1.0  0.1232
  H  H62  1  0.641100  0.272200  0.209400  1.0  0.066
  H  H63  1  0.794800  0.346600  0.970200  1.0  0.0826
  H  H64  1  0.910400  0.297500  0.914600  1.0  0.1152
  H  H65  1  0.003400  0.195700  0.958600  1.0  0.0993
  H  H66  1  0.865200  0.202400  0.114700  1.0  0.1068
  H  H67  1  0.119400  0.954900  0.210900  1.0  0.1091
  H  H68  1  0.228500  0.936600  0.280400  1.0  0.1194
  H  H69  1  0.333600  0.035600  0.288600  1.0  0.1009
  H  H70  1  0.224700  0.174900  0.153800  1.0  0.1036
  H  H71  1  0.391800  0.155900  0.315100  1.0  0.1329
  H  H72  1  0.489400  0.265400  0.324100  1.0  0.0673
  H  H73  1  0.443100  0.339000  0.156000  1.0  0.0625
  H  H74  1  0.348500  0.233300  0.141200  1.0  0.1417
  H  H75  1  0.027200  0.258400  0.141200  1.0  0.3226
  H  H76  1  0.104100  0.259300  0.102300  1.0  0.2955
  H  H77  1  0.463400  0.610900  0.899400  1.0  0.0835
  H  H78  1  0.415900  0.714600  0.965500  1.0  0.1381
  H  H79  1  0.215600  0.743400  0.853200  1.0  0.1228
  H  H80  1  0.272200  0.641100  0.790600  1.0  0.0653
  H  H81  1  0.346600  0.794800  0.029800  1.0  0.0818
  H  H82  1  0.297500  0.910400  0.085400  1.0  0.1145
  H  H83  1  0.195700  0.003400  0.041400  1.0  0.0991
  H  H84  1  0.202400  0.865200  0.885300  1.0  0.1067
  H  H85  1  0.954900  0.119400  0.789100  1.0  0.1086
  H  H86  1  0.936600  0.228500  0.719600  1.0  0.1193
  H  H87  1  0.035600  0.333600  0.711400  1.0  0.1012
  H  H88  1  0.174900  0.224700  0.846200  1.0  0.1027
  H  H89  1  0.155900  0.391800  0.684900  1.0  0.1326
  H  H90  1  0.265400  0.489400  0.675900  1.0  0.0662
  H  H91  1  0.339000  0.443100  0.844000  1.0  0.0621
  H  H92  1  0.233300  0.348500  0.858800  1.0  0.142
  H  H93  1  0.258400  0.027200  0.858800  1.0  0.321
  H  H94  1  0.259300  0.104100  0.897700  1.0  0.2971
  H  H95  1  0.536600  0.389100  0.399400  1.0  0.0836
  H  H96  1  0.584100  0.285400  0.465500  1.0  0.1385
  H  H97  1  0.784400  0.256600  0.353200  1.0  0.1229
  H  H98  1  0.727800  0.358900  0.290600  1.0  0.0655
  H  H99  1  0.653400  0.205200  0.529800  1.0  0.0818
  H  H100  1  0.702500  0.089600  0.585400  1.0  0.1148
  H  H101  1  0.804300  0.996600  0.541400  1.0  0.0993
  H  H102  1  0.797600  0.134800  0.385300  1.0  0.1069
  H  H103  1  0.045100  0.880600  0.289100  1.0  0.1086
  H  H104  1  0.063400  0.771500  0.219600  1.0  0.1192
  H  H105  1  0.964400  0.666400  0.211400  1.0  0.1009
  H  H106  1  0.825100  0.775300  0.346200  1.0  0.1031
  H  H107  1  0.844100  0.608200  0.184900  1.0  0.1325
  H  H108  1  0.734600  0.510600  0.175900  1.0  0.0662
  H  H109  1  0.661000  0.556900  0.344000  1.0  0.0619
  H  H110  1  0.766700  0.651500  0.358800  1.0  0.1426
  H  H111  1  0.741600  0.972800  0.358800  1.0  0.3219
  H  H112  1  0.740700  0.895900  0.397700  1.0  0.2978
  H  H113  1  0.110900  0.036600  0.649400  1.0  0.0833
  H  H114  1  0.214600  0.084100  0.715500  1.0  0.1387
  H  H115  1  0.243400  0.284400  0.603200  1.0  0.1234
  H  H116  1  0.141100  0.227800  0.540600  1.0  0.0657
  H  H117  1  0.294800  0.153400  0.779800  1.0  0.0817
  H  H118  1  0.410400  0.202500  0.835400  1.0  0.1151
  H  H119  1  0.503400  0.304300  0.791400  1.0  0.0989
  H  H120  1  0.365200  0.297600  0.635300  1.0  0.1071
  H  H121  1  0.619400  0.545100  0.539100  1.0  0.109
  H  H122  1  0.728500  0.563400  0.469600  1.0  0.1197
  H  H123  1  0.833600  0.464400  0.461400  1.0  0.101
  H  H124  1  0.724700  0.325100  0.596200  1.0  0.1034
  H  H125  1  0.891800  0.344100  0.434900  1.0  0.1332
  H  H126  1  0.989400  0.234600  0.425900  1.0  0.0664
  H  H127  1  0.943100  0.161000  0.594000  1.0  0.0626
  H  H128  1  0.848500  0.266700  0.608800  1.0  0.1414
  H  H129  1  0.527200  0.241600  0.608800  1.0  0.3211
  H  H130  1  0.604100  0.240700  0.647700  1.0  0.2966
  H  H131  1  0.889100  0.963400  0.149400  1.0  0.0832
  H  H132  1  0.785400  0.915900  0.215500  1.0  0.1387
  H  H133  1  0.756600  0.715600  0.103200  1.0  0.1229
  H  H134  1  0.858900  0.772200  0.040600  1.0  0.0653
  H  H135  1  0.705200  0.846600  0.279800  1.0  0.082
  H  H136  1  0.589600  0.797500  0.335400  1.0  0.115
  H  H137  1  0.496600  0.695700  0.291400  1.0  0.0991
  H  H138  1  0.634800  0.702400  0.135300  1.0  0.107
  H  H139  1  0.380600  0.454900  0.039100  1.0  0.109
  H  H140  1  0.271500  0.436600  0.969600  1.0  0.1193
  H  H141  1  0.166400  0.535600  0.961400  1.0  0.1007
  H  H142  1  0.275300  0.674900  0.096200  1.0  0.1034
  H  H143  1  0.108200  0.655900  0.934900  1.0  0.1331
  H  H144  1  0.010600  0.765400  0.925900  1.0  0.0661
  H  H145  1  0.056900  0.839000  0.094000  1.0  0.0623
  H  H146  1  0.151500  0.733300  0.108800  1.0  0.1416
  H  H147  1  0.472800  0.758400  0.108800  1.0  0.3223
  H  H148  1  0.395900  0.759300  0.147700  1.0  0.2962
  C  C149  1  0.086500  0.140700  0.361100  1.0  0.1676
  C  C150  1  0.114400  0.202500  0.321000  1.0  -0.192
  C  C151  1  0.188600  0.247000  0.335400  1.0  0.1121
  C  C152  1  0.231200  0.219600  0.386800  1.0  -0.2054
  C  C153  1  0.197200  0.157700  0.423900  1.0  0.1444
  C  C154  1  0.218200  0.319800  0.298000  1.0  0.0157
  C  C155  1  0.192300  0.332800  0.238500  1.0  -0.0847
  C  C156  1  0.222500  0.400900  0.205100  1.0  -0.0778
  C  C157  1  0.283100  0.456700  0.231100  1.0  -0.0787
  C  C158  1  0.309900  0.440300  0.290200  1.0  -0.0418
  C  C159  1  0.278500  0.374200  0.323900  1.0  -0.1228
  C  C160  1  0.371800  0.496700  0.319500  1.0  0.2373
  C  C161  1  0.423800  0.591600  0.382000  1.0  0.2457
  C  C162  1  0.432400  0.661500  0.426200  1.0  -0.0186
  C  C163  1  0.504200  0.662900  0.463900  1.0  -0.0619
  C  C164  1  0.514900  0.727300  0.504900  1.0  -0.0737
  C  C165  1  0.456100  0.789900  0.509400  1.0  -0.1037
  C  C166  1  0.383500  0.791900  0.472100  1.0  0.0047
  C  C167  1  0.373000  0.725600  0.429900  1.0  -0.1087
  C  C168  1  0.318000  0.858000  0.477600  1.0  0.1204
  C  C169  1  0.307100  0.901200  0.531500  1.0  -0.2087
  C  C170  1  0.240800  0.959500  0.536600  1.0  0.1729
  C  C171  1  0.198600  0.932700  0.439100  1.0  0.1687
  C  C172  1  0.261200  0.876000  0.429700  1.0  -0.1949
  C  C173  1  0.913500  0.859300  0.861100  1.0  0.1675
  C  C174  1  0.885600  0.797500  0.821000  1.0  -0.1918
  C  C175  1  0.811400  0.753000  0.835400  1.0  0.1123
  C  C176  1  0.768800  0.780400  0.886800  1.0  -0.2054
  C  C177  1  0.802800  0.842300  0.923900  1.0  0.1443
  C  C178  1  0.781800  0.680200  0.798000  1.0  0.0156
  C  C179  1  0.807700  0.667200  0.738500  1.0  -0.0862
  C  C180  1  0.777500  0.599100  0.705100  1.0  -0.077
  C  C181  1  0.716900  0.543300  0.731100  1.0  -0.0761
  C  C182  1  0.690100  0.559700  0.790200  1.0  -0.0421
  C  C183  1  0.721500  0.625800  0.823900  1.0  -0.1223
  C  C184  1  0.628200  0.503300  0.819500  1.0  0.2376
  C  C185  1  0.576200  0.408400  0.882000  1.0  0.2453
  C  C186  1  0.567600  0.338500  0.926200  1.0  -0.0175
  C  C187  1  0.495800  0.337100  0.963900  1.0  -0.0605
  C  C188  1  0.485100  0.272700  0.004900  1.0  -0.074
  C  C189  1  0.543900  0.210100  0.009400  1.0  -0.1031
  C  C190  1  0.616500  0.208100  0.972100  1.0  0.0049
  C  C191  1  0.627000  0.274400  0.929900  1.0  -0.1089
  C  C192  1  0.682000  0.142000  0.977600  1.0  0.1196
  C  C193  1  0.692900  0.098800  0.031500  1.0  -0.2095
  C  C194  1  0.759200  0.040500  0.036600  1.0  0.1728
  C  C195  1  0.801400  0.067300  0.939100  1.0  0.1683
  C  C196  1  0.738800  0.124000  0.929700  1.0  -0.1945
  C  C197  1  0.359300  0.586500  0.611100  1.0  0.1666
  C  C198  1  0.297500  0.614400  0.571000  1.0  -0.195
  C  C199  1  0.253000  0.688600  0.585400  1.0  0.1117
  C  C200  1  0.280400  0.731200  0.636800  1.0  -0.2046
  C  C201  1  0.342300  0.697200  0.673900  1.0  0.143
  C  C202  1  0.180200  0.718200  0.548000  1.0  0.0152
  C  C203  1  0.167200  0.692300  0.488500  1.0  -0.0858
  C  C204  1  0.099100  0.722500  0.455100  1.0  -0.0769
  C  C205  1  0.043300  0.783100  0.481100  1.0  -0.0855
  C  C206  1  0.059700  0.809900  0.540200  1.0  -0.0417
  C  C207  1  0.125800  0.778500  0.573900  1.0  -0.123
  C  C208  1  0.003300  0.871800  0.569500  1.0  0.2388
  C  C209  1  0.908400  0.923800  0.632000  1.0  0.2467
  C  C210  1  0.838500  0.932400  0.676200  1.0  -0.0185
  C  C211  1  0.837100  0.004200  0.713900  1.0  -0.0622
  C  C212  1  0.772700  0.014900  0.754900  1.0  -0.0711
  C  C213  1  0.710100  0.956100  0.759400  1.0  -0.102
  C  C214  1  0.708100  0.883500  0.722100  1.0  0.006
  C  C215  1  0.774400  0.873000  0.679900  1.0  -0.1075
  C  C216  1  0.642000  0.818000  0.727600  1.0  0.1206
  C  C217  1  0.598800  0.807100  0.781500  1.0  -0.2093
  C  C218  1  0.540500  0.740800  0.786600  1.0  0.1714
  C  C219  1  0.567300  0.698600  0.689100  1.0  0.1681
  C  C220  1  0.624000  0.761200  0.679700  1.0  -0.1951
  C  C221  1  0.640700  0.413500  0.111100  1.0  0.1668
  C  C222  1  0.702500  0.385600  0.071000  1.0  -0.1946
  C  C223  1  0.747000  0.311400  0.085400  1.0  0.1114
  C  C224  1  0.719600  0.268800  0.136800  1.0  -0.2048
  C  C225  1  0.657700  0.302800  0.173900  1.0  0.1424
  C  C226  1  0.819800  0.281800  0.048000  1.0  0.0148
  C  C227  1  0.832800  0.307700  0.988500  1.0  -0.0818
  C  C228  1  0.900900  0.277500  0.955100  1.0  -0.0762
  C  C229  1  0.956700  0.216900  0.981100  1.0  -0.0835
  C  C230  1  0.940300  0.190100  0.040200  1.0  -0.0416
  C  C231  1  0.874200  0.221500  0.073900  1.0  -0.1231
  C  C232  1  0.996700  0.128200  0.069500  1.0  0.2388
  C  C233  1  0.091600  0.076200  0.132000  1.0  0.2465
  C  C234  1  0.161500  0.067600  0.176200  1.0  -0.0181
  C  C235  1  0.162900  0.995800  0.213900  1.0  -0.0617
  C  C236  1  0.227300  0.985100  0.254900  1.0  -0.0714
  C  C237  1  0.289900  0.043900  0.259400  1.0  -0.1024
  C  C238  1  0.291900  0.116500  0.222100  1.0  0.0047
  C  C239  1  0.225600  0.127000  0.179900  1.0  -0.1078
  C  C240  1  0.358000  0.182000  0.227600  1.0  0.1218
  C  C241  1  0.401200  0.192900  0.281500  1.0  -0.2092
  C  C242  1  0.459500  0.259200  0.286600  1.0  0.1719
  C  C243  1  0.432700  0.301400  0.189100  1.0  0.1684
  C  C244  1  0.376000  0.238800  0.179700  1.0  -0.195
  C  C245  1  0.413500  0.640700  0.888900  1.0  0.1672
  C  C246  1  0.385600  0.702500  0.929000  1.0  -0.1915
  C  C247  1  0.311400  0.747000  0.914600  1.0  0.1131
  C  C248  1  0.268800  0.719600  0.863200  1.0  -0.2051
  C  C249  1  0.302800  0.657700  0.826100  1.0  0.1445
  C  C250  1  0.281800  0.819800  0.952000  1.0  0.0165
  C  C251  1  0.307700  0.832800  0.011500  1.0  -0.0866
  C  C252  1  0.277500  0.900900  0.044900  1.0  -0.0764
  C  C253  1  0.216900  0.956700  0.018900  1.0  -0.0751
  C  C254  1  0.190100  0.940300  0.959800  1.0  -0.0419
  C  C255  1  0.221500  0.874200  0.926100  1.0  -0.1224
  C  C256  1  0.128200  0.996700  0.930500  1.0  0.2372
  C  C257  1  0.076200  0.091600  0.868000  1.0  0.2455
  C  C258  1  0.067600  0.161500  0.823800  1.0  -0.0181
  C  C259  1  0.995800  0.162900  0.786100  1.0  -0.0609
  C  C260  1  0.985100  0.227300  0.745100  1.0  -0.0736
  C  C261  1  0.043900  0.289900  0.740600  1.0  -0.1026
  C  C262  1  0.116500  0.291900  0.777900  1.0  0.0051
  C  C263  1  0.127000  0.225600  0.820100  1.0  -0.1083
  C  C264  1  0.182000  0.358000  0.772400  1.0  0.1201
  C  C265  1  0.192900  0.401200  0.718500  1.0  -0.2093
  C  C266  1  0.259200  0.459500  0.713400  1.0  0.173
  C  C267  1  0.301400  0.432700  0.810900  1.0  0.169
  C  C268  1  0.238800  0.376000  0.820300  1.0  -0.1945
  C  C269  1  0.586500  0.359300  0.388900  1.0  0.1675
  C  C270  1  0.614400  0.297500  0.429000  1.0  -0.1914
  C  C271  1  0.688600  0.253000  0.414600  1.0  0.113
  C  C272  1  0.731200  0.280400  0.363200  1.0  -0.2055
  C  C273  1  0.697200  0.342300  0.326100  1.0  0.1446
  C  C274  1  0.718200  0.180200  0.452000  1.0  0.0157
  C  C275  1  0.692300  0.167200  0.511500  1.0  -0.085
  C  C276  1  0.722500  0.099100  0.544900  1.0  -0.0764
  C  C277  1  0.783100  0.043300  0.518900  1.0  -0.0782
  C  C278  1  0.809900  0.059700  0.459800  1.0  -0.0418
  C  C279  1  0.778500  0.125800  0.426100  1.0  -0.1229
  C  C280  1  0.871800  0.003300  0.430500  1.0  0.2368
  C  C281  1  0.923800  0.908400  0.368000  1.0  0.246
  C  C282  1  0.932400  0.838500  0.323800  1.0  -0.0188
  C  C283  1  0.004200  0.837100  0.286100  1.0  -0.0612
  C  C284  1  0.014900  0.772700  0.245100  1.0  -0.0723
  C  C285  1  0.956100  0.710100  0.240600  1.0  -0.104
  C  C286  1  0.883500  0.708100  0.277900  1.0  0.0051
  C  C287  1  0.873000  0.774400  0.320100  1.0  -0.1082
  C  C288  1  0.818000  0.642000  0.272400  1.0  0.1204
  C  C289  1  0.807100  0.598800  0.218500  1.0  -0.2091
  C  C290  1  0.740800  0.540500  0.213400  1.0  0.1726
  C  C291  1  0.698600  0.567300  0.310900  1.0  0.1695
  C  C292  1  0.761200  0.624000  0.320300  1.0  -0.1944
  C  C293  1  0.140700  0.086500  0.638900  1.0  0.1668
  C  C294  1  0.202500  0.114400  0.679000  1.0  -0.1936
  C  C295  1  0.247000  0.188600  0.664600  1.0  0.1125
  C  C296  1  0.219600  0.231200  0.613200  1.0  -0.2046
  C  C297  1  0.157700  0.197200  0.576100  1.0  0.1428
  C  C298  1  0.319800  0.218200  0.702000  1.0  0.0153
  C  C299  1  0.332800  0.192300  0.761500  1.0  -0.0845
  C  C300  1  0.400900  0.222500  0.794900  1.0  -0.0749
  C  C301  1  0.456700  0.283100  0.768900  1.0  -0.0826
  C  C302  1  0.440300  0.309900  0.709800  1.0  -0.0416
  C  C303  1  0.374200  0.278500  0.676100  1.0  -0.1229
  C  C304  1  0.496700  0.371800  0.680500  1.0  0.2388
  C  C305  1  0.591600  0.423800  0.618000  1.0  0.2467
  C  C306  1  0.661500  0.432400  0.573800  1.0  -0.0186
  C  C307  1  0.662900  0.504200  0.536100  1.0  -0.0619
  C  C308  1  0.727300  0.514900  0.495100  1.0  -0.0696
  C  C309  1  0.789900  0.456100  0.490600  1.0  -0.1027
  C  C310  1  0.791900  0.383500  0.527900  1.0  0.0053
  C  C311  1  0.725600  0.373000  0.570100  1.0  -0.1077
  C  C312  1  0.858000  0.318000  0.522400  1.0  0.1208
  C  C313  1  0.901200  0.307100  0.468500  1.0  -0.2085
  C  C314  1  0.959500  0.240800  0.463400  1.0  0.1715
  C  C315  1  0.932700  0.198600  0.560900  1.0  0.1687
  C  C316  1  0.876000  0.261200  0.570300  1.0  -0.1946
  C  C317  1  0.859300  0.913500  0.138900  1.0  0.1661
  C  C318  1  0.797500  0.885600  0.179000  1.0  -0.1946
  C  C319  1  0.753000  0.811400  0.164600  1.0  0.1125
  C  C320  1  0.780400  0.768800  0.113200  1.0  -0.2044
  C  C321  1  0.842300  0.802800  0.076100  1.0  0.1439
  C  C322  1  0.680200  0.781800  0.202000  1.0  0.0159
  C  C323  1  0.667200  0.807700  0.261500  1.0  -0.084
  C  C324  1  0.599100  0.777500  0.294900  1.0  -0.0752
  C  C325  1  0.543300  0.716900  0.268900  1.0  -0.0859
  C  C326  1  0.559700  0.690100  0.209800  1.0  -0.0416
  C  C327  1  0.625800  0.721500  0.176100  1.0  -0.1234
  C  C328  1  0.503300  0.628200  0.180500  1.0  0.2382
  C  C329  1  0.408400  0.576200  0.118000  1.0  0.2467
  C  C330  1  0.338500  0.567600  0.073800  1.0  -0.0186
  C  C331  1  0.337100  0.495800  0.036100  1.0  -0.0623
  C  C332  1  0.272700  0.485100  0.995100  1.0  -0.0712
  C  C333  1  0.210100  0.543900  0.990600  1.0  -0.1018
  C  C334  1  0.208100  0.616500  0.027900  1.0  0.0052
  C  C335  1  0.274400  0.627000  0.070100  1.0  -0.1071
  C  C336  1  0.142000  0.682000  0.022400  1.0  0.1216
  C  C337  1  0.098800  0.692900  0.968500  1.0  -0.2091
  C  C338  1  0.040500  0.759200  0.963400  1.0  0.1712
  C  C339  1  0.067300  0.801400  0.060900  1.0  0.169
  C  C340  1  0.124000  0.738800  0.070300  1.0  -0.1949
  N  N341  1  0.124600  0.120400  0.412600  1.0  -0.3433
  N  N342  1  0.455100  0.494500  0.315700  1.0  -0.2343
  N  N343  1  0.487800  0.554700  0.354900  1.0  -0.2953
  N  N344  1  0.350600  0.557000  0.360700  1.0  0.0976
  N  N345  1  0.269200  0.575900  0.382200  1.0  -0.5513
  N  N346  1  0.185700  0.975100  0.491300  1.0  -0.3637
  N  N347  1  0.875400  0.879600  0.912600  1.0  -0.344
  N  N348  1  0.544900  0.505500  0.815700  1.0  -0.2339
  N  N349  1  0.512200  0.445300  0.854900  1.0  -0.2949
  N  N350  1  0.649400  0.443000  0.860700  1.0  0.0979
  N  N351  1  0.730800  0.424100  0.882200  1.0  -0.5509
  N  N352  1  0.814300  0.024900  0.991300  1.0  -0.3642
  N  N353  1  0.379600  0.624600  0.662600  1.0  -0.3428
  N  N354  1  0.005500  0.955100  0.565700  1.0  -0.2341
  N  N355  1  0.945300  0.987800  0.604900  1.0  -0.2941
  N  N356  1  0.943000  0.850600  0.610700  1.0  0.0976
  N  N357  1  0.924100  0.769200  0.632200  1.0  -0.552
  N  N358  1  0.524900  0.685700  0.741300  1.0  -0.3639
  N  N359  1  0.620400  0.375400  0.162600  1.0  -0.3436
  N  N360  1  0.994500  0.044900  0.065700  1.0  -0.2336
  N  N361  1  0.054700  0.012200  0.104900  1.0  -0.294
  N  N362  1  0.057000  0.149400  0.110700  1.0  0.0978
  N  N363  1  0.075900  0.230800  0.132200  1.0  -0.5519
  N  N364  1  0.475100  0.314300  0.241300  1.0  -0.3636
  N  N365  1  0.375400  0.620400  0.837400  1.0  -0.3441
  N  N366  1  0.044900  0.994500  0.934300  1.0  -0.2347
  N  N367  1  0.012200  0.054700  0.895100  1.0  -0.2942
  N  N368  1  0.149400  0.057000  0.889300  1.0  0.0979
  N  N369  1  0.230800  0.075900  0.867800  1.0  -0.5507
  N  N370  1  0.314300  0.475100  0.758700  1.0  -0.3648
  N  N371  1  0.624600  0.379600  0.337400  1.0  -0.3447
  N  N372  1  0.955100  0.005500  0.434300  1.0  -0.2347
  N  N373  1  0.987800  0.945300  0.395100  1.0  -0.2945
  N  N374  1  0.850600  0.943000  0.389300  1.0  0.0976
  N  N375  1  0.769200  0.924100  0.367800  1.0  -0.5507
  N  N376  1  0.685700  0.524900  0.258700  1.0  -0.3635
  N  N377  1  0.120400  0.124600  0.587400  1.0  -0.3445
  N  N378  1  0.494500  0.455100  0.684300  1.0  -0.2341
  N  N379  1  0.554700  0.487800  0.645100  1.0  -0.2933
  N  N380  1  0.557000  0.350600  0.639300  1.0  0.0979
  N  N381  1  0.575900  0.269200  0.617800  1.0  -0.551
  N  N382  1  0.975100  0.185700  0.508700  1.0  -0.3638
  N  N383  1  0.879600  0.875400  0.087400  1.0  -0.3436
  N  N384  1  0.505500  0.544900  0.184300  1.0  -0.2338
  N  N385  1  0.445300  0.512200  0.145100  1.0  -0.2938
  N  N386  1  0.443000  0.649400  0.139300  1.0  0.0976
  N  N387  1  0.424100  0.730800  0.117800  1.0  -0.5516
  N  N388  1  0.024900  0.814300  0.008700  1.0  -0.3639
  Cl  Cl389  1  0.231780  0.231780  0.000000  1.0  1.4955
  Cl  Cl390  1  0.621160  0.621160  0.000000  1.0  1.5373
  Cl  Cl391  1  0.768220  0.768220  0.500000  1.0  1.496
  Cl  Cl392  1  0.378840  0.378840  0.500000  1.0  1.5376
  Cl  Cl393  1  0.268220  0.731780  0.250000  1.0  1.496
  Cl  Cl394  1  0.878840  0.121160  0.250000  1.0  1.5377
  Cl  Cl395  1  0.731780  0.268220  0.750000  1.0  1.4954
  Cl  Cl396  1  0.121160  0.878840  0.750000  1.0  1.5372
  O  O397  1  0.260100  0.272400  0.052300  1.0  -0.6301
  O  O398  1  0.275800  0.157600  0.008000  1.0  -0.5178
  O  O399  1  0.272400  0.260100  0.947700  1.0  -0.6319
  O  O400  1  0.157600  0.275800  0.992000  1.0  -0.5177
  O  O401  1  0.643000  0.552700  0.970000  1.0  -0.5747
  O  O402  1  0.667700  0.596400  0.054000  1.0  -0.5898
  O  O403  1  0.552700  0.643000  0.030000  1.0  -0.5757
  O  O404  1  0.596400  0.667700  0.946000  1.0  -0.5876
  O  O405  1  0.739900  0.727600  0.552300  1.0  -0.6305
  O  O406  1  0.724200  0.842400  0.508000  1.0  -0.5179
  O  O407  1  0.727600  0.739900  0.447700  1.0  -0.6322
  O  O408  1  0.842400  0.724200  0.492000  1.0  -0.5178
  O  O409  1  0.357000  0.447300  0.470000  1.0  -0.575
  O  O410  1  0.332300  0.403600  0.554000  1.0  -0.5895
  O  O411  1  0.447300  0.357000  0.530000  1.0  -0.5749
  O  O412  1  0.403600  0.332300  0.446000  1.0  -0.5901
  O  O413  1  0.227600  0.760100  0.302300  1.0  -0.6328
  O  O414  1  0.342400  0.775800  0.258000  1.0  -0.5181
  O  O415  1  0.239900  0.772400  0.197700  1.0  -0.6315
  O  O416  1  0.224200  0.657600  0.242000  1.0  -0.5172
  O  O417  1  0.947300  0.143000  0.220000  1.0  -0.5754
  O  O418  1  0.903600  0.167700  0.304000  1.0  -0.5892
  O  O419  1  0.857000  0.052700  0.280000  1.0  -0.5745
  O  O420  1  0.832300  0.096400  0.196000  1.0  -0.5892
  O  O421  1  0.772400  0.239900  0.802300  1.0  -0.6326
  O  O422  1  0.657600  0.224200  0.758000  1.0  -0.5183
  O  O423  1  0.760100  0.227600  0.697700  1.0  -0.6313
  O  O424  1  0.775800  0.342400  0.742000  1.0  -0.5166
  O  O425  1  0.052700  0.857000  0.720000  1.0  -0.5759
  O  O426  1  0.096400  0.832300  0.804000  1.0  -0.5902
  O  O427  1  0.143000  0.947300  0.780000  1.0  -0.5742
  O  O428  1  0.167700  0.903600  0.696000  1.0  -0.5887
