# generated using pymatgen
data_CdH36C48N12ClO4
_symmetry_space_group_name_H-M   'P 1'
_cell_length_a   15.88780000
_cell_length_b   15.88780000
_cell_length_c   21.70300000
_cell_angle_alpha   90.00000000
_cell_angle_beta   90.00000000
_cell_angle_gamma   90.00000000
_symmetry_Int_Tables_number   1
_chemical_formula_structural   CdH36C48N12ClO4
_chemical_formula_sum   'Cd4 H144 C192 N48 Cl4 O16'
_cell_volume   5478.31876439
_cell_formula_units_Z   4
loop_
 _symmetry_equiv_pos_site_id
 _symmetry_equiv_pos_as_xyz
  1  'x, y, z'
loop_
 _atom_site_type_symbol
 _atom_site_label
 _atom_site_symmetry_multiplicity
 _atom_site_fract_x
 _atom_site_fract_y
 _atom_site_fract_z
 _atom_site_occupancy
 _atom_site_charge
  Cd  Cd1  1  0.058830  0.941170  0.750000  1.0  0.7884
  Cd  Cd2  1  0.941170  0.058830  0.250000  1.0  0.7882
  Cd  Cd3  1  0.558830  0.558830  0.500000  1.0  0.7885
  Cd  Cd4  1  0.441170  0.441170  0.000000  1.0  0.7883
  H  H5  1  0.140000  0.197500  0.863000  1.0  0.1124
  H  H6  1  0.089100  0.295900  0.664400  1.0  0.0984
  H  H7  1  0.776000  0.176400  0.905300  1.0  0.0908
  H  H8  1  0.766500  0.934000  0.026300  1.0  0.1008
  H  H9  1  0.655700  0.237000  0.892800  1.0  0.1195
  H  H10  1  0.661700  0.034800  0.035700  1.0  0.1025
  H  H11  1  0.205000  0.345800  0.719100  1.0  0.0783
  H  H12  1  0.263900  0.210200  0.894700  1.0  0.1285
  H  H13  1  0.360400  0.269400  0.959200  1.0  0.0657
  H  H14  1  0.388100  0.462600  0.849900  1.0  0.0761
  H  H15  1  0.909200  0.262500  0.850100  1.0  0.3041
  H  H16  1  0.972700  0.252900  0.899900  1.0  0.3229
  H  H17  1  0.285500  0.413100  0.784000  1.0  0.1313
  H  H18  1  0.877700  0.953800  0.959100  1.0  0.1015
  H  H19  1  0.598400  0.148600  0.061800  1.0  0.1241
  H  H20  1  0.996500  0.199100  0.709200  1.0  0.0884
  H  H21  1  0.561700  0.344900  0.909400  1.0  0.0524
  H  H22  1  0.505300  0.260000  0.073600  1.0  0.0653
  H  H23  1  0.860000  0.802500  0.363000  1.0  0.1126
  H  H24  1  0.910900  0.704100  0.164400  1.0  0.0982
  H  H25  1  0.224000  0.823600  0.405300  1.0  0.0901
  H  H26  1  0.233500  0.066000  0.526300  1.0  0.1005
  H  H27  1  0.344300  0.763000  0.392800  1.0  0.1198
  H  H28  1  0.338300  0.965200  0.535700  1.0  0.1026
  H  H29  1  0.795000  0.654200  0.219100  1.0  0.0785
  H  H30  1  0.736100  0.789800  0.394700  1.0  0.1282
  H  H31  1  0.639600  0.730600  0.459200  1.0  0.0651
  H  H32  1  0.611900  0.537400  0.349900  1.0  0.0759
  H  H33  1  0.090800  0.737500  0.350100  1.0  0.3039
  H  H34  1  0.027300  0.747100  0.399900  1.0  0.3227
  H  H35  1  0.714500  0.586900  0.284000  1.0  0.1308
  H  H36  1  0.122300  0.046200  0.459100  1.0  0.1017
  H  H37  1  0.401600  0.851400  0.561800  1.0  0.1236
  H  H38  1  0.003500  0.800900  0.209200  1.0  0.0887
  H  H39  1  0.438300  0.655100  0.409400  1.0  0.0528
  H  H40  1  0.494700  0.740000  0.573600  1.0  0.0653
  H  H41  1  0.302500  0.640000  0.613000  1.0  0.1123
  H  H42  1  0.204100  0.589100  0.414400  1.0  0.0979
  H  H43  1  0.323600  0.276000  0.655300  1.0  0.0906
  H  H44  1  0.566000  0.266500  0.776300  1.0  0.1014
  H  H45  1  0.263000  0.155700  0.642800  1.0  0.1199
  H  H46  1  0.465200  0.161700  0.785700  1.0  0.1022
  H  H47  1  0.154200  0.705000  0.469100  1.0  0.0769
  H  H48  1  0.289800  0.763900  0.644700  1.0  0.1281
  H  H49  1  0.230600  0.860400  0.709200  1.0  0.0655
  H  H50  1  0.037400  0.888100  0.599900  1.0  0.0756
  H  H51  1  0.237500  0.409200  0.600100  1.0  0.3033
  H  H52  1  0.247100  0.472700  0.649900  1.0  0.3239
  H  H53  1  0.086900  0.785500  0.534000  1.0  0.1306
  H  H54  1  0.546200  0.377700  0.709100  1.0  0.1014
  H  H55  1  0.351400  0.098400  0.811800  1.0  0.1232
  H  H56  1  0.300900  0.496500  0.459200  1.0  0.088
  H  H57  1  0.155100  0.061700  0.659400  1.0  0.0513
  H  H58  1  0.240000  0.005300  0.823600  1.0  0.0647
  H  H59  1  0.697500  0.360000  0.113000  1.0  0.1123
  H  H60  1  0.795900  0.410900  0.914400  1.0  0.0977
  H  H61  1  0.676400  0.724000  0.155300  1.0  0.0898
  H  H62  1  0.434000  0.733500  0.276300  1.0  0.101
  H  H63  1  0.737000  0.844300  0.142800  1.0  0.1196
  H  H64  1  0.534800  0.838300  0.285700  1.0  0.103
  H  H65  1  0.845800  0.295000  0.969100  1.0  0.0766
  H  H66  1  0.710200  0.236100  0.144700  1.0  0.1281
  H  H67  1  0.769400  0.139600  0.209200  1.0  0.0656
  H  H68  1  0.962600  0.111900  0.099900  1.0  0.0753
  H  H69  1  0.762500  0.590800  0.100100  1.0  0.304
  H  H70  1  0.752900  0.527300  0.149900  1.0  0.3242
  H  H71  1  0.913100  0.214500  0.034000  1.0  0.1308
  H  H72  1  0.453800  0.622300  0.209100  1.0  0.1019
  H  H73  1  0.648600  0.901600  0.311800  1.0  0.1227
  H  H74  1  0.699100  0.503500  0.959200  1.0  0.0896
  H  H75  1  0.844900  0.938300  0.159400  1.0  0.0519
  H  H76  1  0.760000  0.994700  0.323600  1.0  0.0649
  H  H77  1  0.360000  0.697500  0.887000  1.0  0.1128
  H  H78  1  0.410900  0.795900  0.085600  1.0  0.0981
  H  H79  1  0.724000  0.676400  0.844700  1.0  0.0904
  H  H80  1  0.733500  0.434000  0.723700  1.0  0.1009
  H  H81  1  0.844300  0.737000  0.857200  1.0  0.1193
  H  H82  1  0.838300  0.534800  0.714300  1.0  0.1033
  H  H83  1  0.295000  0.845800  0.030900  1.0  0.0786
  H  H84  1  0.236100  0.710200  0.855300  1.0  0.1279
  H  H85  1  0.139600  0.769400  0.790800  1.0  0.0654
  H  H86  1  0.111900  0.962600  0.900100  1.0  0.0765
  H  H87  1  0.590800  0.762500  0.899900  1.0  0.3043
  H  H88  1  0.527300  0.752900  0.850100  1.0  0.3221
  H  H89  1  0.214500  0.913100  0.966000  1.0  0.1312
  H  H90  1  0.622300  0.453800  0.790900  1.0  0.1015
  H  H91  1  0.901600  0.648600  0.688200  1.0  0.1242
  H  H92  1  0.503500  0.699100  0.040800  1.0  0.0889
  H  H93  1  0.938300  0.844900  0.840600  1.0  0.0523
  H  H94  1  0.994700  0.760000  0.676400  1.0  0.0643
  H  H95  1  0.640000  0.302500  0.387000  1.0  0.113
  H  H96  1  0.589100  0.204100  0.585600  1.0  0.0984
  H  H97  1  0.276000  0.323600  0.344700  1.0  0.0911
  H  H98  1  0.266500  0.566000  0.223700  1.0  0.1013
  H  H99  1  0.155700  0.263000  0.357200  1.0  0.1192
  H  H100  1  0.161700  0.465200  0.214300  1.0  0.1031
  H  H101  1  0.705000  0.154200  0.530900  1.0  0.0788
  H  H102  1  0.763900  0.289800  0.355300  1.0  0.128
  H  H103  1  0.860400  0.230600  0.290800  1.0  0.065
  H  H104  1  0.888100  0.037400  0.400100  1.0  0.0764
  H  H105  1  0.409200  0.237500  0.399900  1.0  0.304
  H  H106  1  0.472700  0.247100  0.350100  1.0  0.3225
  H  H107  1  0.785500  0.086900  0.466000  1.0  0.1311
  H  H108  1  0.377700  0.546200  0.290900  1.0  0.1012
  H  H109  1  0.098400  0.351400  0.188200  1.0  0.1237
  H  H110  1  0.496500  0.300900  0.540800  1.0  0.0885
  H  H111  1  0.061700  0.155100  0.340600  1.0  0.0527
  H  H112  1  0.005300  0.240000  0.176400  1.0  0.0644
  H  H113  1  0.197500  0.140000  0.137000  1.0  0.1124
  H  H114  1  0.295900  0.089100  0.335600  1.0  0.0971
  H  H115  1  0.176400  0.776000  0.094700  1.0  0.0905
  H  H116  1  0.934000  0.766500  0.973700  1.0  0.1011
  H  H117  1  0.237000  0.655700  0.107200  1.0  0.1193
  H  H118  1  0.034800  0.661700  0.964300  1.0  0.1028
  H  H119  1  0.345800  0.205000  0.280900  1.0  0.077
  H  H120  1  0.210200  0.263900  0.105300  1.0  0.1274
  H  H121  1  0.269400  0.360400  0.040800  1.0  0.0653
  H  H122  1  0.462600  0.388100  0.150100  1.0  0.0755
  H  H123  1  0.262500  0.909200  0.149900  1.0  0.3036
  H  H124  1  0.252900  0.972700  0.100100  1.0  0.3228
  H  H125  1  0.413100  0.285500  0.216000  1.0  0.1306
  H  H126  1  0.953800  0.877700  0.040900  1.0  0.1017
  H  H127  1  0.148600  0.598400  0.938200  1.0  0.123
  H  H128  1  0.199100  0.996500  0.290800  1.0  0.0893
  H  H129  1  0.344900  0.561700  0.090600  1.0  0.0517
  H  H130  1  0.260000  0.505300  0.926400  1.0  0.064
  H  H131  1  0.802500  0.860000  0.637000  1.0  0.1126
  H  H132  1  0.704100  0.910900  0.835600  1.0  0.0978
  H  H133  1  0.823600  0.224000  0.594700  1.0  0.0907
  H  H134  1  0.066000  0.233500  0.473700  1.0  0.102
  H  H135  1  0.763000  0.344300  0.607200  1.0  0.1194
  H  H136  1  0.965200  0.338300  0.464300  1.0  0.1037
  H  H137  1  0.654200  0.795000  0.780900  1.0  0.0774
  H  H138  1  0.789800  0.736100  0.605300  1.0  0.1278
  H  H139  1  0.730600  0.639600  0.540800  1.0  0.0658
  H  H140  1  0.537400  0.611900  0.650100  1.0  0.0758
  H  H141  1  0.737500  0.090800  0.649900  1.0  0.3046
  H  H142  1  0.747100  0.027300  0.600100  1.0  0.3238
  H  H143  1  0.586900  0.714500  0.716000  1.0  0.1306
  H  H144  1  0.046200  0.122300  0.540900  1.0  0.1017
  H  H145  1  0.851400  0.401600  0.438200  1.0  0.123
  H  H146  1  0.800900  0.003500  0.790800  1.0  0.0883
  H  H147  1  0.655100  0.438300  0.590600  1.0  0.0514
  H  H148  1  0.740000  0.494700  0.426400  1.0  0.0641
  C  C149  1  0.838600  0.067200  0.925700  1.0  -0.0068
  C  C150  1  0.907800  0.074900  0.881900  1.0  0.2425
  C  C151  1  0.005300  0.126300  0.820000  1.0  0.2399
  C  C152  1  0.129500  0.217900  0.822500  1.0  -0.1247
  C  C153  1  0.099200  0.276200  0.705000  1.0  -0.0878
  C  C154  1  0.774300  0.127300  0.930300  1.0  -0.13
  C  C155  1  0.768900  0.983600  0.002000  1.0  -0.0858
  C  C156  1  0.626700  0.240700  0.931000  1.0  -0.2282
  C  C157  1  0.641800  0.181300  0.977600  1.0  0.0827
  C  C158  1  0.706400  0.043200  0.007200  1.0  -0.1152
  C  C159  1  0.168100  0.306000  0.737500  1.0  -0.0877
  C  C160  1  0.183400  0.277300  0.797600  1.0  0.0198
  C  C161  1  0.285300  0.264700  0.885900  1.0  -0.2086
  C  C162  1  0.344000  0.299800  0.923400  1.0  0.1373
  C  C163  1  0.359300  0.412300  0.860600  1.0  0.1547
  C  C164  1  0.256300  0.308200  0.834600  1.0  0.0948
  C  C165  1  0.298500  0.382900  0.820600  1.0  -0.2072
  C  C166  1  0.708100  0.115200  0.971200  1.0  0.0191
  C  C167  1  0.834700  0.995100  0.962000  1.0  -0.0947
  C  C168  1  0.593200  0.189000  0.029800  1.0  -0.2095
  C  C169  1  0.061100  0.187300  0.790300  1.0  -0.0528
  C  C170  1  0.044600  0.217900  0.731300  1.0  -0.1149
  C  C171  1  0.569400  0.304400  0.941000  1.0  0.1675
  C  C172  1  0.536400  0.255500  0.036400  1.0  0.1638
  C  C173  1  0.161400  0.932800  0.425700  1.0  -0.0069
  C  C174  1  0.092200  0.925100  0.381900  1.0  0.2429
  C  C175  1  0.994700  0.873700  0.320000  1.0  0.2393
  C  C176  1  0.870500  0.782100  0.322500  1.0  -0.1242
  C  C177  1  0.900800  0.723800  0.205000  1.0  -0.088
  C  C178  1  0.225700  0.872700  0.430300  1.0  -0.1296
  C  C179  1  0.231100  0.016400  0.502000  1.0  -0.0853
  C  C180  1  0.373300  0.759300  0.431000  1.0  -0.2279
  C  C181  1  0.358200  0.818700  0.477600  1.0  0.0834
  C  C182  1  0.293600  0.956800  0.507200  1.0  -0.1174
  C  C183  1  0.831900  0.694000  0.237500  1.0  -0.0871
  C  C184  1  0.816600  0.722700  0.297600  1.0  0.0196
  C  C185  1  0.714700  0.735300  0.385900  1.0  -0.2074
  C  C186  1  0.656000  0.700200  0.423400  1.0  0.1352
  C  C187  1  0.640700  0.587700  0.360600  1.0  0.1545
  C  C188  1  0.743700  0.691800  0.334600  1.0  0.0941
  C  C189  1  0.701500  0.617100  0.320600  1.0  -0.2068
  C  C190  1  0.291900  0.884800  0.471200  1.0  0.0178
  C  C191  1  0.165300  0.004900  0.462000  1.0  -0.0939
  C  C192  1  0.406800  0.811000  0.529800  1.0  -0.2084
  C  C193  1  0.938900  0.812700  0.290300  1.0  -0.0524
  C  C194  1  0.955400  0.782100  0.231300  1.0  -0.1156
  C  C195  1  0.430600  0.695600  0.441000  1.0  0.1675
  C  C196  1  0.463600  0.744500  0.536400  1.0  0.1638
  C  C197  1  0.432800  0.338600  0.675700  1.0  -0.006
  C  C198  1  0.425100  0.407800  0.631900  1.0  0.2437
  C  C199  1  0.373700  0.505300  0.570000  1.0  0.2399
  C  C200  1  0.282100  0.629500  0.572500  1.0  -0.1242
  C  C201  1  0.223800  0.599200  0.455000  1.0  -0.0886
  C  C202  1  0.372700  0.274300  0.680300  1.0  -0.1308
  C  C203  1  0.516400  0.268900  0.752000  1.0  -0.0865
  C  C204  1  0.259300  0.126700  0.681000  1.0  -0.2268
  C  C205  1  0.318700  0.141800  0.727600  1.0  0.084
  C  C206  1  0.456800  0.206400  0.757200  1.0  -0.1172
  C  C207  1  0.194000  0.668100  0.487500  1.0  -0.087
  C  C208  1  0.222700  0.683400  0.547600  1.0  0.0204
  C  C209  1  0.235300  0.785300  0.635900  1.0  -0.2094
  C  C210  1  0.200200  0.844000  0.673400  1.0  0.1377
  C  C211  1  0.087700  0.859300  0.610600  1.0  0.1556
  C  C212  1  0.191800  0.756300  0.584600  1.0  0.0948
  C  C213  1  0.117100  0.798500  0.570600  1.0  -0.2048
  C  C214  1  0.384800  0.208100  0.721200  1.0  0.0177
  C  C215  1  0.504900  0.334700  0.712000  1.0  -0.0925
  C  C216  1  0.311000  0.093200  0.779800  1.0  -0.2084
  C  C217  1  0.312700  0.561100  0.540300  1.0  -0.0533
  C  C218  1  0.282100  0.544600  0.481300  1.0  -0.118
  C  C219  1  0.195600  0.069400  0.691000  1.0  0.1686
  C  C220  1  0.244500  0.036400  0.786400  1.0  0.1651
  C  C221  1  0.567200  0.661400  0.175700  1.0  -0.0064
  C  C222  1  0.574900  0.592200  0.131900  1.0  0.244
  C  C223  1  0.626300  0.494700  0.070000  1.0  0.2395
  C  C224  1  0.717900  0.370500  0.072500  1.0  -0.1241
  C  C225  1  0.776200  0.400800  0.955000  1.0  -0.0883
  C  C226  1  0.627300  0.725700  0.180300  1.0  -0.1309
  C  C227  1  0.483600  0.731100  0.252000  1.0  -0.0876
  C  C228  1  0.740700  0.873300  0.181000  1.0  -0.227
  C  C229  1  0.681300  0.858200  0.227600  1.0  0.083
  C  C230  1  0.543200  0.793600  0.257200  1.0  -0.1166
  C  C231  1  0.806000  0.331900  0.987500  1.0  -0.0882
  C  C232  1  0.777300  0.316600  0.047600  1.0  0.0196
  C  C233  1  0.764700  0.214700  0.135900  1.0  -0.2099
  C  C234  1  0.799800  0.156000  0.173400  1.0  0.1384
  C  C235  1  0.912300  0.140700  0.110600  1.0  0.155
  C  C236  1  0.808200  0.243700  0.084600  1.0  0.0952
  C  C237  1  0.882900  0.201500  0.070600  1.0  -0.2054
  C  C238  1  0.615200  0.791900  0.221200  1.0  0.0184
  C  C239  1  0.495100  0.665300  0.212000  1.0  -0.0923
  C  C240  1  0.689000  0.906800  0.279800  1.0  -0.2107
  C  C241  1  0.687300  0.438900  0.040300  1.0  -0.0527
  C  C242  1  0.717900  0.455400  0.981300  1.0  -0.1165
  C  C243  1  0.804400  0.930600  0.191000  1.0  0.1687
  C  C244  1  0.755500  0.963600  0.286400  1.0  0.1647
  C  C245  1  0.661400  0.567200  0.824300  1.0  -0.0064
  C  C246  1  0.592200  0.574900  0.868100  1.0  0.2427
  C  C247  1  0.494700  0.626300  0.930000  1.0  0.239
  C  C248  1  0.370500  0.717900  0.927500  1.0  -0.1237
  C  C249  1  0.400800  0.776200  0.045000  1.0  -0.0883
  C  C250  1  0.725700  0.627300  0.819700  1.0  -0.1294
  C  C251  1  0.731100  0.483600  0.748000  1.0  -0.0855
  C  C252  1  0.873300  0.740700  0.819000  1.0  -0.2283
  C  C253  1  0.858200  0.681300  0.772400  1.0  0.0819
  C  C254  1  0.793600  0.543200  0.742800  1.0  -0.117
  C  C255  1  0.331900  0.806000  0.012500  1.0  -0.0877
  C  C256  1  0.316600  0.777300  0.952400  1.0  0.0204
  C  C257  1  0.214700  0.764700  0.864100  1.0  -0.2068
  C  C258  1  0.156000  0.799800  0.826600  1.0  0.1357
  C  C259  1  0.140700  0.912300  0.889400  1.0  0.1546
  C  C260  1  0.243700  0.808200  0.915400  1.0  0.0948
  C  C261  1  0.201500  0.882900  0.929400  1.0  -0.2074
  C  C262  1  0.791900  0.615200  0.778800  1.0  0.017
  C  C263  1  0.665300  0.495100  0.788000  1.0  -0.0939
  C  C264  1  0.906800  0.689000  0.720200  1.0  -0.2082
  C  C265  1  0.438900  0.687300  0.959700  1.0  -0.0523
  C  C266  1  0.455400  0.717900  0.018700  1.0  -0.1148
  C  C267  1  0.930600  0.804400  0.809000  1.0  0.1681
  C  C268  1  0.963600  0.755500  0.713600  1.0  0.1634
  C  C269  1  0.338600  0.432800  0.324300  1.0  -0.0068
  C  C270  1  0.407800  0.425100  0.368100  1.0  0.2426
  C  C271  1  0.505300  0.373700  0.430000  1.0  0.2391
  C  C272  1  0.629500  0.282100  0.427500  1.0  -0.1238
  C  C273  1  0.599200  0.223800  0.545000  1.0  -0.0882
  C  C274  1  0.274300  0.372700  0.319700  1.0  -0.1296
  C  C275  1  0.268900  0.516400  0.248000  1.0  -0.0855
  C  C276  1  0.126700  0.259300  0.319000  1.0  -0.2283
  C  C277  1  0.141800  0.318700  0.272400  1.0  0.0837
  C  C278  1  0.206400  0.456800  0.242800  1.0  -0.1158
  C  C279  1  0.668100  0.194000  0.512500  1.0  -0.0871
  C  C280  1  0.683400  0.222700  0.452400  1.0  0.0203
  C  C281  1  0.785300  0.235300  0.364100  1.0  -0.207
  C  C282  1  0.844000  0.200200  0.326600  1.0  0.1377
  C  C283  1  0.859300  0.087700  0.389400  1.0  0.1548
  C  C284  1  0.756300  0.191800  0.415400  1.0  0.0947
  C  C285  1  0.798500  0.117100  0.429400  1.0  -0.2068
  C  C286  1  0.208100  0.384800  0.278800  1.0  0.0196
  C  C287  1  0.334700  0.504900  0.288000  1.0  -0.0945
  C  C288  1  0.093200  0.311000  0.220200  1.0  -0.2092
  C  C289  1  0.561100  0.312700  0.459700  1.0  -0.053
  C  C290  1  0.544600  0.282100  0.518700  1.0  -0.1155
  C  C291  1  0.069400  0.195600  0.309000  1.0  0.1676
  C  C292  1  0.036400  0.244500  0.213600  1.0  0.1633
  C  C293  1  0.067200  0.838600  0.074300  1.0  -0.0056
  C  C294  1  0.074900  0.907800  0.118100  1.0  0.2436
  C  C295  1  0.126300  0.005300  0.180000  1.0  0.2384
  C  C296  1  0.217900  0.129500  0.177500  1.0  -0.1231
  C  C297  1  0.276200  0.099200  0.295000  1.0  -0.0891
  C  C298  1  0.127300  0.774300  0.069700  1.0  -0.1307
  C  C299  1  0.983600  0.768900  0.998000  1.0  -0.0871
  C  C300  1  0.240700  0.626700  0.069000  1.0  -0.227
  C  C301  1  0.181300  0.641800  0.022400  1.0  0.0832
  C  C302  1  0.043200  0.706400  0.992800  1.0  -0.1168
  C  C303  1  0.306000  0.168100  0.262500  1.0  -0.0883
  C  C304  1  0.277300  0.183400  0.202400  1.0  0.0204
  C  C305  1  0.264700  0.285300  0.114100  1.0  -0.2086
  C  C306  1  0.299800  0.344000  0.076600  1.0  0.1389
  C  C307  1  0.412300  0.359300  0.139400  1.0  0.1554
  C  C308  1  0.308200  0.256300  0.165400  1.0  0.0953
  C  C309  1  0.382900  0.298500  0.179400  1.0  -0.2049
  C  C310  1  0.115200  0.708100  0.028800  1.0  0.0187
  C  C311  1  0.995100  0.834700  0.038000  1.0  -0.0923
  C  C312  1  0.189000  0.593200  0.970200  1.0  -0.2101
  C  C313  1  0.187300  0.061100  0.209700  1.0  -0.053
  C  C314  1  0.217900  0.044600  0.268700  1.0  -0.118
  C  C315  1  0.304400  0.569400  0.059000  1.0  0.1688
  C  C316  1  0.255500  0.536400  0.963600  1.0  0.1637
  C  C317  1  0.932800  0.161400  0.574300  1.0  -0.0061
  C  C318  1  0.925100  0.092200  0.618100  1.0  0.2437
  C  C319  1  0.873700  0.994700  0.680000  1.0  0.2395
  C  C320  1  0.782100  0.870500  0.677500  1.0  -0.1234
  C  C321  1  0.723800  0.900800  0.795000  1.0  -0.0888
  C  C322  1  0.872700  0.225700  0.569700  1.0  -0.1309
  C  C323  1  0.016400  0.231100  0.498000  1.0  -0.0872
  C  C324  1  0.759300  0.373300  0.569000  1.0  -0.2277
  C  C325  1  0.818700  0.358200  0.522400  1.0  0.0832
  C  C326  1  0.956800  0.293600  0.492800  1.0  -0.1166
  C  C327  1  0.694000  0.831900  0.762500  1.0  -0.087
  C  C328  1  0.722700  0.816600  0.702400  1.0  0.0207
  C  C329  1  0.735300  0.714700  0.614100  1.0  -0.2084
  C  C330  1  0.700200  0.656000  0.576600  1.0  0.1385
  C  C331  1  0.587700  0.640700  0.639400  1.0  0.1555
  C  C332  1  0.691800  0.743700  0.665400  1.0  0.0956
  C  C333  1  0.617100  0.701500  0.679400  1.0  -0.205
  C  C334  1  0.884800  0.291900  0.528800  1.0  0.0171
  C  C335  1  0.004900  0.165300  0.538000  1.0  -0.0921
  C  C336  1  0.811000  0.406800  0.470200  1.0  -0.2074
  C  C337  1  0.812700  0.938900  0.709700  1.0  -0.053
  C  C338  1  0.782100  0.955400  0.768700  1.0  -0.1165
  C  C339  1  0.695600  0.430600  0.559000  1.0  0.1685
  C  C340  1  0.744500  0.463600  0.463600  1.0  0.1652
  N  N341  1  0.945000  0.148700  0.861200  1.0  0.084
  N  N342  1  0.380200  0.374700  0.913100  1.0  -0.3566
  N  N343  1  0.945200  0.012000  0.854800  1.0  -0.2861
  N  N344  1  0.006300  0.044100  0.816800  1.0  -0.2268
  N  N345  1  0.524300  0.312700  0.992500  1.0  -0.3674
  N  N346  1  0.925900  0.230000  0.882400  1.0  -0.5581
  N  N347  1  0.055000  0.851300  0.361200  1.0  0.0838
  N  N348  1  0.619800  0.625300  0.413100  1.0  -0.3571
  N  N349  1  0.054800  0.988000  0.354800  1.0  -0.2857
  N  N350  1  0.993700  0.955900  0.316800  1.0  -0.2266
  N  N351  1  0.475700  0.687300  0.492500  1.0  -0.3672
  N  N352  1  0.074100  0.770000  0.382400  1.0  -0.5576
  N  N353  1  0.351300  0.445000  0.611200  1.0  0.084
  N  N354  1  0.125300  0.880200  0.663100  1.0  -0.3577
  N  N355  1  0.488000  0.445200  0.604800  1.0  -0.2861
  N  N356  1  0.455900  0.506300  0.566800  1.0  -0.2271
  N  N357  1  0.187300  0.024300  0.742500  1.0  -0.367
  N  N358  1  0.270000  0.425900  0.632400  1.0  -0.5568
  N  N359  1  0.648700  0.555000  0.111200  1.0  0.0842
  N  N360  1  0.874700  0.119800  0.163100  1.0  -0.3564
  N  N361  1  0.512000  0.554800  0.104800  1.0  -0.2853
  N  N362  1  0.544100  0.493700  0.066800  1.0  -0.227
  N  N363  1  0.812700  0.975700  0.242500  1.0  -0.368
  N  N364  1  0.730000  0.574100  0.132400  1.0  -0.556
  N  N365  1  0.555000  0.648700  0.888800  1.0  0.0836
  N  N366  1  0.119800  0.874700  0.836900  1.0  -0.3572
  N  N367  1  0.554800  0.512000  0.895200  1.0  -0.2842
  N  N368  1  0.493700  0.544100  0.933200  1.0  -0.2267
  N  N369  1  0.975700  0.812700  0.757500  1.0  -0.3672
  N  N370  1  0.574100  0.730000  0.867600  1.0  -0.5587
  N  N371  1  0.445000  0.351300  0.388800  1.0  0.0837
  N  N372  1  0.880200  0.125300  0.336900  1.0  -0.3577
  N  N373  1  0.445200  0.488000  0.395200  1.0  -0.2852
  N  N374  1  0.506300  0.455900  0.433200  1.0  -0.2273
  N  N375  1  0.024300  0.187300  0.257500  1.0  -0.3672
  N  N376  1  0.425900  0.270000  0.367600  1.0  -0.5574
  N  N377  1  0.148700  0.945000  0.138800  1.0  0.0842
  N  N378  1  0.374700  0.380200  0.086900  1.0  -0.3576
  N  N379  1  0.012000  0.945200  0.145200  1.0  -0.284
  N  N380  1  0.044100  0.006300  0.183200  1.0  -0.2268
  N  N381  1  0.312700  0.524300  0.007500  1.0  -0.3677
  N  N382  1  0.230000  0.925900  0.117600  1.0  -0.557
  N  N383  1  0.851300  0.055000  0.638800  1.0  0.0843
  N  N384  1  0.625300  0.619800  0.586900  1.0  -0.3581
  N  N385  1  0.988000  0.054800  0.645200  1.0  -0.2847
  N  N386  1  0.955900  0.993700  0.683200  1.0  -0.2271
  N  N387  1  0.687300  0.475700  0.507500  1.0  -0.367
  N  N388  1  0.770000  0.074100  0.617600  1.0  -0.5567
  Cl  Cl389  1  0.120980  0.120980  0.000000  1.0  1.8296
  Cl  Cl390  1  0.879020  0.879020  0.500000  1.0  1.8295
  Cl  Cl391  1  0.379020  0.620980  0.750000  1.0  1.8294
  Cl  Cl392  1  0.620980  0.379020  0.250000  1.0  1.8298
  O  O393  1  0.059400  0.134200  0.965000  1.0  -0.6469
  O  O394  1  0.177300  0.110200  0.955100  1.0  -0.6824
  O  O395  1  0.134200  0.059400  0.035000  1.0  -0.6481
  O  O396  1  0.110200  0.177300  0.044900  1.0  -0.6825
  O  O397  1  0.940600  0.865800  0.465000  1.0  -0.648
  O  O398  1  0.822700  0.889800  0.455100  1.0  -0.6814
  O  O399  1  0.865800  0.940600  0.535000  1.0  -0.6482
  O  O400  1  0.889800  0.822700  0.544900  1.0  -0.683
  O  O401  1  0.365800  0.559400  0.715000  1.0  -0.6478
  O  O402  1  0.389800  0.677300  0.705100  1.0  -0.683
  O  O403  1  0.440600  0.634200  0.785000  1.0  -0.6479
  O  O404  1  0.322700  0.610200  0.794900  1.0  -0.6805
  O  O405  1  0.634200  0.440600  0.215000  1.0  -0.6478
  O  O406  1  0.610200  0.322700  0.205100  1.0  -0.6832
  O  O407  1  0.559400  0.365800  0.285000  1.0  -0.6476
  O  O408  1  0.677300  0.389800  0.294900  1.0  -0.6823
