# generated using pymatgen
data_CdH36C48N12ClO4
_symmetry_space_group_name_H-M   'P 1'
_cell_length_a   15.87250000
_cell_length_b   15.87250000
_cell_length_c   21.67300000
_cell_angle_alpha   90.00000000
_cell_angle_beta   90.00000000
_cell_angle_gamma   90.00000000
_symmetry_Int_Tables_number   1
_chemical_formula_structural   CdH36C48N12ClO4
_chemical_formula_sum   'Cd4 H144 C192 N48 Cl4 O16'
_cell_volume   5460.21448171
_cell_formula_units_Z   4
loop_
 _symmetry_equiv_pos_site_id
 _symmetry_equiv_pos_as_xyz
  1  'x, y, z'
loop_
 _atom_site_type_symbol
 _atom_site_label
 _atom_site_symmetry_multiplicity
 _atom_site_fract_x
 _atom_site_fract_y
 _atom_site_fract_z
 _atom_site_occupancy
 _atom_site_charge
  Cd  Cd1  1  0.559080  0.559080  0.500000  1.0  0.7862
  Cd  Cd2  1  0.440920  0.440920  0.000000  1.0  0.7861
  Cd  Cd3  1  0.940920  0.059080  0.250000  1.0  0.7861
  Cd  Cd4  1  0.059080  0.940920  0.750000  1.0  0.7861
  H  H5  1  0.004800  0.241100  0.176400  1.0  0.0645
  H  H6  1  0.098200  0.352100  0.188200  1.0  0.1247
  H  H7  1  0.156500  0.261600  0.356900  1.0  0.1194
  H  H8  1  0.061600  0.155100  0.340900  1.0  0.0527
  H  H9  1  0.161400  0.465500  0.214100  1.0  0.104
  H  H10  1  0.266100  0.566700  0.224400  1.0  0.0942
  H  H11  1  0.378200  0.547000  0.291000  1.0  0.1061
  H  H12  1  0.276000  0.324100  0.344800  1.0  0.0913
  H  H13  1  0.496900  0.301600  0.541300  1.0  0.0879
  H  H14  1  0.589100  0.203600  0.585700  1.0  0.0986
  H  H15  1  0.704800  0.153500  0.530600  1.0  0.0757
  H  H16  1  0.640800  0.304000  0.387700  1.0  0.1115
  H  H17  1  0.764300  0.290800  0.355500  1.0  0.1296
  H  H18  1  0.861100  0.231000  0.291200  1.0  0.064
  H  H19  1  0.887600  0.036700  0.399600  1.0  0.0773
  H  H20  1  0.785700  0.087500  0.466400  1.0  0.1328
  H  H21  1  0.409300  0.237600  0.399800  1.0  0.3072
  H  H22  1  0.472800  0.247300  0.350100  1.0  0.3327
  H  H23  1  0.995200  0.758900  0.676400  1.0  0.0644
  H  H24  1  0.901800  0.647900  0.688200  1.0  0.1251
  H  H25  1  0.843500  0.738400  0.856900  1.0  0.1195
  H  H26  1  0.938400  0.844900  0.840900  1.0  0.0524
  H  H27  1  0.838600  0.534500  0.714100  1.0  0.1042
  H  H28  1  0.733900  0.433300  0.724400  1.0  0.0942
  H  H29  1  0.621800  0.453000  0.791000  1.0  0.1065
  H  H30  1  0.724000  0.675900  0.844800  1.0  0.0904
  H  H31  1  0.503100  0.698400  0.041300  1.0  0.0879
  H  H32  1  0.410900  0.796400  0.085700  1.0  0.0981
  H  H33  1  0.295200  0.846500  0.030600  1.0  0.0752
  H  H34  1  0.359200  0.696000  0.887700  1.0  0.1113
  H  H35  1  0.235700  0.709200  0.855500  1.0  0.1294
  H  H36  1  0.138900  0.769000  0.791200  1.0  0.0641
  H  H37  1  0.112400  0.963300  0.899600  1.0  0.077
  H  H38  1  0.214300  0.912500  0.966400  1.0  0.1327
  H  H39  1  0.590700  0.762400  0.899800  1.0  0.3074
  H  H40  1  0.527200  0.752700  0.850100  1.0  0.3327
  H  H41  1  0.258900  0.504800  0.926400  1.0  0.0639
  H  H42  1  0.147900  0.598200  0.938200  1.0  0.1249
  H  H43  1  0.238400  0.656500  0.106900  1.0  0.1195
  H  H44  1  0.344900  0.561600  0.090900  1.0  0.0521
  H  H45  1  0.034500  0.661400  0.964100  1.0  0.1039
  H  H46  1  0.933300  0.766100  0.974400  1.0  0.0942
  H  H47  1  0.953000  0.878200  0.041000  1.0  0.1069
  H  H48  1  0.175900  0.776000  0.094800  1.0  0.0906
  H  H49  1  0.198400  0.996900  0.291300  1.0  0.0881
  H  H50  1  0.296400  0.089100  0.335700  1.0  0.0971
  H  H51  1  0.346500  0.204800  0.280600  1.0  0.0747
  H  H52  1  0.196000  0.140800  0.137700  1.0  0.1107
  H  H53  1  0.209200  0.264300  0.105500  1.0  0.1292
  H  H54  1  0.269000  0.361100  0.041200  1.0  0.0642
  H  H55  1  0.463300  0.387600  0.149600  1.0  0.0764
  H  H56  1  0.412500  0.285700  0.216400  1.0  0.1319
  H  H57  1  0.262400  0.909300  0.149800  1.0  0.3073
  H  H58  1  0.252700  0.972800  0.100100  1.0  0.333
  H  H59  1  0.741100  0.495200  0.426400  1.0  0.0642
  H  H60  1  0.852100  0.401800  0.438200  1.0  0.1245
  H  H61  1  0.761600  0.343500  0.606900  1.0  0.1197
  H  H62  1  0.655100  0.438400  0.590900  1.0  0.0519
  H  H63  1  0.965500  0.338600  0.464100  1.0  0.1047
  H  H64  1  0.066700  0.233900  0.474400  1.0  0.0943
  H  H65  1  0.047000  0.121800  0.541000  1.0  0.1068
  H  H66  1  0.824100  0.224000  0.594800  1.0  0.0909
  H  H67  1  0.801600  0.003100  0.791300  1.0  0.0873
  H  H68  1  0.703600  0.910900  0.835700  1.0  0.0979
  H  H69  1  0.653500  0.795200  0.780600  1.0  0.0752
  H  H70  1  0.804000  0.859200  0.637700  1.0  0.1111
  H  H71  1  0.790800  0.735700  0.605500  1.0  0.1295
  H  H72  1  0.731000  0.638900  0.541200  1.0  0.0648
  H  H73  1  0.536700  0.612400  0.649600  1.0  0.0765
  H  H74  1  0.587500  0.714300  0.716400  1.0  0.1318
  H  H75  1  0.737600  0.090700  0.649800  1.0  0.3078
  H  H76  1  0.747300  0.027200  0.600100  1.0  0.3327
  H  H77  1  0.495200  0.741100  0.573600  1.0  0.0644
  H  H78  1  0.401800  0.852100  0.561800  1.0  0.1249
  H  H79  1  0.343500  0.761600  0.393100  1.0  0.12
  H  H80  1  0.438400  0.655100  0.409100  1.0  0.0528
  H  H81  1  0.338600  0.965500  0.535900  1.0  0.1035
  H  H82  1  0.233900  0.066700  0.525600  1.0  0.0939
  H  H83  1  0.121800  0.047000  0.459000  1.0  0.1067
  H  H84  1  0.224000  0.824100  0.405200  1.0  0.0901
  H  H85  1  0.003100  0.801600  0.208700  1.0  0.0882
  H  H86  1  0.910900  0.703600  0.164300  1.0  0.0984
  H  H87  1  0.795200  0.653500  0.219400  1.0  0.0755
  H  H88  1  0.859200  0.804000  0.362300  1.0  0.1113
  H  H89  1  0.735700  0.790800  0.394500  1.0  0.1298
  H  H90  1  0.638900  0.731000  0.458800  1.0  0.0639
  H  H91  1  0.612400  0.536700  0.350400  1.0  0.0765
  H  H92  1  0.714300  0.587500  0.283600  1.0  0.1324
  H  H93  1  0.090700  0.737600  0.350200  1.0  0.3072
  H  H94  1  0.027200  0.747300  0.399900  1.0  0.3332
  H  H95  1  0.504800  0.258900  0.073600  1.0  0.0641
  H  H96  1  0.598200  0.147900  0.061800  1.0  0.1252
  H  H97  1  0.656500  0.238400  0.893100  1.0  0.1196
  H  H98  1  0.561600  0.344900  0.909100  1.0  0.0523
  H  H99  1  0.661400  0.034500  0.035900  1.0  0.1032
  H  H100  1  0.766100  0.933300  0.025600  1.0  0.0943
  H  H101  1  0.878200  0.953000  0.959000  1.0  0.1064
  H  H102  1  0.776000  0.175900  0.905200  1.0  0.0909
  H  H103  1  0.996900  0.198400  0.708700  1.0  0.0877
  H  H104  1  0.089100  0.296400  0.664300  1.0  0.0988
  H  H105  1  0.204800  0.346500  0.719400  1.0  0.0754
  H  H106  1  0.140800  0.196000  0.862300  1.0  0.1111
  H  H107  1  0.264300  0.209200  0.894500  1.0  0.1299
  H  H108  1  0.361100  0.269000  0.958800  1.0  0.0641
  H  H109  1  0.387600  0.463300  0.850400  1.0  0.077
  H  H110  1  0.285700  0.412500  0.783600  1.0  0.1329
  H  H111  1  0.909300  0.262400  0.850200  1.0  0.3075
  H  H112  1  0.972800  0.252700  0.899900  1.0  0.3327
  H  H113  1  0.241100  0.004800  0.823600  1.0  0.0635
  H  H114  1  0.352100  0.098200  0.811800  1.0  0.1249
  H  H115  1  0.261600  0.156500  0.643100  1.0  0.1201
  H  H116  1  0.155100  0.061600  0.659100  1.0  0.0518
  H  H117  1  0.465500  0.161400  0.785900  1.0  0.1032
  H  H118  1  0.566700  0.266100  0.775600  1.0  0.094
  H  H119  1  0.547000  0.378200  0.709000  1.0  0.1065
  H  H120  1  0.324100  0.276000  0.655200  1.0  0.0907
  H  H121  1  0.301600  0.496900  0.458700  1.0  0.0872
  H  H122  1  0.203600  0.589100  0.414300  1.0  0.0984
  H  H123  1  0.153500  0.704800  0.469400  1.0  0.0745
  H  H124  1  0.304000  0.640800  0.612300  1.0  0.1111
  H  H125  1  0.290800  0.764300  0.644500  1.0  0.13
  H  H126  1  0.231000  0.861100  0.708800  1.0  0.0644
  H  H127  1  0.036700  0.887600  0.600400  1.0  0.0763
  H  H128  1  0.087500  0.785700  0.533600  1.0  0.132
  H  H129  1  0.237600  0.409300  0.600200  1.0  0.3068
  H  H130  1  0.247300  0.472800  0.649900  1.0  0.3329
  H  H131  1  0.758900  0.995200  0.323600  1.0  0.0633
  H  H132  1  0.647900  0.901800  0.311800  1.0  0.1249
  H  H133  1  0.738400  0.843500  0.143100  1.0  0.1199
  H  H134  1  0.844900  0.938400  0.159100  1.0  0.0521
  H  H135  1  0.534500  0.838600  0.285900  1.0  0.1038
  H  H136  1  0.433300  0.733900  0.275600  1.0  0.0942
  H  H137  1  0.453000  0.621800  0.209000  1.0  0.107
  H  H138  1  0.675900  0.724000  0.155200  1.0  0.0901
  H  H139  1  0.698400  0.503100  0.958700  1.0  0.0888
  H  H140  1  0.796400  0.410900  0.914300  1.0  0.0979
  H  H141  1  0.846500  0.295200  0.969400  1.0  0.0747
  H  H142  1  0.696000  0.359200  0.112300  1.0  0.111
  H  H143  1  0.709200  0.235700  0.144500  1.0  0.1296
  H  H144  1  0.769000  0.138900  0.208800  1.0  0.0643
  H  H145  1  0.963300  0.112400  0.100400  1.0  0.0762
  H  H146  1  0.912500  0.214300  0.033600  1.0  0.1318
  H  H147  1  0.762400  0.590700  0.100200  1.0  0.3077
  H  H148  1  0.752700  0.527200  0.149900  1.0  0.3335
  C  C149  1  0.036300  0.245300  0.213600  1.0  0.1639
  C  C150  1  0.092900  0.311500  0.220200  1.0  -0.2094
  C  C151  1  0.141400  0.318800  0.272500  1.0  0.0979
  C  C152  1  0.126800  0.258500  0.318900  1.0  -0.2242
  C  C153  1  0.069600  0.195500  0.309100  1.0  0.1684
  C  C154  1  0.208200  0.384700  0.278700  1.0  0.0215
  C  C155  1  0.206000  0.457100  0.242700  1.0  -0.125
  C  C156  1  0.268900  0.516800  0.248500  1.0  -0.0837
  C  C157  1  0.335100  0.505700  0.288100  1.0  -0.1101
  C  C158  1  0.338600  0.433000  0.324200  1.0  -0.0118
  C  C159  1  0.274300  0.373100  0.319600  1.0  -0.1369
  C  C160  1  0.408400  0.425000  0.368300  1.0  0.2407
  C  C161  1  0.505000  0.374000  0.429700  1.0  0.2417
  C  C162  1  0.560900  0.312100  0.459700  1.0  -0.0476
  C  C163  1  0.544600  0.282200  0.519000  1.0  -0.1195
  C  C164  1  0.599200  0.223600  0.545100  1.0  -0.0889
  C  C165  1  0.668200  0.193900  0.512500  1.0  -0.0864
  C  C166  1  0.684000  0.223400  0.453000  1.0  0.017
  C  C167  1  0.629900  0.282900  0.427900  1.0  -0.1235
  C  C168  1  0.756500  0.191500  0.415400  1.0  0.0872
  C  C169  1  0.785500  0.236100  0.364200  1.0  -0.2046
  C  C170  1  0.844400  0.200600  0.326900  1.0  0.1418
  C  C171  1  0.859400  0.087600  0.389200  1.0  0.1552
  C  C172  1  0.798400  0.117400  0.429600  1.0  -0.2091
  C  C173  1  0.963700  0.754700  0.713600  1.0  0.1643
  C  C174  1  0.907100  0.688500  0.720200  1.0  -0.2103
  C  C175  1  0.858600  0.681200  0.772500  1.0  0.098
  C  C176  1  0.873200  0.741500  0.818900  1.0  -0.2245
  C  C177  1  0.930400  0.804500  0.809100  1.0  0.1688
  C  C178  1  0.791800  0.615300  0.778700  1.0  0.0192
  C  C179  1  0.794000  0.542900  0.742700  1.0  -0.1247
  C  C180  1  0.731100  0.483200  0.748500  1.0  -0.0843
  C  C181  1  0.664900  0.494300  0.788100  1.0  -0.1104
  C  C182  1  0.661400  0.567000  0.824200  1.0  -0.0114
  C  C183  1  0.725700  0.626900  0.819600  1.0  -0.1362
  C  C184  1  0.591600  0.575000  0.868300  1.0  0.2415
  C  C185  1  0.495000  0.626000  0.929700  1.0  0.2424
  C  C186  1  0.439100  0.687900  0.959700  1.0  -0.0467
  C  C187  1  0.455400  0.717800  0.019000  1.0  -0.1188
  C  C188  1  0.400800  0.776400  0.045100  1.0  -0.0891
  C  C189  1  0.331800  0.806100  0.012500  1.0  -0.0862
  C  C190  1  0.316000  0.776600  0.953000  1.0  0.0176
  C  C191  1  0.370100  0.717100  0.927900  1.0  -0.1236
  C  C192  1  0.243500  0.808500  0.915400  1.0  0.0872
  C  C193  1  0.214500  0.763900  0.864200  1.0  -0.2043
  C  C194  1  0.155600  0.799400  0.826900  1.0  0.1396
  C  C195  1  0.140600  0.912400  0.889200  1.0  0.1551
  C  C196  1  0.201600  0.882600  0.929600  1.0  -0.209
  C  C197  1  0.254700  0.536300  0.963600  1.0  0.1643
  C  C198  1  0.188500  0.592900  0.970200  1.0  -0.2108
  C  C199  1  0.181200  0.641400  0.022500  1.0  0.0984
  C  C200  1  0.241500  0.626800  0.068900  1.0  -0.2232
  C  C201  1  0.304500  0.569600  0.059100  1.0  0.1695
  C  C202  1  0.115300  0.708200  0.028700  1.0  0.0207
  C  C203  1  0.042900  0.706000  0.992700  1.0  -0.1249
  C  C204  1  0.983200  0.768900  0.998500  1.0  -0.0845
  C  C205  1  0.994300  0.835100  0.038100  1.0  -0.1083
  C  C206  1  0.067000  0.838600  0.074200  1.0  -0.0103
  C  C207  1  0.126900  0.774300  0.069600  1.0  -0.1376
  C  C208  1  0.075000  0.908400  0.118300  1.0  0.242
  C  C209  1  0.126000  0.005000  0.179700  1.0  0.242
  C  C210  1  0.187900  0.060900  0.209700  1.0  -0.0473
  C  C211  1  0.217800  0.044600  0.269000  1.0  -0.1219
  C  C212  1  0.276400  0.099200  0.295100  1.0  -0.09
  C  C213  1  0.306100  0.168200  0.262500  1.0  -0.0878
  C  C214  1  0.276600  0.184000  0.203000  1.0  0.0174
  C  C215  1  0.217100  0.129900  0.177900  1.0  -0.1227
  C  C216  1  0.308500  0.256500  0.165400  1.0  0.0882
  C  C217  1  0.263900  0.285500  0.114200  1.0  -0.2064
  C  C218  1  0.299400  0.344400  0.076900  1.0  0.1428
  C  C219  1  0.412400  0.359400  0.139200  1.0  0.1558
  C  C220  1  0.382600  0.298400  0.179600  1.0  -0.2071
  C  C221  1  0.745300  0.463700  0.463600  1.0  0.165
  C  C222  1  0.811500  0.407100  0.470200  1.0  -0.2085
  C  C223  1  0.818800  0.358600  0.522500  1.0  0.098
  C  C224  1  0.758500  0.373200  0.568900  1.0  -0.2239
  C  C225  1  0.695500  0.430400  0.559100  1.0  0.1694
  C  C226  1  0.884700  0.291800  0.528700  1.0  0.0191
  C  C227  1  0.957100  0.294000  0.492700  1.0  -0.1251
  C  C228  1  0.016800  0.231100  0.498500  1.0  -0.0854
  C  C229  1  0.005700  0.164900  0.538100  1.0  -0.1089
  C  C230  1  0.933000  0.161400  0.574200  1.0  -0.0108
  C  C231  1  0.873100  0.225700  0.569600  1.0  -0.1379
  C  C232  1  0.925000  0.091600  0.618300  1.0  0.2416
  C  C233  1  0.874000  0.995000  0.679700  1.0  0.2423
  C  C234  1  0.812100  0.939100  0.709700  1.0  -0.0479
  C  C235  1  0.782200  0.955400  0.769000  1.0  -0.1204
  C  C236  1  0.723600  0.900800  0.795100  1.0  -0.0895
  C  C237  1  0.693900  0.831800  0.762500  1.0  -0.0862
  C  C238  1  0.723400  0.816000  0.703000  1.0  0.0182
  C  C239  1  0.782900  0.870100  0.677900  1.0  -0.1226
  C  C240  1  0.691500  0.743500  0.665400  1.0  0.088
  C  C241  1  0.736100  0.714500  0.614200  1.0  -0.2061
  C  C242  1  0.700600  0.655600  0.576900  1.0  0.1429
  C  C243  1  0.587600  0.640600  0.639200  1.0  0.1558
  C  C244  1  0.617400  0.701600  0.679600  1.0  -0.207
  C  C245  1  0.463700  0.745300  0.536400  1.0  0.1648
  C  C246  1  0.407100  0.811500  0.529800  1.0  -0.21
  C  C247  1  0.358600  0.818800  0.477500  1.0  0.0988
  C  C248  1  0.373200  0.758500  0.431100  1.0  -0.2241
  C  C249  1  0.430400  0.695500  0.440900  1.0  0.168
  C  C250  1  0.291800  0.884700  0.471300  1.0  0.0197
  C  C251  1  0.294000  0.957100  0.507300  1.0  -0.1257
  C  C252  1  0.231100  0.016800  0.501500  1.0  -0.0839
  C  C253  1  0.164900  0.005700  0.461900  1.0  -0.11
  C  C254  1  0.161400  0.933000  0.425800  1.0  -0.0114
  C  C255  1  0.225700  0.873100  0.430400  1.0  -0.1365
  C  C256  1  0.091600  0.925000  0.381700  1.0  0.2413
  C  C257  1  0.995000  0.874000  0.320300  1.0  0.2432
  C  C258  1  0.939100  0.812100  0.290300  1.0  -0.0471
  C  C259  1  0.955400  0.782200  0.231000  1.0  -0.1199
  C  C260  1  0.900800  0.723600  0.204900  1.0  -0.089
  C  C261  1  0.831800  0.693900  0.237500  1.0  -0.0863
  C  C262  1  0.816000  0.723400  0.297000  1.0  0.017
  C  C263  1  0.870100  0.782900  0.322100  1.0  -0.1236
  C  C264  1  0.743500  0.691500  0.334600  1.0  0.0869
  C  C265  1  0.714500  0.736100  0.385800  1.0  -0.2046
  C  C266  1  0.655600  0.700600  0.423100  1.0  0.1397
  C  C267  1  0.640600  0.587600  0.360800  1.0  0.1549
  C  C268  1  0.701600  0.617400  0.320400  1.0  -0.2089
  C  C269  1  0.536300  0.254700  0.036400  1.0  0.1643
  C  C270  1  0.592900  0.188500  0.029800  1.0  -0.2102
  C  C271  1  0.641400  0.181200  0.977500  1.0  0.0981
  C  C272  1  0.626800  0.241500  0.931100  1.0  -0.2238
  C  C273  1  0.569600  0.304500  0.940900  1.0  0.1684
  C  C274  1  0.708200  0.115300  0.971300  1.0  0.0211
  C  C275  1  0.706000  0.042900  0.007300  1.0  -0.1235
  C  C276  1  0.768900  0.983200  0.001500  1.0  -0.0841
  C  C277  1  0.835100  0.994300  0.961900  1.0  -0.1113
  C  C278  1  0.838600  0.067000  0.925800  1.0  -0.0119
  C  C279  1  0.774300  0.126900  0.930400  1.0  -0.1369
  C  C280  1  0.908400  0.075000  0.881700  1.0  0.2407
  C  C281  1  0.005000  0.126000  0.820300  1.0  0.2424
  C  C282  1  0.060900  0.187900  0.790300  1.0  -0.0474
  C  C283  1  0.044600  0.217800  0.731000  1.0  -0.1185
  C  C284  1  0.099200  0.276400  0.704900  1.0  -0.0879
  C  C285  1  0.168200  0.306100  0.737500  1.0  -0.0864
  C  C286  1  0.184000  0.276600  0.797000  1.0  0.0168
  C  C287  1  0.129900  0.217100  0.822100  1.0  -0.1238
  C  C288  1  0.256500  0.308500  0.834600  1.0  0.0869
  C  C289  1  0.285500  0.263900  0.885800  1.0  -0.2058
  C  C290  1  0.344400  0.299400  0.923100  1.0  0.1412
  C  C291  1  0.359400  0.412400  0.860800  1.0  0.1553
  C  C292  1  0.298400  0.382600  0.820400  1.0  -0.2094
  C  C293  1  0.245300  0.036300  0.786400  1.0  0.1655
  C  C294  1  0.311500  0.092900  0.779800  1.0  -0.2103
  C  C295  1  0.318800  0.141400  0.727500  1.0  0.0995
  C  C296  1  0.258500  0.126800  0.681100  1.0  -0.2232
  C  C297  1  0.195500  0.069600  0.690900  1.0  0.1693
  C  C298  1  0.384700  0.208200  0.721300  1.0  0.0193
  C  C299  1  0.457100  0.206000  0.757300  1.0  -0.1251
  C  C300  1  0.516800  0.268900  0.751500  1.0  -0.0845
  C  C301  1  0.505700  0.335100  0.711900  1.0  -0.1095
  C  C302  1  0.433000  0.338600  0.675800  1.0  -0.0102
  C  C303  1  0.373100  0.274300  0.680400  1.0  -0.1375
  C  C304  1  0.425000  0.408400  0.631700  1.0  0.2416
  C  C305  1  0.374000  0.505000  0.570300  1.0  0.2428
  C  C306  1  0.312100  0.560900  0.540300  1.0  -0.0479
  C  C307  1  0.282200  0.544600  0.481000  1.0  -0.1219
  C  C308  1  0.223600  0.599200  0.454900  1.0  -0.0891
  C  C309  1  0.193900  0.668200  0.487500  1.0  -0.0864
  C  C310  1  0.223400  0.684000  0.547000  1.0  0.0183
  C  C311  1  0.282900  0.629900  0.572100  1.0  -0.1232
  C  C312  1  0.191500  0.756500  0.584600  1.0  0.0878
  C  C313  1  0.236100  0.785500  0.635800  1.0  -0.2067
  C  C314  1  0.200600  0.844400  0.673100  1.0  0.1423
  C  C315  1  0.087600  0.859400  0.610800  1.0  0.1558
  C  C316  1  0.117400  0.798400  0.570400  1.0  -0.207
  C  C317  1  0.754700  0.963700  0.286400  1.0  0.1648
  C  C318  1  0.688500  0.907100  0.279800  1.0  -0.211
  C  C319  1  0.681200  0.858600  0.227500  1.0  0.0982
  C  C320  1  0.741500  0.873200  0.181100  1.0  -0.2226
  C  C321  1  0.804500  0.930400  0.190900  1.0  0.1694
  C  C322  1  0.615300  0.791800  0.221300  1.0  0.0206
  C  C323  1  0.542900  0.794000  0.257300  1.0  -0.1252
  C  C324  1  0.483200  0.731100  0.251500  1.0  -0.0846
  C  C325  1  0.494300  0.664900  0.211900  1.0  -0.1088
  C  C326  1  0.567000  0.661400  0.175800  1.0  -0.0111
  C  C327  1  0.626900  0.725700  0.180400  1.0  -0.1376
  C  C328  1  0.575000  0.591600  0.131700  1.0  0.2421
  C  C329  1  0.626000  0.495000  0.070300  1.0  0.2429
  C  C330  1  0.687900  0.439100  0.040300  1.0  -0.0477
  C  C331  1  0.717800  0.455400  0.981000  1.0  -0.1206
  C  C332  1  0.776400  0.400800  0.954900  1.0  -0.0886
  C  C333  1  0.806100  0.331800  0.987500  1.0  -0.0871
  C  C334  1  0.776600  0.316000  0.047000  1.0  0.0171
  C  C335  1  0.717100  0.370100  0.072100  1.0  -0.123
  C  C336  1  0.808500  0.243500  0.084600  1.0  0.0873
  C  C337  1  0.763900  0.214500  0.135800  1.0  -0.2073
  C  C338  1  0.799400  0.155600  0.173100  1.0  0.1425
  C  C339  1  0.912400  0.140600  0.110800  1.0  0.1556
  C  C340  1  0.882600  0.201600  0.070400  1.0  -0.2076
  N  N341  1  0.024300  0.187500  0.257400  1.0  -0.3669
  N  N342  1  0.445200  0.488000  0.395000  1.0  -0.2843
  N  N343  1  0.506300  0.456100  0.433400  1.0  -0.2275
  N  N344  1  0.444600  0.351300  0.389000  1.0  0.0872
  N  N345  1  0.426000  0.270100  0.367500  1.0  -0.5572
  N  N346  1  0.880600  0.125600  0.337200  1.0  -0.353
  N  N347  1  0.975700  0.812500  0.757400  1.0  -0.366
  N  N348  1  0.554800  0.512000  0.895000  1.0  -0.2836
  N  N349  1  0.493700  0.543900  0.933400  1.0  -0.2268
  N  N350  1  0.555400  0.648700  0.889000  1.0  0.087
  N  N351  1  0.574000  0.729900  0.867500  1.0  -0.5586
  N  N352  1  0.119400  0.874400  0.837200  1.0  -0.3528
  N  N353  1  0.312500  0.524300  0.007400  1.0  -0.3669
  N  N354  1  0.012000  0.945200  0.145000  1.0  -0.2828
  N  N355  1  0.043900  0.006300  0.183400  1.0  -0.2267
  N  N356  1  0.148700  0.944600  0.139000  1.0  0.0881
  N  N357  1  0.229900  0.926000  0.117500  1.0  -0.5569
  N  N358  1  0.374400  0.380600  0.087200  1.0  -0.3541
  N  N359  1  0.687500  0.475700  0.507400  1.0  -0.3663
  N  N360  1  0.988000  0.054800  0.645000  1.0  -0.2839
  N  N361  1  0.956100  0.993700  0.683400  1.0  -0.2268
  N  N362  1  0.851300  0.055400  0.639000  1.0  0.088
  N  N363  1  0.770100  0.074000  0.617500  1.0  -0.5566
  N  N364  1  0.625600  0.619400  0.587200  1.0  -0.3542
  N  N365  1  0.475700  0.687500  0.492600  1.0  -0.3665
  N  N366  1  0.054800  0.988000  0.355000  1.0  -0.2834
  N  N367  1  0.993700  0.956100  0.316600  1.0  -0.227
  N  N368  1  0.055400  0.851300  0.361000  1.0  0.087
  N  N369  1  0.074000  0.770100  0.382500  1.0  -0.5575
  N  N370  1  0.619400  0.625600  0.412800  1.0  -0.3527
  N  N371  1  0.524300  0.312500  0.992600  1.0  -0.3667
  N  N372  1  0.945200  0.012000  0.855000  1.0  -0.2839
  N  N373  1  0.006300  0.043900  0.816600  1.0  -0.227
  N  N374  1  0.944600  0.148700  0.861000  1.0  0.0872
  N  N375  1  0.926000  0.229900  0.882500  1.0  -0.5579
  N  N376  1  0.380600  0.374400  0.912800  1.0  -0.3517
  N  N377  1  0.187500  0.024300  0.742600  1.0  -0.3663
  N  N378  1  0.488000  0.445200  0.605000  1.0  -0.2833
  N  N379  1  0.456100  0.506300  0.566600  1.0  -0.227
  N  N380  1  0.351300  0.444600  0.611000  1.0  0.0878
  N  N381  1  0.270100  0.426000  0.632500  1.0  -0.5566
  N  N382  1  0.125600  0.880600  0.662800  1.0  -0.3543
  N  N383  1  0.812500  0.975700  0.242600  1.0  -0.3676
  N  N384  1  0.512000  0.554800  0.105000  1.0  -0.2826
  N  N385  1  0.543900  0.493700  0.066600  1.0  -0.2271
  N  N386  1  0.648700  0.555400  0.111000  1.0  0.0874
  N  N387  1  0.729900  0.574000  0.132500  1.0  -0.556
  N  N388  1  0.874400  0.119400  0.162800  1.0  -0.3526
  Cl  Cl389  1  0.121840  0.121840  0.000000  1.0  1.8111
  Cl  Cl390  1  0.878160  0.878160  0.500000  1.0  1.8112
  Cl  Cl391  1  0.378160  0.621840  0.750000  1.0  1.8111
  Cl  Cl392  1  0.621840  0.378160  0.250000  1.0  1.8114
  O  O393  1  0.111000  0.177300  0.045400  1.0  -0.6721
  O  O394  1  0.135500  0.058800  0.034500  1.0  -0.6558
  O  O395  1  0.177300  0.111000  0.954600  1.0  -0.6711
  O  O396  1  0.058800  0.135500  0.965500  1.0  -0.6549
  O  O397  1  0.889000  0.822700  0.545400  1.0  -0.6723
  O  O398  1  0.864500  0.941200  0.534500  1.0  -0.6556
  O  O399  1  0.822700  0.889000  0.454600  1.0  -0.6701
  O  O400  1  0.941200  0.864500  0.465500  1.0  -0.6556
  O  O401  1  0.322700  0.611000  0.795400  1.0  -0.6697
  O  O402  1  0.441200  0.635500  0.784500  1.0  -0.6557
  O  O403  1  0.389000  0.677300  0.704600  1.0  -0.6718
  O  O404  1  0.364500  0.558800  0.715500  1.0  -0.6552
  O  O405  1  0.677300  0.389000  0.295400  1.0  -0.6714
  O  O406  1  0.558800  0.364500  0.284500  1.0  -0.6556
  O  O407  1  0.611000  0.322700  0.204600  1.0  -0.672
  O  O408  1  0.635500  0.441200  0.215500  1.0  -0.6553
