# generated using pymatgen
data_CdH36C48N12ClO4
_symmetry_space_group_name_H-M   'P 1'
_cell_length_a   15.88320000
_cell_length_b   15.88320000
_cell_length_c   21.70000000
_cell_angle_alpha   90.00000000
_cell_angle_beta   90.00000000
_cell_angle_gamma   90.00000000
_symmetry_Int_Tables_number   1
_chemical_formula_structural   CdH36C48N12ClO4
_chemical_formula_sum   'Cd4 H144 C192 N48 Cl4 O16'
_cell_volume   5474.39011661
_cell_formula_units_Z   4
loop_
 _symmetry_equiv_pos_site_id
 _symmetry_equiv_pos_as_xyz
  1  'x, y, z'
loop_
 _atom_site_type_symbol
 _atom_site_label
 _atom_site_symmetry_multiplicity
 _atom_site_fract_x
 _atom_site_fract_y
 _atom_site_fract_z
 _atom_site_occupancy
 _atom_site_charge
  Cd  Cd1  1  0.058720  0.941280  0.250000  1.0  0.7874
  Cd  Cd2  1  0.941280  0.058720  0.750000  1.0  0.787
  Cd  Cd3  1  0.558720  0.558720  0.500000  1.0  0.7873
  Cd  Cd4  1  0.441280  0.441280  0.000000  1.0  0.7872
  H  H5  1  0.536900  0.612200  0.350400  1.0  0.0768
  H  H6  1  0.586700  0.714600  0.284500  1.0  0.1315
  H  H7  1  0.790100  0.736200  0.394800  1.0  0.1306
  H  H8  1  0.730300  0.639900  0.459400  1.0  0.0656
  H  H9  1  0.653800  0.794900  0.219900  1.0  0.0758
  H  H10  1  0.702900  0.910700  0.164800  1.0  0.098
  H  H11  1  0.802200  0.002400  0.208200  1.0  0.0908
  H  H12  1  0.803600  0.859700  0.362900  1.0  0.1142
  H  H13  1  0.046100  0.121700  0.459500  1.0  0.1024
  H  H14  1  0.066600  0.234100  0.525000  1.0  0.0949
  H  H15  1  0.965700  0.337600  0.536200  1.0  0.1052
  H  H16  1  0.823900  0.222900  0.405600  1.0  0.0855
  H  H17  1  0.851000  0.401300  0.562000  1.0  0.1246
  H  H18  1  0.740400  0.495200  0.573300  1.0  0.0654
  H  H19  1  0.656000  0.438800  0.408900  1.0  0.0516
  H  H20  1  0.762100  0.343700  0.392900  1.0  0.1224
  H  H21  1  0.744800  0.025800  0.395900  1.0  0.3284
  H  H22  1  0.738600  0.095800  0.350700  1.0  0.3124
  H  H23  1  0.463100  0.387800  0.850400  1.0  0.0769
  H  H24  1  0.413300  0.285400  0.784500  1.0  0.131
  H  H25  1  0.209900  0.263800  0.894800  1.0  0.1297
  H  H26  1  0.269700  0.360100  0.959400  1.0  0.0655
  H  H27  1  0.346200  0.205100  0.719900  1.0  0.0758
  H  H28  1  0.297100  0.089300  0.664800  1.0  0.0951
  H  H29  1  0.197800  0.997600  0.708200  1.0  0.0915
  H  H30  1  0.196400  0.140300  0.862900  1.0  0.1152
  H  H31  1  0.953900  0.878300  0.959500  1.0  0.1024
  H  H32  1  0.933400  0.765900  0.025000  1.0  0.0954
  H  H33  1  0.034300  0.662400  0.036200  1.0  0.1056
  H  H34  1  0.176100  0.777100  0.905600  1.0  0.0848
  H  H35  1  0.149000  0.598700  0.062000  1.0  0.1228
  H  H36  1  0.259600  0.504800  0.073300  1.0  0.0652
  H  H37  1  0.344000  0.561200  0.908900  1.0  0.0511
  H  H38  1  0.237900  0.656300  0.892900  1.0  0.1223
  H  H39  1  0.255200  0.974200  0.895900  1.0  0.3289
  H  H40  1  0.261400  0.904200  0.850700  1.0  0.3124
  H  H41  1  0.887800  0.036900  0.600400  1.0  0.0771
  H  H42  1  0.785400  0.086700  0.534500  1.0  0.1296
  H  H43  1  0.763800  0.290100  0.644800  1.0  0.1307
  H  H44  1  0.860100  0.230300  0.709400  1.0  0.0654
  H  H45  1  0.705100  0.153800  0.469900  1.0  0.0757
  H  H46  1  0.589300  0.202900  0.414800  1.0  0.0959
  H  H47  1  0.497600  0.302200  0.458200  1.0  0.0917
  H  H48  1  0.640300  0.303600  0.612900  1.0  0.1158
  H  H49  1  0.378300  0.546100  0.709500  1.0  0.1016
  H  H50  1  0.265900  0.566600  0.775000  1.0  0.095
  H  H51  1  0.162400  0.465700  0.786200  1.0  0.1051
  H  H52  1  0.277100  0.323900  0.655600  1.0  0.0853
  H  H53  1  0.098700  0.351000  0.812000  1.0  0.1237
  H  H54  1  0.004800  0.240400  0.823300  1.0  0.0654
  H  H55  1  0.061200  0.156000  0.658900  1.0  0.0522
  H  H56  1  0.156300  0.262100  0.642900  1.0  0.1221
  H  H57  1  0.474200  0.244800  0.645900  1.0  0.3308
  H  H58  1  0.404200  0.238600  0.600700  1.0  0.312
  H  H59  1  0.112200  0.963100  0.100400  1.0  0.0778
  H  H60  1  0.214600  0.913300  0.034500  1.0  0.1319
  H  H61  1  0.236200  0.709900  0.144800  1.0  0.1304
  H  H62  1  0.139900  0.769700  0.209400  1.0  0.0658
  H  H63  1  0.294900  0.846200  0.969900  1.0  0.0769
  H  H64  1  0.410700  0.797100  0.914800  1.0  0.0964
  H  H65  1  0.502400  0.697800  0.958200  1.0  0.0896
  H  H66  1  0.359700  0.696400  0.112900  1.0  0.1155
  H  H67  1  0.621700  0.453900  0.209500  1.0  0.1022
  H  H68  1  0.734100  0.433400  0.275000  1.0  0.0952
  H  H69  1  0.837600  0.534300  0.286200  1.0  0.1052
  H  H70  1  0.722900  0.676100  0.155600  1.0  0.0848
  H  H71  1  0.901300  0.649000  0.312000  1.0  0.1234
  H  H72  1  0.995200  0.759600  0.323300  1.0  0.0651
  H  H73  1  0.938800  0.844000  0.158900  1.0  0.0522
  H  H74  1  0.843700  0.737900  0.142900  1.0  0.1221
  H  H75  1  0.525800  0.755200  0.145900  1.0  0.3303
  H  H76  1  0.595800  0.761400  0.100700  1.0  0.3129
  H  H77  1  0.963100  0.112200  0.899600  1.0  0.0773
  H  H78  1  0.913300  0.214600  0.965500  1.0  0.1309
  H  H79  1  0.709900  0.236200  0.855200  1.0  0.1294
  H  H80  1  0.769700  0.139900  0.790600  1.0  0.0657
  H  H81  1  0.846200  0.294900  0.030100  1.0  0.0756
  H  H82  1  0.797100  0.410700  0.085200  1.0  0.0955
  H  H83  1  0.697800  0.502400  0.041800  1.0  0.0909
  H  H84  1  0.696400  0.359700  0.887100  1.0  0.1156
  H  H85  1  0.453900  0.621700  0.790500  1.0  0.1023
  H  H86  1  0.433400  0.734100  0.725000  1.0  0.0956
  H  H87  1  0.534300  0.837600  0.713800  1.0  0.1065
  H  H88  1  0.676100  0.722900  0.844400  1.0  0.0853
  H  H89  1  0.649000  0.901300  0.688000  1.0  0.1223
  H  H90  1  0.759600  0.995200  0.676700  1.0  0.0642
  H  H91  1  0.844000  0.938800  0.841100  1.0  0.0513
  H  H92  1  0.737900  0.843700  0.857100  1.0  0.1219
  H  H93  1  0.755200  0.525800  0.854100  1.0  0.3292
  H  H94  1  0.761400  0.595800  0.899300  1.0  0.3121
  H  H95  1  0.036900  0.887800  0.399600  1.0  0.0773
  H  H96  1  0.086700  0.785400  0.465500  1.0  0.1289
  H  H97  1  0.290100  0.763800  0.355200  1.0  0.1298
  H  H98  1  0.230300  0.860100  0.290600  1.0  0.0658
  H  H99  1  0.153800  0.705100  0.530100  1.0  0.076
  H  H100  1  0.202900  0.589300  0.585200  1.0  0.0957
  H  H101  1  0.302200  0.497600  0.541800  1.0  0.0921
  H  H102  1  0.303600  0.640300  0.387100  1.0  0.1157
  H  H103  1  0.546100  0.378300  0.290500  1.0  0.1019
  H  H104  1  0.566600  0.265900  0.225000  1.0  0.095
  H  H105  1  0.465700  0.162400  0.213800  1.0  0.1058
  H  H106  1  0.323900  0.277100  0.344400  1.0  0.0855
  H  H107  1  0.351000  0.098700  0.188000  1.0  0.1224
  H  H108  1  0.240400  0.004800  0.176700  1.0  0.065
  H  H109  1  0.156000  0.061200  0.341100  1.0  0.0516
  H  H110  1  0.262100  0.156300  0.357100  1.0  0.1222
  H  H111  1  0.244800  0.474200  0.354100  1.0  0.3288
  H  H112  1  0.238600  0.404200  0.399300  1.0  0.3136
  H  H113  1  0.612200  0.536900  0.649600  1.0  0.0777
  H  H114  1  0.714600  0.586700  0.715500  1.0  0.1315
  H  H115  1  0.736200  0.790100  0.605200  1.0  0.1302
  H  H116  1  0.639900  0.730300  0.540600  1.0  0.0655
  H  H117  1  0.794900  0.653800  0.780100  1.0  0.0761
  H  H118  1  0.910700  0.702900  0.835200  1.0  0.0987
  H  H119  1  0.002400  0.802200  0.791800  1.0  0.0901
  H  H120  1  0.859700  0.803600  0.637100  1.0  0.1161
  H  H121  1  0.121700  0.046100  0.540500  1.0  0.1022
  H  H122  1  0.234100  0.066600  0.475000  1.0  0.0951
  H  H123  1  0.337600  0.965700  0.463800  1.0  0.1062
  H  H124  1  0.222900  0.823900  0.594400  1.0  0.0854
  H  H125  1  0.401300  0.851000  0.438000  1.0  0.1224
  H  H126  1  0.495200  0.740400  0.426700  1.0  0.0649
  H  H127  1  0.438800  0.656000  0.591100  1.0  0.0525
  H  H128  1  0.343700  0.762100  0.607100  1.0  0.1217
  H  H129  1  0.025800  0.744800  0.604100  1.0  0.3286
  H  H130  1  0.095800  0.738600  0.649300  1.0  0.3126
  H  H131  1  0.387800  0.463100  0.149600  1.0  0.0777
  H  H132  1  0.285400  0.413300  0.215500  1.0  0.1319
  H  H133  1  0.263800  0.209900  0.105200  1.0  0.1298
  H  H134  1  0.360100  0.269700  0.040600  1.0  0.0655
  H  H135  1  0.205100  0.346200  0.280100  1.0  0.0764
  H  H136  1  0.089300  0.297100  0.335200  1.0  0.0957
  H  H137  1  0.997600  0.197800  0.291800  1.0  0.0904
  H  H138  1  0.140300  0.196400  0.137100  1.0  0.1162
  H  H139  1  0.878300  0.953900  0.040500  1.0  0.1017
  H  H140  1  0.765900  0.933400  0.975000  1.0  0.0949
  H  H141  1  0.662400  0.034300  0.963800  1.0  0.1054
  H  H142  1  0.777100  0.176100  0.094400  1.0  0.0856
  H  H143  1  0.598700  0.149000  0.938000  1.0  0.1224
  H  H144  1  0.504800  0.259600  0.926700  1.0  0.0646
  H  H145  1  0.561200  0.344000  0.091100  1.0  0.0519
  H  H146  1  0.656300  0.237900  0.107100  1.0  0.1219
  H  H147  1  0.974200  0.255200  0.104100  1.0  0.3303
  H  H148  1  0.904200  0.261400  0.149300  1.0  0.313
  C  C149  1  0.587500  0.640700  0.361000  1.0  0.161
  C  C150  1  0.617000  0.701600  0.321000  1.0  -0.2024
  C  C151  1  0.691300  0.743800  0.334700  1.0  0.0917
  C  C152  1  0.735500  0.714900  0.386000  1.0  -0.2057
  C  C153  1  0.700100  0.656100  0.423500  1.0  0.141
  C  C154  1  0.722800  0.816500  0.297600  1.0  0.0176
  C  C155  1  0.693800  0.831800  0.238100  1.0  -0.0867
  C  C156  1  0.723300  0.900600  0.205300  1.0  -0.0899
  C  C157  1  0.782400  0.955200  0.230800  1.0  -0.1122
  C  C158  1  0.812000  0.939000  0.290500  1.0  -0.0557
  C  C159  1  0.782600  0.870400  0.322700  1.0  -0.1227
  C  C160  1  0.873500  0.994600  0.320100  1.0  0.242
  C  C161  1  0.924500  0.091700  0.381700  1.0  0.2432
  C  C162  1  0.932700  0.161400  0.425600  1.0  -0.009
  C  C163  1  0.005000  0.165100  0.462100  1.0  -0.1143
  C  C164  1  0.016400  0.231200  0.501300  1.0  -0.0819
  C  C165  1  0.957200  0.293400  0.507400  1.0  -0.1344
  C  C166  1  0.884400  0.292000  0.471300  1.0  0.0133
  C  C167  1  0.873100  0.225000  0.430400  1.0  -0.1304
  C  C168  1  0.818300  0.357900  0.477900  1.0  0.0953
  C  C169  1  0.810700  0.406600  0.530000  1.0  -0.2086
  C  C170  1  0.744600  0.463600  0.536300  1.0  0.1675
  C  C171  1  0.696000  0.430400  0.440900  1.0  0.1715
  C  C172  1  0.758700  0.373100  0.431000  1.0  -0.2279
  C  C173  1  0.412500  0.359300  0.861000  1.0  0.1606
  C  C174  1  0.383000  0.298400  0.821000  1.0  -0.2026
  C  C175  1  0.308700  0.256200  0.834700  1.0  0.0919
  C  C176  1  0.264500  0.285100  0.886000  1.0  -0.2047
  C  C177  1  0.299900  0.343900  0.923500  1.0  0.1406
  C  C178  1  0.277200  0.183500  0.797600  1.0  0.0167
  C  C179  1  0.306200  0.168200  0.738100  1.0  -0.0876
  C  C180  1  0.276700  0.099400  0.705300  1.0  -0.0912
  C  C181  1  0.217600  0.044800  0.730800  1.0  -0.1139
  C  C182  1  0.188000  0.061000  0.790500  1.0  -0.0547
  C  C183  1  0.217400  0.129600  0.822700  1.0  -0.1227
  C  C184  1  0.126500  0.005400  0.820100  1.0  0.2418
  C  C185  1  0.075500  0.908300  0.881700  1.0  0.2472
  C  C186  1  0.067300  0.838600  0.925600  1.0  -0.0082
  C  C187  1  0.995000  0.834900  0.962100  1.0  -0.1112
  C  C188  1  0.983600  0.768800  0.001300  1.0  -0.0874
  C  C189  1  0.042800  0.706600  0.007400  1.0  -0.1333
  C  C190  1  0.115600  0.708000  0.971300  1.0  0.0132
  C  C191  1  0.126900  0.775000  0.930400  1.0  -0.1302
  C  C192  1  0.181700  0.642100  0.977900  1.0  0.0953
  C  C193  1  0.189300  0.593400  0.030000  1.0  -0.2104
  C  C194  1  0.255400  0.536400  0.036300  1.0  0.1676
  C  C195  1  0.304000  0.569600  0.940900  1.0  0.1713
  C  C196  1  0.241300  0.626900  0.931000  1.0  -0.2264
  C  C197  1  0.859300  0.087500  0.611000  1.0  0.16
  C  C198  1  0.798400  0.117000  0.571000  1.0  -0.2098
  C  C199  1  0.756200  0.191300  0.584700  1.0  0.0918
  C  C200  1  0.785100  0.235500  0.636000  1.0  -0.2041
  C  C201  1  0.843900  0.200100  0.673500  1.0  0.1394
  C  C202  1  0.683500  0.222800  0.547600  1.0  0.0168
  C  C203  1  0.668200  0.193800  0.488100  1.0  -0.0868
  C  C204  1  0.599400  0.223300  0.455300  1.0  -0.0923
  C  C205  1  0.544800  0.282400  0.480800  1.0  -0.1111
  C  C206  1  0.561000  0.312000  0.540500  1.0  -0.0554
  C  C207  1  0.629600  0.282600  0.572700  1.0  -0.1231
  C  C208  1  0.505400  0.373500  0.570100  1.0  0.242
  C  C209  1  0.408300  0.424500  0.631700  1.0  0.2433
  C  C210  1  0.338600  0.432700  0.675600  1.0  -0.0094
  C  C211  1  0.334900  0.505000  0.712100  1.0  -0.112
  C  C212  1  0.268800  0.516400  0.751300  1.0  -0.0853
  C  C213  1  0.206600  0.457200  0.757400  1.0  -0.1339
  C  C214  1  0.208000  0.384400  0.721300  1.0  0.0149
  C  C215  1  0.275000  0.373100  0.680400  1.0  -0.1287
  C  C216  1  0.142100  0.318300  0.727900  1.0  0.0957
  C  C217  1  0.093400  0.310700  0.780000  1.0  -0.21
  C  C218  1  0.036400  0.244600  0.786300  1.0  0.1668
  C  C219  1  0.069600  0.196000  0.690900  1.0  0.1707
  C  C220  1  0.126900  0.258700  0.681000  1.0  -0.2287
  C  C221  1  0.140700  0.912500  0.111000  1.0  0.1591
  C  C222  1  0.201600  0.883000  0.071000  1.0  -0.2043
  C  C223  1  0.243800  0.808700  0.084700  1.0  0.0908
  C  C224  1  0.214900  0.764500  0.136000  1.0  -0.2039
  C  C225  1  0.156100  0.799900  0.173500  1.0  0.1383
  C  C226  1  0.316500  0.777200  0.047600  1.0  0.0159
  C  C227  1  0.331800  0.806200  0.988100  1.0  -0.0867
  C  C228  1  0.400600  0.776700  0.955300  1.0  -0.0904
  C  C229  1  0.455200  0.717600  0.980800  1.0  -0.1114
  C  C230  1  0.439000  0.688000  0.040500  1.0  -0.0546
  C  C231  1  0.370400  0.717400  0.072700  1.0  -0.1234
  C  C232  1  0.494600  0.626500  0.070100  1.0  0.2423
  C  C233  1  0.591700  0.575500  0.131700  1.0  0.243
  C  C234  1  0.661400  0.567300  0.175600  1.0  -0.0088
  C  C235  1  0.665100  0.495000  0.212100  1.0  -0.1158
  C  C236  1  0.731200  0.483600  0.251300  1.0  -0.0815
  C  C237  1  0.793400  0.542800  0.257400  1.0  -0.1332
  C  C238  1  0.792000  0.615600  0.221300  1.0  0.0126
  C  C239  1  0.725000  0.626900  0.180400  1.0  -0.1298
  C  C240  1  0.857900  0.681700  0.227900  1.0  0.0945
  C  C241  1  0.906600  0.689300  0.280000  1.0  -0.2089
  C  C242  1  0.963600  0.755400  0.286300  1.0  0.1668
  C  C243  1  0.930400  0.804000  0.190900  1.0  0.1707
  C  C244  1  0.873100  0.741300  0.181000  1.0  -0.2294
  C  C245  1  0.912500  0.140700  0.889000  1.0  0.1602
  C  C246  1  0.883000  0.201600  0.929000  1.0  -0.203
  C  C247  1  0.808700  0.243800  0.915300  1.0  0.0917
  C  C248  1  0.764500  0.214900  0.864000  1.0  -0.2037
  C  C249  1  0.799900  0.156100  0.826500  1.0  0.1432
  C  C250  1  0.777200  0.316500  0.952400  1.0  0.0162
  C  C251  1  0.806200  0.331800  0.011900  1.0  -0.0877
  C  C252  1  0.776700  0.400600  0.044700  1.0  -0.0897
  C  C253  1  0.717600  0.455200  0.019200  1.0  -0.1128
  C  C254  1  0.688000  0.439000  0.959500  1.0  -0.0553
  C  C255  1  0.717400  0.370400  0.927300  1.0  -0.122
  C  C256  1  0.626500  0.494600  0.929900  1.0  0.2417
  C  C257  1  0.575500  0.591700  0.868300  1.0  0.2438
  C  C258  1  0.567300  0.661400  0.824400  1.0  -0.0083
  C  C259  1  0.495000  0.665100  0.787900  1.0  -0.1114
  C  C260  1  0.483600  0.731200  0.748700  1.0  -0.0854
  C  C261  1  0.542800  0.793400  0.742600  1.0  -0.1339
  C  C262  1  0.615600  0.792000  0.778700  1.0  0.0134
  C  C263  1  0.626900  0.725000  0.819600  1.0  -0.1302
  C  C264  1  0.681700  0.857900  0.772100  1.0  0.0949
  C  C265  1  0.689300  0.906600  0.720000  1.0  -0.21
  C  C266  1  0.755400  0.963600  0.713700  1.0  0.1673
  C  C267  1  0.804000  0.930400  0.809100  1.0  0.1715
  C  C268  1  0.741300  0.873100  0.819000  1.0  -0.2287
  C  C269  1  0.087500  0.859300  0.389000  1.0  0.1611
  C  C270  1  0.117000  0.798400  0.429000  1.0  -0.2071
  C  C271  1  0.191300  0.756200  0.415300  1.0  0.092
  C  C272  1  0.235500  0.785100  0.364000  1.0  -0.2053
  C  C273  1  0.200100  0.843900  0.326500  1.0  0.1415
  C  C274  1  0.222800  0.683500  0.452400  1.0  0.0178
  C  C275  1  0.193800  0.668200  0.511900  1.0  -0.0868
  C  C276  1  0.223300  0.599400  0.544700  1.0  -0.0943
  C  C277  1  0.282400  0.544800  0.519200  1.0  -0.1144
  C  C278  1  0.312000  0.561000  0.459500  1.0  -0.0556
  C  C279  1  0.282600  0.629600  0.427300  1.0  -0.1226
  C  C280  1  0.373500  0.505400  0.429900  1.0  0.2416
  C  C281  1  0.424500  0.408300  0.368300  1.0  0.2426
  C  C282  1  0.432700  0.338600  0.324400  1.0  -0.0084
  C  C283  1  0.505000  0.334900  0.287900  1.0  -0.11
  C  C284  1  0.516400  0.268800  0.248700  1.0  -0.084
  C  C285  1  0.457200  0.206600  0.242600  1.0  -0.1342
  C  C286  1  0.384400  0.208000  0.278700  1.0  0.0122
  C  C287  1  0.373100  0.275000  0.319600  1.0  -0.1299
  C  C288  1  0.318300  0.142100  0.272100  1.0  0.0953
  C  C289  1  0.310700  0.093400  0.220000  1.0  -0.2084
  C  C290  1  0.244600  0.036400  0.213700  1.0  0.1668
  C  C291  1  0.196000  0.069600  0.309100  1.0  0.1718
  C  C292  1  0.258700  0.126900  0.319000  1.0  -0.2295
  C  C293  1  0.640700  0.587500  0.639000  1.0  0.1596
  C  C294  1  0.701600  0.617000  0.679000  1.0  -0.204
  C  C295  1  0.743800  0.691300  0.665300  1.0  0.0913
  C  C296  1  0.714900  0.735500  0.614000  1.0  -0.2032
  C  C297  1  0.656100  0.700100  0.576500  1.0  0.1389
  C  C298  1  0.816500  0.722800  0.702400  1.0  0.0163
  C  C299  1  0.831800  0.693800  0.761900  1.0  -0.0869
  C  C300  1  0.900600  0.723300  0.794700  1.0  -0.09
  C  C301  1  0.955200  0.782400  0.769200  1.0  -0.111
  C  C302  1  0.939000  0.812000  0.709500  1.0  -0.0547
  C  C303  1  0.870400  0.782600  0.677300  1.0  -0.1229
  C  C304  1  0.994600  0.873500  0.679900  1.0  0.242
  C  C305  1  0.091700  0.924500  0.618300  1.0  0.2415
  C  C306  1  0.161400  0.932700  0.574400  1.0  -0.0087
  C  C307  1  0.165100  0.005000  0.537900  1.0  -0.1118
  C  C308  1  0.231200  0.016400  0.498700  1.0  -0.0827
  C  C309  1  0.293400  0.957200  0.492600  1.0  -0.1347
  C  C310  1  0.292000  0.884400  0.528700  1.0  0.0126
  C  C311  1  0.225000  0.873100  0.569600  1.0  -0.1292
  C  C312  1  0.357900  0.818300  0.522100  1.0  0.0945
  C  C313  1  0.406600  0.810700  0.470000  1.0  -0.2082
  C  C314  1  0.463600  0.744600  0.463700  1.0  0.1662
  C  C315  1  0.430400  0.696000  0.559100  1.0  0.1707
  C  C316  1  0.373100  0.758700  0.569000  1.0  -0.2302
  C  C317  1  0.359300  0.412500  0.139000  1.0  0.1593
  C  C318  1  0.298400  0.383000  0.179000  1.0  -0.204
  C  C319  1  0.256200  0.308700  0.165300  1.0  0.092
  C  C320  1  0.285100  0.264500  0.114000  1.0  -0.2034
  C  C321  1  0.343900  0.299900  0.076500  1.0  0.1403
  C  C322  1  0.183500  0.277200  0.202400  1.0  0.0165
  C  C323  1  0.168200  0.306200  0.261900  1.0  -0.0868
  C  C324  1  0.099400  0.276700  0.294700  1.0  -0.091
  C  C325  1  0.044800  0.217600  0.269200  1.0  -0.1115
  C  C326  1  0.061000  0.188000  0.209500  1.0  -0.0551
  C  C327  1  0.129600  0.217400  0.177300  1.0  -0.1232
  C  C328  1  0.005400  0.126500  0.179900  1.0  0.2415
  C  C329  1  0.908300  0.075500  0.118300  1.0  0.2447
  C  C330  1  0.838600  0.067300  0.074400  1.0  -0.0089
  C  C331  1  0.834900  0.995000  0.037900  1.0  -0.1124
  C  C332  1  0.768800  0.983600  0.998700  1.0  -0.0848
  C  C333  1  0.706600  0.042800  0.992600  1.0  -0.1323
  C  C334  1  0.708000  0.115600  0.028700  1.0  0.0146
  C  C335  1  0.775000  0.126900  0.069600  1.0  -0.1296
  C  C336  1  0.642100  0.181700  0.022100  1.0  0.0958
  C  C337  1  0.593400  0.189300  0.970000  1.0  -0.21
  C  C338  1  0.536400  0.255400  0.963700  1.0  0.1664
  C  C339  1  0.569600  0.304000  0.059100  1.0  0.1709
  C  C340  1  0.626900  0.241300  0.069000  1.0  -0.2296
  N  N341  1  0.625300  0.619600  0.413000  1.0  -0.3527
  N  N342  1  0.955600  0.993900  0.316300  1.0  -0.2259
  N  N343  1  0.987800  0.054900  0.354800  1.0  -0.2919
  N  N344  1  0.851300  0.055500  0.361100  1.0  0.0876
  N  N345  1  0.769500  0.074000  0.382200  1.0  -0.5543
  N  N346  1  0.687000  0.475500  0.492500  1.0  -0.3696
  N  N347  1  0.374700  0.380400  0.913000  1.0  -0.3538
  N  N348  1  0.044400  0.006100  0.816300  1.0  -0.2254
  N  N349  1  0.012200  0.945100  0.854800  1.0  -0.2944
  N  N350  1  0.148700  0.944500  0.861100  1.0  0.0882
  N  N351  1  0.230500  0.926000  0.882200  1.0  -0.5547
  N  N352  1  0.313000  0.524500  0.992500  1.0  -0.3701
  N  N353  1  0.880400  0.125300  0.663000  1.0  -0.3526
  N  N354  1  0.506100  0.455600  0.566300  1.0  -0.2258
  N  N355  1  0.445100  0.487800  0.604800  1.0  -0.295
  N  N356  1  0.444500  0.351300  0.611100  1.0  0.0874
  N  N357  1  0.426000  0.269500  0.632200  1.0  -0.5534
  N  N358  1  0.024500  0.187000  0.742500  1.0  -0.3699
  N  N359  1  0.119600  0.874700  0.163000  1.0  -0.3531
  N  N360  1  0.493900  0.544400  0.066300  1.0  -0.2256
  N  N361  1  0.554900  0.512200  0.104800  1.0  -0.2919
  N  N362  1  0.555500  0.648700  0.111100  1.0  0.0876
  N  N363  1  0.574000  0.730500  0.132200  1.0  -0.5536
  N  N364  1  0.975500  0.813000  0.242500  1.0  -0.3693
  N  N365  1  0.874700  0.119600  0.837000  1.0  -0.3537
  N  N366  1  0.544400  0.493900  0.933700  1.0  -0.2258
  N  N367  1  0.512200  0.554900  0.895200  1.0  -0.2926
  N  N368  1  0.648700  0.555500  0.888900  1.0  0.0879
  N  N369  1  0.730500  0.574000  0.867800  1.0  -0.5535
  N  N370  1  0.813000  0.975500  0.757500  1.0  -0.3704
  N  N371  1  0.125300  0.880400  0.337000  1.0  -0.354
  N  N372  1  0.455600  0.506100  0.433700  1.0  -0.2258
  N  N373  1  0.487800  0.445100  0.395200  1.0  -0.2919
  N  N374  1  0.351300  0.444500  0.388900  1.0  0.0874
  N  N375  1  0.269500  0.426000  0.367800  1.0  -0.5547
  N  N376  1  0.187000  0.024500  0.257500  1.0  -0.369
  N  N377  1  0.619600  0.625300  0.587000  1.0  -0.3538
  N  N378  1  0.993900  0.955600  0.683700  1.0  -0.2256
  N  N379  1  0.054900  0.987800  0.645200  1.0  -0.2921
  N  N380  1  0.055500  0.851300  0.638900  1.0  0.0878
  N  N381  1  0.074000  0.769500  0.617800  1.0  -0.5527
  N  N382  1  0.475500  0.687000  0.507500  1.0  -0.3695
  N  N383  1  0.380400  0.374700  0.087000  1.0  -0.353
  N  N384  1  0.006100  0.044400  0.183700  1.0  -0.2252
  N  N385  1  0.945100  0.012200  0.145200  1.0  -0.2958
  N  N386  1  0.944500  0.148700  0.138900  1.0  0.0875
  N  N387  1  0.926000  0.230500  0.117800  1.0  -0.5527
  N  N388  1  0.524500  0.313000  0.007500  1.0  -0.3693
  Cl  Cl389  1  0.620820  0.379180  0.750000  1.0  1.8468
  Cl  Cl390  1  0.379180  0.620820  0.250000  1.0  1.8469
  Cl  Cl391  1  0.120820  0.120820  0.000000  1.0  1.8475
  Cl  Cl392  1  0.879180  0.879180  0.500000  1.0  1.8462
  O  O393  1  0.612800  0.323000  0.794000  1.0  -0.6844
  O  O394  1  0.634800  0.441900  0.784500  1.0  -0.657
  O  O395  1  0.677000  0.387200  0.706000  1.0  -0.6857
  O  O396  1  0.558100  0.365200  0.715500  1.0  -0.656
  O  O397  1  0.387200  0.677000  0.294000  1.0  -0.6847
  O  O398  1  0.365200  0.558100  0.284500  1.0  -0.6547
  O  O399  1  0.323000  0.612800  0.206000  1.0  -0.6837
  O  O400  1  0.441900  0.634800  0.215500  1.0  -0.6569
  O  O401  1  0.177000  0.112800  0.044000  1.0  -0.6849
  O  O402  1  0.058100  0.134800  0.034500  1.0  -0.654
  O  O403  1  0.112800  0.177000  0.956000  1.0  -0.6852
  O  O404  1  0.134800  0.058100  0.965500  1.0  -0.6572
  O  O405  1  0.823000  0.887200  0.544000  1.0  -0.6827
  O  O406  1  0.941900  0.865200  0.534500  1.0  -0.6569
  O  O407  1  0.887200  0.823000  0.456000  1.0  -0.6852
  O  O408  1  0.865200  0.941900  0.465500  1.0  -0.6569
