# generated using pymatgen
data_CdH36C48N12(ClO4)2
_symmetry_space_group_name_H-M   'P 1'
_cell_length_a   15.85620000
_cell_length_b   15.85620000
_cell_length_c   21.76500000
_cell_angle_alpha   90.00000000
_cell_angle_beta   90.00000000
_cell_angle_gamma   90.00000000
_symmetry_Int_Tables_number   1
_chemical_formula_structural   CdH36C48N12(ClO4)2
_chemical_formula_sum   'Cd4 H144 C192 N48 Cl8 O32'
_cell_volume   5472.13624225
_cell_formula_units_Z   4
loop_
 _symmetry_equiv_pos_site_id
 _symmetry_equiv_pos_as_xyz
  1  'x, y, z'
loop_
 _atom_site_type_symbol
 _atom_site_label
 _atom_site_symmetry_multiplicity
 _atom_site_fract_x
 _atom_site_fract_y
 _atom_site_fract_z
 _atom_site_occupancy
 _atom_site_charge
  Cd  Cd1  1  0.059790  0.940210  0.250000  1.0  0.794
  Cd  Cd2  1  0.940210  0.059790  0.750000  1.0  0.7942
  Cd  Cd3  1  0.559790  0.559790  0.500000  1.0  0.794
  Cd  Cd4  1  0.440210  0.440210  0.000000  1.0  0.7943
  H  H5  1  0.743100  0.495200  0.570800  1.0  0.0624
  H  H6  1  0.853200  0.403400  0.559300  1.0  0.1257
  H  H7  1  0.763900  0.345600  0.393400  1.0  0.1282
  H  H8  1  0.657600  0.440100  0.408800  1.0  0.0604
  H  H9  1  0.967300  0.337100  0.533800  1.0  0.1052
  H  H10  1  0.066500  0.233900  0.524000  1.0  0.1101
  H  H11  1  0.045700  0.120400  0.459100  1.0  0.1135
  H  H12  1  0.826100  0.223900  0.405000  1.0  0.0952
  H  H13  1  0.801100  0.002500  0.208800  1.0  0.0921
  H  H14  1  0.705300  0.909700  0.164300  1.0  0.1136
  H  H15  1  0.656300  0.794500  0.219000  1.0  0.0792
  H  H16  1  0.804300  0.859400  0.360400  1.0  0.1077
  H  H17  1  0.587300  0.714900  0.284700  1.0  0.1311
  H  H18  1  0.536500  0.613900  0.350200  1.0  0.0886
  H  H19  1  0.731800  0.640100  0.457500  1.0  0.0696
  H  H20  1  0.789600  0.736500  0.393700  1.0  0.12
  H  H21  1  0.741700  0.026900  0.386100  1.0  0.3221
  H  H22  1  0.743000  0.106200  0.352600  1.0  0.3034
  H  H23  1  0.256900  0.504800  0.070800  1.0  0.0624
  H  H24  1  0.146800  0.596600  0.059300  1.0  0.1266
  H  H25  1  0.236100  0.654400  0.893400  1.0  0.1282
  H  H26  1  0.342400  0.559900  0.908800  1.0  0.0604
  H  H27  1  0.032700  0.662900  0.033800  1.0  0.1057
  H  H28  1  0.933500  0.766100  0.024000  1.0  0.1103
  H  H29  1  0.954300  0.879600  0.959100  1.0  0.1135
  H  H30  1  0.173900  0.776100  0.905000  1.0  0.0948
  H  H31  1  0.198900  0.997500  0.708800  1.0  0.0928
  H  H32  1  0.294700  0.090300  0.664300  1.0  0.1135
  H  H33  1  0.343700  0.205500  0.719000  1.0  0.0798
  H  H34  1  0.195700  0.140600  0.860400  1.0  0.1074
  H  H35  1  0.412700  0.285100  0.784700  1.0  0.1307
  H  H36  1  0.463500  0.386100  0.850200  1.0  0.0879
  H  H37  1  0.268200  0.359900  0.957500  1.0  0.0693
  H  H38  1  0.210400  0.263500  0.893700  1.0  0.1196
  H  H39  1  0.258300  0.973100  0.886100  1.0  0.3214
  H  H40  1  0.257000  0.893800  0.852600  1.0  0.3024
  H  H41  1  0.004800  0.243100  0.820800  1.0  0.0622
  H  H42  1  0.096600  0.353200  0.809300  1.0  0.126
  H  H43  1  0.154400  0.263900  0.643400  1.0  0.1275
  H  H44  1  0.059900  0.157600  0.658800  1.0  0.0605
  H  H45  1  0.162900  0.467300  0.783800  1.0  0.1051
  H  H46  1  0.266100  0.566500  0.774000  1.0  0.1108
  H  H47  1  0.379600  0.545700  0.709100  1.0  0.1131
  H  H48  1  0.276100  0.326100  0.655000  1.0  0.0956
  H  H49  1  0.497500  0.301100  0.458800  1.0  0.0926
  H  H50  1  0.590300  0.205300  0.414300  1.0  0.1144
  H  H51  1  0.705500  0.156300  0.469000  1.0  0.0795
  H  H52  1  0.640600  0.304300  0.610400  1.0  0.1074
  H  H53  1  0.785100  0.087300  0.534700  1.0  0.1315
  H  H54  1  0.886100  0.036500  0.600200  1.0  0.0883
  H  H55  1  0.859900  0.231800  0.707500  1.0  0.0688
  H  H56  1  0.763500  0.289600  0.643700  1.0  0.1197
  H  H57  1  0.473100  0.241700  0.636100  1.0  0.3223
  H  H58  1  0.393800  0.243000  0.602600  1.0  0.3027
  H  H59  1  0.995200  0.756900  0.320800  1.0  0.0625
  H  H60  1  0.903400  0.646800  0.309300  1.0  0.1257
  H  H61  1  0.845600  0.736100  0.143400  1.0  0.1275
  H  H62  1  0.940100  0.842400  0.158800  1.0  0.0606
  H  H63  1  0.837100  0.532700  0.283800  1.0  0.1053
  H  H64  1  0.733900  0.433500  0.274000  1.0  0.1109
  H  H65  1  0.620400  0.454300  0.209100  1.0  0.1136
  H  H66  1  0.723900  0.673900  0.155000  1.0  0.0954
  H  H67  1  0.502500  0.698900  0.958800  1.0  0.0924
  H  H68  1  0.409700  0.794700  0.914300  1.0  0.1146
  H  H69  1  0.294500  0.843700  0.969000  1.0  0.0807
  H  H70  1  0.359400  0.695700  0.110400  1.0  0.1074
  H  H71  1  0.214900  0.912700  0.034700  1.0  0.1314
  H  H72  1  0.113900  0.963500  0.100200  1.0  0.0889
  H  H73  1  0.140100  0.768200  0.207500  1.0  0.069
  H  H74  1  0.236500  0.710400  0.143700  1.0  0.1201
  H  H75  1  0.526900  0.758300  0.136100  1.0  0.3223
  H  H76  1  0.606200  0.757000  0.102600  1.0  0.3024
  H  H77  1  0.756900  0.995200  0.679200  1.0  0.0614
  H  H78  1  0.646800  0.903400  0.690700  1.0  0.1259
  H  H79  1  0.736100  0.845600  0.856600  1.0  0.1282
  H  H80  1  0.842400  0.940100  0.841200  1.0  0.0601
  H  H81  1  0.532700  0.837100  0.716200  1.0  0.1056
  H  H82  1  0.433500  0.733900  0.726000  1.0  0.1105
  H  H83  1  0.454300  0.620400  0.790900  1.0  0.1134
  H  H84  1  0.673900  0.723900  0.845000  1.0  0.0948
  H  H85  1  0.698900  0.502500  0.041200  1.0  0.0917
  H  H86  1  0.794700  0.409700  0.085700  1.0  0.1135
  H  H87  1  0.843700  0.294500  0.031000  1.0  0.0795
  H  H88  1  0.695700  0.359400  0.889600  1.0  0.107
  H  H89  1  0.912700  0.214900  0.965300  1.0  0.1307
  H  H90  1  0.963500  0.113900  0.899800  1.0  0.0881
  H  H91  1  0.768200  0.140100  0.792500  1.0  0.0696
  H  H92  1  0.710400  0.236500  0.856300  1.0  0.1192
  H  H93  1  0.758300  0.526900  0.863900  1.0  0.3218
  H  H94  1  0.757000  0.606200  0.897400  1.0  0.3029
  H  H95  1  0.243100  0.004800  0.179200  1.0  0.0617
  H  H96  1  0.353200  0.096600  0.190700  1.0  0.1258
  H  H97  1  0.263900  0.154400  0.356600  1.0  0.1287
  H  H98  1  0.157600  0.059900  0.341200  1.0  0.06
  H  H99  1  0.467300  0.162900  0.216200  1.0  0.1055
  H  H100  1  0.566500  0.266100  0.226000  1.0  0.1101
  H  H101  1  0.545700  0.379600  0.290900  1.0  0.1131
  H  H102  1  0.326100  0.276100  0.345000  1.0  0.0949
  H  H103  1  0.301100  0.497500  0.541200  1.0  0.0915
  H  H104  1  0.205300  0.590300  0.585700  1.0  0.1135
  H  H105  1  0.156300  0.705500  0.531000  1.0  0.0794
  H  H106  1  0.304300  0.640600  0.389600  1.0  0.1075
  H  H107  1  0.087300  0.785100  0.465300  1.0  0.1309
  H  H108  1  0.036500  0.886100  0.399800  1.0  0.0886
  H  H109  1  0.231800  0.859900  0.292500  1.0  0.0701
  H  H110  1  0.289600  0.763500  0.356300  1.0  0.1198
  H  H111  1  0.241700  0.473100  0.363900  1.0  0.3223
  H  H112  1  0.243000  0.393800  0.397400  1.0  0.3035
  H  H113  1  0.495200  0.743100  0.429200  1.0  0.0615
  H  H114  1  0.403400  0.853200  0.440700  1.0  0.1256
  H  H115  1  0.345600  0.763900  0.606600  1.0  0.1276
  H  H116  1  0.440100  0.657600  0.591200  1.0  0.0605
  H  H117  1  0.337100  0.967300  0.466200  1.0  0.1054
  H  H118  1  0.233900  0.066500  0.476000  1.0  0.111
  H  H119  1  0.120400  0.045700  0.540900  1.0  0.1134
  H  H120  1  0.223900  0.826100  0.595000  1.0  0.0955
  H  H121  1  0.002500  0.801100  0.791200  1.0  0.0916
  H  H122  1  0.909700  0.705300  0.835700  1.0  0.1145
  H  H123  1  0.794500  0.656300  0.781000  1.0  0.08
  H  H124  1  0.859400  0.804300  0.639600  1.0  0.1074
  H  H125  1  0.714900  0.587300  0.715300  1.0  0.1308
  H  H126  1  0.613900  0.536500  0.649800  1.0  0.0886
  H  H127  1  0.640100  0.731800  0.542500  1.0  0.0691
  H  H128  1  0.736500  0.789600  0.606300  1.0  0.1201
  H  H129  1  0.026900  0.741700  0.613900  1.0  0.3226
  H  H130  1  0.106200  0.743000  0.647400  1.0  0.3034
  H  H131  1  0.504800  0.256900  0.929200  1.0  0.0617
  H  H132  1  0.596600  0.146800  0.940700  1.0  0.1259
  H  H133  1  0.654400  0.236100  0.106600  1.0  0.1282
  H  H134  1  0.559900  0.342400  0.091200  1.0  0.06
  H  H135  1  0.662900  0.032700  0.966200  1.0  0.105
  H  H136  1  0.766100  0.933500  0.976000  1.0  0.1111
  H  H137  1  0.879600  0.954300  0.040900  1.0  0.1134
  H  H138  1  0.776100  0.173900  0.095000  1.0  0.0953
  H  H139  1  0.997500  0.198900  0.291200  1.0  0.0916
  H  H140  1  0.090300  0.294700  0.335700  1.0  0.1142
  H  H141  1  0.205500  0.343700  0.281000  1.0  0.0804
  H  H142  1  0.140600  0.195700  0.139600  1.0  0.1076
  H  H143  1  0.285100  0.412700  0.215300  1.0  0.1314
  H  H144  1  0.386100  0.463500  0.149800  1.0  0.0882
  H  H145  1  0.359900  0.268200  0.042500  1.0  0.0693
  H  H146  1  0.263500  0.210400  0.106300  1.0  0.12
  H  H147  1  0.973100  0.258300  0.113900  1.0  0.3216
  H  H148  1  0.893800  0.257000  0.147400  1.0  0.3031
  C  C149  1  0.747000  0.464300  0.534600  1.0  0.1695
  C  C150  1  0.813200  0.408100  0.528200  1.0  -0.2111
  C  C151  1  0.820500  0.359100  0.476100  1.0  0.1127
  C  C152  1  0.760700  0.374400  0.430600  1.0  -0.189
  C  C153  1  0.696800  0.431900  0.440000  1.0  0.176
  C  C154  1  0.885400  0.292600  0.470000  1.0  0.0
  C  C155  1  0.958700  0.293400  0.505900  1.0  -0.0998
  C  C156  1  0.017600  0.231000  0.500600  1.0  -0.0626
  C  C157  1  0.006000  0.163500  0.461300  1.0  -0.0707
  C  C158  1  0.933100  0.161300  0.424600  1.0  -0.0228
  C  C159  1  0.874200  0.225600  0.429400  1.0  -0.0972
  C  C160  1  0.925000  0.091400  0.381100  1.0  0.25
  C  C161  1  0.874300  0.995400  0.319500  1.0  0.2471
  C  C162  1  0.812500  0.938700  0.289100  1.0  -0.0396
  C  C163  1  0.782600  0.955200  0.230300  1.0  -0.056
  C  C164  1  0.724600  0.900100  0.204000  1.0  -0.0788
  C  C165  1  0.695400  0.830800  0.236900  1.0  -0.0773
  C  C166  1  0.724100  0.815400  0.296100  1.0  0.0094
  C  C167  1  0.783700  0.869800  0.321100  1.0  -0.1117
  C  C168  1  0.693200  0.742700  0.333400  1.0  0.1119
  C  C169  1  0.617100  0.701500  0.320200  1.0  -0.1871
  C  C170  1  0.586600  0.641200  0.360100  1.0  0.1675
  C  C171  1  0.701700  0.656100  0.422700  1.0  0.1517
  C  C172  1  0.736500  0.714900  0.384900  1.0  -0.2017
  C  C173  1  0.253000  0.535700  0.034600  1.0  0.1697
  C  C174  1  0.186800  0.591900  0.028200  1.0  -0.2106
  C  C175  1  0.179500  0.640900  0.976100  1.0  0.1136
  C  C176  1  0.239300  0.625600  0.930600  1.0  -0.1883
  C  C177  1  0.303200  0.568100  0.940000  1.0  0.176
  C  C178  1  0.114600  0.707400  0.970000  1.0  0.0005
  C  C179  1  0.041300  0.706600  0.005900  1.0  -0.0999
  C  C180  1  0.982400  0.769000  0.000600  1.0  -0.064
  C  C181  1  0.994000  0.836500  0.961300  1.0  -0.0673
  C  C182  1  0.066900  0.838700  0.924600  1.0  -0.0222
  C  C183  1  0.125800  0.774400  0.929400  1.0  -0.0978
  C  C184  1  0.075000  0.908600  0.881100  1.0  0.2497
  C  C185  1  0.125700  0.004600  0.819500  1.0  0.2474
  C  C186  1  0.187500  0.061300  0.789100  1.0  -0.039
  C  C187  1  0.217400  0.044800  0.730300  1.0  -0.0534
  C  C188  1  0.275400  0.099900  0.704000  1.0  -0.0797
  C  C189  1  0.304600  0.169200  0.736900  1.0  -0.0784
  C  C190  1  0.275900  0.184600  0.796100  1.0  0.0084
  C  C191  1  0.216300  0.130200  0.821100  1.0  -0.1109
  C  C192  1  0.306800  0.257300  0.833400  1.0  0.1114
  C  C193  1  0.382900  0.298500  0.820200  1.0  -0.187
  C  C194  1  0.413400  0.358800  0.860100  1.0  0.1675
  C  C195  1  0.298300  0.343900  0.922700  1.0  0.1518
  C  C196  1  0.263500  0.285100  0.884900  1.0  -0.2001
  C  C197  1  0.035700  0.247000  0.784600  1.0  0.1694
  C  C198  1  0.091900  0.313200  0.778200  1.0  -0.2119
  C  C199  1  0.140900  0.320500  0.726100  1.0  0.1148
  C  C200  1  0.125600  0.260700  0.680600  1.0  -0.1889
  C  C201  1  0.068100  0.196800  0.690000  1.0  0.1751
  C  C202  1  0.207400  0.385400  0.720000  1.0  0.0017
  C  C203  1  0.206600  0.458700  0.755900  1.0  -0.0995
  C  C204  1  0.269000  0.517600  0.750600  1.0  -0.0603
  C  C205  1  0.336500  0.506000  0.711300  1.0  -0.0688
  C  C206  1  0.338700  0.433100  0.674600  1.0  -0.0238
  C  C207  1  0.274400  0.374200  0.679400  1.0  -0.0965
  C  C208  1  0.408600  0.425000  0.631100  1.0  0.2509
  C  C209  1  0.504600  0.374300  0.569500  1.0  0.2488
  C  C210  1  0.561300  0.312500  0.539100  1.0  -0.04
  C  C211  1  0.544800  0.282600  0.480300  1.0  -0.058
  C  C212  1  0.599900  0.224600  0.454000  1.0  -0.0786
  C  C213  1  0.669200  0.195400  0.486900  1.0  -0.077
  C  C214  1  0.684600  0.224100  0.546100  1.0  0.0088
  C  C215  1  0.630200  0.283700  0.571100  1.0  -0.1125
  C  C216  1  0.757300  0.193200  0.583400  1.0  0.1117
  C  C217  1  0.798500  0.117100  0.570200  1.0  -0.1898
  C  C218  1  0.858800  0.086600  0.610100  1.0  0.1663
  C  C219  1  0.843900  0.201700  0.672700  1.0  0.1503
  C  C220  1  0.785100  0.236500  0.634900  1.0  -0.2001
  C  C221  1  0.964300  0.753000  0.284600  1.0  0.1694
  C  C222  1  0.908100  0.686800  0.278200  1.0  -0.2113
  C  C223  1  0.859100  0.679500  0.226100  1.0  0.1136
  C  C224  1  0.874400  0.739300  0.180600  1.0  -0.1887
  C  C225  1  0.931900  0.803200  0.190000  1.0  0.1757
  C  C226  1  0.792600  0.614600  0.220000  1.0  0.0005
  C  C227  1  0.793400  0.541300  0.255900  1.0  -0.1001
  C  C228  1  0.731000  0.482400  0.250600  1.0  -0.0611
  C  C229  1  0.663500  0.494000  0.211300  1.0  -0.0676
  C  C230  1  0.661300  0.566900  0.174600  1.0  -0.0224
  C  C231  1  0.725600  0.625800  0.179400  1.0  -0.0972
  C  C232  1  0.591400  0.575000  0.131100  1.0  0.2508
  C  C233  1  0.495400  0.625700  0.069500  1.0  0.2491
  C  C234  1  0.438700  0.687500  0.039100  1.0  -0.0391
  C  C235  1  0.455200  0.717400  0.980300  1.0  -0.0584
  C  C236  1  0.400100  0.775400  0.954000  1.0  -0.0785
  C  C237  1  0.330800  0.804600  0.986900  1.0  -0.0767
  C  C238  1  0.315400  0.775900  0.046100  1.0  0.0084
  C  C239  1  0.369800  0.716300  0.071100  1.0  -0.1127
  C  C240  1  0.242700  0.806800  0.083400  1.0  0.1111
  C  C241  1  0.201500  0.882900  0.070200  1.0  -0.1891
  C  C242  1  0.141200  0.913400  0.110100  1.0  0.1663
  C  C243  1  0.156100  0.798300  0.172700  1.0  0.15
  C  C244  1  0.214900  0.763500  0.134900  1.0  -0.1997
  C  C245  1  0.753000  0.964300  0.715400  1.0  0.1696
  C  C246  1  0.686800  0.908100  0.721800  1.0  -0.2104
  C  C247  1  0.679500  0.859100  0.773900  1.0  0.1142
  C  C248  1  0.739300  0.874400  0.819400  1.0  -0.1887
  C  C249  1  0.803200  0.931900  0.810000  1.0  0.1765
  C  C250  1  0.614600  0.792600  0.780000  1.0  0.0005
  C  C251  1  0.541300  0.793400  0.744100  1.0  -0.0998
  C  C252  1  0.482400  0.731000  0.749400  1.0  -0.0639
  C  C253  1  0.494000  0.663500  0.788700  1.0  -0.067
  C  C254  1  0.566900  0.661300  0.825400  1.0  -0.0224
  C  C255  1  0.625800  0.725600  0.820600  1.0  -0.0975
  C  C256  1  0.575000  0.591400  0.868900  1.0  0.2496
  C  C257  1  0.625700  0.495400  0.930500  1.0  0.2466
  C  C258  1  0.687500  0.438700  0.960900  1.0  -0.0389
  C  C259  1  0.717400  0.455200  0.019700  1.0  -0.0543
  C  C260  1  0.775400  0.400100  0.046000  1.0  -0.0778
  C  C261  1  0.804600  0.330800  0.013100  1.0  -0.0784
  C  C262  1  0.775900  0.315400  0.953900  1.0  0.0099
  C  C263  1  0.716300  0.369800  0.928900  1.0  -0.1112
  C  C264  1  0.806800  0.242700  0.916600  1.0  0.1122
  C  C265  1  0.882900  0.201500  0.929800  1.0  -0.1864
  C  C266  1  0.913400  0.141200  0.889900  1.0  0.1675
  C  C267  1  0.798300  0.156100  0.827300  1.0  0.1523
  C  C268  1  0.763500  0.214900  0.865100  1.0  -0.1998
  C  C269  1  0.247000  0.035700  0.215400  1.0  0.1694
  C  C270  1  0.313200  0.091900  0.221800  1.0  -0.2113
  C  C271  1  0.320500  0.140900  0.273900  1.0  0.1131
  C  C272  1  0.260700  0.125600  0.319400  1.0  -0.1877
  C  C273  1  0.196800  0.068100  0.310000  1.0  0.177
  C  C274  1  0.385400  0.207400  0.280000  1.0  1e-04
  C  C275  1  0.458700  0.206600  0.244100  1.0  -0.1005
  C  C276  1  0.517600  0.269000  0.249400  1.0  -0.0631
  C  C277  1  0.506000  0.336500  0.288700  1.0  -0.0695
  C  C278  1  0.433100  0.338700  0.325400  1.0  -0.0227
  C  C279  1  0.374200  0.274400  0.320600  1.0  -0.0971
  C  C280  1  0.425000  0.408600  0.368900  1.0  0.2502
  C  C281  1  0.374300  0.504600  0.430500  1.0  0.2468
  C  C282  1  0.312500  0.561300  0.460900  1.0  -0.0399
  C  C283  1  0.282600  0.544800  0.519700  1.0  -0.0549
  C  C284  1  0.224600  0.599900  0.546000  1.0  -0.0782
  C  C285  1  0.195400  0.669200  0.513100  1.0  -0.0766
  C  C286  1  0.224100  0.684600  0.453900  1.0  0.0105
  C  C287  1  0.283700  0.630200  0.428900  1.0  -0.1123
  C  C288  1  0.193200  0.757300  0.416600  1.0  0.112
  C  C289  1  0.117100  0.798500  0.429800  1.0  -0.1863
  C  C290  1  0.086600  0.858800  0.389900  1.0  0.1676
  C  C291  1  0.201700  0.843900  0.327300  1.0  0.152
  C  C292  1  0.236500  0.785100  0.365100  1.0  -0.2013
  C  C293  1  0.464300  0.747000  0.465400  1.0  0.1701
  C  C294  1  0.408100  0.813200  0.471800  1.0  -0.211
  C  C295  1  0.359100  0.820500  0.523900  1.0  0.1135
  C  C296  1  0.374400  0.760700  0.569400  1.0  -0.1881
  C  C297  1  0.431900  0.696800  0.560000  1.0  0.1762
  C  C298  1  0.292600  0.885400  0.530000  1.0  0.0005
  C  C299  1  0.293400  0.958700  0.494100  1.0  -0.1002
  C  C300  1  0.231000  0.017600  0.499400  1.0  -0.0601
  C  C301  1  0.163500  0.006000  0.538700  1.0  -0.0667
  C  C302  1  0.161300  0.933100  0.575400  1.0  -0.0227
  C  C303  1  0.225600  0.874200  0.570600  1.0  -0.0972
  C  C304  1  0.091400  0.925000  0.618900  1.0  0.2506
  C  C305  1  0.995400  0.874300  0.680500  1.0  0.2486
  C  C306  1  0.938700  0.812500  0.710900  1.0  -0.0398
  C  C307  1  0.955200  0.782600  0.769700  1.0  -0.0578
  C  C308  1  0.900100  0.724600  0.796000  1.0  -0.078
  C  C309  1  0.830800  0.695400  0.763100  1.0  -0.0763
  C  C310  1  0.815400  0.724100  0.703900  1.0  0.0111
  C  C311  1  0.869800  0.783700  0.678900  1.0  -0.1137
  C  C312  1  0.742700  0.693200  0.666667  1.0  0.1065
  C  C313  1  0.701500  0.617100  0.679800  1.0  -0.1883
  C  C314  1  0.641200  0.586600  0.639900  1.0  0.1658
  C  C315  1  0.656100  0.701700  0.577300  1.0  0.1505
  C  C316  1  0.714900  0.736500  0.615100  1.0  -0.1999
  C  C317  1  0.535700  0.253000  0.965400  1.0  0.169
  C  C318  1  0.591900  0.186800  0.971800  1.0  -0.212
  C  C319  1  0.640900  0.179500  0.023900  1.0  0.1151
  C  C320  1  0.625600  0.239300  0.069400  1.0  -0.1886
  C  C321  1  0.568100  0.303200  0.060000  1.0  0.1757
  C  C322  1  0.707400  0.114600  0.030000  1.0  0.001
  C  C323  1  0.706600  0.041300  0.994100  1.0  -0.1004
  C  C324  1  0.769000  0.982400  0.999400  1.0  -0.061
  C  C325  1  0.836500  0.994000  0.038700  1.0  -0.0688
  C  C326  1  0.838700  0.066900  0.075400  1.0  -0.0237
  C  C327  1  0.774400  0.125800  0.070600  1.0  -0.0965
  C  C328  1  0.908600  0.075000  0.118900  1.0  0.2509
  C  C329  1  0.004600  0.125700  0.180500  1.0  0.2485
  C  C330  1  0.061300  0.187500  0.210900  1.0  -0.0394
  C  C331  1  0.044800  0.217400  0.269700  1.0  -0.0583
  C  C332  1  0.099900  0.275400  0.296000  1.0  -0.0767
  C  C333  1  0.169200  0.304600  0.263100  1.0  -0.0776
  C  C334  1  0.184600  0.275900  0.203900  1.0  0.0096
  C  C335  1  0.130200  0.216300  0.178900  1.0  -0.1135
  C  C336  1  0.257300  0.306800  0.166600  1.0  0.1125
  C  C337  1  0.298500  0.382900  0.179800  1.0  -0.1886
  C  C338  1  0.358800  0.413400  0.139900  1.0  0.1662
  C  C339  1  0.343900  0.298300  0.077300  1.0  0.1508
  C  C340  1  0.285100  0.263500  0.115100  1.0  -0.2002
  N  N341  1  0.688500  0.476300  0.491600  1.0  -0.3669
  N  N342  1  0.988900  0.053800  0.354860  1.0  -0.299
  N  N343  1  0.956000  0.993000  0.316290  1.0  -0.2366
  N  N344  1  0.851400  0.056300  0.359780  1.0  0.0988
  N  N345  1  0.769600  0.074900  0.380500  1.0  -0.5591
  N  N346  1  0.626300  0.619800  0.412740  1.0  -0.3539
  N  N347  1  0.311500  0.523700  0.991600  1.0  -0.3674
  N  N348  1  0.011100  0.946200  0.854860  1.0  -0.2978
  N  N349  1  0.044000  0.007000  0.816290  1.0  -0.236
  N  N350  1  0.148600  0.943700  0.859780  1.0  0.0993
  N  N351  1  0.230400  0.925100  0.880500  1.0  -0.5585
  N  N352  1  0.373700  0.380200  0.912740  1.0  -0.3542
  N  N353  1  0.023700  0.188500  0.741600  1.0  -0.3667
  N  N354  1  0.446200  0.488900  0.604860  1.0  -0.2963
  N  N355  1  0.507000  0.456000  0.566290  1.0  -0.2365
  N  N356  1  0.443700  0.351400  0.609780  1.0  0.0992
  N  N357  1  0.425100  0.269600  0.630500  1.0  -0.5584
  N  N358  1  0.880200  0.126300  0.662740  1.0  -0.354
  N  N359  1  0.976300  0.811500  0.241600  1.0  -0.3663
  N  N360  1  0.553800  0.511100  0.104860  1.0  -0.2963
  N  N361  1  0.493000  0.544000  0.066290  1.0  -0.2362
  N  N362  1  0.556300  0.648600  0.109780  1.0  0.0995
  N  N363  1  0.574900  0.730400  0.130500  1.0  -0.5587
  N  N364  1  0.119800  0.873700  0.162740  1.0  -0.3538
  N  N365  1  0.811500  0.976300  0.758400  1.0  -0.3677
  N  N366  1  0.511100  0.553800  0.895140  1.0  -0.2977
  N  N367  1  0.544000  0.493000  0.933710  1.0  -0.2365
  N  N368  1  0.648600  0.556300  0.890220  1.0  0.099
  N  N369  1  0.730400  0.574900  0.869500  1.0  -0.5587
  N  N370  1  0.873700  0.119800  0.837260  1.0  -0.3548
  N  N371  1  0.188500  0.023700  0.258400  1.0  -0.3662
  N  N372  1  0.488900  0.446200  0.395140  1.0  -0.2988
  N  N373  1  0.456000  0.507000  0.433710  1.0  -0.2361
  N  N374  1  0.351400  0.443700  0.390220  1.0  0.099
  N  N375  1  0.269600  0.425100  0.369500  1.0  -0.5594
  N  N376  1  0.126300  0.880200  0.337260  1.0  -0.3546
  N  N377  1  0.476300  0.688500  0.508400  1.0  -0.3662
  N  N378  1  0.053800  0.988900  0.645140  1.0  -0.2959
  N  N379  1  0.993000  0.956000  0.683710  1.0  -0.2363
  N  N380  1  0.056300  0.851400  0.640220  1.0  0.0996
  N  N381  1  0.074900  0.769600  0.619500  1.0  -0.5587
  N  N382  1  0.619800  0.626300  0.587260  1.0  -0.3545
  N  N383  1  0.523700  0.311500  0.008400  1.0  -0.3661
  N  N384  1  0.946200  0.011100  0.145140  1.0  -0.2965
  N  N385  1  0.007000  0.044000  0.183710  1.0  -0.2356
  N  N386  1  0.943700  0.148600  0.140220  1.0  0.0992
  N  N387  1  0.925100  0.230400  0.119500  1.0  -0.5587
  N  N388  1  0.380200  0.373700  0.087260  1.0  -0.3543
  Cl  Cl389  1  0.626150  0.373850  0.750000  1.0  1.3704
  Cl  Cl390  1  0.373850  0.626150  0.250000  1.0  1.3695
  Cl  Cl391  1  0.126150  0.126150  0.000000  1.0  1.3691
  Cl  Cl392  1  0.873850  0.873850  0.500000  1.0  1.3709
  Cl  Cl393  1  0.730560  0.730560  0.000000  1.0  1.2681
  Cl  Cl394  1  0.269440  0.269440  0.500000  1.0  1.2678
  Cl  Cl395  1  0.769440  0.230560  0.250000  1.0  1.267
  Cl  Cl396  1  0.230560  0.769440  0.750000  1.0  1.2682
  O  O397  1  0.631600  0.442700  0.788000  1.0  -0.5665
  O  O398  1  0.670900  0.405900  0.698900  1.0  -0.5073
  O  O399  1  0.557300  0.368400  0.712000  1.0  -0.5665
  O  O400  1  0.594100  0.329100  0.801100  1.0  -0.5073
  O  O401  1  0.368400  0.557300  0.288000  1.0  -0.5672
  O  O402  1  0.329100  0.594100  0.198900  1.0  -0.5072
  O  O403  1  0.442700  0.631600  0.212000  1.0  -0.5672
  O  O404  1  0.405900  0.670900  0.301100  1.0  -0.5072
  O  O405  1  0.057300  0.131600  0.038000  1.0  -0.5667
  O  O406  1  0.094100  0.170900  0.948900  1.0  -0.5057
  O  O407  1  0.131600  0.057300  0.962000  1.0  -0.5669
  O  O408  1  0.170900  0.094100  0.051100  1.0  -0.5092
  O  O409  1  0.942700  0.868400  0.538000  1.0  -0.5673
  O  O410  1  0.905900  0.829100  0.448900  1.0  -0.5063
  O  O411  1  0.868400  0.942700  0.462000  1.0  -0.5667
  O  O412  1  0.829100  0.905900  0.551100  1.0  -0.5073
  O  O413  1  0.763000  0.767100  0.053100  1.0  -0.5207
  O  O414  1  0.782800  0.645500  0.997800  1.0  -0.5298
  O  O415  1  0.767100  0.763000  0.946900  1.0  -0.5202
  O  O416  1  0.645500  0.782800  0.002200  1.0  -0.5289
  O  O417  1  0.237000  0.232900  0.553100  1.0  -0.5209
  O  O418  1  0.217200  0.354500  0.497800  1.0  -0.5289
  O  O419  1  0.232900  0.237000  0.446900  1.0  -0.5204
  O  O420  1  0.354500  0.217200  0.502200  1.0  -0.5313
  O  O421  1  0.732900  0.263000  0.303100  1.0  -0.521
  O  O422  1  0.854500  0.282800  0.247800  1.0  -0.5297
  O  O423  1  0.737000  0.267100  0.196900  1.0  -0.5203
  O  O424  1  0.717200  0.145500  0.252200  1.0  -0.5298
  O  O425  1  0.267100  0.737000  0.803100  1.0  -0.5214
  O  O426  1  0.145500  0.717200  0.747800  1.0  -0.5292
  O  O427  1  0.263000  0.732900  0.696900  1.0  -0.5208
  O  O428  1  0.282800  0.854500  0.752200  1.0  -0.5297
