# generated using pymatgen
data_CdH36(C4N)12
_symmetry_space_group_name_H-M   'P 1'
_cell_length_a   15.88090000
_cell_length_b   15.88090000
_cell_length_c   21.81000000
_cell_angle_alpha   90.00000000
_cell_angle_beta   90.00000000
_cell_angle_gamma   90.00000000
_symmetry_Int_Tables_number   1
_chemical_formula_structural   CdH36(C4N)12
_chemical_formula_sum   'Cd4 H144 C192 N48'
_cell_volume   5500.54709871
_cell_formula_units_Z   4
loop_
 _symmetry_equiv_pos_site_id
 _symmetry_equiv_pos_as_xyz
  1  'x, y, z'
loop_
 _atom_site_type_symbol
 _atom_site_label
 _atom_site_symmetry_multiplicity
 _atom_site_fract_x
 _atom_site_fract_y
 _atom_site_fract_z
 _atom_site_occupancy
 _atom_site_charge
  Cd  Cd1  1  0.558070  0.441930  0.750000  1.0  0.7925
  Cd  Cd2  1  0.441930  0.558070  0.250000  1.0  0.7933
  Cd  Cd3  1  0.058070  0.058070  0.500000  1.0  0.7925
  Cd  Cd4  1  0.941930  0.941930  0.000000  1.0  0.7933
  H  H5  1  0.230100  0.140100  0.540200  1.0  0.0687
  H  H6  1  0.287500  0.240700  0.604600  1.0  0.1146
  H  H7  1  0.087300  0.213700  0.715500  1.0  0.1163
  H  H8  1  0.036500  0.112200  0.649800  1.0  0.0678
  H  H9  1  0.302500  0.360300  0.636500  1.0  0.1109
  H  H10  1  0.302900  0.502600  0.790600  1.0  0.09
  H  H11  1  0.203000  0.409600  0.834000  1.0  0.0948
  H  H12  1  0.155900  0.293300  0.779700  1.0  0.0846
  H  H13  1  0.545400  0.620700  0.540200  1.0  0.1143
  H  H14  1  0.562900  0.730000  0.471800  1.0  0.0866
  H  H15  1  0.463600  0.834900  0.462200  1.0  0.1057
  H  H16  1  0.324500  0.723400  0.595000  1.0  0.0878
  H  H17  1  0.348100  0.897700  0.439400  1.0  0.1043
  H  H18  1  0.236800  0.991100  0.426800  1.0  0.0675
  H  H19  1  0.159000  0.941500  0.594200  1.0  0.0605
  H  H20  1  0.265900  0.847300  0.608900  1.0  0.1102
  H  H21  1  0.244000  0.523800  0.606800  1.0  0.2743
  H  H22  1  0.239900  0.599600  0.646600  1.0  0.3204
  H  H23  1  0.769900  0.859900  0.040200  1.0  0.0667
  H  H24  1  0.712500  0.759300  0.104600  1.0  0.1138
  H  H25  1  0.912700  0.786300  0.215500  1.0  0.1161
  H  H26  1  0.963500  0.887800  0.149800  1.0  0.0686
  H  H27  1  0.697500  0.639700  0.136500  1.0  0.1106
  H  H28  1  0.697100  0.497400  0.290600  1.0  0.0908
  H  H29  1  0.797000  0.590400  0.334000  1.0  0.0942
  H  H30  1  0.844100  0.706700  0.279700  1.0  0.0848
  H  H31  1  0.454600  0.379300  0.040200  1.0  0.1144
  H  H32  1  0.437100  0.270000  0.971800  1.0  0.0858
  H  H33  1  0.536400  0.165100  0.962200  1.0  0.1051
  H  H34  1  0.675500  0.276600  0.095000  1.0  0.0873
  H  H35  1  0.651900  0.102300  0.939400  1.0  0.1045
  H  H36  1  0.763200  0.008900  0.926800  1.0  0.0673
  H  H37  1  0.841000  0.058500  0.094200  1.0  0.0604
  H  H38  1  0.734100  0.152700  0.108900  1.0  0.11
  H  H39  1  0.756000  0.476200  0.106800  1.0  0.2748
  H  H40  1  0.760100  0.400400  0.146600  1.0  0.3199
  H  H41  1  0.359900  0.730100  0.290200  1.0  0.0677
  H  H42  1  0.259300  0.787500  0.354600  1.0  0.1149
  H  H43  1  0.286300  0.587300  0.465500  1.0  0.1164
  H  H44  1  0.387800  0.536500  0.399800  1.0  0.0686
  H  H45  1  0.139700  0.802500  0.386500  1.0  0.1096
  H  H46  1  0.997400  0.802900  0.540600  1.0  0.09
  H  H47  1  0.090400  0.703000  0.584000  1.0  0.0956
  H  H48  1  0.206700  0.655900  0.529700  1.0  0.0847
  H  H49  1  0.879300  0.045400  0.290200  1.0  0.1135
  H  H50  1  0.770000  0.062900  0.221800  1.0  0.0865
  H  H51  1  0.665100  0.963600  0.212200  1.0  0.1051
  H  H52  1  0.776600  0.824500  0.345000  1.0  0.0883
  H  H53  1  0.602300  0.848100  0.189400  1.0  0.1043
  H  H54  1  0.508900  0.736800  0.176800  1.0  0.0682
  H  H55  1  0.558500  0.659000  0.344200  1.0  0.0613
  H  H56  1  0.652700  0.765900  0.358900  1.0  0.1095
  H  H57  1  0.976200  0.744000  0.356800  1.0  0.2763
  H  H58  1  0.900400  0.739900  0.396600  1.0  0.3207
  H  H59  1  0.640100  0.269900  0.790200  1.0  0.068
  H  H60  1  0.740700  0.212500  0.854600  1.0  0.1145
  H  H61  1  0.713700  0.412700  0.965500  1.0  0.1163
  H  H62  1  0.612200  0.463500  0.899800  1.0  0.0684
  H  H63  1  0.860300  0.197500  0.886500  1.0  0.1099
  H  H64  1  0.002600  0.197100  0.040600  1.0  0.0903
  H  H65  1  0.909600  0.297000  0.084000  1.0  0.095
  H  H66  1  0.793300  0.344100  0.029700  1.0  0.0853
  H  H67  1  0.120700  0.954600  0.790200  1.0  0.1139
  H  H68  1  0.230000  0.937100  0.721800  1.0  0.0864
  H  H69  1  0.334900  0.036400  0.712200  1.0  0.1052
  H  H70  1  0.223400  0.175500  0.845000  1.0  0.0876
  H  H71  1  0.397700  0.151900  0.689400  1.0  0.1046
  H  H72  1  0.491100  0.263200  0.676800  1.0  0.0683
  H  H73  1  0.441500  0.341000  0.844200  1.0  0.0606
  H  H74  1  0.347300  0.234100  0.858900  1.0  0.1099
  H  H75  1  0.023800  0.256000  0.856800  1.0  0.2768
  H  H76  1  0.099600  0.260100  0.896600  1.0  0.3202
  H  H77  1  0.269900  0.640100  0.209800  1.0  0.0672
  H  H78  1  0.212500  0.740700  0.145400  1.0  0.1139
  H  H79  1  0.412700  0.713700  0.034500  1.0  0.1165
  H  H80  1  0.463500  0.612200  0.100200  1.0  0.0683
  H  H81  1  0.197500  0.860300  0.113500  1.0  0.1101
  H  H82  1  0.197100  0.002600  0.959400  1.0  0.0904
  H  H83  1  0.297000  0.909600  0.916000  1.0  0.0951
  H  H84  1  0.344100  0.793300  0.970300  1.0  0.085
  H  H85  1  0.954600  0.120700  0.209800  1.0  0.1143
  H  H86  1  0.937100  0.230000  0.278200  1.0  0.086
  H  H87  1  0.036400  0.334900  0.287800  1.0  0.1054
  H  H88  1  0.175500  0.223400  0.155000  1.0  0.0871
  H  H89  1  0.151900  0.397700  0.310600  1.0  0.1039
  H  H90  1  0.263200  0.491100  0.323200  1.0  0.068
  H  H91  1  0.341000  0.441500  0.155800  1.0  0.0603
  H  H92  1  0.234100  0.347300  0.141100  1.0  0.1105
  H  H93  1  0.256000  0.023800  0.143200  1.0  0.2741
  H  H94  1  0.260100  0.099600  0.103400  1.0  0.319
  H  H95  1  0.730100  0.359900  0.709800  1.0  0.0683
  H  H96  1  0.787500  0.259300  0.645400  1.0  0.1146
  H  H97  1  0.587300  0.286300  0.534500  1.0  0.1158
  H  H98  1  0.536500  0.387800  0.600200  1.0  0.0684
  H  H99  1  0.802500  0.139700  0.613500  1.0  0.1106
  H  H100  1  0.802900  0.997400  0.459400  1.0  0.0895
  H  H101  1  0.703000  0.090400  0.416000  1.0  0.0949
  H  H102  1  0.655900  0.206700  0.470300  1.0  0.0847
  H  H103  1  0.045400  0.879300  0.709800  1.0  0.1139
  H  H104  1  0.062900  0.770000  0.778200  1.0  0.0862
  H  H105  1  0.963600  0.665100  0.787800  1.0  0.105
  H  H106  1  0.824500  0.776600  0.655000  1.0  0.0876
  H  H107  1  0.848100  0.602300  0.810600  1.0  0.1045
  H  H108  1  0.736800  0.508900  0.823200  1.0  0.0676
  H  H109  1  0.659000  0.558500  0.655800  1.0  0.0602
  H  H110  1  0.765900  0.652700  0.641100  1.0  0.1104
  H  H111  1  0.744000  0.976200  0.643200  1.0  0.2741
  H  H112  1  0.739900  0.900400  0.603400  1.0  0.3187
  H  H113  1  0.140100  0.230100  0.459800  1.0  0.0675
  H  H114  1  0.240700  0.287500  0.395400  1.0  0.1151
  H  H115  1  0.213700  0.087300  0.284500  1.0  0.1161
  H  H116  1  0.112200  0.036500  0.350200  1.0  0.0681
  H  H117  1  0.360300  0.302500  0.363500  1.0  0.1092
  H  H118  1  0.502600  0.302900  0.209400  1.0  0.0892
  H  H119  1  0.409600  0.203000  0.166000  1.0  0.0954
  H  H120  1  0.293300  0.155900  0.220300  1.0  0.0851
  H  H121  1  0.620700  0.545400  0.459800  1.0  0.114
  H  H122  1  0.730000  0.562900  0.528200  1.0  0.0861
  H  H123  1  0.834900  0.463600  0.537800  1.0  0.105
  H  H124  1  0.723400  0.324500  0.405000  1.0  0.0875
  H  H125  1  0.897700  0.348100  0.560600  1.0  0.1042
  H  H126  1  0.991100  0.236800  0.573200  1.0  0.0694
  H  H127  1  0.941500  0.159000  0.405800  1.0  0.0608
  H  H128  1  0.847300  0.265900  0.391100  1.0  0.11
  H  H129  1  0.523800  0.244000  0.393200  1.0  0.2759
  H  H130  1  0.599600  0.239900  0.353400  1.0  0.3189
  H  H131  1  0.859900  0.769900  0.959800  1.0  0.0683
  H  H132  1  0.759300  0.712500  0.895400  1.0  0.1148
  H  H133  1  0.786300  0.912700  0.784500  1.0  0.116
  H  H134  1  0.887800  0.963500  0.850200  1.0  0.0683
  H  H135  1  0.639700  0.697500  0.863500  1.0  0.1094
  H  H136  1  0.497400  0.697100  0.709400  1.0  0.0894
  H  H137  1  0.590400  0.797000  0.666000  1.0  0.0954
  H  H138  1  0.706700  0.844100  0.720300  1.0  0.0852
  H  H139  1  0.379300  0.454600  0.959800  1.0  0.1137
  H  H140  1  0.270000  0.437100  0.028200  1.0  0.0864
  H  H141  1  0.165100  0.536400  0.037800  1.0  0.105
  H  H142  1  0.276600  0.675500  0.905000  1.0  0.0881
  H  H143  1  0.102300  0.651900  0.060600  1.0  0.1047
  H  H144  1  0.008900  0.763200  0.073200  1.0  0.0688
  H  H145  1  0.058500  0.841000  0.905800  1.0  0.0603
  H  H146  1  0.152700  0.734100  0.891100  1.0  0.1098
  H  H147  1  0.476200  0.756000  0.893200  1.0  0.2761
  H  H148  1  0.400400  0.760100  0.853400  1.0  0.3198
  C  C149  1  0.199300  0.156800  0.575600  1.0  0.1274
  C  C150  1  0.233900  0.217500  0.613900  1.0  -0.2092
  C  C151  1  0.191600  0.244200  0.664800  1.0  0.053
  C  C152  1  0.116900  0.201300  0.678800  1.0  -0.2193
  C  C153  1  0.086800  0.141000  0.639100  1.0  0.1479
  C  C154  1  0.222200  0.317400  0.702200  1.0  -0.0124
  C  C155  1  0.281900  0.371100  0.676700  1.0  -0.1415
  C  C156  1  0.311600  0.439800  0.709000  1.0  0.0185
  C  C157  1  0.283000  0.455500  0.768000  1.0  -0.1082
  C  C158  1  0.223500  0.399700  0.793700  1.0  -0.0881
  C  C159  1  0.194700  0.331100  0.761300  1.0  -0.0978
  C  C160  1  0.372900  0.495100  0.679500  1.0  0.2488
  C  C161  1  0.424200  0.591100  0.618300  1.0  0.2548
  C  C162  1  0.432000  0.661000  0.574200  1.0  -0.037
  C  C163  1  0.504000  0.663600  0.537200  1.0  -0.1574
  C  C164  1  0.514000  0.728500  0.496900  1.0  -0.104
  C  C165  1  0.455800  0.791400  0.491500  1.0  -0.1612
  C  C166  1  0.384200  0.791300  0.529600  1.0  -0.0061
  C  C167  1  0.373300  0.725000  0.569900  1.0  -0.1385
  C  C168  1  0.318300  0.857900  0.523500  1.0  0.0687
  C  C169  1  0.308600  0.904200  0.471700  1.0  -0.195
  C  C170  1  0.242100  0.961400  0.464500  1.0  0.1449
  C  C171  1  0.197400  0.931900  0.561600  1.0  0.1575
  C  C172  1  0.260800  0.875200  0.570600  1.0  -0.2339
  C  C173  1  0.800700  0.843200  0.075600  1.0  0.1273
  C  C174  1  0.766100  0.782500  0.113900  1.0  -0.2091
  C  C175  1  0.808400  0.755800  0.164800  1.0  0.053
  C  C176  1  0.883100  0.798700  0.178800  1.0  -0.2192
  C  C177  1  0.913200  0.859000  0.139100  1.0  0.1478
  C  C178  1  0.777800  0.682600  0.202200  1.0  -0.0129
  C  C179  1  0.718100  0.628900  0.176700  1.0  -0.1414
  C  C180  1  0.688400  0.560200  0.209000  1.0  0.0197
  C  C181  1  0.717000  0.544500  0.268000  1.0  -0.1087
  C  C182  1  0.776500  0.600300  0.293700  1.0  -0.0874
  C  C183  1  0.805300  0.668900  0.261300  1.0  -0.0994
  C  C184  1  0.627100  0.504900  0.179500  1.0  0.2487
  C  C185  1  0.575800  0.408900  0.118300  1.0  0.2549
  C  C186  1  0.568000  0.339000  0.074200  1.0  -0.0367
  C  C187  1  0.496000  0.336400  0.037200  1.0  -0.1562
  C  C188  1  0.486000  0.271500  0.996900  1.0  -0.1037
  C  C189  1  0.544200  0.208600  0.991500  1.0  -0.1612
  C  C190  1  0.615800  0.208700  0.029600  1.0  -0.0066
  C  C191  1  0.626700  0.275000  0.069900  1.0  -0.1385
  C  C192  1  0.681700  0.142100  0.023500  1.0  0.0698
  C  C193  1  0.691400  0.095800  0.971700  1.0  -0.1965
  C  C194  1  0.757900  0.038600  0.964500  1.0  0.144
  C  C195  1  0.802600  0.068100  0.061600  1.0  0.1581
  C  C196  1  0.739200  0.124800  0.070600  1.0  -0.2338
  C  C197  1  0.343200  0.699300  0.325600  1.0  0.127
  C  C198  1  0.282500  0.733900  0.363900  1.0  -0.2107
  C  C199  1  0.255800  0.691600  0.414800  1.0  0.0522
  C  C200  1  0.298700  0.616900  0.428800  1.0  -0.2224
  C  C201  1  0.359000  0.586800  0.389100  1.0  0.1464
  C  C202  1  0.182600  0.722200  0.452200  1.0  -0.0127
  C  C203  1  0.128900  0.781900  0.426700  1.0  -0.1411
  C  C204  1  0.060200  0.811600  0.459000  1.0  0.0183
  C  C205  1  0.044500  0.783000  0.518000  1.0  -0.1083
  C  C206  1  0.100300  0.723500  0.543700  1.0  -0.088
  C  C207  1  0.168900  0.694700  0.511300  1.0  -0.0995
  C  C208  1  0.004900  0.872900  0.429500  1.0  0.2481
  C  C209  1  0.908900  0.924200  0.368300  1.0  0.2554
  C  C210  1  0.839000  0.932000  0.324200  1.0  -0.0364
  C  C211  1  0.836400  0.004000  0.287200  1.0  -0.159
  C  C212  1  0.771500  0.014000  0.246900  1.0  -0.1023
  C  C213  1  0.708600  0.955800  0.241500  1.0  -0.1609
  C  C214  1  0.708700  0.884200  0.279600  1.0  -0.0055
  C  C215  1  0.775000  0.873300  0.319900  1.0  -0.1376
  C  C216  1  0.642100  0.818300  0.273500  1.0  0.0702
  C  C217  1  0.595800  0.808600  0.221700  1.0  -0.1964
  C  C218  1  0.538600  0.742100  0.214500  1.0  0.1419
  C  C219  1  0.568100  0.697400  0.311600  1.0  0.1569
  C  C220  1  0.624800  0.760800  0.320600  1.0  -0.2342
  C  C221  1  0.656800  0.300700  0.825600  1.0  0.1248
  C  C222  1  0.717500  0.266100  0.863900  1.0  -0.2104
  C  C223  1  0.744200  0.308400  0.914800  1.0  0.0527
  C  C224  1  0.701300  0.383100  0.928800  1.0  -0.2222
  C  C225  1  0.641000  0.413200  0.889100  1.0  0.146
  C  C226  1  0.817400  0.277800  0.952200  1.0  -0.0126
  C  C227  1  0.871100  0.218100  0.926700  1.0  -0.1409
  C  C228  1  0.939800  0.188400  0.959000  1.0  0.02
  C  C229  1  0.955500  0.217000  0.018000  1.0  -0.1094
  C  C230  1  0.899700  0.276500  0.043700  1.0  -0.0876
  C  C231  1  0.831100  0.305300  0.011300  1.0  -0.0994
  C  C232  1  0.995100  0.127100  0.929500  1.0  0.248
  C  C233  1  0.091100  0.075800  0.868300  1.0  0.2549
  C  C234  1  0.161000  0.068000  0.824200  1.0  -0.0354
  C  C235  1  0.163600  0.996000  0.787200  1.0  -0.159
  C  C236  1  0.228500  0.986000  0.746900  1.0  -0.1023
  C  C237  1  0.291400  0.044200  0.741500  1.0  -0.161
  C  C238  1  0.291300  0.115800  0.779600  1.0  -0.005
  C  C239  1  0.225000  0.126700  0.819900  1.0  -0.1369
  C  C240  1  0.357900  0.181700  0.773500  1.0  0.0695
  C  C241  1  0.404200  0.191400  0.721700  1.0  -0.1971
  C  C242  1  0.461400  0.257900  0.714500  1.0  0.1412
  C  C243  1  0.431900  0.302600  0.811600  1.0  0.1571
  C  C244  1  0.375200  0.239200  0.820600  1.0  -0.2347
  C  C245  1  0.300700  0.656800  0.174400  1.0  0.1273
  C  C246  1  0.266100  0.717500  0.136100  1.0  -0.2102
  C  C247  1  0.308400  0.744200  0.085200  1.0  0.0521
  C  C248  1  0.383100  0.701300  0.071200  1.0  -0.2193
  C  C249  1  0.413200  0.641000  0.110900  1.0  0.1473
  C  C250  1  0.277800  0.817400  0.047800  1.0  -0.0133
  C  C251  1  0.218100  0.871100  0.073300  1.0  -0.1397
  C  C252  1  0.188400  0.939800  0.041000  1.0  0.0197
  C  C253  1  0.217000  0.955500  0.982000  1.0  -0.107
  C  C254  1  0.276500  0.899700  0.956300  1.0  -0.0869
  C  C255  1  0.305300  0.831100  0.988700  1.0  -0.0998
  C  C256  1  0.127100  0.995100  0.070500  1.0  0.2492
  C  C257  1  0.075800  0.091100  0.131700  1.0  0.2542
  C  C258  1  0.068000  0.161000  0.175800  1.0  -0.0365
  C  C259  1  0.996000  0.163600  0.212800  1.0  -0.1568
  C  C260  1  0.986000  0.228500  0.253100  1.0  -0.1043
  C  C261  1  0.044200  0.291400  0.258500  1.0  -0.1619
  C  C262  1  0.115800  0.291300  0.220400  1.0  -0.0064
  C  C263  1  0.126700  0.225000  0.180100  1.0  -0.1393
  C  C264  1  0.181700  0.357900  0.226500  1.0  0.0689
  C  C265  1  0.191400  0.404200  0.278300  1.0  -0.1951
  C  C266  1  0.257900  0.461400  0.285500  1.0  0.1445
  C  C267  1  0.302600  0.431900  0.188400  1.0  0.1579
  C  C268  1  0.239200  0.375200  0.179400  1.0  -0.234
  C  C269  1  0.699300  0.343200  0.674400  1.0  0.1272
  C  C270  1  0.733900  0.282500  0.636100  1.0  -0.2102
  C  C271  1  0.691600  0.255800  0.585200  1.0  0.0524
  C  C272  1  0.616900  0.298700  0.571200  1.0  -0.2199
  C  C273  1  0.586800  0.359000  0.610900  1.0  0.1479
  C  C274  1  0.722200  0.182600  0.547800  1.0  -0.0122
  C  C275  1  0.781900  0.128900  0.573300  1.0  -0.1399
  C  C276  1  0.811600  0.060200  0.541000  1.0  0.0189
  C  C277  1  0.783000  0.044500  0.482000  1.0  -0.1105
  C  C278  1  0.723500  0.100300  0.456300  1.0  -0.0889
  C  C279  1  0.694700  0.168900  0.488700  1.0  -0.0976
  C  C280  1  0.872900  0.004900  0.570500  1.0  0.2491
  C  C281  1  0.924200  0.908900  0.631700  1.0  0.2542
  C  C282  1  0.932000  0.839000  0.675800  1.0  -0.0367
  C  C283  1  0.004000  0.836400  0.712800  1.0  -0.1571
  C  C284  1  0.014000  0.771500  0.753100  1.0  -0.1027
  C  C285  1  0.955800  0.708600  0.758500  1.0  -0.1611
  C  C286  1  0.884200  0.708700  0.720400  1.0  -0.0055
  C  C287  1  0.873300  0.775000  0.680100  1.0  -0.1388
  C  C288  1  0.818300  0.642100  0.726500  1.0  0.0701
  C  C289  1  0.808600  0.595800  0.778300  1.0  -0.1957
  C  C290  1  0.742100  0.538600  0.785500  1.0  0.1453
  C  C291  1  0.697400  0.568100  0.688400  1.0  0.1573
  C  C292  1  0.760800  0.624800  0.679400  1.0  -0.2336
  C  C293  1  0.156800  0.199300  0.424400  1.0  0.1246
  C  C294  1  0.217500  0.233900  0.386100  1.0  -0.2107
  C  C295  1  0.244200  0.191600  0.335200  1.0  0.0515
  C  C296  1  0.201300  0.116900  0.321200  1.0  -0.2226
  C  C297  1  0.141000  0.086800  0.360900  1.0  0.1455
  C  C298  1  0.317400  0.222200  0.297800  1.0  -0.0129
  C  C299  1  0.371100  0.281900  0.323300  1.0  -0.1391
  C  C300  1  0.439800  0.311600  0.291000  1.0  0.0199
  C  C301  1  0.455500  0.283000  0.232000  1.0  -0.1091
  C  C302  1  0.399700  0.223500  0.206300  1.0  -0.0877
  C  C303  1  0.331100  0.194700  0.238700  1.0  -0.0992
  C  C304  1  0.495100  0.372900  0.320500  1.0  0.2484
  C  C305  1  0.591100  0.424200  0.381700  1.0  0.2548
  C  C306  1  0.661000  0.432000  0.425800  1.0  -0.0356
  C  C307  1  0.663600  0.504000  0.462800  1.0  -0.1593
  C  C308  1  0.728500  0.514000  0.503100  1.0  -0.1028
  C  C309  1  0.791400  0.455800  0.508500  1.0  -0.1618
  C  C310  1  0.791300  0.384200  0.470400  1.0  -0.0047
  C  C311  1  0.725000  0.373300  0.430100  1.0  -0.1378
  C  C312  1  0.857900  0.318300  0.476500  1.0  0.0706
  C  C313  1  0.904200  0.308600  0.528300  1.0  -0.1958
  C  C314  1  0.961400  0.242100  0.535500  1.0  0.142
  C  C315  1  0.931900  0.197400  0.438400  1.0  0.1567
  C  C316  1  0.875200  0.260800  0.429400  1.0  -0.2347
  C  C317  1  0.843200  0.800700  0.924400  1.0  0.1266
  C  C318  1  0.782500  0.766100  0.886100  1.0  -0.2115
  C  C319  1  0.755800  0.808400  0.835200  1.0  0.0516
  C  C320  1  0.798700  0.883100  0.821200  1.0  -0.2228
  C  C321  1  0.859000  0.913200  0.860900  1.0  0.1465
  C  C322  1  0.682600  0.777800  0.797800  1.0  -0.0131
  C  C323  1  0.628900  0.718100  0.823300  1.0  -0.1396
  C  C324  1  0.560200  0.688400  0.791000  1.0  0.0196
  C  C325  1  0.544500  0.717000  0.732000  1.0  -0.1093
  C  C326  1  0.600300  0.776500  0.706300  1.0  -0.0883
  C  C327  1  0.668900  0.805300  0.738700  1.0  -0.0992
  C  C328  1  0.504900  0.627100  0.820500  1.0  0.248
  C  C329  1  0.408900  0.575800  0.881700  1.0  0.2545
  C  C330  1  0.339000  0.568000  0.925800  1.0  -0.0356
  C  C331  1  0.336400  0.496000  0.962800  1.0  -0.1593
  C  C332  1  0.271500  0.486000  0.003100  1.0  -0.1029
  C  C333  1  0.208600  0.544200  0.008500  1.0  -0.1596
  C  C334  1  0.208700  0.615800  0.970400  1.0  -0.0055
  C  C335  1  0.275000  0.626700  0.930100  1.0  -0.1382
  C  C336  1  0.142100  0.681700  0.976500  1.0  0.0689
  C  C337  1  0.095800  0.691400  0.028300  1.0  -0.1955
  C  C338  1  0.038600  0.757900  0.035500  1.0  0.142
  C  C339  1  0.068100  0.802600  0.938400  1.0  0.1566
  C  C340  1  0.124800  0.739200  0.929400  1.0  -0.2345
  N  N341  1  0.124200  0.120700  0.586300  1.0  -0.3599
  N  N342  1  0.456000  0.494000  0.684000  1.0  -0.2434
  N  N343  1  0.488300  0.555700  0.645300  1.0  -0.2922
  N  N344  1  0.351000  0.555300  0.639100  1.0  0.0685
  N  N345  1  0.270000  0.573000  0.616900  1.0  -0.5824
  N  N346  1  0.186300  0.975200  0.508800  1.0  -0.3707
  N  N347  1  0.875800  0.879300  0.086300  1.0  -0.3592
  N  N348  1  0.544000  0.506000  0.184000  1.0  -0.2437
  N  N349  1  0.511700  0.444300  0.145300  1.0  -0.2934
  N  N350  1  0.649000  0.444700  0.139100  1.0  0.0692
  N  N351  1  0.730000  0.427000  0.116900  1.0  -0.5814
  N  N352  1  0.813700  0.024800  0.008800  1.0  -0.371
  N  N353  1  0.379300  0.624200  0.336300  1.0  -0.3608
  N  N354  1  0.006000  0.956000  0.434000  1.0  -0.2438
  N  N355  1  0.944300  0.988300  0.395300  1.0  -0.2935
  N  N356  1  0.944700  0.851000  0.389100  1.0  0.0685
  N  N357  1  0.927000  0.770000  0.366900  1.0  -0.5812
  N  N358  1  0.524800  0.686300  0.258800  1.0  -0.3707
  N  N359  1  0.620700  0.375800  0.836300  1.0  -0.3602
  N  N360  1  0.994000  0.044000  0.934000  1.0  -0.2433
  N  N361  1  0.055700  0.011700  0.895300  1.0  -0.2928
  N  N362  1  0.055300  0.149000  0.889100  1.0  0.0685
  N  N363  1  0.073000  0.230000  0.866900  1.0  -0.5826
  N  N364  1  0.475200  0.313700  0.758800  1.0  -0.3703
  N  N365  1  0.375800  0.620700  0.163700  1.0  -0.3586
  N  N366  1  0.044000  0.994000  0.066000  1.0  -0.244
  N  N367  1  0.011700  0.055700  0.104700  1.0  -0.293
  N  N368  1  0.149000  0.055300  0.110900  1.0  0.0693
  N  N369  1  0.230000  0.073000  0.133100  1.0  -0.5816
  N  N370  1  0.313700  0.475200  0.241200  1.0  -0.3713
  N  N371  1  0.624200  0.379300  0.663700  1.0  -0.3598
  N  N372  1  0.956000  0.006000  0.566000  1.0  -0.2435
  N  N373  1  0.988300  0.944300  0.604700  1.0  -0.2921
  N  N374  1  0.851000  0.944700  0.610900  1.0  0.0687
  N  N375  1  0.770000  0.927000  0.633100  1.0  -0.5824
  N  N376  1  0.686300  0.524800  0.741200  1.0  -0.3709
  N  N377  1  0.120700  0.124200  0.413700  1.0  -0.3603
  N  N378  1  0.494000  0.456000  0.316000  1.0  -0.2438
  N  N379  1  0.555700  0.488300  0.354700  1.0  -0.2923
  N  N380  1  0.555300  0.351000  0.360900  1.0  0.0688
  N  N381  1  0.573000  0.270000  0.383100  1.0  -0.5826
  N  N382  1  0.975200  0.186300  0.491200  1.0  -0.3706
  N  N383  1  0.879300  0.875800  0.913700  1.0  -0.3608
  N  N384  1  0.506000  0.544000  0.816000  1.0  -0.2438
  N  N385  1  0.444300  0.511700  0.854700  1.0  -0.2925
  N  N386  1  0.444700  0.649000  0.860900  1.0  0.0687
  N  N387  1  0.427000  0.730000  0.883100  1.0  -0.5827
  N  N388  1  0.024800  0.813700  0.991200  1.0  -0.3706
