# generated using pymatgen
data_CdH36C48N12ClO4
_symmetry_space_group_name_H-M   'P 1'
_cell_length_a   15.85480000
_cell_length_b   15.85480000
_cell_length_c   21.74600000
_cell_angle_alpha   90.00000000
_cell_angle_beta   90.00000000
_cell_angle_gamma   90.00000000
_symmetry_Int_Tables_number   1
_chemical_formula_structural   CdH36C48N12ClO4
_chemical_formula_sum   'Cd4 H144 C192 N48 Cl4 O16'
_cell_volume   5466.39385739
_cell_formula_units_Z   4
loop_
 _symmetry_equiv_pos_site_id
 _symmetry_equiv_pos_as_xyz
  1  'x, y, z'
loop_
 _atom_site_type_symbol
 _atom_site_label
 _atom_site_symmetry_multiplicity
 _atom_site_fract_x
 _atom_site_fract_y
 _atom_site_fract_z
 _atom_site_occupancy
 _atom_site_charge
  Cd  Cd1  1  0.059730  0.940270  0.250000  1.0  0.7868
  Cd  Cd2  1  0.940270  0.059730  0.750000  1.0  0.7867
  Cd  Cd3  1  0.559730  0.559730  0.500000  1.0  0.7869
  Cd  Cd4  1  0.440270  0.440270  0.000000  1.0  0.7868
  H  H5  1  0.743100  0.495400  0.571100  1.0  0.063
  H  H6  1  0.853800  0.403500  0.558900  1.0  0.1236
  H  H7  1  0.763900  0.345500  0.393400  1.0  0.1174
  H  H8  1  0.657600  0.440300  0.408800  1.0  0.0513
  H  H9  1  0.967000  0.336400  0.534300  1.0  0.1005
  H  H10  1  0.066600  0.234200  0.524400  1.0  0.1023
  H  H11  1  0.046400  0.120700  0.459000  1.0  0.1115
  H  H12  1  0.825700  0.223300  0.405000  1.0  0.0908
  H  H13  1  0.801500  0.001900  0.208900  1.0  0.0895
  H  H14  1  0.705200  0.909900  0.164300  1.0  0.1033
  H  H15  1  0.656500  0.794800  0.218700  1.0  0.0734
  H  H16  1  0.804200  0.859300  0.360400  1.0  0.0992
  H  H17  1  0.587900  0.714200  0.284200  1.0  0.1263
  H  H18  1  0.536200  0.614400  0.350700  1.0  0.0838
  H  H19  1  0.732000  0.639700  0.457300  1.0  0.0695
  H  H20  1  0.789600  0.736500  0.394000  1.0  0.1197
  H  H21  1  0.741800  0.026500  0.386500  1.0  0.3209
  H  H22  1  0.743200  0.105900  0.353000  1.0  0.3223
  H  H23  1  0.256900  0.504600  0.071100  1.0  0.0622
  H  H24  1  0.146200  0.596500  0.058900  1.0  0.1226
  H  H25  1  0.236100  0.654500  0.893400  1.0  0.1172
  H  H26  1  0.342400  0.559700  0.908800  1.0  0.0516
  H  H27  1  0.033000  0.663600  0.034300  1.0  0.1011
  H  H28  1  0.933400  0.765800  0.024400  1.0  0.1021
  H  H29  1  0.953600  0.879300  0.959000  1.0  0.1116
  H  H30  1  0.174300  0.776700  0.905000  1.0  0.0905
  H  H31  1  0.198500  0.998100  0.708900  1.0  0.0905
  H  H32  1  0.294800  0.090100  0.664300  1.0  0.1014
  H  H33  1  0.343500  0.205200  0.718700  1.0  0.0735
  H  H34  1  0.195800  0.140700  0.860400  1.0  0.0998
  H  H35  1  0.412100  0.285800  0.784200  1.0  0.1262
  H  H36  1  0.463800  0.385600  0.850700  1.0  0.0836
  H  H37  1  0.268000  0.360300  0.957300  1.0  0.0692
  H  H38  1  0.210400  0.263500  0.894000  1.0  0.1192
  H  H39  1  0.258200  0.973500  0.886500  1.0  0.3204
  H  H40  1  0.256800  0.894100  0.853000  1.0  0.3225
  H  H41  1  0.004600  0.243100  0.821100  1.0  0.0631
  H  H42  1  0.096500  0.353800  0.808900  1.0  0.1231
  H  H43  1  0.154500  0.263900  0.643400  1.0  0.1172
  H  H44  1  0.059700  0.157600  0.658800  1.0  0.0521
  H  H45  1  0.163600  0.467000  0.784300  1.0  0.1008
  H  H46  1  0.265800  0.566600  0.774400  1.0  0.1021
  H  H47  1  0.379300  0.546400  0.709000  1.0  0.111
  H  H48  1  0.276700  0.325700  0.655000  1.0  0.0907
  H  H49  1  0.498100  0.301500  0.458900  1.0  0.0903
  H  H50  1  0.590100  0.205200  0.414300  1.0  0.1043
  H  H51  1  0.705200  0.156500  0.468700  1.0  0.0735
  H  H52  1  0.640700  0.304200  0.610400  1.0  0.0998
  H  H53  1  0.785800  0.087900  0.534200  1.0  0.1268
  H  H54  1  0.885600  0.036200  0.600700  1.0  0.0835
  H  H55  1  0.860300  0.232000  0.707300  1.0  0.0688
  H  H56  1  0.763500  0.289600  0.644000  1.0  0.1194
  H  H57  1  0.473500  0.241800  0.636500  1.0  0.3206
  H  H58  1  0.394100  0.243200  0.603000  1.0  0.3219
  H  H59  1  0.995400  0.756900  0.321100  1.0  0.0625
  H  H60  1  0.903500  0.646200  0.308900  1.0  0.122
  H  H61  1  0.845500  0.736100  0.143400  1.0  0.1171
  H  H62  1  0.940300  0.842400  0.158800  1.0  0.0514
  H  H63  1  0.836400  0.533000  0.284300  1.0  0.1005
  H  H64  1  0.734200  0.433400  0.274400  1.0  0.102
  H  H65  1  0.620700  0.453600  0.209000  1.0  0.1115
  H  H66  1  0.723300  0.674300  0.155000  1.0  0.091
  H  H67  1  0.501900  0.698500  0.958900  1.0  0.0901
  H  H68  1  0.409900  0.794800  0.914300  1.0  0.102
  H  H69  1  0.294800  0.843500  0.968700  1.0  0.0753
  H  H70  1  0.359300  0.695800  0.110400  1.0  0.0998
  H  H71  1  0.214200  0.912100  0.034200  1.0  0.1275
  H  H72  1  0.114400  0.963800  0.100700  1.0  0.0842
  H  H73  1  0.139700  0.768000  0.207300  1.0  0.0692
  H  H74  1  0.236500  0.710400  0.144000  1.0  0.12
  H  H75  1  0.526500  0.758200  0.136500  1.0  0.3209
  H  H76  1  0.605900  0.756800  0.103000  1.0  0.3223
  H  H77  1  0.756900  0.995400  0.678900  1.0  0.0614
  H  H78  1  0.646200  0.903500  0.691100  1.0  0.1215
  H  H79  1  0.736100  0.845500  0.856600  1.0  0.1165
  H  H80  1  0.842400  0.940300  0.841200  1.0  0.0514
  H  H81  1  0.533000  0.836400  0.715700  1.0  0.1018
  H  H82  1  0.433400  0.734200  0.725600  1.0  0.1024
  H  H83  1  0.453600  0.620700  0.791000  1.0  0.1117
  H  H84  1  0.674300  0.723300  0.845000  1.0  0.0908
  H  H85  1  0.698500  0.501900  0.041100  1.0  0.0907
  H  H86  1  0.794800  0.409900  0.085700  1.0  0.1014
  H  H87  1  0.843500  0.294800  0.031300  1.0  0.0741
  H  H88  1  0.695800  0.359300  0.889600  1.0  0.0999
  H  H89  1  0.912100  0.214200  0.965800  1.0  0.1271
  H  H90  1  0.963800  0.114400  0.899300  1.0  0.0844
  H  H91  1  0.768000  0.139700  0.792700  1.0  0.0699
  H  H92  1  0.710400  0.236500  0.856000  1.0  0.1193
  H  H93  1  0.758200  0.526500  0.863500  1.0  0.3212
  H  H94  1  0.756800  0.605900  0.897000  1.0  0.3223
  H  H95  1  0.243100  0.004600  0.178900  1.0  0.0631
  H  H96  1  0.353800  0.096500  0.191100  1.0  0.1224
  H  H97  1  0.263900  0.154500  0.356600  1.0  0.1168
  H  H98  1  0.157600  0.059700  0.341200  1.0  0.0514
  H  H99  1  0.467000  0.163600  0.215700  1.0  0.1017
  H  H100  1  0.566600  0.265800  0.225600  1.0  0.1027
  H  H101  1  0.546400  0.379300  0.291000  1.0  0.111
  H  H102  1  0.325700  0.276700  0.345000  1.0  0.0905
  H  H103  1  0.301500  0.498100  0.541100  1.0  0.0899
  H  H104  1  0.205200  0.590100  0.585700  1.0  0.1037
  H  H105  1  0.156500  0.705200  0.531300  1.0  0.0738
  H  H106  1  0.304200  0.640700  0.389600  1.0  0.0999
  H  H107  1  0.087900  0.785800  0.465800  1.0  0.1263
  H  H108  1  0.036200  0.885600  0.399300  1.0  0.0838
  H  H109  1  0.232000  0.860300  0.292700  1.0  0.0702
  H  H110  1  0.289600  0.763500  0.356000  1.0  0.1198
  H  H111  1  0.241800  0.473500  0.363500  1.0  0.3217
  H  H112  1  0.243200  0.394100  0.397000  1.0  0.3226
  H  H113  1  0.495400  0.743100  0.428900  1.0  0.0624
  H  H114  1  0.403500  0.853800  0.441100  1.0  0.122
  H  H115  1  0.345500  0.763900  0.606600  1.0  0.1163
  H  H116  1  0.440300  0.657600  0.591200  1.0  0.0521
  H  H117  1  0.336400  0.967000  0.465700  1.0  0.1014
  H  H118  1  0.234200  0.066600  0.475600  1.0  0.1022
  H  H119  1  0.120700  0.046400  0.541000  1.0  0.1114
  H  H120  1  0.223300  0.825700  0.595000  1.0  0.0913
  H  H121  1  0.001900  0.801500  0.791100  1.0  0.0911
  H  H122  1  0.909900  0.705200  0.835700  1.0  0.1039
  H  H123  1  0.794800  0.656500  0.781300  1.0  0.075
  H  H124  1  0.859300  0.804200  0.639600  1.0  0.0999
  H  H125  1  0.714200  0.587900  0.715800  1.0  0.1275
  H  H126  1  0.614400  0.536200  0.649300  1.0  0.0837
  H  H127  1  0.639700  0.732000  0.542700  1.0  0.0695
  H  H128  1  0.736500  0.789600  0.606000  1.0  0.1198
  H  H129  1  0.026500  0.741800  0.613500  1.0  0.3216
  H  H130  1  0.105900  0.743200  0.647000  1.0  0.3224
  H  H131  1  0.504600  0.256900  0.928900  1.0  0.0621
  H  H132  1  0.596500  0.146200  0.941100  1.0  0.1219
  H  H133  1  0.654500  0.236100  0.106600  1.0  0.1165
  H  H134  1  0.559700  0.342400  0.091200  1.0  0.0514
  H  H135  1  0.663600  0.033000  0.965700  1.0  0.1014
  H  H136  1  0.765800  0.933400  0.975600  1.0  0.1021
  H  H137  1  0.879300  0.953600  0.041000  1.0  0.1113
  H  H138  1  0.776700  0.174300  0.095000  1.0  0.0908
  H  H139  1  0.998100  0.198500  0.291100  1.0  0.0904
  H  H140  1  0.090100  0.294800  0.335700  1.0  0.1022
  H  H141  1  0.205200  0.343500  0.281300  1.0  0.0747
  H  H142  1  0.140700  0.195800  0.139600  1.0  0.1005
  H  H143  1  0.285800  0.412100  0.215800  1.0  0.127
  H  H144  1  0.385600  0.463800  0.149300  1.0  0.0843
  H  H145  1  0.360300  0.268000  0.042700  1.0  0.0694
  H  H146  1  0.263500  0.210400  0.106000  1.0  0.1202
  H  H147  1  0.973500  0.258200  0.113500  1.0  0.3204
  H  H148  1  0.894100  0.256800  0.147000  1.0  0.3225
  C  C149  1  0.747000  0.464500  0.534800  1.0  0.171
  C  C150  1  0.813500  0.408100  0.528000  1.0  -0.1962
  C  C151  1  0.820100  0.359500  0.476400  1.0  0.0693
  C  C152  1  0.760600  0.374500  0.430500  1.0  -0.2078
  C  C153  1  0.696800  0.432000  0.440100  1.0  0.1777
  C  C154  1  0.885900  0.293000  0.470200  1.0  0.0198
  C  C155  1  0.958600  0.293100  0.506100  1.0  -0.1055
  C  C156  1  0.017700  0.231100  0.500900  1.0  -0.1
  C  C157  1  0.006500  0.163600  0.461300  1.0  -0.1335
  C  C158  1  0.933500  0.161400  0.424700  1.0  -0.0627
  C  C159  1  0.874000  0.225300  0.429300  1.0  -0.126
  C  C160  1  0.924800  0.091100  0.381210  1.0  0.2375
  C  C161  1  0.874300  0.995500  0.319600  1.0  0.2358
  C  C162  1  0.812800  0.938600  0.289100  1.0  -0.0301
  C  C163  1  0.782800  0.954800  0.230400  1.0  -0.0703
  C  C164  1  0.724600  0.900100  0.204000  1.0  -0.0902
  C  C165  1  0.695500  0.831000  0.236600  1.0  -0.0748
  C  C166  1  0.724000  0.815300  0.296100  1.0  0.024
  C  C167  1  0.783600  0.869700  0.321100  1.0  -0.1203
  C  C168  1  0.693200  0.742800  0.333400  1.0  0.0973
  C  C169  1  0.617400  0.701400  0.319900  1.0  -0.199
  C  C170  1  0.586700  0.641300  0.360300  1.0  0.169
  C  C171  1  0.701700  0.656000  0.422700  1.0  0.1506
  C  C172  1  0.736500  0.714800  0.385100  1.0  -0.2021
  C  C173  1  0.253000  0.535500  0.034800  1.0  0.1715
  C  C174  1  0.186500  0.591900  0.028000  1.0  -0.1965
  C  C175  1  0.179900  0.640500  0.976400  1.0  0.0696
  C  C176  1  0.239400  0.625500  0.930500  1.0  -0.207
  C  C177  1  0.303200  0.568000  0.940100  1.0  0.1774
  C  C178  1  0.114100  0.707000  0.970200  1.0  0.0191
  C  C179  1  0.041400  0.706900  0.006100  1.0  -0.107
  C  C180  1  0.982300  0.768900  0.000900  1.0  -0.1025
  C  C181  1  0.993500  0.836400  0.961300  1.0  -0.1339
  C  C182  1  0.066500  0.838600  0.924700  1.0  -0.0626
  C  C183  1  0.126000  0.774700  0.929300  1.0  -0.1263
  C  C184  1  0.075200  0.908900  0.881210  1.0  0.2423
  C  C185  1  0.125700  0.004500  0.819600  1.0  0.2359
  C  C186  1  0.187200  0.061400  0.789100  1.0  -0.0289
  C  C187  1  0.217200  0.045200  0.730400  1.0  -0.0693
  C  C188  1  0.275400  0.099900  0.704000  1.0  -0.094
  C  C189  1  0.304500  0.169000  0.736600  1.0  -0.0748
  C  C190  1  0.276000  0.184700  0.796100  1.0  0.0234
  C  C191  1  0.216400  0.130300  0.821100  1.0  -0.1189
  C  C192  1  0.306800  0.257200  0.833400  1.0  0.0972
  C  C193  1  0.382600  0.298600  0.819900  1.0  -0.199
  C  C194  1  0.413300  0.358700  0.860300  1.0  0.1686
  C  C195  1  0.298300  0.344000  0.922700  1.0  0.1507
  C  C196  1  0.263500  0.285200  0.885100  1.0  -0.2031
  C  C197  1  0.035500  0.247000  0.784800  1.0  0.1708
  C  C198  1  0.091900  0.313500  0.778000  1.0  -0.1975
  C  C199  1  0.140500  0.320100  0.726400  1.0  0.0702
  C  C200  1  0.125500  0.260600  0.680500  1.0  -0.2086
  C  C201  1  0.068000  0.196800  0.690100  1.0  0.1761
  C  C202  1  0.207000  0.385900  0.720200  1.0  0.0202
  C  C203  1  0.206900  0.458600  0.756100  1.0  -0.1047
  C  C204  1  0.268900  0.517700  0.750900  1.0  -0.0978
  C  C205  1  0.336400  0.506500  0.711300  1.0  -0.1373
  C  C206  1  0.338600  0.433500  0.674700  1.0  -0.0635
  C  C207  1  0.274700  0.374000  0.679300  1.0  -0.1242
  C  C208  1  0.408900  0.424800  0.631210  1.0  0.239
  C  C209  1  0.504500  0.374300  0.569600  1.0  0.2358
  C  C210  1  0.561400  0.312800  0.539100  1.0  -0.0305
  C  C211  1  0.545200  0.282800  0.480400  1.0  -0.0695
  C  C212  1  0.599900  0.224600  0.454000  1.0  -0.0916
  C  C213  1  0.669000  0.195500  0.486600  1.0  -0.0738
  C  C214  1  0.684700  0.224000  0.546100  1.0  0.0236
  C  C215  1  0.630300  0.283600  0.571100  1.0  -0.1205
  C  C216  1  0.757200  0.193200  0.583400  1.0  0.0969
  C  C217  1  0.798600  0.117400  0.569900  1.0  -0.2006
  C  C218  1  0.858700  0.086700  0.610300  1.0  0.1672
  C  C219  1  0.844000  0.201700  0.672700  1.0  0.1496
  C  C220  1  0.785200  0.236500  0.635100  1.0  -0.2002
  C  C221  1  0.964500  0.753000  0.284800  1.0  0.171
  C  C222  1  0.908100  0.686500  0.278000  1.0  -0.1979
  C  C223  1  0.859500  0.679900  0.226400  1.0  0.0689
  C  C224  1  0.874500  0.739400  0.180500  1.0  -0.2086
  C  C225  1  0.932000  0.803200  0.190100  1.0  0.1764
  C  C226  1  0.793000  0.614100  0.220200  1.0  0.0197
  C  C227  1  0.793100  0.541400  0.256100  1.0  -0.1048
  C  C228  1  0.731100  0.482300  0.250900  1.0  -0.0982
  C  C229  1  0.663600  0.493500  0.211300  1.0  -0.1362
  C  C230  1  0.661400  0.566500  0.174700  1.0  -0.0624
  C  C231  1  0.725300  0.626000  0.179300  1.0  -0.1248
  C  C232  1  0.591100  0.575200  0.131210  1.0  0.2393
  C  C233  1  0.495500  0.625700  0.069600  1.0  0.2358
  C  C234  1  0.438600  0.687200  0.039100  1.0  -0.0291
  C  C235  1  0.454800  0.717200  0.980400  1.0  -0.0719
  C  C236  1  0.400100  0.775400  0.954000  1.0  -0.0915
  C  C237  1  0.331000  0.804500  0.986600  1.0  -0.073
  C  C238  1  0.315300  0.776000  0.046100  1.0  0.0231
  C  C239  1  0.369700  0.716400  0.071100  1.0  -0.1211
  C  C240  1  0.242800  0.806800  0.083400  1.0  0.0969
  C  C241  1  0.201400  0.882600  0.069900  1.0  -0.2007
  C  C242  1  0.141300  0.913300  0.110300  1.0  0.167
  C  C243  1  0.156000  0.798300  0.172700  1.0  0.1494
  C  C244  1  0.214800  0.763500  0.135100  1.0  -0.1997
  C  C245  1  0.753000  0.964500  0.715200  1.0  0.1711
  C  C246  1  0.686500  0.908100  0.722000  1.0  -0.1959
  C  C247  1  0.679900  0.859500  0.773600  1.0  0.0698
  C  C248  1  0.739400  0.874500  0.819500  1.0  -0.2067
  C  C249  1  0.803200  0.932000  0.809900  1.0  0.1775
  C  C250  1  0.614100  0.793000  0.779800  1.0  0.0188
  C  C251  1  0.541400  0.793100  0.743900  1.0  -0.1055
  C  C252  1  0.482300  0.731100  0.749100  1.0  -0.1025
  C  C253  1  0.493500  0.663600  0.788700  1.0  -0.1335
  C  C254  1  0.566500  0.661400  0.825300  1.0  -0.0628
  C  C255  1  0.626000  0.725300  0.820700  1.0  -0.1245
  C  C256  1  0.575200  0.591100  0.868790  1.0  0.2415
  C  C257  1  0.625700  0.495500  0.930400  1.0  0.2354
  C  C258  1  0.687200  0.438600  0.960900  1.0  -0.0293
  C  C259  1  0.717200  0.454800  0.019600  1.0  -0.0695
  C  C260  1  0.775400  0.400100  0.046000  1.0  -0.0926
  C  C261  1  0.804500  0.331000  0.013400  1.0  -0.075
  C  C262  1  0.776000  0.315300  0.953900  1.0  0.0237
  C  C263  1  0.716400  0.369700  0.928900  1.0  -0.1192
  C  C264  1  0.806800  0.242800  0.916600  1.0  0.0982
  C  C265  1  0.882600  0.201400  0.930100  1.0  -0.1993
  C  C266  1  0.913300  0.141300  0.889700  1.0  0.1686
  C  C267  1  0.798300  0.156000  0.827300  1.0  0.152
  C  C268  1  0.763500  0.214800  0.864900  1.0  -0.1995
  C  C269  1  0.247000  0.035500  0.215200  1.0  0.1707
  C  C270  1  0.313500  0.091900  0.222000  1.0  -0.1973
  C  C271  1  0.320100  0.140500  0.273600  1.0  0.0689
  C  C272  1  0.260600  0.125500  0.319500  1.0  -0.2064
  C  C273  1  0.196800  0.068000  0.309900  1.0  0.1785
  C  C274  1  0.385900  0.207000  0.279800  1.0  0.0201
  C  C275  1  0.458600  0.206900  0.243900  1.0  -0.1064
  C  C276  1  0.517700  0.268900  0.249100  1.0  -0.0999
  C  C277  1  0.506500  0.336400  0.288700  1.0  -0.1341
  C  C278  1  0.433500  0.338600  0.325300  1.0  -0.0625
  C  C279  1  0.374000  0.274700  0.320700  1.0  -0.1247
  C  C280  1  0.424800  0.408900  0.368790  1.0  0.2399
  C  C281  1  0.374300  0.504500  0.430400  1.0  0.2356
  C  C282  1  0.312800  0.561400  0.460900  1.0  -0.0297
  C  C283  1  0.282800  0.545200  0.519600  1.0  -0.0702
  C  C284  1  0.224600  0.599900  0.546000  1.0  -0.0919
  C  C285  1  0.195500  0.669000  0.513400  1.0  -0.0738
  C  C286  1  0.224000  0.684700  0.453900  1.0  0.0241
  C  C287  1  0.283600  0.630300  0.428900  1.0  -0.1206
  C  C288  1  0.193200  0.757200  0.416600  1.0  0.0972
  C  C289  1  0.117400  0.798600  0.430100  1.0  -0.1982
  C  C290  1  0.086700  0.858700  0.389700  1.0  0.1692
  C  C291  1  0.201700  0.844000  0.327300  1.0  0.1507
  C  C292  1  0.236500  0.785200  0.364900  1.0  -0.202
  C  C293  1  0.464500  0.747000  0.465200  1.0  0.1715
  C  C294  1  0.408100  0.813500  0.472000  1.0  -0.1969
  C  C295  1  0.359500  0.820100  0.523600  1.0  0.0686
  C  C296  1  0.374500  0.760600  0.569500  1.0  -0.2077
  C  C297  1  0.432000  0.696800  0.559900  1.0  0.1767
  C  C298  1  0.293000  0.885900  0.529800  1.0  0.0199
  C  C299  1  0.293100  0.958600  0.493900  1.0  -0.1047
  C  C300  1  0.231100  0.017700  0.499100  1.0  -0.0983
  C  C301  1  0.163600  0.006500  0.538700  1.0  -0.1358
  C  C302  1  0.161400  0.933500  0.575300  1.0  -0.0625
  C  C303  1  0.225300  0.874000  0.570700  1.0  -0.1231
  C  C304  1  0.091100  0.924800  0.618790  1.0  0.2378
  C  C305  1  0.995500  0.874300  0.680400  1.0  0.2353
  C  C306  1  0.938600  0.812800  0.710900  1.0  -0.0294
  C  C307  1  0.954800  0.782800  0.769600  1.0  -0.0687
  C  C308  1  0.900100  0.724600  0.796000  1.0  -0.0903
  C  C309  1  0.831000  0.695500  0.763400  1.0  -0.0733
  C  C310  1  0.815300  0.724000  0.703900  1.0  0.0249
  C  C311  1  0.869700  0.783600  0.678900  1.0  -0.1219
  C  C312  1  0.742800  0.693200  0.666667  1.0  0.0905
  C  C313  1  0.701400  0.617400  0.680100  1.0  -0.1989
  C  C314  1  0.641300  0.586700  0.639700  1.0  0.168
  C  C315  1  0.656000  0.701700  0.577300  1.0  0.1494
  C  C316  1  0.714800  0.736500  0.614900  1.0  -0.201
  C  C317  1  0.535500  0.253000  0.965200  1.0  0.1699
  C  C318  1  0.591900  0.186500  0.972000  1.0  -0.1986
  C  C319  1  0.640500  0.179900  0.023600  1.0  0.0701
  C  C320  1  0.625500  0.239400  0.069500  1.0  -0.2075
  C  C321  1  0.568000  0.303200  0.059900  1.0  0.1763
  C  C322  1  0.707000  0.114100  0.029800  1.0  0.0196
  C  C323  1  0.706900  0.041400  0.993900  1.0  -0.1043
  C  C324  1  0.768900  0.982300  0.999100  1.0  -0.0992
  C  C325  1  0.836400  0.993500  0.038700  1.0  -0.138
  C  C326  1  0.838600  0.066500  0.075300  1.0  -0.0634
  C  C327  1  0.774700  0.126000  0.070700  1.0  -0.123
  C  C328  1  0.908900  0.075200  0.118790  1.0  0.2402
  C  C329  1  0.004500  0.125700  0.180400  1.0  0.2354
  C  C330  1  0.061400  0.187200  0.210900  1.0  -0.0298
  C  C331  1  0.045200  0.217200  0.269600  1.0  -0.0688
  C  C332  1  0.099900  0.275400  0.296000  1.0  -0.0917
  C  C333  1  0.169000  0.304500  0.263400  1.0  -0.0747
  C  C334  1  0.184700  0.276000  0.203900  1.0  0.0239
  C  C335  1  0.130300  0.216400  0.178900  1.0  -0.1223
  C  C336  1  0.257200  0.306800  0.166600  1.0  0.0976
  C  C337  1  0.298600  0.382600  0.180100  1.0  -0.2002
  C  C338  1  0.358700  0.413300  0.139700  1.0  0.167
  C  C339  1  0.344000  0.298300  0.077300  1.0  0.1499
  C  C340  1  0.285200  0.263500  0.114900  1.0  -0.1987
  N  N341  1  0.688300  0.476300  0.491350  1.0  -0.3697
  N  N342  1  0.988800  0.054000  0.354950  1.0  -0.2984
  N  N343  1  0.956200  0.993300  0.316330  1.0  -0.2317
  N  N344  1  0.851700  0.056400  0.360010  1.0  0.0909
  N  N345  1  0.769800  0.074600  0.380900  1.0  -0.5686
  N  N346  1  0.626200  0.619900  0.412950  1.0  -0.3537
  N  N347  1  0.311700  0.523700  0.991350  1.0  -0.3698
  N  N348  1  0.011200  0.946000  0.854950  1.0  -0.3022
  N  N349  1  0.043800  0.006700  0.816330  1.0  -0.2311
  N  N350  1  0.148300  0.943600  0.860010  1.0  0.0912
  N  N351  1  0.230200  0.925400  0.880900  1.0  -0.5682
  N  N352  1  0.373800  0.380100  0.912950  1.0  -0.3541
  N  N353  1  0.023700  0.188300  0.741350  1.0  -0.3696
  N  N354  1  0.446000  0.488800  0.604950  1.0  -0.3036
  N  N355  1  0.506700  0.456200  0.566330  1.0  -0.2319
  N  N356  1  0.443600  0.351700  0.610010  1.0  0.0903
  N  N357  1  0.425400  0.269800  0.630900  1.0  -0.5677
  N  N358  1  0.880100  0.126200  0.662950  1.0  -0.3534
  N  N359  1  0.976300  0.811700  0.241350  1.0  -0.369
  N  N360  1  0.554000  0.511200  0.104950  1.0  -0.2982
  N  N361  1  0.493300  0.543800  0.066330  1.0  -0.2315
  N  N362  1  0.556400  0.648300  0.110010  1.0  0.091
  N  N363  1  0.574600  0.730200  0.130900  1.0  -0.5677
  N  N364  1  0.119900  0.873800  0.162950  1.0  -0.3532
  N  N365  1  0.811700  0.976300  0.758650  1.0  -0.3705
  N  N366  1  0.511200  0.554000  0.895050  1.0  -0.3019
  N  N367  1  0.543800  0.493300  0.933670  1.0  -0.2315
  N  N368  1  0.648300  0.556400  0.889990  1.0  0.0909
  N  N369  1  0.730200  0.574600  0.869100  1.0  -0.5676
  N  N370  1  0.873800  0.119900  0.837050  1.0  -0.3542
  N  N371  1  0.188300  0.023700  0.258650  1.0  -0.3691
  N  N372  1  0.488800  0.446000  0.395050  1.0  -0.2993
  N  N373  1  0.456200  0.506700  0.433670  1.0  -0.2315
  N  N374  1  0.351700  0.443600  0.389990  1.0  0.0905
  N  N375  1  0.269800  0.425400  0.369100  1.0  -0.5682
  N  N376  1  0.126200  0.880100  0.337050  1.0  -0.3544
  N  N377  1  0.476300  0.688300  0.508650  1.0  -0.3691
  N  N378  1  0.054000  0.988800  0.645050  1.0  -0.2971
  N  N379  1  0.993300  0.956200  0.683670  1.0  -0.2317
  N  N380  1  0.056400  0.851700  0.639990  1.0  0.0909
  N  N381  1  0.074600  0.769800  0.619100  1.0  -0.5677
  N  N382  1  0.619900  0.626200  0.587050  1.0  -0.3539
  N  N383  1  0.523700  0.311700  0.008650  1.0  -0.3696
  N  N384  1  0.946000  0.011200  0.145050  1.0  -0.303
  N  N385  1  0.006700  0.043800  0.183670  1.0  -0.2308
  N  N386  1  0.943600  0.148300  0.139990  1.0  0.0904
  N  N387  1  0.925400  0.230200  0.119100  1.0  -0.5673
  N  N388  1  0.380100  0.373800  0.087050  1.0  -0.3535
  Cl  Cl389  1  0.626470  0.373530  0.750000  1.0  1.3194
  Cl  Cl390  1  0.373530  0.626470  0.250000  1.0  1.3212
  Cl  Cl391  1  0.126470  0.126470  0.000000  1.0  1.315
  Cl  Cl392  1  0.873530  0.873530  0.500000  1.0  1.3225
  O  O393  1  0.631300  0.443000  0.788000  1.0  -0.5545
  O  O394  1  0.668700  0.405900  0.699400  1.0  -0.5673
  O  O395  1  0.557000  0.368700  0.712000  1.0  -0.5545
  O  O396  1  0.594100  0.331300  0.800600  1.0  -0.5678
  O  O397  1  0.368700  0.557000  0.288000  1.0  -0.5554
  O  O398  1  0.331300  0.594100  0.199400  1.0  -0.5679
  O  O399  1  0.443000  0.631300  0.212000  1.0  -0.5555
  O  O400  1  0.405900  0.668700  0.300600  1.0  -0.5671
  O  O401  1  0.057000  0.131300  0.038000  1.0  -0.5553
  O  O402  1  0.094100  0.168700  0.949400  1.0  -0.5657
  O  O403  1  0.131300  0.057000  0.962000  1.0  -0.5547
  O  O404  1  0.168700  0.094100  0.050600  1.0  -0.5687
  O  O405  1  0.943000  0.868700  0.538000  1.0  -0.5561
  O  O406  1  0.905900  0.831300  0.449400  1.0  -0.5666
  O  O407  1  0.868700  0.943000  0.462000  1.0  -0.5543
  O  O408  1  0.831300  0.905900  0.550600  1.0  -0.5677
