# generated using pymatgen
data_CdH36C48N12(ClO4)2
_symmetry_space_group_name_H-M   'P 1'
_cell_length_a   15.88000000
_cell_length_b   15.88000000
_cell_length_c   21.50500000
_cell_angle_alpha   90.00000000
_cell_angle_beta   90.00000000
_cell_angle_gamma   90.00000000
_symmetry_Int_Tables_number   1
_chemical_formula_structural   CdH36C48N12(ClO4)2
_chemical_formula_sum   'Cd4 H144 C192 N48 Cl8 O32'
_cell_volume   5423.01047200
_cell_formula_units_Z   4
loop_
 _symmetry_equiv_pos_site_id
 _symmetry_equiv_pos_as_xyz
  1  'x, y, z'
loop_
 _atom_site_type_symbol
 _atom_site_label
 _atom_site_symmetry_multiplicity
 _atom_site_fract_x
 _atom_site_fract_y
 _atom_site_fract_z
 _atom_site_occupancy
 _atom_site_charge
  Cd  Cd1  1  0.441150  0.558850  0.250000  1.0  0.7966
  Cd  Cd2  1  0.558850  0.441150  0.750000  1.0  0.7963
  Cd  Cd3  1  0.941150  0.941150  0.500000  1.0  0.7966
  Cd  Cd4  1  0.058850  0.058850  0.000000  1.0  0.7963
  H  H5  1  0.768300  0.860000  0.461100  1.0  0.0795
  H  H6  1  0.710700  0.758600  0.396700  1.0  0.126
  H  H7  1  0.910800  0.785300  0.282500  1.0  0.1333
  H  H8  1  0.959700  0.889300  0.349000  1.0  0.0765
  H  H9  1  0.694900  0.638700  0.362600  1.0  0.106
  H  H10  1  0.700400  0.493300  0.208800  1.0  0.095
  H  H11  1  0.797700  0.585800  0.164400  1.0  0.1123
  H  H12  1  0.848300  0.700200  0.220100  1.0  0.0805
  H  H13  1  0.450400  0.375400  0.458500  1.0  0.1087
  H  H14  1  0.430600  0.262800  0.526800  1.0  0.1142
  H  H15  1  0.532900  0.159000  0.536800  1.0  0.1099
  H  H16  1  0.674300  0.276100  0.408000  1.0  0.0929
  H  H17  1  0.651200  0.099200  0.564200  1.0  0.1294
  H  H18  1  0.763000  0.008900  0.575000  1.0  0.0634
  H  H19  1  0.840400  0.058600  0.407000  1.0  0.0608
  H  H20  1  0.731700  0.153200  0.391700  1.0  0.1445
  H  H21  1  0.754300  0.473500  0.394000  1.0  0.3215
  H  H22  1  0.758500  0.397700  0.354200  1.0  0.3127
  H  H23  1  0.231700  0.140000  0.961100  1.0  0.0801
  H  H24  1  0.289300  0.241400  0.896700  1.0  0.1267
  H  H25  1  0.089200  0.214700  0.782500  1.0  0.1338
  H  H26  1  0.040300  0.110700  0.849000  1.0  0.0766
  H  H27  1  0.305100  0.361300  0.862600  1.0  0.1062
  H  H28  1  0.299600  0.506700  0.708800  1.0  0.095
  H  H29  1  0.202300  0.414200  0.664400  1.0  0.1125
  H  H30  1  0.151700  0.299800  0.720100  1.0  0.0806
  H  H31  1  0.549600  0.624600  0.958500  1.0  0.1086
  H  H32  1  0.569400  0.737200  0.026800  1.0  0.1138
  H  H33  1  0.467100  0.841000  0.036800  1.0  0.1097
  H  H34  1  0.325700  0.723900  0.908000  1.0  0.0933
  H  H35  1  0.348800  0.900800  0.064200  1.0  0.1292
  H  H36  1  0.237000  0.991100  0.075000  1.0  0.0627
  H  H37  1  0.159600  0.941400  0.907000  1.0  0.0613
  H  H38  1  0.268300  0.846800  0.891700  1.0  0.1445
  H  H39  1  0.245700  0.526500  0.894000  1.0  0.3228
  H  H40  1  0.241500  0.602300  0.854200  1.0  0.3122
  H  H41  1  0.640000  0.268300  0.711100  1.0  0.0805
  H  H42  1  0.741400  0.210700  0.646700  1.0  0.1263
  H  H43  1  0.714700  0.410800  0.532500  1.0  0.1344
  H  H44  1  0.610700  0.459700  0.599000  1.0  0.0773
  H  H45  1  0.861300  0.194900  0.612600  1.0  0.1057
  H  H46  1  0.006700  0.200400  0.458800  1.0  0.0945
  H  H47  1  0.914200  0.297700  0.414400  1.0  0.1133
  H  H48  1  0.799800  0.348300  0.470100  1.0  0.0821
  H  H49  1  0.124600  0.950400  0.708500  1.0  0.1085
  H  H50  1  0.237200  0.930600  0.776800  1.0  0.1148
  H  H51  1  0.341000  0.032900  0.786800  1.0  0.1097
  H  H52  1  0.223900  0.174300  0.658000  1.0  0.0937
  H  H53  1  0.400800  0.151200  0.814200  1.0  0.1292
  H  H54  1  0.491100  0.263000  0.825000  1.0  0.0632
  H  H55  1  0.441400  0.340400  0.657000  1.0  0.061
  H  H56  1  0.346800  0.231700  0.641700  1.0  0.1442
  H  H57  1  0.026500  0.254300  0.644000  1.0  0.3223
  H  H58  1  0.102300  0.258500  0.604200  1.0  0.3122
  H  H59  1  0.360000  0.731700  0.211100  1.0  0.08
  H  H60  1  0.258600  0.789300  0.146700  1.0  0.1264
  H  H61  1  0.285300  0.589200  0.032500  1.0  0.1345
  H  H62  1  0.389300  0.540300  0.099000  1.0  0.0769
  H  H63  1  0.138700  0.805100  0.112600  1.0  0.1055
  H  H64  1  0.993300  0.799600  0.958800  1.0  0.0951
  H  H65  1  0.085800  0.702300  0.914400  1.0  0.1133
  H  H66  1  0.200200  0.651700  0.970100  1.0  0.081
  H  H67  1  0.875400  0.049600  0.208500  1.0  0.1082
  H  H68  1  0.762800  0.069400  0.276800  1.0  0.1143
  H  H69  1  0.659000  0.967100  0.286800  1.0  0.1097
  H  H70  1  0.776100  0.825700  0.158000  1.0  0.094
  H  H71  1  0.599200  0.848800  0.314200  1.0  0.129
  H  H72  1  0.508900  0.737000  0.325000  1.0  0.0633
  H  H73  1  0.558600  0.659600  0.157000  1.0  0.0617
  H  H74  1  0.653200  0.768300  0.141700  1.0  0.1437
  H  H75  1  0.973500  0.745700  0.144000  1.0  0.323
  H  H76  1  0.897700  0.741500  0.104200  1.0  0.3129
  H  H77  1  0.731700  0.360000  0.788900  1.0  0.0799
  H  H78  1  0.789300  0.258600  0.853300  1.0  0.1258
  H  H79  1  0.589200  0.285300  0.967500  1.0  0.1337
  H  H80  1  0.540300  0.389300  0.901000  1.0  0.0768
  H  H81  1  0.805100  0.138700  0.887400  1.0  0.1059
  H  H82  1  0.799600  0.993300  0.041200  1.0  0.0943
  H  H83  1  0.702300  0.085800  0.085600  1.0  0.1132
  H  H84  1  0.651700  0.200200  0.029900  1.0  0.0801
  H  H85  1  0.049600  0.875400  0.791500  1.0  0.1084
  H  H86  1  0.069400  0.762800  0.723200  1.0  0.1142
  H  H87  1  0.967100  0.659000  0.713200  1.0  0.1101
  H  H88  1  0.825700  0.776100  0.842000  1.0  0.0935
  H  H89  1  0.848800  0.599200  0.685800  1.0  0.1293
  H  H90  1  0.737000  0.508900  0.675000  1.0  0.0626
  H  H91  1  0.659600  0.558600  0.843000  1.0  0.0609
  H  H92  1  0.768300  0.653200  0.858300  1.0  0.1446
  H  H93  1  0.745700  0.973500  0.856000  1.0  0.3229
  H  H94  1  0.741500  0.897700  0.895800  1.0  0.3134
  H  H95  1  0.268300  0.640000  0.288900  1.0  0.0794
  H  H96  1  0.210700  0.741400  0.353300  1.0  0.1257
  H  H97  1  0.410800  0.714700  0.467500  1.0  0.1332
  H  H98  1  0.459700  0.610700  0.401000  1.0  0.0772
  H  H99  1  0.194900  0.861300  0.387400  1.0  0.1058
  H  H100  1  0.200400  0.006700  0.541200  1.0  0.0943
  H  H101  1  0.297700  0.914200  0.585600  1.0  0.1128
  H  H102  1  0.348300  0.799800  0.529900  1.0  0.0802
  H  H103  1  0.950400  0.124600  0.291500  1.0  0.1083
  H  H104  1  0.930600  0.237200  0.223200  1.0  0.1143
  H  H105  1  0.032900  0.341000  0.213200  1.0  0.1103
  H  H106  1  0.174300  0.223900  0.342000  1.0  0.0937
  H  H107  1  0.151200  0.400800  0.185800  1.0  0.1293
  H  H108  1  0.263000  0.491100  0.175000  1.0  0.0628
  H  H109  1  0.340400  0.441400  0.343000  1.0  0.0605
  H  H110  1  0.231700  0.346800  0.358300  1.0  0.1446
  H  H111  1  0.254300  0.026500  0.356000  1.0  0.3226
  H  H112  1  0.258500  0.102300  0.395800  1.0  0.3126
  H  H113  1  0.860000  0.768300  0.538900  1.0  0.0798
  H  H114  1  0.758600  0.710700  0.603300  1.0  0.1258
  H  H115  1  0.785300  0.910800  0.717500  1.0  0.1345
  H  H116  1  0.889300  0.959700  0.651000  1.0  0.0774
  H  H117  1  0.638700  0.694900  0.637400  1.0  0.1057
  H  H118  1  0.493300  0.700400  0.791200  1.0  0.0939
  H  H119  1  0.585800  0.797700  0.835600  1.0  0.1136
  H  H120  1  0.700200  0.848300  0.779900  1.0  0.0818
  H  H121  1  0.375400  0.450400  0.541500  1.0  0.1083
  H  H122  1  0.262800  0.430600  0.473200  1.0  0.1145
  H  H123  1  0.159000  0.532900  0.463200  1.0  0.1097
  H  H124  1  0.276100  0.674300  0.592000  1.0  0.0939
  H  H125  1  0.099200  0.651200  0.435800  1.0  0.1291
  H  H126  1  0.008900  0.763000  0.425000  1.0  0.063
  H  H127  1  0.058600  0.840400  0.593000  1.0  0.0607
  H  H128  1  0.153200  0.731700  0.608300  1.0  0.1445
  H  H129  1  0.473500  0.754300  0.606000  1.0  0.3227
  H  H130  1  0.397700  0.758500  0.645800  1.0  0.3128
  H  H131  1  0.140000  0.231700  0.038900  1.0  0.08
  H  H132  1  0.241400  0.289300  0.103300  1.0  0.126
  H  H133  1  0.214700  0.089200  0.217500  1.0  0.1339
  H  H134  1  0.110700  0.040300  0.151000  1.0  0.0774
  H  H135  1  0.361300  0.305100  0.137400  1.0  0.1057
  H  H136  1  0.506700  0.299600  0.291200  1.0  0.0941
  H  H137  1  0.414200  0.202300  0.335600  1.0  0.1136
  H  H138  1  0.299800  0.151700  0.279900  1.0  0.0811
  H  H139  1  0.624600  0.549600  0.041500  1.0  0.1085
  H  H140  1  0.737200  0.569400  0.973200  1.0  0.1148
  H  H141  1  0.841000  0.467100  0.963200  1.0  0.1102
  H  H142  1  0.723900  0.325700  0.092000  1.0  0.0944
  H  H143  1  0.900800  0.348800  0.935800  1.0  0.1292
  H  H144  1  0.991100  0.237000  0.925000  1.0  0.0633
  H  H145  1  0.941400  0.159600  0.093000  1.0  0.0612
  H  H146  1  0.846800  0.268300  0.108300  1.0  0.144
  H  H147  1  0.526500  0.245700  0.106000  1.0  0.322
  H  H148  1  0.602300  0.241500  0.145800  1.0  0.3132
  C  C149  1  0.798400  0.843200  0.425100  1.0  0.1357
  C  C150  1  0.764300  0.781700  0.387000  1.0  -0.1847
  C  C151  1  0.807500  0.753200  0.334700  1.0  0.1043
  C  C152  1  0.881100  0.797500  0.319700  1.0  -0.1952
  C  C153  1  0.910000  0.859700  0.360200  1.0  0.165
  C  C154  1  0.777400  0.681400  0.297400  1.0  0.0023
  C  C155  1  0.716500  0.627300  0.322300  1.0  -0.117
  C  C156  1  0.687100  0.558700  0.290800  1.0  -0.0493
  C  C157  1  0.718800  0.541500  0.231100  1.0  -0.0527
  C  C158  1  0.777500  0.595900  0.205300  1.0  -0.0755
  C  C159  1  0.807200  0.664400  0.238300  1.0  -0.0778
  C  C160  1  0.624300  0.503200  0.320700  1.0  0.2542
  C  C161  1  0.573700  0.407100  0.383600  1.0  0.2503
  C  C162  1  0.565600  0.337100  0.427200  1.0  -0.0091
  C  C163  1  0.492200  0.332800  0.462200  1.0  -0.0749
  C  C164  1  0.480500  0.265900  0.502600  1.0  -0.0704
  C  C165  1  0.540500  0.203600  0.508000  1.0  -0.1037
  C  C166  1  0.612900  0.206400  0.470800  1.0  0.0152
  C  C167  1  0.624400  0.273200  0.432200  1.0  -0.1063
  C  C168  1  0.679700  0.139900  0.477900  1.0  0.1181
  C  C169  1  0.690300  0.093400  0.531100  1.0  -0.2202
  C  C170  1  0.756900  0.038500  0.536900  1.0  0.1749
  C  C171  1  0.801600  0.067700  0.439900  1.0  0.1708
  C  C172  1  0.736900  0.124700  0.430400  1.0  -0.1964
  C  C173  1  0.201600  0.156800  0.925100  1.0  0.1358
  C  C174  1  0.235700  0.218300  0.887000  1.0  -0.1853
  C  C175  1  0.192500  0.246800  0.834700  1.0  0.1041
  C  C176  1  0.118900  0.202500  0.819700  1.0  -0.1955
  C  C177  1  0.090000  0.140300  0.860200  1.0  0.1649
  C  C178  1  0.222600  0.318600  0.797400  1.0  0.0026
  C  C179  1  0.283500  0.372700  0.822300  1.0  -0.1166
  C  C180  1  0.312900  0.441300  0.790800  1.0  -0.0494
  C  C181  1  0.281200  0.458500  0.731100  1.0  -0.058
  C  C182  1  0.222500  0.404100  0.705300  1.0  -0.0752
  C  C183  1  0.192800  0.335600  0.738300  1.0  -0.0763
  C  C184  1  0.375700  0.496800  0.820700  1.0  0.2544
  C  C185  1  0.426300  0.592900  0.883600  1.0  0.2501
  C  C186  1  0.434400  0.662900  0.927200  1.0  -0.0099
  C  C187  1  0.507800  0.667200  0.962200  1.0  -0.0756
  C  C188  1  0.519500  0.734100  0.002600  1.0  -0.0695
  C  C189  1  0.459500  0.796400  0.008000  1.0  -0.1048
  C  C190  1  0.387100  0.793600  0.970800  1.0  0.0143
  C  C191  1  0.375600  0.726800  0.932200  1.0  -0.1057
  C  C192  1  0.320300  0.860100  0.977900  1.0  0.1179
  C  C193  1  0.309700  0.906600  0.031100  1.0  -0.2203
  C  C194  1  0.243100  0.961500  0.036900  1.0  0.1747
  C  C195  1  0.198400  0.932300  0.939900  1.0  0.1709
  C  C196  1  0.263100  0.875300  0.930400  1.0  -0.197
  C  C197  1  0.656800  0.298400  0.675100  1.0  0.1332
  C  C198  1  0.718300  0.264300  0.637000  1.0  -0.1838
  C  C199  1  0.746800  0.307500  0.584700  1.0  0.1044
  C  C200  1  0.702500  0.381100  0.569700  1.0  -0.1976
  C  C201  1  0.640300  0.410000  0.610200  1.0  0.1648
  C  C202  1  0.818600  0.277400  0.547400  1.0  0.0026
  C  C203  1  0.872700  0.216500  0.572300  1.0  -0.1179
  C  C204  1  0.941300  0.187100  0.540800  1.0  -0.049
  C  C205  1  0.958500  0.218800  0.481100  1.0  -0.0597
  C  C206  1  0.904100  0.277500  0.455300  1.0  -0.0749
  C  C207  1  0.835600  0.307200  0.488300  1.0  -0.0778
  C  C208  1  0.996800  0.124300  0.570700  1.0  0.2572
  C  C209  1  0.092900  0.073700  0.633600  1.0  0.2511
  C  C210  1  0.162900  0.065600  0.677200  1.0  -0.01
  C  C211  1  0.167200  0.992200  0.712200  1.0  -0.0753
  C  C212  1  0.234100  0.980500  0.752600  1.0  -0.067
  C  C213  1  0.296400  0.040500  0.758000  1.0  -0.1036
  C  C214  1  0.293600  0.112900  0.720800  1.0  0.016
  C  C215  1  0.226800  0.124400  0.682200  1.0  -0.105
  C  C216  1  0.360100  0.179700  0.727900  1.0  0.1181
  C  C217  1  0.406600  0.190300  0.781100  1.0  -0.2195
  C  C218  1  0.461500  0.256900  0.786900  1.0  0.1747
  C  C219  1  0.432300  0.301600  0.689900  1.0  0.1704
  C  C220  1  0.375300  0.236900  0.680400  1.0  -0.197
  C  C221  1  0.343200  0.701600  0.175100  1.0  0.1349
  C  C222  1  0.281700  0.735700  0.137000  1.0  -0.1838
  C  C223  1  0.253200  0.692500  0.084700  1.0  0.1044
  C  C224  1  0.297500  0.618900  0.069700  1.0  -0.1981
  C  C225  1  0.359700  0.590000  0.110200  1.0  0.1647
  C  C226  1  0.181400  0.722600  0.047400  1.0  0.0012
  C  C227  1  0.127300  0.783500  0.072300  1.0  -0.1174
  C  C228  1  0.058700  0.812900  0.040800  1.0  -0.0496
  C  C229  1  0.041500  0.781200  0.981100  1.0  -0.0594
  C  C230  1  0.095900  0.722500  0.955300  1.0  -0.0751
  C  C231  1  0.164400  0.692800  0.988300  1.0  -0.0772
  C  C232  1  0.003200  0.875700  0.070700  1.0  0.2572
  C  C233  1  0.907100  0.926300  0.133600  1.0  0.2508
  C  C234  1  0.837100  0.934400  0.177200  1.0  -0.0109
  C  C235  1  0.832800  0.007800  0.212200  1.0  -0.0769
  C  C236  1  0.765900  0.019500  0.252600  1.0  -0.0669
  C  C237  1  0.703600  0.959500  0.258000  1.0  -0.1041
  C  C238  1  0.706400  0.887100  0.220800  1.0  0.0154
  C  C239  1  0.773200  0.875600  0.182200  1.0  -0.1037
  C  C240  1  0.639900  0.820300  0.227900  1.0  0.118
  C  C241  1  0.593400  0.809700  0.281100  1.0  -0.2206
  C  C242  1  0.538500  0.743100  0.286900  1.0  0.1741
  C  C243  1  0.567700  0.698400  0.189900  1.0  0.17
  C  C244  1  0.624700  0.763100  0.180400  1.0  -0.1967
  C  C245  1  0.701600  0.343200  0.824900  1.0  0.1359
  C  C246  1  0.735700  0.281700  0.863000  1.0  -0.1857
  C  C247  1  0.692500  0.253200  0.915300  1.0  0.1038
  C  C248  1  0.618900  0.297500  0.930300  1.0  -0.1948
  C  C249  1  0.590000  0.359700  0.889800  1.0  0.1652
  C  C250  1  0.722600  0.181400  0.952600  1.0  0.0027
  C  C251  1  0.783500  0.127300  0.927700  1.0  -0.1172
  C  C252  1  0.812900  0.058700  0.959200  1.0  -0.05
  C  C253  1  0.781200  0.041500  0.018900  1.0  -0.0568
  C  C254  1  0.722500  0.095900  0.044700  1.0  -0.075
  C  C255  1  0.692800  0.164400  0.011700  1.0  -0.0764
  C  C256  1  0.875700  0.003200  0.929300  1.0  0.254
  C  C257  1  0.926300  0.907100  0.866400  1.0  0.2506
  C  C258  1  0.934400  0.837100  0.822800  1.0  -0.0098
  C  C259  1  0.007800  0.832800  0.787800  1.0  -0.0749
  C  C260  1  0.019500  0.765900  0.747400  1.0  -0.0693
  C  C261  1  0.959500  0.703600  0.742000  1.0  -0.1044
  C  C262  1  0.887100  0.706400  0.779200  1.0  0.0152
  C  C263  1  0.875600  0.773200  0.817800  1.0  -0.106
  C  C264  1  0.820300  0.639900  0.772100  1.0  0.1184
  C  C265  1  0.809700  0.593400  0.718900  1.0  -0.221
  C  C266  1  0.743100  0.538500  0.713100  1.0  0.1743
  C  C267  1  0.698400  0.567700  0.810100  1.0  0.1715
  C  C268  1  0.763100  0.624700  0.819600  1.0  -0.196
  C  C269  1  0.298400  0.656800  0.324900  1.0  0.136
  C  C270  1  0.264300  0.718300  0.363000  1.0  -0.1849
  C  C271  1  0.307500  0.746800  0.415300  1.0  0.1049
  C  C272  1  0.381100  0.702500  0.430300  1.0  -0.1952
  C  C273  1  0.410000  0.640300  0.389800  1.0  0.1648
  C  C274  1  0.277400  0.818600  0.452600  1.0  0.0027
  C  C275  1  0.216500  0.872700  0.427700  1.0  -0.1174
  C  C276  1  0.187100  0.941300  0.459200  1.0  -0.0487
  C  C277  1  0.218800  0.958500  0.518900  1.0  -0.0528
  C  C278  1  0.277500  0.904100  0.544700  1.0  -0.0753
  C  C279  1  0.307200  0.835600  0.511700  1.0  -0.0785
  C  C280  1  0.124300  0.996800  0.429300  1.0  0.2538
  C  C281  1  0.073700  0.092900  0.366400  1.0  0.2505
  C  C282  1  0.065600  0.162900  0.322800  1.0  -0.0097
  C  C283  1  0.992200  0.167200  0.287800  1.0  -0.0746
  C  C284  1  0.980500  0.234100  0.247400  1.0  -0.0704
  C  C285  1  0.040500  0.296400  0.242000  1.0  -0.1036
  C  C286  1  0.112900  0.293600  0.279200  1.0  0.015
  C  C287  1  0.124400  0.226800  0.317800  1.0  -0.106
  C  C288  1  0.179700  0.360100  0.272100  1.0  0.1185
  C  C289  1  0.190300  0.406600  0.218900  1.0  -0.2216
  C  C290  1  0.256900  0.461500  0.213100  1.0  0.1743
  C  C291  1  0.301600  0.432300  0.310100  1.0  0.1706
  C  C292  1  0.236900  0.375300  0.319600  1.0  -0.1961
  C  C293  1  0.843200  0.798400  0.574900  1.0  0.1351
  C  C294  1  0.781700  0.764300  0.613000  1.0  -0.184
  C  C295  1  0.753200  0.807500  0.665300  1.0  0.1045
  C  C296  1  0.797500  0.881100  0.680300  1.0  -0.1975
  C  C297  1  0.859700  0.910000  0.639800  1.0  0.1646
  C  C298  1  0.681400  0.777400  0.702600  1.0  0.0027
  C  C299  1  0.627300  0.716500  0.677700  1.0  -0.1181
  C  C300  1  0.558700  0.687100  0.709200  1.0  -0.0499
  C  C301  1  0.541500  0.718800  0.768900  1.0  -0.0593
  C  C302  1  0.595900  0.777500  0.794700  1.0  -0.0743
  C  C303  1  0.664400  0.807200  0.761700  1.0  -0.0781
  C  C304  1  0.503200  0.624300  0.679300  1.0  0.2568
  C  C305  1  0.407100  0.573700  0.616400  1.0  0.2514
  C  C306  1  0.337100  0.565600  0.572800  1.0  -0.0107
  C  C307  1  0.332800  0.492200  0.537800  1.0  -0.0766
  C  C308  1  0.265900  0.480500  0.497400  1.0  -0.0674
  C  C309  1  0.203600  0.540500  0.492000  1.0  -0.1039
  C  C310  1  0.206400  0.612900  0.529200  1.0  0.0158
  C  C311  1  0.273200  0.624400  0.567800  1.0  -0.1053
  C  C312  1  0.139900  0.679700  0.522100  1.0  0.1183
  C  C313  1  0.093400  0.690300  0.468900  1.0  -0.2213
  C  C314  1  0.038500  0.756900  0.463100  1.0  0.1736
  C  C315  1  0.067700  0.801600  0.560100  1.0  0.1696
  C  C316  1  0.124700  0.736900  0.569600  1.0  -0.1959
  C  C317  1  0.156800  0.201600  0.074900  1.0  0.1337
  C  C318  1  0.218300  0.235700  0.113000  1.0  -0.1843
  C  C319  1  0.246800  0.192500  0.165300  1.0  0.1046
  C  C320  1  0.202500  0.118900  0.180300  1.0  -0.1971
  C  C321  1  0.140300  0.090000  0.139800  1.0  0.1649
  C  C322  1  0.318600  0.222600  0.202600  1.0  0.0018
  C  C323  1  0.372700  0.283500  0.177700  1.0  -0.1183
  C  C324  1  0.441300  0.312900  0.209200  1.0  -0.0489
  C  C325  1  0.458500  0.281200  0.268900  1.0  -0.0593
  C  C326  1  0.404100  0.222500  0.294700  1.0  -0.0754
  C  C327  1  0.335600  0.192800  0.261700  1.0  -0.0783
  C  C328  1  0.496800  0.375700  0.179300  1.0  0.2566
  C  C329  1  0.592900  0.426300  0.116400  1.0  0.251
  C  C330  1  0.662900  0.434400  0.072800  1.0  -0.0102
  C  C331  1  0.667200  0.507800  0.037800  1.0  -0.0753
  C  C332  1  0.734100  0.519500  0.997400  1.0  -0.0668
  C  C333  1  0.796400  0.459500  0.992000  1.0  -0.1035
  C  C334  1  0.793600  0.387100  0.029200  1.0  0.0156
  C  C335  1  0.726800  0.375600  0.067800  1.0  -0.1046
  C  C336  1  0.860100  0.320300  0.022100  1.0  0.1179
  C  C337  1  0.906600  0.309700  0.968900  1.0  -0.2202
  C  C338  1  0.961500  0.243100  0.963100  1.0  0.1737
  C  C339  1  0.932300  0.198400  0.060100  1.0  0.1704
  C  C340  1  0.875300  0.263100  0.069600  1.0  -0.1963
  N  N341  1  0.873400  0.880100  0.412500  1.0  -0.3472
  N  N342  1  0.543600  0.506200  0.317300  1.0  -0.2238
  N  N343  1  0.510200  0.444700  0.356100  1.0  -0.3047
  N  N344  1  0.647200  0.443300  0.362100  1.0  0.0922
  N  N345  1  0.728300  0.424300  0.383900  1.0  -0.5574
  N  N346  1  0.812900  0.024600  0.492800  1.0  -0.361
  N  N347  1  0.126600  0.119900  0.912500  1.0  -0.346
  N  N348  1  0.456400  0.493800  0.817300  1.0  -0.2247
  N  N349  1  0.489800  0.555300  0.856100  1.0  -0.3051
  N  N350  1  0.352800  0.556700  0.862100  1.0  0.0918
  N  N351  1  0.271700  0.575700  0.883900  1.0  -0.5573
  N  N352  1  0.187100  0.975400  0.992800  1.0  -0.3616
  N  N353  1  0.619900  0.373400  0.662500  1.0  -0.3459
  N  N354  1  0.993800  0.043600  0.567300  1.0  -0.2237
  N  N355  1  0.055300  0.010200  0.606100  1.0  -0.3033
  N  N356  1  0.056700  0.147200  0.612100  1.0  0.0916
  N  N357  1  0.075700  0.228300  0.633900  1.0  -0.5571
  N  N358  1  0.475400  0.312900  0.742800  1.0  -0.3604
  N  N359  1  0.380100  0.626600  0.162500  1.0  -0.3452
  N  N360  1  0.006200  0.956400  0.067300  1.0  -0.2243
  N  N361  1  0.944700  0.989800  0.106100  1.0  -0.3034
  N  N362  1  0.943300  0.852800  0.112100  1.0  0.0916
  N  N363  1  0.924300  0.771700  0.133900  1.0  -0.5576
  N  N364  1  0.524600  0.687100  0.242800  1.0  -0.3612
  N  N365  1  0.626600  0.380100  0.837500  1.0  -0.3474
  N  N366  1  0.956400  0.006200  0.932700  1.0  -0.2246
  N  N367  1  0.989800  0.944700  0.893900  1.0  -0.3054
  N  N368  1  0.852800  0.943300  0.887900  1.0  0.0915
  N  N369  1  0.771700  0.924300  0.866100  1.0  -0.5574
  N  N370  1  0.687100  0.524600  0.757200  1.0  -0.3613
  N  N371  1  0.373400  0.619900  0.337500  1.0  -0.3467
  N  N372  1  0.043600  0.993800  0.432700  1.0  -0.2248
  N  N373  1  0.010200  0.055300  0.393900  1.0  -0.3049
  N  N374  1  0.147200  0.056700  0.387900  1.0  0.0919
  N  N375  1  0.228300  0.075700  0.366100  1.0  -0.5571
  N  N376  1  0.312900  0.475400  0.257200  1.0  -0.3617
  N  N377  1  0.880100  0.873400  0.587500  1.0  -0.3456
  N  N378  1  0.506200  0.543600  0.682700  1.0  -0.2236
  N  N379  1  0.444700  0.510200  0.643900  1.0  -0.304
  N  N380  1  0.443300  0.647200  0.637900  1.0  0.0915
  N  N381  1  0.424300  0.728300  0.616100  1.0  -0.5578
  N  N382  1  0.024600  0.812900  0.507200  1.0  -0.3607
  N  N383  1  0.119900  0.126600  0.087500  1.0  -0.3462
  N  N384  1  0.493800  0.456400  0.182700  1.0  -0.2242
  N  N385  1  0.555300  0.489800  0.143900  1.0  -0.3035
  N  N386  1  0.556700  0.352800  0.137900  1.0  0.0914
  N  N387  1  0.575700  0.271700  0.116100  1.0  -0.5567
  N  N388  1  0.975400  0.187100  0.007200  1.0  -0.3608
  Cl  Cl389  1  0.880660  0.119340  0.750000  1.0  2.0577
  Cl  Cl390  1  0.119340  0.880660  0.250000  1.0  2.058
  Cl  Cl391  1  0.380660  0.380660  0.000000  1.0  2.0577
  Cl  Cl392  1  0.619340  0.619340  0.500000  1.0  2.058
  Cl  Cl393  1  0.770650  0.770650  0.000000  1.0  1.0391
  Cl  Cl394  1  0.229350  0.229350  0.500000  1.0  1.0386
  Cl  Cl395  1  0.729350  0.270650  0.250000  1.0  1.0377
  Cl  Cl396  1  0.270650  0.729350  0.750000  1.0  1.0388
  O  O397  1  0.895800  0.187500  0.777900  1.0  -0.7364
  O  O398  1  0.879200  0.066200  0.786900  1.0  -0.6787
  O  O399  1  0.812500  0.104200  0.722100  1.0  -0.7354
  O  O400  1  0.933800  0.120800  0.713100  1.0  -0.6773
  O  O401  1  0.104200  0.812500  0.277900  1.0  -0.7393
  O  O402  1  0.120800  0.933800  0.286900  1.0  -0.6786
  O  O403  1  0.187500  0.895800  0.222100  1.0  -0.7336
  O  O404  1  0.066200  0.879200  0.213100  1.0  -0.6777
  O  O405  1  0.312500  0.395800  0.027900  1.0  -0.7362
  O  O406  1  0.433800  0.379200  0.036900  1.0  -0.6779
  O  O407  1  0.395800  0.312500  0.972100  1.0  -0.7389
  O  O408  1  0.379200  0.433800  0.963100  1.0  -0.6779
  O  O409  1  0.687500  0.604200  0.527900  1.0  -0.7333
  O  O410  1  0.566200  0.620800  0.536900  1.0  -0.6784
  O  O411  1  0.604200  0.687500  0.472100  1.0  -0.736
  O  O412  1  0.620800  0.566200  0.463100  1.0  -0.6776
  O  O413  1  0.738700  0.736900  0.051600  1.0  -0.4346
  O  O414  1  0.705800  0.851000  0.009500  1.0  -0.5203
  O  O415  1  0.736900  0.738700  0.948400  1.0  -0.4342
  O  O416  1  0.851000  0.705800  0.990500  1.0  -0.5189
  O  O417  1  0.261300  0.263100  0.551600  1.0  -0.4348
  O  O418  1  0.294200  0.149000  0.509500  1.0  -0.5187
  O  O419  1  0.263100  0.261300  0.448400  1.0  -0.4353
  O  O420  1  0.149000  0.294200  0.490500  1.0  -0.5208
  O  O421  1  0.763100  0.238700  0.301600  1.0  -0.435
  O  O422  1  0.649000  0.205800  0.259500  1.0  -0.5203
  O  O423  1  0.761300  0.236900  0.198400  1.0  -0.4344
  O  O424  1  0.794200  0.351000  0.240500  1.0  -0.5192
  O  O425  1  0.236900  0.761300  0.801600  1.0  -0.4349
  O  O426  1  0.351000  0.794200  0.759500  1.0  -0.5197
  O  O427  1  0.238700  0.763100  0.698400  1.0  -0.4351
  O  O428  1  0.205800  0.649000  0.740500  1.0  -0.5192
