# generated using pymatgen
data_CdH36C48N12(ClO4)2
_symmetry_space_group_name_H-M   'P 1'
_cell_length_a   15.85080000
_cell_length_b   15.85080000
_cell_length_c   21.76600000
_cell_angle_alpha   90.00000000
_cell_angle_beta   90.00000000
_cell_angle_gamma   90.00000000
_symmetry_Int_Tables_number   1
_chemical_formula_structural   CdH36C48N12(ClO4)2
_chemical_formula_sum   'Cd4 H144 C192 N48 Cl8 O32'
_cell_volume   5468.66093469
_cell_formula_units_Z   4
loop_
 _symmetry_equiv_pos_site_id
 _symmetry_equiv_pos_as_xyz
  1  'x, y, z'
loop_
 _atom_site_type_symbol
 _atom_site_label
 _atom_site_symmetry_multiplicity
 _atom_site_fract_x
 _atom_site_fract_y
 _atom_site_fract_z
 _atom_site_occupancy
 _atom_site_charge
  Cd  Cd1  1  0.059690  0.940310  0.250000  1.0  0.7911
  Cd  Cd2  1  0.940310  0.059690  0.750000  1.0  0.7913
  Cd  Cd3  1  0.559690  0.559690  0.500000  1.0  0.7911
  Cd  Cd4  1  0.440310  0.440310  0.000000  1.0  0.7913
  H  H5  1  0.743300  0.495200  0.570700  1.0  0.0623
  H  H6  1  0.853300  0.403500  0.558900  1.0  0.1259
  H  H7  1  0.764100  0.345500  0.393300  1.0  0.1312
  H  H8  1  0.657900  0.440600  0.408700  1.0  0.0586
  H  H9  1  0.967000  0.336700  0.534200  1.0  0.107
  H  H10  1  0.067200  0.234100  0.523700  1.0  0.106
  H  H11  1  0.046100  0.120800  0.458600  1.0  0.1132
  H  H12  1  0.826100  0.223900  0.404800  1.0  0.0987
  H  H13  1  0.801700  0.002000  0.209100  1.0  0.0909
  H  H14  1  0.705800  0.909300  0.164200  1.0  0.1151
  H  H15  1  0.656000  0.794800  0.219400  1.0  0.0761
  H  H16  1  0.804300  0.859300  0.360500  1.0  0.1038
  H  H17  1  0.587400  0.714500  0.284800  1.0  0.1325
  H  H18  1  0.536900  0.614000  0.350700  1.0  0.0847
  H  H19  1  0.731700  0.639900  0.457200  1.0  0.0688
  H  H20  1  0.790100  0.735700  0.393300  1.0  0.123
  H  H21  1  0.741600  0.026500  0.386600  1.0  0.3236
  H  H22  1  0.743000  0.105800  0.353100  1.0  0.3087
  H  H23  1  0.256700  0.504800  0.070700  1.0  0.0624
  H  H24  1  0.146700  0.596500  0.058900  1.0  0.1268
  H  H25  1  0.235900  0.654500  0.893300  1.0  0.1309
  H  H26  1  0.342100  0.559400  0.908700  1.0  0.0586
  H  H27  1  0.033000  0.663300  0.034200  1.0  0.1074
  H  H28  1  0.932800  0.765900  0.023700  1.0  0.1063
  H  H29  1  0.953900  0.879200  0.958600  1.0  0.1132
  H  H30  1  0.173900  0.776100  0.904800  1.0  0.0983
  H  H31  1  0.198300  0.998000  0.709100  1.0  0.0913
  H  H32  1  0.294200  0.090700  0.664200  1.0  0.115
  H  H33  1  0.344000  0.205200  0.719400  1.0  0.0766
  H  H34  1  0.195700  0.140700  0.860500  1.0  0.1035
  H  H35  1  0.412600  0.285500  0.784800  1.0  0.1323
  H  H36  1  0.463100  0.386000  0.850700  1.0  0.084
  H  H37  1  0.268300  0.360100  0.957200  1.0  0.0688
  H  H38  1  0.209900  0.264300  0.893300  1.0  0.1226
  H  H39  1  0.258400  0.973500  0.886600  1.0  0.3235
  H  H40  1  0.257000  0.894200  0.853100  1.0  0.3082
  H  H41  1  0.004800  0.243300  0.820700  1.0  0.0622
  H  H42  1  0.096500  0.353300  0.808900  1.0  0.1264
  H  H43  1  0.154500  0.264100  0.643300  1.0  0.1302
  H  H44  1  0.059400  0.157900  0.658700  1.0  0.059
  H  H45  1  0.163300  0.467000  0.784200  1.0  0.1067
  H  H46  1  0.265900  0.567200  0.773700  1.0  0.1067
  H  H47  1  0.379200  0.546100  0.708600  1.0  0.1128
  H  H48  1  0.276100  0.326100  0.654800  1.0  0.0992
  H  H49  1  0.498000  0.301700  0.459100  1.0  0.0912
  H  H50  1  0.590700  0.205800  0.414200  1.0  0.116
  H  H51  1  0.705200  0.156000  0.469400  1.0  0.0771
  H  H52  1  0.640700  0.304300  0.610500  1.0  0.1037
  H  H53  1  0.785500  0.087400  0.534800  1.0  0.133
  H  H54  1  0.886000  0.036900  0.600700  1.0  0.0842
  H  H55  1  0.860100  0.231700  0.707200  1.0  0.0684
  H  H56  1  0.764300  0.290100  0.643300  1.0  0.1232
  H  H57  1  0.473500  0.241600  0.636600  1.0  0.324
  H  H58  1  0.394200  0.243000  0.603100  1.0  0.3083
  H  H59  1  0.995200  0.756700  0.320700  1.0  0.0627
  H  H60  1  0.903500  0.646700  0.308900  1.0  0.1261
  H  H61  1  0.845500  0.735900  0.143300  1.0  0.1302
  H  H62  1  0.940600  0.842100  0.158700  1.0  0.0588
  H  H63  1  0.836700  0.533000  0.284200  1.0  0.1068
  H  H64  1  0.734100  0.432800  0.273700  1.0  0.1069
  H  H65  1  0.620800  0.453900  0.208600  1.0  0.1134
  H  H66  1  0.723900  0.673900  0.154800  1.0  0.0988
  H  H67  1  0.502000  0.698300  0.959100  1.0  0.091
  H  H68  1  0.409300  0.794200  0.914200  1.0  0.1162
  H  H69  1  0.294800  0.844000  0.969400  1.0  0.0783
  H  H70  1  0.359300  0.695700  0.110500  1.0  0.1037
  H  H71  1  0.214500  0.912600  0.034800  1.0  0.1328
  H  H72  1  0.114000  0.963100  0.100700  1.0  0.0851
  H  H73  1  0.139900  0.768300  0.207200  1.0  0.0687
  H  H74  1  0.235700  0.709900  0.143300  1.0  0.1235
  H  H75  1  0.526500  0.758400  0.136600  1.0  0.3242
  H  H76  1  0.605800  0.757000  0.103100  1.0  0.3079
  H  H77  1  0.756700  0.995200  0.679300  1.0  0.0614
  H  H78  1  0.646700  0.903500  0.691100  1.0  0.126
  H  H79  1  0.735900  0.845500  0.856700  1.0  0.1309
  H  H80  1  0.842100  0.940600  0.841300  1.0  0.0585
  H  H81  1  0.533000  0.836700  0.715800  1.0  0.1074
  H  H82  1  0.432800  0.734100  0.726300  1.0  0.1063
  H  H83  1  0.453900  0.620800  0.791400  1.0  0.1131
  H  H84  1  0.673900  0.723900  0.845200  1.0  0.0984
  H  H85  1  0.698300  0.502000  0.040900  1.0  0.0906
  H  H86  1  0.794200  0.409300  0.085800  1.0  0.115
  H  H87  1  0.844000  0.294800  0.030600  1.0  0.0764
  H  H88  1  0.695700  0.359300  0.889500  1.0  0.1032
  H  H89  1  0.912600  0.214500  0.965200  1.0  0.1322
  H  H90  1  0.963100  0.114000  0.899300  1.0  0.0844
  H  H91  1  0.768300  0.139900  0.792800  1.0  0.07
  H  H92  1  0.709900  0.235700  0.856700  1.0  0.1224
  H  H93  1  0.758400  0.526500  0.863400  1.0  0.3226
  H  H94  1  0.757000  0.605800  0.896900  1.0  0.308
  H  H95  1  0.243300  0.004800  0.179300  1.0  0.0616
  H  H96  1  0.353300  0.096500  0.191100  1.0  0.1261
  H  H97  1  0.264100  0.154500  0.356700  1.0  0.1314
  H  H98  1  0.157900  0.059400  0.341300  1.0  0.0585
  H  H99  1  0.467000  0.163300  0.215800  1.0  0.1073
  H  H100  1  0.567200  0.265900  0.226300  1.0  0.1061
  H  H101  1  0.546100  0.379200  0.291400  1.0  0.1127
  H  H102  1  0.326100  0.276100  0.345200  1.0  0.0984
  H  H103  1  0.301700  0.498000  0.540900  1.0  0.0905
  H  H104  1  0.205800  0.590700  0.585800  1.0  0.1152
  H  H105  1  0.156000  0.705200  0.530600  1.0  0.0762
  H  H106  1  0.304300  0.640700  0.389500  1.0  0.1037
  H  H107  1  0.087400  0.785500  0.465200  1.0  0.1326
  H  H108  1  0.036900  0.886000  0.399300  1.0  0.0846
  H  H109  1  0.231700  0.860100  0.292800  1.0  0.0699
  H  H110  1  0.290100  0.764300  0.356700  1.0  0.1227
  H  H111  1  0.241600  0.473500  0.363400  1.0  0.324
  H  H112  1  0.243000  0.394200  0.396900  1.0  0.3084
  H  H113  1  0.495200  0.743300  0.429300  1.0  0.0615
  H  H114  1  0.403500  0.853300  0.441100  1.0  0.126
  H  H115  1  0.345500  0.764100  0.606700  1.0  0.1302
  H  H116  1  0.440600  0.657900  0.591300  1.0  0.0591
  H  H117  1  0.336700  0.967000  0.465800  1.0  0.107
  H  H118  1  0.234100  0.067200  0.476300  1.0  0.1069
  H  H119  1  0.120800  0.046100  0.541400  1.0  0.1132
  H  H120  1  0.223900  0.826100  0.595200  1.0  0.099
  H  H121  1  0.002000  0.801700  0.790900  1.0  0.0904
  H  H122  1  0.909300  0.705800  0.835800  1.0  0.1162
  H  H123  1  0.794800  0.656000  0.780600  1.0  0.0776
  H  H124  1  0.859300  0.804300  0.639500  1.0  0.1035
  H  H125  1  0.714500  0.587400  0.715200  1.0  0.1322
  H  H126  1  0.614000  0.536900  0.649300  1.0  0.0848
  H  H127  1  0.639900  0.731700  0.542800  1.0  0.0695
  H  H128  1  0.735700  0.790100  0.606700  1.0  0.1234
  H  H129  1  0.026500  0.741600  0.613400  1.0  0.3238
  H  H130  1  0.105800  0.743000  0.646900  1.0  0.3083
  H  H131  1  0.504800  0.256700  0.929300  1.0  0.0618
  H  H132  1  0.596500  0.146700  0.941100  1.0  0.1265
  H  H133  1  0.654500  0.235900  0.106700  1.0  0.1307
  H  H134  1  0.559400  0.342100  0.091300  1.0  0.0585
  H  H135  1  0.663300  0.033000  0.965800  1.0  0.1066
  H  H136  1  0.765900  0.932800  0.976300  1.0  0.107
  H  H137  1  0.879200  0.953900  0.041400  1.0  0.1131
  H  H138  1  0.776100  0.173900  0.095200  1.0  0.0989
  H  H139  1  0.998000  0.198300  0.290900  1.0  0.0905
  H  H140  1  0.090700  0.294200  0.335800  1.0  0.1159
  H  H141  1  0.205200  0.344000  0.280600  1.0  0.0779
  H  H142  1  0.140700  0.195700  0.139500  1.0  0.1039
  H  H143  1  0.285500  0.412600  0.215200  1.0  0.1329
  H  H144  1  0.386000  0.463100  0.149300  1.0  0.0843
  H  H145  1  0.360100  0.268300  0.042800  1.0  0.0696
  H  H146  1  0.264300  0.209900  0.106700  1.0  0.1233
  H  H147  1  0.973500  0.258400  0.113400  1.0  0.3236
  H  H148  1  0.894200  0.257000  0.146900  1.0  0.3076
  C  C149  1  0.747100  0.464300  0.534500  1.0  0.1706
  C  C150  1  0.813200  0.408200  0.527900  1.0  -0.2103
  C  C151  1  0.820400  0.359300  0.476200  1.0  0.1112
  C  C152  1  0.760800  0.374400  0.430400  1.0  -0.1921
  C  C153  1  0.697000  0.432200  0.440000  1.0  0.1785
  C  C154  1  0.886000  0.292900  0.469900  1.0  0.007
  C  C155  1  0.958700  0.293400  0.506000  1.0  -0.1014
  C  C156  1  0.018000  0.231100  0.500400  1.0  -0.0673
  C  C157  1  0.006300  0.163800  0.461000  1.0  -0.0692
  C  C158  1  0.933700  0.161300  0.424700  1.0  -0.0215
  C  C159  1  0.874200  0.225700  0.429200  1.0  -0.0989
  C  C160  1  0.925000  0.091600  0.381300  1.0  0.2512
  C  C161  1  0.874400  0.995500  0.319700  1.0  0.2446
  C  C162  1  0.812700  0.938700  0.289100  1.0  -0.0469
  C  C163  1  0.783000  0.954800  0.230600  1.0  -0.0473
  C  C164  1  0.724900  0.899800  0.204000  1.0  -0.0787
  C  C165  1  0.695400  0.830700  0.237000  1.0  -0.0711
  C  C166  1  0.724200  0.815100  0.295900  1.0  0.0046
  C  C167  1  0.783800  0.869700  0.321200  1.0  -0.112
  C  C168  1  0.693300  0.742700  0.333400  1.0  0.1142
  C  C169  1  0.617300  0.701500  0.320400  1.0  -0.1887
  C  C170  1  0.587000  0.641300  0.360500  1.0  0.1664
  C  C171  1  0.701400  0.656000  0.422500  1.0  0.1557
  C  C172  1  0.736600  0.714500  0.384700  1.0  -0.2097
  C  C173  1  0.252900  0.535700  0.034500  1.0  0.1711
  C  C174  1  0.186800  0.591800  0.027900  1.0  -0.2099
  C  C175  1  0.179600  0.640700  0.976200  1.0  0.1118
  C  C176  1  0.239200  0.625600  0.930400  1.0  -0.1912
  C  C177  1  0.303000  0.567800  0.940000  1.0  0.1783
  C  C178  1  0.114000  0.707100  0.969900  1.0  0.0074
  C  C179  1  0.041300  0.706600  0.006000  1.0  -0.1015
  C  C180  1  0.982000  0.768900  0.000400  1.0  -0.068
  C  C181  1  0.993700  0.836200  0.961000  1.0  -0.0663
  C  C182  1  0.066300  0.838700  0.924700  1.0  -0.0211
  C  C183  1  0.125800  0.774300  0.929200  1.0  -0.0994
  C  C184  1  0.075000  0.908400  0.881300  1.0  0.2513
  C  C185  1  0.125600  0.004500  0.819700  1.0  0.2449
  C  C186  1  0.187300  0.061300  0.789100  1.0  -0.0466
  C  C187  1  0.217000  0.045200  0.730600  1.0  -0.0444
  C  C188  1  0.275100  0.100200  0.704000  1.0  -0.0797
  C  C189  1  0.304600  0.169300  0.737000  1.0  -0.0711
  C  C190  1  0.275800  0.184900  0.795900  1.0  0.004
  C  C191  1  0.216200  0.130300  0.821200  1.0  -0.1114
  C  C192  1  0.306700  0.257300  0.833400  1.0  0.1137
  C  C193  1  0.382700  0.298500  0.820400  1.0  -0.1888
  C  C194  1  0.413000  0.358700  0.860500  1.0  0.1659
  C  C195  1  0.298600  0.344000  0.922500  1.0  0.1552
  C  C196  1  0.263400  0.285500  0.884700  1.0  -0.209
  C  C197  1  0.035700  0.247100  0.784500  1.0  0.1704
  C  C198  1  0.091800  0.313200  0.777900  1.0  -0.2113
  C  C199  1  0.140700  0.320400  0.726200  1.0  0.113
  C  C200  1  0.125600  0.260800  0.680400  1.0  -0.1922
  C  C201  1  0.067800  0.197000  0.690000  1.0  0.1772
  C  C202  1  0.207100  0.386000  0.719900  1.0  0.0086
  C  C203  1  0.206600  0.458700  0.756000  1.0  -0.1007
  C  C204  1  0.268900  0.518000  0.750400  1.0  -0.0644
  C  C205  1  0.336200  0.506300  0.711000  1.0  -0.0684
  C  C206  1  0.338700  0.433700  0.674700  1.0  -0.0226
  C  C207  1  0.274300  0.374200  0.679200  1.0  -0.0975
  C  C208  1  0.408400  0.425000  0.631300  1.0  0.2517
  C  C209  1  0.504500  0.374400  0.569700  1.0  0.2465
  C  C210  1  0.561300  0.312700  0.539100  1.0  -0.047
  C  C211  1  0.545200  0.283000  0.480600  1.0  -0.0491
  C  C212  1  0.600200  0.224900  0.454000  1.0  -0.0788
  C  C213  1  0.669300  0.195400  0.487000  1.0  -0.0702
  C  C214  1  0.684900  0.224200  0.545900  1.0  0.0041
  C  C215  1  0.630300  0.283800  0.571200  1.0  -0.1126
  C  C216  1  0.757300  0.193300  0.583400  1.0  0.1141
  C  C217  1  0.798500  0.117300  0.570400  1.0  -0.1907
  C  C218  1  0.858700  0.087000  0.610500  1.0  0.1649
  C  C219  1  0.844000  0.201400  0.672500  1.0  0.1538
  C  C220  1  0.785500  0.236600  0.634700  1.0  -0.2088
  C  C221  1  0.964300  0.752900  0.284500  1.0  0.1708
  C  C222  1  0.908200  0.686800  0.277900  1.0  -0.2107
  C  C223  1  0.859300  0.679600  0.226200  1.0  0.1119
  C  C224  1  0.874400  0.739200  0.180400  1.0  -0.1919
  C  C225  1  0.932200  0.803000  0.190000  1.0  0.1787
  C  C226  1  0.792900  0.614000  0.219900  1.0  0.0069
  C  C227  1  0.793400  0.541300  0.256000  1.0  -0.101
  C  C228  1  0.731100  0.482000  0.250400  1.0  -0.0646
  C  C229  1  0.663800  0.493700  0.211000  1.0  -0.0677
  C  C230  1  0.661300  0.566300  0.174700  1.0  -0.0222
  C  C231  1  0.725700  0.625800  0.179200  1.0  -0.0982
  C  C232  1  0.591600  0.575000  0.131300  1.0  0.2522
  C  C233  1  0.495500  0.625600  0.069700  1.0  0.2469
  C  C234  1  0.438700  0.687300  0.039100  1.0  -0.0465
  C  C235  1  0.454800  0.717000  0.980600  1.0  -0.0499
  C  C236  1  0.399800  0.775100  0.954000  1.0  -0.079
  C  C237  1  0.330700  0.804600  0.987000  1.0  -0.0703
  C  C238  1  0.315100  0.775800  0.045900  1.0  0.004
  C  C239  1  0.369700  0.716200  0.071200  1.0  -0.1131
  C  C240  1  0.242700  0.806700  0.083400  1.0  0.1134
  C  C241  1  0.201500  0.882700  0.070400  1.0  -0.1907
  C  C242  1  0.141300  0.913000  0.110500  1.0  0.1651
  C  C243  1  0.156000  0.798600  0.172500  1.0  0.1538
  C  C244  1  0.214500  0.763400  0.134700  1.0  -0.2084
  C  C245  1  0.752900  0.964300  0.715500  1.0  0.1702
  C  C246  1  0.686800  0.908200  0.722100  1.0  -0.2097
  C  C247  1  0.679600  0.859300  0.773800  1.0  0.1119
  C  C248  1  0.739200  0.874400  0.819600  1.0  -0.1917
  C  C249  1  0.803000  0.932200  0.810000  1.0  0.179
  C  C250  1  0.614000  0.792900  0.780100  1.0  0.0076
  C  C251  1  0.541300  0.793400  0.744000  1.0  -0.1004
  C  C252  1  0.482000  0.731100  0.749600  1.0  -0.0682
  C  C253  1  0.493700  0.663800  0.789000  1.0  -0.0659
  C  C254  1  0.566300  0.661300  0.825300  1.0  -0.0217
  C  C255  1  0.625800  0.725700  0.820800  1.0  -0.0993
  C  C256  1  0.575000  0.591600  0.868700  1.0  0.2513
  C  C257  1  0.625600  0.495500  0.930300  1.0  0.2442
  C  C258  1  0.687300  0.438700  0.960900  1.0  -0.0465
  C  C259  1  0.717000  0.454800  0.019400  1.0  -0.0453
  C  C260  1  0.775100  0.399800  0.046000  1.0  -0.0778
  C  C261  1  0.804600  0.330700  0.013000  1.0  -0.0719
  C  C262  1  0.775800  0.315100  0.954100  1.0  0.0049
  C  C263  1  0.716200  0.369700  0.928800  1.0  -0.1118
  C  C264  1  0.806700  0.242700  0.916600  1.0  0.1145
  C  C265  1  0.882700  0.201500  0.929600  1.0  -0.1883
  C  C266  1  0.913000  0.141300  0.889500  1.0  0.166
  C  C267  1  0.798600  0.156000  0.827500  1.0  0.1557
  C  C268  1  0.763400  0.214500  0.865300  1.0  -0.2093
  C  C269  1  0.247100  0.035700  0.215500  1.0  0.1701
  C  C270  1  0.313200  0.091800  0.222100  1.0  -0.2101
  C  C271  1  0.320400  0.140700  0.273800  1.0  0.1114
  C  C272  1  0.260800  0.125600  0.319600  1.0  -0.1914
  C  C273  1  0.197000  0.067800  0.310000  1.0  0.1795
  C  C274  1  0.386000  0.207100  0.280100  1.0  0.0069
  C  C275  1  0.458700  0.206600  0.244000  1.0  -0.1018
  C  C276  1  0.518000  0.268900  0.249600  1.0  -0.0676
  C  C277  1  0.506300  0.336200  0.289000  1.0  -0.0685
  C  C278  1  0.433700  0.338700  0.325300  1.0  -0.0213
  C  C279  1  0.374200  0.274300  0.320800  1.0  -0.0987
  C  C280  1  0.425000  0.408400  0.368700  1.0  0.2513
  C  C281  1  0.374400  0.504500  0.430300  1.0  0.2443
  C  C282  1  0.312700  0.561300  0.460900  1.0  -0.0478
  C  C283  1  0.283000  0.545200  0.519400  1.0  -0.0459
  C  C284  1  0.224900  0.600200  0.546000  1.0  -0.0779
  C  C285  1  0.195400  0.669300  0.513000  1.0  -0.0704
  C  C286  1  0.224200  0.684900  0.454100  1.0  0.0056
  C  C287  1  0.283800  0.630300  0.428800  1.0  -0.1126
  C  C288  1  0.193300  0.757300  0.416600  1.0  0.1142
  C  C289  1  0.117300  0.798500  0.429600  1.0  -0.188
  C  C290  1  0.087000  0.858700  0.389500  1.0  0.1667
  C  C291  1  0.201400  0.844000  0.327500  1.0  0.1555
  C  C292  1  0.236600  0.785500  0.365300  1.0  -0.2106
  C  C293  1  0.464300  0.747100  0.465500  1.0  0.1709
  C  C294  1  0.408200  0.813200  0.472100  1.0  -0.2103
  C  C295  1  0.359300  0.820400  0.523800  1.0  0.1115
  C  C296  1  0.374400  0.760800  0.569600  1.0  -0.1914
  C  C297  1  0.432200  0.697000  0.560000  1.0  0.1787
  C  C298  1  0.292900  0.886000  0.530100  1.0  0.0073
  C  C299  1  0.293400  0.958700  0.494000  1.0  -0.1004
  C  C300  1  0.231100  0.018000  0.499600  1.0  -0.0642
  C  C301  1  0.163800  0.006300  0.539000  1.0  -0.0665
  C  C302  1  0.161300  0.933700  0.575300  1.0  -0.0225
  C  C303  1  0.225700  0.874200  0.570800  1.0  -0.098
  C  C304  1  0.091600  0.925000  0.618700  1.0  0.2518
  C  C305  1  0.995500  0.874400  0.680300  1.0  0.2462
  C  C306  1  0.938700  0.812700  0.710900  1.0  -0.0469
  C  C307  1  0.954800  0.783000  0.769400  1.0  -0.0492
  C  C308  1  0.899800  0.724900  0.796000  1.0  -0.078
  C  C309  1  0.830700  0.695400  0.763000  1.0  -0.0705
  C  C310  1  0.815100  0.724200  0.704100  1.0  0.0066
  C  C311  1  0.869700  0.783800  0.678800  1.0  -0.1136
  C  C312  1  0.742700  0.693300  0.666667  1.0  0.1028
  C  C313  1  0.701500  0.617300  0.679600  1.0  -0.1893
  C  C314  1  0.641300  0.587000  0.639500  1.0  0.164
  C  C315  1  0.656000  0.701400  0.577500  1.0  0.1541
  C  C316  1  0.714500  0.736600  0.615300  1.0  -0.2096
  C  C317  1  0.535700  0.252900  0.965500  1.0  0.1699
  C  C318  1  0.591800  0.186800  0.972100  1.0  -0.2114
  C  C319  1  0.640700  0.179600  0.023800  1.0  0.1132
  C  C320  1  0.625600  0.239200  0.069600  1.0  -0.1918
  C  C321  1  0.567800  0.303000  0.060000  1.0  0.1778
  C  C322  1  0.707100  0.114000  0.030100  1.0  0.0075
  C  C323  1  0.706600  0.041300  0.994000  1.0  -0.1015
  C  C324  1  0.768900  0.982000  0.999600  1.0  -0.0647
  C  C325  1  0.836200  0.993700  0.039000  1.0  -0.0684
  C  C326  1  0.838700  0.066300  0.075300  1.0  -0.0225
  C  C327  1  0.774300  0.125800  0.070800  1.0  -0.0977
  C  C328  1  0.908400  0.075000  0.118700  1.0  0.252
  C  C329  1  0.004500  0.125600  0.180300  1.0  0.2461
  C  C330  1  0.061300  0.187300  0.210900  1.0  -0.0473
  C  C331  1  0.045200  0.217000  0.269400  1.0  -0.0497
  C  C332  1  0.100200  0.275100  0.296000  1.0  -0.077
  C  C333  1  0.169300  0.304600  0.263000  1.0  -0.071
  C  C334  1  0.184900  0.275800  0.204100  1.0  0.0049
  C  C335  1  0.130300  0.216200  0.178800  1.0  -0.1137
  C  C336  1  0.257300  0.306700  0.166600  1.0  0.1147
  C  C337  1  0.298500  0.382700  0.179600  1.0  -0.1905
  C  C338  1  0.358700  0.413000  0.139500  1.0  0.1649
  C  C339  1  0.344000  0.298600  0.077500  1.0  0.1539
  C  C340  1  0.285500  0.263400  0.115300  1.0  -0.2096
  N  N341  1  0.688500  0.476300  0.491300  1.0  -0.3661
  N  N342  1  0.989000  0.054200  0.354700  1.0  -0.2982
  N  N343  1  0.956100  0.993200  0.316200  1.0  -0.2405
  N  N344  1  0.851600  0.056100  0.360100  1.0  0.099
  N  N345  1  0.769600  0.074600  0.381000  1.0  -0.5614
  N  N346  1  0.626200  0.619900  0.413200  1.0  -0.3503
  N  N347  1  0.311500  0.523700  0.991300  1.0  -0.3662
  N  N348  1  0.011000  0.945800  0.854700  1.0  -0.2978
  N  N349  1  0.043900  0.006800  0.816200  1.0  -0.2402
  N  N350  1  0.148400  0.943900  0.860100  1.0  0.0997
  N  N351  1  0.230400  0.925400  0.881000  1.0  -0.561
  N  N352  1  0.373800  0.380100  0.913200  1.0  -0.3501
  N  N353  1  0.023700  0.188500  0.741300  1.0  -0.3658
  N  N354  1  0.445800  0.489000  0.604700  1.0  -0.2964
  N  N355  1  0.506800  0.456100  0.566200  1.0  -0.2407
  N  N356  1  0.443900  0.351600  0.610100  1.0  0.0996
  N  N357  1  0.425400  0.269600  0.631000  1.0  -0.5611
  N  N358  1  0.880100  0.126200  0.663200  1.0  -0.3492
  N  N359  1  0.976300  0.811500  0.241300  1.0  -0.3654
  N  N360  1  0.554200  0.511000  0.104700  1.0  -0.2964
  N  N361  1  0.493200  0.543900  0.066200  1.0  -0.2402
  N  N362  1  0.556100  0.648400  0.110100  1.0  0.0997
  N  N363  1  0.574600  0.730400  0.131000  1.0  -0.5615
  N  N364  1  0.119900  0.873800  0.163200  1.0  -0.3496
  N  N365  1  0.811500  0.976300  0.758700  1.0  -0.367
  N  N366  1  0.511000  0.554200  0.895300  1.0  -0.2974
  N  N367  1  0.543900  0.493200  0.933800  1.0  -0.2409
  N  N368  1  0.648400  0.556100  0.889900  1.0  0.0995
  N  N369  1  0.730400  0.574600  0.869000  1.0  -0.5611
  N  N370  1  0.873800  0.119900  0.836800  1.0  -0.3502
  N  N371  1  0.188500  0.023700  0.258700  1.0  -0.3653
  N  N372  1  0.489000  0.445800  0.395300  1.0  -0.2979
  N  N373  1  0.456100  0.506800  0.433800  1.0  -0.2402
  N  N374  1  0.351600  0.443900  0.389900  1.0  0.0988
  N  N375  1  0.269600  0.425400  0.369000  1.0  -0.5615
  N  N376  1  0.126200  0.880100  0.336800  1.0  -0.3509
  N  N377  1  0.476300  0.688500  0.508700  1.0  -0.3653
  N  N378  1  0.054200  0.989000  0.645300  1.0  -0.2959
  N  N379  1  0.993200  0.956100  0.683800  1.0  -0.2405
  N  N380  1  0.056100  0.851600  0.639900  1.0  0.0997
  N  N381  1  0.074600  0.769600  0.619000  1.0  -0.5613
  N  N382  1  0.619900  0.626200  0.586800  1.0  -0.3502
  N  N383  1  0.523700  0.311500  0.008700  1.0  -0.3657
  N  N384  1  0.945800  0.011000  0.145300  1.0  -0.2965
  N  N385  1  0.006800  0.043900  0.183800  1.0  -0.2398
  N  N386  1  0.943900  0.148400  0.139900  1.0  0.0995
  N  N387  1  0.925400  0.230400  0.119000  1.0  -0.5615
  N  N388  1  0.380100  0.373800  0.086800  1.0  -0.3493
  Cl  Cl389  1  0.626530  0.373470  0.750000  1.0  1.2937
  Cl  Cl390  1  0.373470  0.626530  0.250000  1.0  1.2948
  Cl  Cl391  1  0.126530  0.126530  0.000000  1.0  1.2899
  Cl  Cl392  1  0.873470  0.873470  0.500000  1.0  1.2989
  Cl  Cl393  1  0.729990  0.729990  0.000000  1.0  1.2658
  Cl  Cl394  1  0.270010  0.270010  0.500000  1.0  1.2649
  Cl  Cl395  1  0.770010  0.229990  0.250000  1.0  1.2643
  Cl  Cl396  1  0.229990  0.770010  0.750000  1.0  1.2655
  O  O397  1  0.631700  0.443400  0.787800  1.0  -0.5394
  O  O398  1  0.667500  0.405800  0.699500  1.0  -0.4873
  O  O399  1  0.556600  0.368300  0.712200  1.0  -0.5392
  O  O400  1  0.594200  0.332500  0.800500  1.0  -0.4895
  O  O401  1  0.368300  0.556600  0.287800  1.0  -0.5399
  O  O402  1  0.332500  0.594200  0.199500  1.0  -0.4875
  O  O403  1  0.443400  0.631700  0.212200  1.0  -0.5399
  O  O404  1  0.405800  0.667500  0.300500  1.0  -0.4915
  O  O405  1  0.056600  0.131700  0.037800  1.0  -0.5398
  O  O406  1  0.094200  0.167500  0.949500  1.0  -0.4872
  O  O407  1  0.131700  0.056600  0.962200  1.0  -0.5393
  O  O408  1  0.167500  0.094200  0.050500  1.0  -0.4894
  O  O409  1  0.943400  0.868300  0.537800  1.0  -0.5401
  O  O410  1  0.905800  0.832500  0.449500  1.0  -0.488
  O  O411  1  0.868300  0.943400  0.462200  1.0  -0.5391
  O  O412  1  0.832500  0.905800  0.550500  1.0  -0.4892
  O  O413  1  0.763100  0.766000  0.052800  1.0  -0.5177
  O  O414  1  0.783100  0.645200  0.995800  1.0  -0.5363
  O  O415  1  0.766000  0.763100  0.947200  1.0  -0.5175
  O  O416  1  0.645200  0.783100  0.004200  1.0  -0.535
  O  O417  1  0.236900  0.234000  0.552800  1.0  -0.518
  O  O418  1  0.216900  0.354800  0.495800  1.0  -0.5353
  O  O419  1  0.234000  0.236900  0.447200  1.0  -0.5179
  O  O420  1  0.354800  0.216900  0.504200  1.0  -0.5366
  O  O421  1  0.734000  0.263100  0.302800  1.0  -0.5178
  O  O422  1  0.854800  0.283100  0.245800  1.0  -0.5357
  O  O423  1  0.736900  0.266000  0.197200  1.0  -0.5176
  O  O424  1  0.716900  0.145200  0.254200  1.0  -0.5366
  O  O425  1  0.266000  0.736900  0.802800  1.0  -0.5182
  O  O426  1  0.145200  0.716900  0.745800  1.0  -0.5347
  O  O427  1  0.263100  0.734000  0.697200  1.0  -0.5186
  O  O428  1  0.283100  0.854800  0.754200  1.0  -0.5358
