# generated using pymatgen
data_CdH36C48N12(ClO4)2
_symmetry_space_group_name_H-M   'P 1'
_cell_length_a   15.80290000
_cell_length_b   15.80290000
_cell_length_c   21.84500000
_cell_angle_alpha   90.00000000
_cell_angle_beta   90.00000000
_cell_angle_gamma   90.00000000
_symmetry_Int_Tables_number   1
_chemical_formula_structural   CdH36C48N12(ClO4)2
_chemical_formula_sum   'Cd4 H144 C192 N48 Cl8 O32'
_cell_volume   5455.38785952
_cell_formula_units_Z   4
loop_
 _symmetry_equiv_pos_site_id
 _symmetry_equiv_pos_as_xyz
  1  'x, y, z'
loop_
 _atom_site_type_symbol
 _atom_site_label
 _atom_site_symmetry_multiplicity
 _atom_site_fract_x
 _atom_site_fract_y
 _atom_site_fract_z
 _atom_site_occupancy
 _atom_site_charge
  Cd  Cd1  1  0.059490  0.940510  0.250000  1.0  0.7945
  Cd  Cd2  1  0.940510  0.059490  0.750000  1.0  0.7946
  Cd  Cd3  1  0.559490  0.559490  0.500000  1.0  0.7944
  Cd  Cd4  1  0.440510  0.440510  0.000000  1.0  0.7947
  H  H5  1  0.743000  0.494600  0.570400  1.0  0.0702
  H  H6  1  0.853200  0.403200  0.558100  1.0  0.1312
  H  H7  1  0.763500  0.345900  0.393300  1.0  0.1337
  H  H8  1  0.657700  0.440700  0.408900  1.0  0.0672
  H  H9  1  0.967100  0.336400  0.533300  1.0  0.1152
  H  H10  1  0.066800  0.233800  0.522500  1.0  0.1142
  H  H11  1  0.046100  0.120900  0.458300  1.0  0.1208
  H  H12  1  0.825100  0.223900  0.405200  1.0  0.1077
  H  H13  1  0.801800  0.001500  0.209500  1.0  0.1072
  H  H14  1  0.705800  0.908100  0.165000  1.0  0.1208
  H  H15  1  0.656000  0.793800  0.219600  1.0  0.0875
  H  H16  1  0.803000  0.860400  0.360700  1.0  0.1115
  H  H17  1  0.586500  0.713900  0.285200  1.0  0.1421
  H  H18  1  0.535800  0.613900  0.351400  1.0  0.086
  H  H19  1  0.731800  0.640200  0.457100  1.0  0.0794
  H  H20  1  0.789400  0.736000  0.393700  1.0  0.1322
  H  H21  1  0.741400  0.026300  0.386400  1.0  0.3324
  H  H22  1  0.742700  0.105600  0.352900  1.0  0.3221
  H  H23  1  0.257000  0.505400  0.070400  1.0  0.0691
  H  H24  1  0.146800  0.596800  0.058100  1.0  0.13
  H  H25  1  0.236500  0.654100  0.893300  1.0  0.1346
  H  H26  1  0.342300  0.559300  0.908900  1.0  0.0673
  H  H27  1  0.032900  0.663600  0.033300  1.0  0.1149
  H  H28  1  0.933200  0.766200  0.022500  1.0  0.1144
  H  H29  1  0.953900  0.879100  0.958300  1.0  0.1209
  H  H30  1  0.174900  0.776100  0.905200  1.0  0.1074
  H  H31  1  0.198200  0.998500  0.709500  1.0  0.1068
  H  H32  1  0.294200  0.091900  0.665000  1.0  0.1186
  H  H33  1  0.344000  0.206200  0.719600  1.0  0.0878
  H  H34  1  0.197000  0.139600  0.860700  1.0  0.1116
  H  H35  1  0.413500  0.286100  0.785200  1.0  0.1422
  H  H36  1  0.464200  0.386100  0.851400  1.0  0.0863
  H  H37  1  0.268200  0.359800  0.957100  1.0  0.0829
  H  H38  1  0.210600  0.264000  0.893700  1.0  0.1317
  H  H39  1  0.258600  0.973700  0.886400  1.0  0.3325
  H  H40  1  0.257300  0.894400  0.852900  1.0  0.3218
  H  H41  1  0.005400  0.243000  0.820400  1.0  0.07
  H  H42  1  0.096800  0.353200  0.808100  1.0  0.1311
  H  H43  1  0.154100  0.263500  0.643300  1.0  0.1338
  H  H44  1  0.059300  0.157700  0.658900  1.0  0.0678
  H  H45  1  0.163600  0.467100  0.783300  1.0  0.115
  H  H46  1  0.266200  0.566800  0.772500  1.0  0.1145
  H  H47  1  0.379100  0.546100  0.708300  1.0  0.1205
  H  H48  1  0.276100  0.325100  0.655200  1.0  0.1084
  H  H49  1  0.498500  0.301800  0.459500  1.0  0.1076
  H  H50  1  0.591900  0.205800  0.415000  1.0  0.1215
  H  H51  1  0.706200  0.156000  0.469600  1.0  0.0878
  H  H52  1  0.639600  0.303000  0.610700  1.0  0.1115
  H  H53  1  0.786100  0.086500  0.535200  1.0  0.1429
  H  H54  1  0.886100  0.035800  0.601400  1.0  0.086
  H  H55  1  0.859800  0.231800  0.707100  1.0  0.0812
  H  H56  1  0.764000  0.289400  0.643700  1.0  0.1321
  H  H57  1  0.473700  0.241400  0.636400  1.0  0.3339
  H  H58  1  0.394400  0.242700  0.602900  1.0  0.3219
  H  H59  1  0.994600  0.757000  0.320400  1.0  0.0694
  H  H60  1  0.903200  0.646800  0.308100  1.0  0.1292
  H  H61  1  0.845900  0.736500  0.143300  1.0  0.1327
  H  H62  1  0.940700  0.842300  0.158900  1.0  0.0676
  H  H63  1  0.836400  0.532900  0.283300  1.0  0.1149
  H  H64  1  0.733800  0.433200  0.272500  1.0  0.1147
  H  H65  1  0.620900  0.453900  0.208300  1.0  0.1209
  H  H66  1  0.723900  0.674900  0.155200  1.0  0.108
  H  H67  1  0.501500  0.698200  0.959500  1.0  0.1065
  H  H68  1  0.408100  0.794200  0.915000  1.0  0.1195
  H  H69  1  0.293800  0.844000  0.969600  1.0  0.0893
  H  H70  1  0.360400  0.697000  0.110700  1.0  0.1112
  H  H71  1  0.213900  0.913500  0.035200  1.0  0.1437
  H  H72  1  0.113900  0.964200  0.101400  1.0  0.0871
  H  H73  1  0.140200  0.768200  0.207100  1.0  0.0825
  H  H74  1  0.236000  0.710600  0.143700  1.0  0.1325
  H  H75  1  0.526300  0.758600  0.136400  1.0  0.3331
  H  H76  1  0.605600  0.757300  0.102900  1.0  0.3212
  H  H77  1  0.757000  0.994600  0.679600  1.0  0.0681
  H  H78  1  0.646800  0.903200  0.691900  1.0  0.129
  H  H79  1  0.736500  0.845900  0.856700  1.0  0.1334
  H  H80  1  0.842300  0.940700  0.841100  1.0  0.0671
  H  H81  1  0.532900  0.836400  0.716700  1.0  0.1155
  H  H82  1  0.433200  0.733800  0.727500  1.0  0.1146
  H  H83  1  0.453900  0.620900  0.791700  1.0  0.1208
  H  H84  1  0.674900  0.723900  0.844800  1.0  0.1077
  H  H85  1  0.698200  0.501500  0.040500  1.0  0.1074
  H  H86  1  0.794200  0.408100  0.085000  1.0  0.119
  H  H87  1  0.844000  0.293800  0.030400  1.0  0.0881
  H  H88  1  0.697000  0.360400  0.889300  1.0  0.1113
  H  H89  1  0.913500  0.213900  0.964800  1.0  0.1428
  H  H90  1  0.964200  0.113900  0.898600  1.0  0.0867
  H  H91  1  0.768200  0.140200  0.792900  1.0  0.0832
  H  H92  1  0.710600  0.236000  0.856300  1.0  0.1313
  H  H93  1  0.758600  0.526300  0.863600  1.0  0.331
  H  H94  1  0.757300  0.605600  0.897100  1.0  0.3211
  H  H95  1  0.243000  0.005400  0.179600  1.0  0.07
  H  H96  1  0.353200  0.096800  0.191900  1.0  0.1298
  H  H97  1  0.263500  0.154100  0.356700  1.0  0.1349
  H  H98  1  0.157700  0.059300  0.341100  1.0  0.067
  H  H99  1  0.467100  0.163600  0.216700  1.0  0.115
  H  H100  1  0.566800  0.266200  0.227500  1.0  0.1144
  H  H101  1  0.546100  0.379100  0.291700  1.0  0.1204
  H  H102  1  0.325100  0.276100  0.344800  1.0  0.1076
  H  H103  1  0.301800  0.498500  0.540500  1.0  0.1069
  H  H104  1  0.205800  0.591900  0.585000  1.0  0.1207
  H  H105  1  0.156000  0.706200  0.530400  1.0  0.0874
  H  H106  1  0.303000  0.639600  0.389300  1.0  0.1117
  H  H107  1  0.086500  0.786100  0.464800  1.0  0.1427
  H  H108  1  0.035800  0.886100  0.398600  1.0  0.0864
  H  H109  1  0.231800  0.859800  0.292900  1.0  0.0811
  H  H110  1  0.289400  0.764000  0.356300  1.0  0.1319
  H  H111  1  0.241400  0.473700  0.363600  1.0  0.3336
  H  H112  1  0.242700  0.394400  0.397100  1.0  0.321
  H  H113  1  0.494600  0.743000  0.429600  1.0  0.0689
  H  H114  1  0.403200  0.853200  0.441900  1.0  0.1293
  H  H115  1  0.345900  0.763500  0.606700  1.0  0.1322
  H  H116  1  0.440700  0.657700  0.591100  1.0  0.0678
  H  H117  1  0.336400  0.967100  0.466700  1.0  0.1152
  H  H118  1  0.233800  0.066800  0.477500  1.0  0.115
  H  H119  1  0.120900  0.046100  0.541700  1.0  0.1209
  H  H120  1  0.223900  0.825100  0.594800  1.0  0.1084
  H  H121  1  0.001500  0.801800  0.790500  1.0  0.1074
  H  H122  1  0.908100  0.705800  0.835000  1.0  0.1217
  H  H123  1  0.793800  0.656000  0.780400  1.0  0.0885
  H  H124  1  0.860400  0.803000  0.639300  1.0  0.1116
  H  H125  1  0.713900  0.586500  0.714800  1.0  0.1432
  H  H126  1  0.613900  0.535800  0.648600  1.0  0.0862
  H  H127  1  0.640200  0.731800  0.542900  1.0  0.0791
  H  H128  1  0.736000  0.789400  0.606300  1.0  0.1322
  H  H129  1  0.026300  0.741400  0.613600  1.0  0.3332
  H  H130  1  0.105600  0.742700  0.647100  1.0  0.3222
  H  H131  1  0.505400  0.257000  0.929600  1.0  0.0687
  H  H132  1  0.596800  0.146800  0.941900  1.0  0.1292
  H  H133  1  0.654100  0.236500  0.106700  1.0  0.1343
  H  H134  1  0.559300  0.342300  0.091100  1.0  0.0671
  H  H135  1  0.663600  0.032900  0.966700  1.0  0.1147
  H  H136  1  0.766200  0.933200  0.977500  1.0  0.1153
  H  H137  1  0.879100  0.953900  0.041700  1.0  0.1207
  H  H138  1  0.776100  0.174900  0.094800  1.0  0.1082
  H  H139  1  0.998500  0.198200  0.290500  1.0  0.1062
  H  H140  1  0.091900  0.294200  0.335000  1.0  0.1194
  H  H141  1  0.206200  0.344000  0.280400  1.0  0.0886
  H  H142  1  0.139600  0.197000  0.139300  1.0  0.1119
  H  H143  1  0.286100  0.413500  0.214800  1.0  0.1433
  H  H144  1  0.386100  0.464200  0.148600  1.0  0.0868
  H  H145  1  0.359800  0.268200  0.042900  1.0  0.0827
  H  H146  1  0.264000  0.210600  0.106300  1.0  0.1324
  H  H147  1  0.973700  0.258600  0.113600  1.0  0.3331
  H  H148  1  0.894400  0.257300  0.147100  1.0  0.3212
  C  C149  1  0.746900  0.464000  0.534200  1.0  0.18
  C  C150  1  0.813000  0.407900  0.527300  1.0  -0.1885
  C  C151  1  0.820500  0.359000  0.476100  1.0  0.0967
  C  C152  1  0.760300  0.374700  0.430400  1.0  -0.1962
  C  C153  1  0.696900  0.432200  0.440000  1.0  0.1905
  C  C154  1  0.885500  0.292800  0.469300  1.0  0.0125
  C  C155  1  0.958500  0.293100  0.505100  1.0  -0.1244
  C  C156  1  0.017500  0.230800  0.499400  1.0  -0.0807
  C  C157  1  0.006000  0.163900  0.460500  1.0  -0.0735
  C  C158  1  0.932900  0.160900  0.423900  1.0  -0.0158
  C  C159  1  0.873700  0.225600  0.429200  1.0  -0.1036
  C  C160  1  0.924700  0.091300  0.380900  1.0  0.2627
  C  C161  1  0.873800  0.995200  0.319600  1.0  0.2496
  C  C162  1  0.812400  0.938000  0.289600  1.0  -0.0231
  C  C163  1  0.783000  0.954300  0.230900  1.0  -0.0534
  C  C164  1  0.724800  0.898800  0.204700  1.0  -0.0934
  C  C165  1  0.695300  0.830100  0.237400  1.0  -0.0859
  C  C166  1  0.723400  0.814600  0.296500  1.0  0.0247
  C  C167  1  0.782900  0.870100  0.321300  1.0  -0.0966
  C  C168  1  0.692800  0.742300  0.334100  1.0  0.1042
  C  C169  1  0.616400  0.701000  0.320700  1.0  -0.1853
  C  C170  1  0.586300  0.641100  0.360900  1.0  0.1817
  C  C171  1  0.701400  0.656100  0.422500  1.0  0.1617
  C  C172  1  0.735900  0.714400  0.385000  1.0  -0.2161
  C  C173  1  0.253100  0.536000  0.034200  1.0  0.1798
  C  C174  1  0.187000  0.592100  0.027300  1.0  -0.1886
  C  C175  1  0.179500  0.641000  0.976100  1.0  0.0958
  C  C176  1  0.239700  0.625300  0.930400  1.0  -0.1953
  C  C177  1  0.303100  0.567800  0.940000  1.0  0.19
  C  C178  1  0.114500  0.707200  0.969300  1.0  0.0133
  C  C179  1  0.041500  0.706900  0.005100  1.0  -0.124
  C  C180  1  0.982500  0.769200  0.999400  1.0  -0.0866
  C  C181  1  0.994000  0.836100  0.960500  1.0  -0.066
  C  C182  1  0.067100  0.839100  0.923900  1.0  -0.0066
  C  C183  1  0.126300  0.774400  0.929200  1.0  -0.1048
  C  C184  1  0.075300  0.908700  0.880900  1.0  0.266
  C  C185  1  0.126200  0.004800  0.819600  1.0  0.2501
  C  C186  1  0.187600  0.062000  0.789600  1.0  -0.0228
  C  C187  1  0.217000  0.045700  0.730900  1.0  -0.051
  C  C188  1  0.275200  0.101200  0.704700  1.0  -0.0995
  C  C189  1  0.304700  0.169900  0.737400  1.0  -0.0861
  C  C190  1  0.276600  0.185400  0.796500  1.0  0.0239
  C  C191  1  0.217100  0.129900  0.821300  1.0  -0.0951
  C  C192  1  0.307200  0.257700  0.834100  1.0  0.1037
  C  C193  1  0.383600  0.299000  0.820700  1.0  -0.1852
  C  C194  1  0.413700  0.358900  0.860900  1.0  0.1812
  C  C195  1  0.298600  0.343900  0.922500  1.0  0.1612
  C  C196  1  0.264100  0.285600  0.885000  1.0  -0.2165
  C  C197  1  0.036000  0.246900  0.784200  1.0  0.1791
  C  C198  1  0.092100  0.313000  0.777300  1.0  -0.1893
  C  C199  1  0.141000  0.320500  0.726100  1.0  0.0973
  C  C200  1  0.125300  0.260300  0.680400  1.0  -0.1961
  C  C201  1  0.067800  0.196900  0.690000  1.0  0.189
  C  C202  1  0.207200  0.385500  0.719300  1.0  0.0148
  C  C203  1  0.206900  0.458500  0.755100  1.0  -0.1229
  C  C204  1  0.269200  0.517500  0.749400  1.0  -0.0819
  C  C205  1  0.336100  0.506000  0.710500  1.0  -0.0671
  C  C206  1  0.339100  0.432900  0.673900  1.0  -0.0126
  C  C207  1  0.274400  0.373700  0.679200  1.0  -0.1029
  C  C208  1  0.408700  0.424700  0.630900  1.0  0.2656
  C  C209  1  0.504800  0.373800  0.569600  1.0  0.2521
  C  C210  1  0.562000  0.312400  0.539600  1.0  -0.0236
  C  C211  1  0.545700  0.283000  0.480900  1.0  -0.056
  C  C212  1  0.601200  0.224800  0.454700  1.0  -0.1002
  C  C213  1  0.669900  0.195300  0.487400  1.0  -0.0853
  C  C214  1  0.685400  0.223400  0.546500  1.0  0.0241
  C  C215  1  0.629900  0.282900  0.571300  1.0  -0.0974
  C  C216  1  0.757700  0.192800  0.584100  1.0  0.1042
  C  C217  1  0.799000  0.116400  0.570700  1.0  -0.188
  C  C218  1  0.858900  0.086300  0.610900  1.0  0.1803
  C  C219  1  0.843900  0.201400  0.672500  1.0  0.1601
  C  C220  1  0.785600  0.235900  0.635000  1.0  -0.2147
  C  C221  1  0.964000  0.753100  0.284200  1.0  0.1792
  C  C222  1  0.907900  0.687000  0.277300  1.0  -0.1891
  C  C223  1  0.859000  0.679500  0.226100  1.0  0.0965
  C  C224  1  0.874700  0.739700  0.180400  1.0  -0.1961
  C  C225  1  0.932200  0.803100  0.190000  1.0  0.1905
  C  C226  1  0.792800  0.614500  0.219300  1.0  0.013
  C  C227  1  0.793100  0.541500  0.255100  1.0  -0.1226
  C  C228  1  0.730800  0.482500  0.249400  1.0  -0.0793
  C  C229  1  0.663900  0.494000  0.210500  1.0  -0.0706
  C  C230  1  0.660900  0.567100  0.173900  1.0  -0.0067
  C  C231  1  0.725600  0.626300  0.179200  1.0  -0.1022
  C  C232  1  0.591300  0.575300  0.130900  1.0  0.2648
  C  C233  1  0.495200  0.626200  0.069600  1.0  0.2522
  C  C234  1  0.438000  0.687600  0.039600  1.0  -0.0225
  C  C235  1  0.454300  0.717000  0.980900  1.0  -0.0577
  C  C236  1  0.398800  0.775200  0.954700  1.0  -0.0928
  C  C237  1  0.330100  0.804700  0.987400  1.0  -0.0841
  C  C238  1  0.314600  0.776600  0.046500  1.0  0.0245
  C  C239  1  0.370100  0.717100  0.071300  1.0  -0.0968
  C  C240  1  0.242300  0.807200  0.084100  1.0  0.1032
  C  C241  1  0.201000  0.883600  0.070700  1.0  -0.1877
  C  C242  1  0.141100  0.913700  0.110900  1.0  0.1798
  C  C243  1  0.156100  0.798600  0.172500  1.0  0.1601
  C  C244  1  0.214400  0.764100  0.135000  1.0  -0.2147
  C  C245  1  0.753100  0.964000  0.715800  1.0  0.1801
  C  C246  1  0.687000  0.907900  0.722700  1.0  -0.1878
  C  C247  1  0.679500  0.859000  0.773900  1.0  0.0963
  C  C248  1  0.739700  0.874700  0.819600  1.0  -0.1956
  C  C249  1  0.803100  0.932200  0.810000  1.0  0.1905
  C  C250  1  0.614500  0.792800  0.780700  1.0  0.0136
  C  C251  1  0.541500  0.793100  0.744900  1.0  -0.1227
  C  C252  1  0.482500  0.730800  0.750600  1.0  -0.0851
  C  C253  1  0.494000  0.663900  0.789500  1.0  -0.0658
  C  C254  1  0.567100  0.660900  0.826100  1.0  -0.0066
  C  C255  1  0.626300  0.725600  0.820800  1.0  -0.1047
  C  C256  1  0.575300  0.591300  0.869100  1.0  0.263
  C  C257  1  0.626200  0.495200  0.930400  1.0  0.2497
  C  C258  1  0.687600  0.438000  0.960400  1.0  -0.0222
  C  C259  1  0.717000  0.454300  0.019100  1.0  -0.0511
  C  C260  1  0.775200  0.398800  0.045300  1.0  -0.096
  C  C261  1  0.804700  0.330100  0.012600  1.0  -0.0865
  C  C262  1  0.776600  0.314600  0.953500  1.0  0.025
  C  C263  1  0.717100  0.370100  0.928700  1.0  -0.0944
  C  C264  1  0.807200  0.242300  0.915900  1.0  0.1045
  C  C265  1  0.883600  0.201000  0.929300  1.0  -0.1846
  C  C266  1  0.913700  0.141100  0.889100  1.0  0.1814
  C  C267  1  0.798600  0.156100  0.827500  1.0  0.1623
  C  C268  1  0.764100  0.214400  0.865000  1.0  -0.2127
  C  C269  1  0.246900  0.036000  0.215800  1.0  0.1786
  C  C270  1  0.313000  0.092100  0.222700  1.0  -0.1883
  C  C271  1  0.320500  0.141000  0.273900  1.0  0.0961
  C  C272  1  0.260300  0.125300  0.319600  1.0  -0.1954
  C  C273  1  0.196900  0.067800  0.310000  1.0  0.1914
  C  C274  1  0.385500  0.207200  0.280700  1.0  0.0129
  C  C275  1  0.458500  0.206900  0.244900  1.0  -0.124
  C  C276  1  0.517500  0.269200  0.250600  1.0  -0.083
  C  C277  1  0.506000  0.336100  0.289500  1.0  -0.0689
  C  C278  1  0.432900  0.339100  0.326100  1.0  -0.0122
  C  C279  1  0.373700  0.274400  0.320800  1.0  -0.1033
  C  C280  1  0.424700  0.408700  0.369100  1.0  0.264
  C  C281  1  0.373800  0.504800  0.430400  1.0  0.2495
  C  C282  1  0.312400  0.562000  0.460400  1.0  -0.0236
  C  C283  1  0.283000  0.545700  0.519100  1.0  -0.0519
  C  C284  1  0.224800  0.601200  0.545300  1.0  -0.0955
  C  C285  1  0.195300  0.669900  0.512600  1.0  -0.0857
  C  C286  1  0.223400  0.685400  0.453500  1.0  0.0251
  C  C287  1  0.282900  0.629900  0.428700  1.0  -0.0954
  C  C288  1  0.192800  0.757700  0.415900  1.0  0.1042
  C  C289  1  0.116400  0.799000  0.429300  1.0  -0.1846
  C  C290  1  0.086300  0.858900  0.389100  1.0  0.1816
  C  C291  1  0.201400  0.843900  0.327500  1.0  0.162
  C  C292  1  0.235900  0.785600  0.365000  1.0  -0.216
  C  C293  1  0.464000  0.746900  0.465800  1.0  0.1791
  C  C294  1  0.407900  0.813000  0.472700  1.0  -0.1881
  C  C295  1  0.359000  0.820500  0.523900  1.0  0.0963
  C  C296  1  0.374700  0.760300  0.569600  1.0  -0.1953
  C  C297  1  0.432200  0.696900  0.560000  1.0  0.1905
  C  C298  1  0.292800  0.885500  0.530700  1.0  0.0135
  C  C299  1  0.293100  0.958500  0.494900  1.0  -0.1229
  C  C300  1  0.230800  0.017500  0.500600  1.0  -0.0786
  C  C301  1  0.163900  0.006000  0.539500  1.0  -0.0655
  C  C302  1  0.160900  0.932900  0.576100  1.0  -0.0132
  C  C303  1  0.225600  0.873700  0.570800  1.0  -0.1028
  C  C304  1  0.091300  0.924700  0.619100  1.0  0.2603
  C  C305  1  0.995200  0.873800  0.680400  1.0  0.2519
  C  C306  1  0.938000  0.812400  0.710400  1.0  -0.0229
  C  C307  1  0.954300  0.783000  0.769100  1.0  -0.0553
  C  C308  1  0.898800  0.724800  0.795300  1.0  -0.0915
  C  C309  1  0.830100  0.695300  0.762600  1.0  -0.0854
  C  C310  1  0.814600  0.723400  0.703500  1.0  0.0249
  C  C311  1  0.870100  0.782900  0.678700  1.0  -0.0965
  C  C312  1  0.742300  0.692800  0.665900  1.0  0.1041
  C  C313  1  0.701000  0.616400  0.679300  1.0  -0.186
  C  C314  1  0.641100  0.586300  0.639100  1.0  0.181
  C  C315  1  0.656100  0.701400  0.577500  1.0  0.1603
  C  C316  1  0.714400  0.735900  0.615000  1.0  -0.2145
  C  C317  1  0.536000  0.253100  0.965800  1.0  0.1784
  C  C318  1  0.592100  0.187000  0.972700  1.0  -0.1893
  C  C319  1  0.641000  0.179500  0.023900  1.0  0.0969
  C  C320  1  0.625300  0.239700  0.069600  1.0  -0.1959
  C  C321  1  0.567800  0.303100  0.060000  1.0  0.1894
  C  C322  1  0.707200  0.114500  0.030700  1.0  0.0143
  C  C323  1  0.706900  0.041500  0.994900  1.0  -0.1233
  C  C324  1  0.769200  0.982500  0.000600  1.0  -0.0811
  C  C325  1  0.836100  0.994000  0.039500  1.0  -0.0695
  C  C326  1  0.839100  0.067100  0.076100  1.0  -0.0076
  C  C327  1  0.774400  0.126300  0.070800  1.0  -0.1026
  C  C328  1  0.908700  0.075300  0.119100  1.0  0.2666
  C  C329  1  0.004800  0.126200  0.180400  1.0  0.2517
  C  C330  1  0.062000  0.187600  0.210400  1.0  -0.023
  C  C331  1  0.045700  0.217000  0.269100  1.0  -0.0559
  C  C332  1  0.101200  0.275200  0.295300  1.0  -0.0955
  C  C333  1  0.169900  0.304700  0.262600  1.0  -0.0844
  C  C334  1  0.185400  0.276600  0.203500  1.0  0.0254
  C  C335  1  0.129900  0.217100  0.178700  1.0  -0.096
  C  C336  1  0.257700  0.307200  0.165900  1.0  0.1047
  C  C337  1  0.299000  0.383600  0.179300  1.0  -0.187
  C  C338  1  0.358900  0.413700  0.139100  1.0  0.1795
  C  C339  1  0.343900  0.298600  0.077500  1.0  0.161
  C  C340  1  0.285600  0.264100  0.115000  1.0  -0.2125
  N  N341  1  0.688500  0.476200  0.491100  1.0  -0.3569
  N  N342  1  0.988300  0.054300  0.354490  1.0  -0.2897
  N  N343  1  0.955500  0.993300  0.315900  1.0  -0.2175
  N  N344  1  0.851000  0.055900  0.359900  1.0  0.0908
  N  N345  1  0.769300  0.074400  0.380900  1.0  -0.5429
  N  N346  1  0.625600  0.619600  0.413050  1.0  -0.3483
  N  N347  1  0.311500  0.523800  0.991100  1.0  -0.3566
  N  N348  1  0.011700  0.945700  0.854490  1.0  -0.2918
  N  N349  1  0.044500  0.006700  0.815900  1.0  -0.2177
  N  N350  1  0.149000  0.944100  0.859900  1.0  0.0919
  N  N351  1  0.230700  0.925600  0.880900  1.0  -0.5418
  N  N352  1  0.374400  0.380400  0.913050  1.0  -0.3482
  N  N353  1  0.023800  0.188500  0.741100  1.0  -0.3564
  N  N354  1  0.445700  0.488300  0.604490  1.0  -0.291
  N  N355  1  0.506700  0.455500  0.565900  1.0  -0.2175
  N  N356  1  0.444100  0.351000  0.609900  1.0  0.0909
  N  N357  1  0.425600  0.269300  0.630900  1.0  -0.5424
  N  N358  1  0.880400  0.125600  0.663050  1.0  -0.3474
  N  N359  1  0.976200  0.811500  0.241100  1.0  -0.3559
  N  N360  1  0.554300  0.511700  0.104490  1.0  -0.2892
  N  N361  1  0.493300  0.544500  0.065900  1.0  -0.2174
  N  N362  1  0.555900  0.649000  0.109900  1.0  0.0919
  N  N363  1  0.574400  0.730700  0.130900  1.0  -0.5418
  N  N364  1  0.119600  0.874400  0.163050  1.0  -0.3479
  N  N365  1  0.811500  0.976200  0.758900  1.0  -0.3572
  N  N366  1  0.511700  0.554300  0.895510  1.0  -0.2914
  N  N367  1  0.544500  0.493300  0.934100  1.0  -0.218
  N  N368  1  0.649000  0.555900  0.890100  1.0  0.0929
  N  N369  1  0.730700  0.574400  0.869100  1.0  -0.5412
  N  N370  1  0.874400  0.119600  0.836950  1.0  -0.3488
  N  N371  1  0.188500  0.023800  0.258900  1.0  -0.3562
  N  N372  1  0.488300  0.445700  0.395510  1.0  -0.2914
  N  N373  1  0.455500  0.506700  0.434100  1.0  -0.2173
  N  N374  1  0.351000  0.444100  0.390100  1.0  0.091
  N  N375  1  0.269300  0.425600  0.369100  1.0  -0.5415
  N  N376  1  0.125600  0.880400  0.336950  1.0  -0.3493
  N  N377  1  0.476200  0.688500  0.508900  1.0  -0.3561
  N  N378  1  0.054300  0.988300  0.645510  1.0  -0.288
  N  N379  1  0.993300  0.955500  0.684100  1.0  -0.2171
  N  N380  1  0.055900  0.851000  0.640100  1.0  0.0914
  N  N381  1  0.074400  0.769300  0.619100  1.0  -0.5411
  N  N382  1  0.619600  0.625600  0.586950  1.0  -0.3489
  N  N383  1  0.523800  0.311500  0.008900  1.0  -0.356
  N  N384  1  0.945700  0.011700  0.145510  1.0  -0.2907
  N  N385  1  0.006700  0.044500  0.184100  1.0  -0.2168
  N  N386  1  0.944100  0.149000  0.140100  1.0  0.0911
  N  N387  1  0.925600  0.230700  0.119100  1.0  -0.5414
  N  N388  1  0.380400  0.374400  0.086950  1.0  -0.3482
  Cl  Cl389  1  0.626440  0.373560  0.750000  1.0  1.3514
  Cl  Cl390  1  0.373560  0.626440  0.250000  1.0  1.3506
  Cl  Cl391  1  0.126440  0.126440  0.000000  1.0  1.3507
  Cl  Cl392  1  0.873560  0.873560  0.500000  1.0  1.3513
  Cl  Cl393  1  0.729950  0.729950  0.000000  1.0  1.0933
  Cl  Cl394  1  0.270050  0.270050  0.500000  1.0  1.093
  Cl  Cl395  1  0.770050  0.229950  0.250000  1.0  1.0928
  Cl  Cl396  1  0.229950  0.770050  0.750000  1.0  1.0933
  O  O397  1  0.629600  0.440900  0.789100  1.0  -0.5412
  O  O398  1  0.673300  0.406200  0.698900  1.0  -0.6175
  O  O399  1  0.559100  0.370400  0.710900  1.0  -0.5409
  O  O400  1  0.593800  0.326700  0.801100  1.0  -0.6176
  O  O401  1  0.370400  0.559100  0.289100  1.0  -0.5424
  O  O402  1  0.326700  0.593800  0.198900  1.0  -0.6174
  O  O403  1  0.440900  0.629600  0.210900  1.0  -0.5422
  O  O404  1  0.406200  0.673300  0.301100  1.0  -0.6172
  O  O405  1  0.059100  0.129600  0.039100  1.0  -0.541
  O  O406  1  0.093800  0.173300  0.948900  1.0  -0.6173
  O  O407  1  0.129600  0.059100  0.960900  1.0  -0.5415
  O  O408  1  0.173300  0.093800  0.051100  1.0  -0.6172
  O  O409  1  0.940900  0.870400  0.539100  1.0  -0.5424
  O  O410  1  0.906200  0.826700  0.448900  1.0  -0.6173
  O  O411  1  0.870400  0.940900  0.460900  1.0  -0.5419
  O  O412  1  0.826700  0.906200  0.551100  1.0  -0.6175
  O  O413  1  0.763700  0.765300  0.052900  1.0  -0.5355
  O  O414  1  0.777900  0.645000  0.994000  1.0  -0.584
  O  O415  1  0.765300  0.763700  0.947100  1.0  -0.536
  O  O416  1  0.645000  0.777900  0.006000  1.0  -0.5809
  O  O417  1  0.236300  0.234700  0.552900  1.0  -0.536
  O  O418  1  0.222100  0.355000  0.494000  1.0  -0.5834
  O  O419  1  0.234700  0.236300  0.447100  1.0  -0.5361
  O  O420  1  0.355000  0.222100  0.506000  1.0  -0.584
  O  O421  1  0.734700  0.263700  0.302900  1.0  -0.5351
  O  O422  1  0.855000  0.277900  0.244000  1.0  -0.5826
  O  O423  1  0.736300  0.265300  0.197100  1.0  -0.5358
  O  O424  1  0.722100  0.145000  0.256000  1.0  -0.5842
  O  O425  1  0.265300  0.736300  0.802900  1.0  -0.5339
  O  O426  1  0.145000  0.722100  0.744000  1.0  -0.5831
  O  O427  1  0.263700  0.734700  0.697100  1.0  -0.5369
  O  O428  1  0.277900  0.855000  0.756000  1.0  -0.5831
