# generated using pymatgen
data_Cd3H18(C19O6)2
_symmetry_space_group_name_H-M   'P 1'
_cell_length_a   36.06100000
_cell_length_b   18.23300000
_cell_length_c   25.14600000
_cell_angle_alpha   90.00000000
_cell_angle_beta   121.23700000
_cell_angle_gamma   90.00000000
_symmetry_Int_Tables_number   1
_chemical_formula_structural   Cd3H18(C19O6)2
_chemical_formula_sum   'Cd24 H144 C304 O96'
_cell_volume   14136.63144520
_cell_formula_units_Z   8
loop_
 _symmetry_equiv_pos_site_id
 _symmetry_equiv_pos_as_xyz
  1  'x, y, z'
loop_
 _atom_site_type_symbol
 _atom_site_label
 _atom_site_symmetry_multiplicity
 _atom_site_fract_x
 _atom_site_fract_y
 _atom_site_fract_z
 _atom_site_occupancy
 _atom_site_charge
  Cd  Cd1  1  0.209280  0.872240  0.307170  1.0  1.0645
  Cd  Cd2  1  0.318050  0.860420  0.326230  1.0  1.0533
  Cd  Cd3  1  0.322800  0.927600  0.457710  1.0  0.9348
  Cd  Cd4  1  0.709280  0.372240  0.307170  1.0  1.065
  Cd  Cd5  1  0.818050  0.360420  0.326230  1.0  1.0531
  Cd  Cd6  1  0.822800  0.427600  0.457710  1.0  0.9348
  Cd  Cd7  1  0.790720  0.872240  0.192830  1.0  1.0643
  Cd  Cd8  1  0.681950  0.860420  0.173770  1.0  1.0555
  Cd  Cd9  1  0.677200  0.927600  0.042290  1.0  0.9345
  Cd  Cd10  1  0.290720  0.372240  0.192830  1.0  1.0652
  Cd  Cd11  1  0.181950  0.360420  0.173770  1.0  1.0547
  Cd  Cd12  1  0.177200  0.427600  0.042290  1.0  0.9345
  Cd  Cd13  1  0.790720  0.127760  0.692830  1.0  1.0656
  Cd  Cd14  1  0.681950  0.139580  0.673770  1.0  1.0549
  Cd  Cd15  1  0.677200  0.072400  0.542290  1.0  0.9354
  Cd  Cd16  1  0.290720  0.627760  0.692830  1.0  1.0637
  Cd  Cd17  1  0.181950  0.639580  0.673770  1.0  1.0555
  Cd  Cd18  1  0.177200  0.572400  0.542290  1.0  0.9347
  Cd  Cd19  1  0.209280  0.127760  0.807170  1.0  1.0655
  Cd  Cd20  1  0.318050  0.139580  0.826230  1.0  1.0547
  Cd  Cd21  1  0.322800  0.072400  0.957710  1.0  0.9336
  Cd  Cd22  1  0.709280  0.627760  0.807170  1.0  1.0641
  Cd  Cd23  1  0.818050  0.639580  0.826230  1.0  1.0542
  Cd  Cd24  1  0.822800  0.572400  0.957710  1.0  0.9328
  H  H25  1  0.221500  0.125400  0.257000  1.0  0.1253
  H  H26  1  0.328000  0.250000  0.323500  1.0  0.1056
  H  H27  1  0.338900  0.039000  0.370600  1.0  0.1119
  H  H28  1  0.389300  0.245700  0.440000  1.0  0.1327
  H  H29  1  0.461900  0.251300  0.508100  1.0  0.1287
  H  H30  1  0.536100  0.196400  0.554500  1.0  0.1228
  H  H31  1  0.552300  0.022800  0.473200  1.0  0.12
  H  H32  1  0.478500  0.015900  0.402600  1.0  0.1389
  H  H33  1  0.404300  0.063400  0.365200  1.0  0.1251
  H  H34  1  0.257100  0.811000  0.549100  1.0  0.1148
  H  H35  1  0.136800  0.773500  0.512500  1.0  0.1179
  H  H36  1  0.155700  0.901600  0.398600  1.0  0.1105
  H  H37  1  0.071200  0.765200  0.431700  1.0  0.106
  H  H38  1  0.995400  0.722400  0.388800  1.0  0.1256
  H  H39  1  0.922300  0.748100  0.332900  1.0  0.1031
  H  H40  1  0.944700  0.937000  0.274000  1.0  0.111
  H  H41  1  0.021000  0.977400  0.315100  1.0  0.1259
  H  H42  1  0.094300  0.955300  0.377000  1.0  0.1236
  H  H43  1  0.721500  0.625400  0.257000  1.0  0.1253
  H  H44  1  0.828000  0.750000  0.323500  1.0  0.1056
  H  H45  1  0.838900  0.539000  0.370600  1.0  0.1119
  H  H46  1  0.889300  0.745700  0.440000  1.0  0.1327
  H  H47  1  0.961900  0.751300  0.508100  1.0  0.1287
  H  H48  1  0.036100  0.696400  0.554500  1.0  0.1228
  H  H49  1  0.052300  0.522800  0.473200  1.0  0.12
  H  H50  1  0.978500  0.515900  0.402600  1.0  0.1389
  H  H51  1  0.904300  0.563400  0.365200  1.0  0.1251
  H  H52  1  0.757100  0.311000  0.549100  1.0  0.1148
  H  H53  1  0.636800  0.273500  0.512500  1.0  0.1179
  H  H54  1  0.655700  0.401600  0.398600  1.0  0.1105
  H  H55  1  0.571200  0.265200  0.431700  1.0  0.106
  H  H56  1  0.495400  0.222400  0.388800  1.0  0.1256
  H  H57  1  0.422300  0.248100  0.332900  1.0  0.1031
  H  H58  1  0.444700  0.437000  0.274000  1.0  0.111
  H  H59  1  0.521000  0.477400  0.315100  1.0  0.1259
  H  H60  1  0.594300  0.455300  0.377000  1.0  0.1236
  H  H61  1  0.778500  0.125400  0.243000  1.0  0.1271
  H  H62  1  0.672000  0.250000  0.176500  1.0  0.1051
  H  H63  1  0.661100  0.039000  0.129400  1.0  0.1115
  H  H64  1  0.610700  0.245700  0.060000  1.0  0.1299
  H  H65  1  0.538100  0.251300  0.991900  1.0  0.1296
  H  H66  1  0.463900  0.196400  0.945500  1.0  0.1218
  H  H67  1  0.447700  0.022800  0.026800  1.0  0.1205
  H  H68  1  0.521500  0.015900  0.097400  1.0  0.1391
  H  H69  1  0.595700  0.063400  0.134800  1.0  0.1262
  H  H70  1  0.742900  0.811000  0.950900  1.0  0.1142
  H  H71  1  0.863200  0.773500  0.987500  1.0  0.1172
  H  H72  1  0.844300  0.901600  0.101400  1.0  0.1098
  H  H73  1  0.928800  0.765200  0.068300  1.0  0.1061
  H  H74  1  0.004600  0.722400  0.111200  1.0  0.1256
  H  H75  1  0.077700  0.748100  0.167100  1.0  0.1037
  H  H76  1  0.055300  0.937000  0.226000  1.0  0.1106
  H  H77  1  0.979000  0.977400  0.184900  1.0  0.1263
  H  H78  1  0.905700  0.955300  0.123000  1.0  0.1242
  H  H79  1  0.278500  0.625400  0.243000  1.0  0.1271
  H  H80  1  0.172000  0.750000  0.176500  1.0  0.1051
  H  H81  1  0.161100  0.539000  0.129400  1.0  0.1115
  H  H82  1  0.110700  0.745700  0.060000  1.0  0.1317
  H  H83  1  0.038100  0.751300  0.991900  1.0  0.1296
  H  H84  1  0.963900  0.696400  0.945500  1.0  0.1218
  H  H85  1  0.947700  0.522800  0.026800  1.0  0.1205
  H  H86  1  0.021500  0.515900  0.097400  1.0  0.1391
  H  H87  1  0.095700  0.563400  0.134800  1.0  0.1262
  H  H88  1  0.242900  0.311000  0.950900  1.0  0.1142
  H  H89  1  0.363200  0.273500  0.987500  1.0  0.1172
  H  H90  1  0.344300  0.401600  0.101400  1.0  0.1098
  H  H91  1  0.428800  0.265200  0.068300  1.0  0.1061
  H  H92  1  0.504600  0.222400  0.111200  1.0  0.1256
  H  H93  1  0.577700  0.248100  0.167100  1.0  0.1037
  H  H94  1  0.555300  0.437000  0.226000  1.0  0.1106
  H  H95  1  0.479000  0.477400  0.184900  1.0  0.1263
  H  H96  1  0.405700  0.455300  0.123000  1.0  0.1242
  H  H97  1  0.778500  0.874600  0.743000  1.0  0.1271
  H  H98  1  0.672000  0.750000  0.676500  1.0  0.1058
  H  H99  1  0.661100  0.961000  0.629400  1.0  0.1116
  H  H100  1  0.610700  0.754300  0.560000  1.0  0.1316
  H  H101  1  0.538100  0.748700  0.491900  1.0  0.1282
  H  H102  1  0.463900  0.803600  0.445500  1.0  0.1214
  H  H103  1  0.447700  0.977200  0.526800  1.0  0.1203
  H  H104  1  0.521500  0.984100  0.597400  1.0  0.1388
  H  H105  1  0.595700  0.936600  0.634800  1.0  0.1262
  H  H106  1  0.742900  0.189000  0.450900  1.0  0.1137
  H  H107  1  0.863200  0.226500  0.487500  1.0  0.117
  H  H108  1  0.844300  0.098400  0.601400  1.0  0.1102
  H  H109  1  0.928800  0.234800  0.568300  1.0  0.1066
  H  H110  1  0.004600  0.277600  0.611200  1.0  0.1248
  H  H111  1  0.077700  0.251900  0.667100  1.0  0.1034
  H  H112  1  0.055300  0.063000  0.726000  1.0  0.111
  H  H113  1  0.979000  0.022600  0.684900  1.0  0.126
  H  H114  1  0.905700  0.044700  0.623000  1.0  0.1232
  H  H115  1  0.278500  0.374600  0.743000  1.0  0.1271
  H  H116  1  0.172000  0.250000  0.676500  1.0  0.1058
  H  H117  1  0.161100  0.461000  0.629400  1.0  0.1116
  H  H118  1  0.110700  0.254300  0.560000  1.0  0.1316
  H  H119  1  0.038100  0.248700  0.491900  1.0  0.1282
  H  H120  1  0.963900  0.303600  0.445500  1.0  0.1214
  H  H121  1  0.947700  0.477200  0.526800  1.0  0.1203
  H  H122  1  0.021500  0.484100  0.597400  1.0  0.1388
  H  H123  1  0.095700  0.436600  0.634800  1.0  0.1262
  H  H124  1  0.242900  0.689000  0.450900  1.0  0.1137
  H  H125  1  0.363200  0.726500  0.487500  1.0  0.117
  H  H126  1  0.344300  0.598400  0.601400  1.0  0.1102
  H  H127  1  0.428800  0.734800  0.568300  1.0  0.1066
  H  H128  1  0.504600  0.777600  0.611200  1.0  0.1248
  H  H129  1  0.577700  0.751900  0.667100  1.0  0.1034
  H  H130  1  0.555300  0.563000  0.726000  1.0  0.111
  H  H131  1  0.479000  0.522600  0.684900  1.0  0.126
  H  H132  1  0.405700  0.544700  0.623000  1.0  0.1232
  H  H133  1  0.221500  0.874600  0.757000  1.0  0.1254
  H  H134  1  0.328000  0.750000  0.823500  1.0  0.1063
  H  H135  1  0.338900  0.961000  0.870600  1.0  0.1115
  H  H136  1  0.389300  0.754300  0.940000  1.0  0.1312
  H  H137  1  0.461900  0.748700  0.008100  1.0  0.1287
  H  H138  1  0.536100  0.803600  0.054500  1.0  0.1229
  H  H139  1  0.552300  0.977200  0.973200  1.0  0.1199
  H  H140  1  0.478500  0.984100  0.902600  1.0  0.1396
  H  H141  1  0.404300  0.936600  0.865200  1.0  0.1257
  H  H142  1  0.257100  0.189000  0.049100  1.0  0.1151
  H  H143  1  0.136800  0.226500  0.012500  1.0  0.1178
  H  H144  1  0.155700  0.098400  0.898600  1.0  0.1107
  H  H145  1  0.071200  0.234800  0.931700  1.0  0.1061
  H  H146  1  0.995400  0.277600  0.888800  1.0  0.1252
  H  H147  1  0.922300  0.251900  0.832900  1.0  0.1032
  H  H148  1  0.944700  0.063000  0.774000  1.0  0.1103
  H  H149  1  0.021000  0.022600  0.815100  1.0  0.125
  H  H150  1  0.094300  0.044700  0.877000  1.0  0.1233
  H  H151  1  0.721500  0.374600  0.757000  1.0  0.1254
  H  H152  1  0.828000  0.250000  0.823500  1.0  0.1062
  H  H153  1  0.838900  0.461000  0.870600  1.0  0.1115
  H  H154  1  0.889300  0.254300  0.940000  1.0  0.1325
  H  H155  1  0.961900  0.248700  0.008100  1.0  0.1287
  H  H156  1  0.036100  0.303600  0.054500  1.0  0.1229
  H  H157  1  0.052300  0.477200  0.973200  1.0  0.1199
  H  H158  1  0.978500  0.484100  0.902600  1.0  0.1396
  H  H159  1  0.904300  0.436600  0.865200  1.0  0.1257
  H  H160  1  0.757100  0.689000  0.049100  1.0  0.1151
  H  H161  1  0.636800  0.726500  0.012500  1.0  0.1178
  H  H162  1  0.655700  0.598400  0.898600  1.0  0.1107
  H  H163  1  0.571200  0.734800  0.931700  1.0  0.1061
  H  H164  1  0.495400  0.777600  0.888800  1.0  0.1252
  H  H165  1  0.422300  0.751900  0.832900  1.0  0.1032
  H  H166  1  0.444700  0.563000  0.774000  1.0  0.1103
  H  H167  1  0.521000  0.522600  0.815100  1.0  0.125
  H  H168  1  0.594300  0.544700  0.877000  1.0  0.1233
  C  C169  1  0.276760  0.071100  0.314000  1.0  -0.1285
  C  C170  1  0.251480  0.130500  0.281700  1.0  0.0393
  C  C171  1  0.270730  0.198400  0.286100  1.0  -0.1513
  C  C172  1  0.315270  0.205000  0.321700  1.0  -0.0515
  C  C173  1  0.341490  0.146400  0.354700  1.0  0.0383
  C  C174  1  0.321720  0.079500  0.349700  1.0  -0.0551
  C  C175  1  0.256530  0.998000  0.311200  1.0  0.7227
  C  C176  1  0.242510  0.262600  0.251400  1.0  0.6762
  C  C177  1  0.389310  0.152300  0.395800  1.0  0.0512
  C  C178  1  0.407270  0.209700  0.439100  1.0  -0.1346
  C  C179  1  0.450610  0.212800  0.479700  1.0  -0.0734
  C  C180  1  0.478890  0.160200  0.480200  1.0  0.0371
  C  C181  1  0.524370  0.160600  0.523700  1.0  -0.0378
  C  C182  1  0.550820  0.110300  0.521200  1.0  -0.1297
  C  C183  1  0.533800  0.056600  0.475300  1.0  -0.0305
  C  C184  1  0.489500  0.052700  0.432500  1.0  -0.1477
  C  C185  1  0.461410  0.104800  0.434500  1.0  0.048
  C  C186  1  0.416110  0.101400  0.393900  1.0  -0.1413
  C  C187  1  0.598530  0.110800  0.569000  1.0  0.7256
  C  C188  1  0.211030  0.862100  0.471700  1.0  -0.1344
  C  C189  1  0.227290  0.817800  0.523800  1.0  0.0113
  C  C190  1  0.199630  0.783500  0.538600  1.0  -0.127
  C  C191  1  0.155380  0.796000  0.502200  1.0  -0.064
  C  C192  1  0.138010  0.842500  0.449700  1.0  0.0269
  C  C193  1  0.166570  0.873200  0.434400  1.0  -0.0649
  C  C194  1  0.240520  0.895000  0.453300  1.0  0.6826
  C  C195  1  0.216700  0.729400  0.592000  1.0  0.7133
  C  C196  1  0.090220  0.855100  0.410400  1.0  0.0551
  C  C197  1  0.061200  0.808000  0.408300  1.0  -0.0157
  C  C198  1  0.015750  0.820300  0.371800  1.0  0.0322
  C  C199  1  0.985600  0.767000  0.368100  1.0  -0.1031
  C  C200  1  0.942000  0.781900  0.333800  1.0  -0.0245
  C  C201  1  0.926410  0.849000  0.299200  1.0  -0.1467
  C  C202  1  0.954810  0.895300  0.298900  1.0  -0.05
  C  C203  1  0.000250  0.882700  0.335600  1.0  -0.0192
  C  C204  1  0.030700  0.934400  0.338200  1.0  -0.101
  C  C205  1  0.074600  0.920900  0.375200  1.0  -0.1282
  C  C206  1  0.878430  0.861400  0.258900  1.0  0.71
  C  C207  1  0.776760  0.571100  0.314000  1.0  -0.1285
  C  C208  1  0.751480  0.630500  0.281700  1.0  0.0393
  C  C209  1  0.770730  0.698400  0.286100  1.0  -0.1513
  C  C210  1  0.815270  0.705000  0.321700  1.0  -0.0515
  C  C211  1  0.841490  0.646400  0.354700  1.0  0.0383
  C  C212  1  0.821720  0.579500  0.349700  1.0  -0.0551
  C  C213  1  0.756530  0.498000  0.311200  1.0  0.7227
  C  C214  1  0.742510  0.762600  0.251400  1.0  0.6762
  C  C215  1  0.889310  0.652300  0.395800  1.0  0.0512
  C  C216  1  0.907270  0.709700  0.439100  1.0  -0.1346
  C  C217  1  0.950610  0.712800  0.479700  1.0  -0.0734
  C  C218  1  0.978890  0.660200  0.480200  1.0  0.0371
  C  C219  1  0.024370  0.660600  0.523700  1.0  -0.0378
  C  C220  1  0.050820  0.610300  0.521200  1.0  -0.1297
  C  C221  1  0.033800  0.556600  0.475300  1.0  -0.0305
  C  C222  1  0.989500  0.552700  0.432500  1.0  -0.1477
  C  C223  1  0.961410  0.604800  0.434500  1.0  0.048
  C  C224  1  0.916110  0.601400  0.393900  1.0  -0.1413
  C  C225  1  0.098530  0.610800  0.569000  1.0  0.7256
  C  C226  1  0.711030  0.362100  0.471700  1.0  -0.1344
  C  C227  1  0.727290  0.317800  0.523800  1.0  0.0113
  C  C228  1  0.699630  0.283500  0.538600  1.0  -0.127
  C  C229  1  0.655380  0.296000  0.502200  1.0  -0.064
  C  C230  1  0.638010  0.342500  0.449700  1.0  0.0269
  C  C231  1  0.666570  0.373200  0.434400  1.0  -0.0649
  C  C232  1  0.740520  0.395000  0.453300  1.0  0.6826
  C  C233  1  0.716700  0.229400  0.592000  1.0  0.7133
  C  C234  1  0.590220  0.355100  0.410400  1.0  0.0551
  C  C235  1  0.561200  0.308000  0.408300  1.0  -0.0157
  C  C236  1  0.515750  0.320300  0.371800  1.0  0.0322
  C  C237  1  0.485600  0.267000  0.368100  1.0  -0.1031
  C  C238  1  0.442000  0.281900  0.333800  1.0  -0.0245
  C  C239  1  0.426410  0.349000  0.299200  1.0  -0.1467
  C  C240  1  0.454810  0.395300  0.298900  1.0  -0.05
  C  C241  1  0.500250  0.382700  0.335600  1.0  -0.0192
  C  C242  1  0.530700  0.434400  0.338200  1.0  -0.101
  C  C243  1  0.574600  0.420900  0.375200  1.0  -0.1282
  C  C244  1  0.378430  0.361400  0.258900  1.0  0.71
  C  C245  1  0.723240  0.071100  0.186000  1.0  -0.1277
  C  C246  1  0.748520  0.130500  0.218300  1.0  0.0409
  C  C247  1  0.729270  0.198400  0.213900  1.0  -0.1506
  C  C248  1  0.684730  0.205000  0.178300  1.0  -0.0519
  C  C249  1  0.658510  0.146400  0.145300  1.0  0.0387
  C  C250  1  0.678280  0.079500  0.150300  1.0  -0.0547
  C  C251  1  0.743470  0.998000  0.188800  1.0  0.7233
  C  C252  1  0.757490  0.262600  0.248600  1.0  0.6772
  C  C253  1  0.610690  0.152300  0.104200  1.0  0.051
  C  C254  1  0.592730  0.209700  0.060900  1.0  -0.1342
  C  C255  1  0.549390  0.212800  0.020300  1.0  -0.0704
  C  C256  1  0.521110  0.160200  0.019800  1.0  0.0358
  C  C257  1  0.475630  0.160600  0.976300  1.0  -0.0387
  C  C258  1  0.449180  0.110300  0.978800  1.0  -0.13
  C  C259  1  0.466200  0.056600  0.024700  1.0  -0.0323
  C  C260  1  0.510500  0.052700  0.067500  1.0  -0.1504
  C  C261  1  0.538590  0.104800  0.065500  1.0  0.0489
  C  C262  1  0.583890  0.101400  0.106100  1.0  -0.1403
  C  C263  1  0.401470  0.110800  0.931000  1.0  0.7269
  C  C264  1  0.788970  0.862100  0.028300  1.0  -0.1351
  C  C265  1  0.772710  0.817800  0.976200  1.0  0.0133
  C  C266  1  0.800370  0.783500  0.961400  1.0  -0.1259
  C  C267  1  0.844620  0.796000  0.997800  1.0  -0.064
  C  C268  1  0.861990  0.842500  0.050300  1.0  0.0271
  C  C269  1  0.833430  0.873200  0.065600  1.0  -0.0644
  C  C270  1  0.759480  0.895000  0.046700  1.0  0.6824
  C  C271  1  0.783300  0.729400  0.908000  1.0  0.7126
  C  C272  1  0.909780  0.855100  0.089600  1.0  0.0546
  C  C273  1  0.938800  0.808000  0.091700  1.0  -0.0166
  C  C274  1  0.984250  0.820300  0.128200  1.0  0.0323
  C  C275  1  0.014400  0.767000  0.131900  1.0  -0.1036
  C  C276  1  0.058000  0.781900  0.166200  1.0  -0.0241
  C  C277  1  0.073590  0.849000  0.200800  1.0  -0.1458
  C  C278  1  0.045190  0.895300  0.201100  1.0  -0.0497
  C  C279  1  0.999750  0.882700  0.164400  1.0  -0.0196
  C  C280  1  0.969300  0.934400  0.161800  1.0  -0.1008
  C  C281  1  0.925400  0.920900  0.124800  1.0  -0.1284
  C  C282  1  0.121570  0.861400  0.241100  1.0  0.711
  C  C283  1  0.223240  0.571100  0.186000  1.0  -0.1277
  C  C284  1  0.248520  0.630500  0.218300  1.0  0.0409
  C  C285  1  0.229270  0.698400  0.213900  1.0  -0.1506
  C  C286  1  0.184730  0.705000  0.178300  1.0  -0.0519
  C  C287  1  0.158510  0.646400  0.145300  1.0  0.0387
  C  C288  1  0.178280  0.579500  0.150300  1.0  -0.0547
  C  C289  1  0.243470  0.498000  0.188800  1.0  0.7233
  C  C290  1  0.257490  0.762600  0.248600  1.0  0.6772
  C  C291  1  0.110690  0.652300  0.104200  1.0  0.051
  C  C292  1  0.092730  0.709700  0.060900  1.0  -0.1342
  C  C293  1  0.049390  0.712800  0.020300  1.0  -0.0704
  C  C294  1  0.021110  0.660200  0.019800  1.0  0.0358
  C  C295  1  0.975630  0.660600  0.976300  1.0  -0.0387
  C  C296  1  0.949180  0.610300  0.978800  1.0  -0.13
  C  C297  1  0.966200  0.556600  0.024700  1.0  -0.0323
  C  C298  1  0.010500  0.552700  0.067500  1.0  -0.1504
  C  C299  1  0.038590  0.604800  0.065500  1.0  0.0489
  C  C300  1  0.083890  0.601400  0.106100  1.0  -0.1403
  C  C301  1  0.901470  0.610800  0.931000  1.0  0.7269
  C  C302  1  0.288970  0.362100  0.028300  1.0  -0.1351
  C  C303  1  0.272710  0.317800  0.976200  1.0  0.0133
  C  C304  1  0.300370  0.283500  0.961400  1.0  -0.1259
  C  C305  1  0.344620  0.296000  0.997800  1.0  -0.064
  C  C306  1  0.361990  0.342500  0.050300  1.0  0.0271
  C  C307  1  0.333430  0.373200  0.065600  1.0  -0.0644
  C  C308  1  0.259480  0.395000  0.046700  1.0  0.6824
  C  C309  1  0.283300  0.229400  0.908000  1.0  0.7126
  C  C310  1  0.409780  0.355100  0.089600  1.0  0.0546
  C  C311  1  0.438800  0.308000  0.091700  1.0  -0.0166
  C  C312  1  0.484250  0.320300  0.128200  1.0  0.0323
  C  C313  1  0.514400  0.267000  0.131900  1.0  -0.1036
  C  C314  1  0.558000  0.281900  0.166200  1.0  -0.0241
  C  C315  1  0.573590  0.349000  0.200800  1.0  -0.1458
  C  C316  1  0.545190  0.395300  0.201100  1.0  -0.0497
  C  C317  1  0.499750  0.382700  0.164400  1.0  -0.0196
  C  C318  1  0.469300  0.434400  0.161800  1.0  -0.1008
  C  C319  1  0.425400  0.420900  0.124800  1.0  -0.1284
  C  C320  1  0.621570  0.361400  0.241100  1.0  0.711
  C  C321  1  0.723240  0.928900  0.686000  1.0  -0.1277
  C  C322  1  0.748520  0.869500  0.718300  1.0  0.0407
  C  C323  1  0.729270  0.801600  0.713900  1.0  -0.1511
  C  C324  1  0.684730  0.795000  0.678300  1.0  -0.0494
  C  C325  1  0.658510  0.853600  0.645300  1.0  0.0385
  C  C326  1  0.678280  0.920500  0.650300  1.0  -0.0538
  C  C327  1  0.743470  0.002000  0.688800  1.0  0.7235
  C  C328  1  0.757490  0.737400  0.748600  1.0  0.6777
  C  C329  1  0.610690  0.847700  0.604200  1.0  0.0508
  C  C330  1  0.592730  0.790300  0.560900  1.0  -0.1337
  C  C331  1  0.549390  0.787200  0.520300  1.0  -0.0708
  C  C332  1  0.521110  0.839800  0.519800  1.0  0.0348
  C  C333  1  0.475630  0.839400  0.476300  1.0  -0.0401
  C  C334  1  0.449180  0.889700  0.478800  1.0  -0.1308
  C  C335  1  0.466200  0.943400  0.524700  1.0  -0.032
  C  C336  1  0.510500  0.947300  0.567500  1.0  -0.1503
  C  C337  1  0.538590  0.895200  0.565500  1.0  0.0485
  C  C338  1  0.583890  0.898600  0.606100  1.0  -0.1418
  C  C339  1  0.401470  0.889200  0.431000  1.0  0.7262
  C  C340  1  0.788970  0.137900  0.528300  1.0  -0.1361
  C  C341  1  0.772710  0.182200  0.476200  1.0  0.0131
  C  C342  1  0.800370  0.216500  0.461400  1.0  -0.1258
  C  C343  1  0.844620  0.204000  0.497800  1.0  -0.0643
  C  C344  1  0.861990  0.157500  0.550300  1.0  0.027
  C  C345  1  0.833430  0.126800  0.565600  1.0  -0.0639
  C  C346  1  0.759480  0.105000  0.546700  1.0  0.6825
  C  C347  1  0.783300  0.270600  0.408000  1.0  0.7126
  C  C348  1  0.909780  0.144900  0.589600  1.0  0.0547
  C  C349  1  0.938800  0.192000  0.591700  1.0  -0.0164
  C  C350  1  0.984250  0.179700  0.628200  1.0  0.0324
  C  C351  1  0.014400  0.233000  0.631900  1.0  -0.1038
  C  C352  1  0.058000  0.218100  0.666200  1.0  -0.0254
  C  C353  1  0.073590  0.151000  0.700800  1.0  -0.1465
  C  C354  1  0.045190  0.104700  0.701100  1.0  -0.0487
  C  C355  1  0.999750  0.117300  0.664400  1.0  -0.0203
  C  C356  1  0.969300  0.065600  0.661800  1.0  -0.0987
  C  C357  1  0.925400  0.079100  0.624800  1.0  -0.1262
  C  C358  1  0.121570  0.138600  0.741100  1.0  0.7111
  C  C359  1  0.223240  0.428900  0.686000  1.0  -0.1277
  C  C360  1  0.248520  0.369500  0.718300  1.0  0.0407
  C  C361  1  0.229270  0.301600  0.713900  1.0  -0.1511
  C  C362  1  0.184730  0.295000  0.678300  1.0  -0.0494
  C  C363  1  0.158510  0.353600  0.645300  1.0  0.0385
  C  C364  1  0.178280  0.420500  0.650300  1.0  -0.0538
  C  C365  1  0.243470  0.502000  0.688800  1.0  0.7235
  C  C366  1  0.257490  0.237400  0.748600  1.0  0.6777
  C  C367  1  0.110690  0.347700  0.604200  1.0  0.0508
  C  C368  1  0.092730  0.290300  0.560900  1.0  -0.1337
  C  C369  1  0.049390  0.287200  0.520300  1.0  -0.0708
  C  C370  1  0.021110  0.339800  0.519800  1.0  0.0348
  C  C371  1  0.975630  0.339400  0.476300  1.0  -0.0401
  C  C372  1  0.949180  0.389700  0.478800  1.0  -0.1308
  C  C373  1  0.966200  0.443400  0.524700  1.0  -0.032
  C  C374  1  0.010500  0.447300  0.567500  1.0  -0.1503
  C  C375  1  0.038590  0.395200  0.565500  1.0  0.0485
  C  C376  1  0.083890  0.398600  0.606100  1.0  -0.1418
  C  C377  1  0.901470  0.389200  0.431000  1.0  0.7262
  C  C378  1  0.288970  0.637900  0.528300  1.0  -0.1361
  C  C379  1  0.272710  0.682200  0.476200  1.0  0.0131
  C  C380  1  0.300370  0.716500  0.461400  1.0  -0.1258
  C  C381  1  0.344620  0.704000  0.497800  1.0  -0.0643
  C  C382  1  0.361990  0.657500  0.550300  1.0  0.027
  C  C383  1  0.333430  0.626800  0.565600  1.0  -0.0639
  C  C384  1  0.259480  0.605000  0.546700  1.0  0.6825
  C  C385  1  0.283300  0.770600  0.408000  1.0  0.7126
  C  C386  1  0.409780  0.644900  0.589600  1.0  0.0547
  C  C387  1  0.438800  0.692000  0.591700  1.0  -0.0164
  C  C388  1  0.484250  0.679700  0.628200  1.0  0.0324
  C  C389  1  0.514400  0.733000  0.631900  1.0  -0.1038
  C  C390  1  0.558000  0.718100  0.666200  1.0  -0.0254
  C  C391  1  0.573590  0.651000  0.700800  1.0  -0.1465
  C  C392  1  0.545190  0.604700  0.701100  1.0  -0.0487
  C  C393  1  0.499750  0.617300  0.664400  1.0  -0.0203
  C  C394  1  0.469300  0.565600  0.661800  1.0  -0.0987
  C  C395  1  0.425400  0.579100  0.624800  1.0  -0.1262
  C  C396  1  0.621570  0.638600  0.741100  1.0  0.7111
  C  C397  1  0.276760  0.928900  0.814000  1.0  -0.1278
  C  C398  1  0.251480  0.869500  0.781700  1.0  0.0392
  C  C399  1  0.270730  0.801600  0.786100  1.0  -0.152
  C  C400  1  0.315270  0.795000  0.821700  1.0  -0.0494
  C  C401  1  0.341490  0.853600  0.854700  1.0  0.0383
  C  C402  1  0.321720  0.920500  0.849700  1.0  -0.0545
  C  C403  1  0.256530  0.002000  0.811200  1.0  0.7231
  C  C404  1  0.242510  0.737400  0.751400  1.0  0.6767
  C  C405  1  0.389310  0.847700  0.895800  1.0  0.0512
  C  C406  1  0.407270  0.790300  0.939100  1.0  -0.1328
  C  C407  1  0.450610  0.787200  0.979700  1.0  -0.0748
  C  C408  1  0.478890  0.839800  0.980200  1.0  0.0368
  C  C409  1  0.524370  0.839400  0.023700  1.0  -0.0392
  C  C410  1  0.550820  0.889700  0.021200  1.0  -0.1294
  C  C411  1  0.533800  0.943400  0.975300  1.0  -0.0307
  C  C412  1  0.489500  0.947300  0.932500  1.0  -0.1455
  C  C413  1  0.461410  0.895200  0.934500  1.0  0.0479
  C  C414  1  0.416110  0.898600  0.893900  1.0  -0.143
  C  C415  1  0.598530  0.889200  0.069000  1.0  0.7252
  C  C416  1  0.211030  0.137900  0.971700  1.0  -0.1354
  C  C417  1  0.227290  0.182200  0.023800  1.0  0.0108
  C  C418  1  0.199630  0.216500  0.038600  1.0  -0.1268
  C  C419  1  0.155380  0.204000  0.002200  1.0  -0.0642
  C  C420  1  0.138010  0.157500  0.949700  1.0  0.0265
  C  C421  1  0.166570  0.126800  0.934400  1.0  -0.0643
  C  C422  1  0.240520  0.105000  0.953300  1.0  0.6826
  C  C423  1  0.216700  0.270600  0.092000  1.0  0.7133
  C  C424  1  0.090220  0.144900  0.910400  1.0  0.0553
  C  C425  1  0.061200  0.192000  0.908300  1.0  -0.0156
  C  C426  1  0.015750  0.179700  0.871800  1.0  0.0322
  C  C427  1  0.985600  0.233000  0.868100  1.0  -0.1037
  C  C428  1  0.942000  0.218100  0.833800  1.0  -0.0258
  C  C429  1  0.926410  0.151000  0.799200  1.0  -0.1488
  C  C430  1  0.954810  0.104700  0.798900  1.0  -0.0487
  C  C431  1  0.000250  0.117300  0.835600  1.0  -0.0199
  C  C432  1  0.030700  0.065600  0.838200  1.0  -0.0985
  C  C433  1  0.074600  0.079100  0.875200  1.0  -0.1262
  C  C434  1  0.878430  0.138600  0.758900  1.0  0.7099
  C  C435  1  0.776760  0.428900  0.814000  1.0  -0.1278
  C  C436  1  0.751480  0.369500  0.781700  1.0  0.0392
  C  C437  1  0.770730  0.301600  0.786100  1.0  -0.152
  C  C438  1  0.815270  0.295000  0.821700  1.0  -0.0494
  C  C439  1  0.841490  0.353600  0.854700  1.0  0.0383
  C  C440  1  0.821720  0.420500  0.849700  1.0  -0.0545
  C  C441  1  0.756530  0.502000  0.811200  1.0  0.7231
  C  C442  1  0.742510  0.237400  0.751400  1.0  0.6767
  C  C443  1  0.889310  0.347700  0.895800  1.0  0.0512
  C  C444  1  0.907270  0.290300  0.939100  1.0  -0.1328
  C  C445  1  0.950610  0.287200  0.979700  1.0  -0.0748
  C  C446  1  0.978890  0.339800  0.980200  1.0  0.0368
  C  C447  1  0.024370  0.339400  0.023700  1.0  -0.0392
  C  C448  1  0.050820  0.389700  0.021200  1.0  -0.1294
  C  C449  1  0.033800  0.443400  0.975300  1.0  -0.0307
  C  C450  1  0.989500  0.447300  0.932500  1.0  -0.1455
  C  C451  1  0.961410  0.395200  0.934500  1.0  0.0479
  C  C452  1  0.916110  0.398600  0.893900  1.0  -0.143
  C  C453  1  0.098530  0.389200  0.069000  1.0  0.7252
  C  C454  1  0.711030  0.637900  0.971700  1.0  -0.1354
  C  C455  1  0.727290  0.682200  0.023800  1.0  0.0108
  C  C456  1  0.699630  0.716500  0.038600  1.0  -0.1268
  C  C457  1  0.655380  0.704000  0.002200  1.0  -0.0642
  C  C458  1  0.638010  0.657500  0.949700  1.0  0.0265
  C  C459  1  0.666570  0.626800  0.934400  1.0  -0.0643
  C  C460  1  0.740520  0.605000  0.953300  1.0  0.6826
  C  C461  1  0.716700  0.770600  0.092000  1.0  0.7133
  C  C462  1  0.590220  0.644900  0.910400  1.0  0.0553
  C  C463  1  0.561200  0.692000  0.908300  1.0  -0.0156
  C  C464  1  0.515750  0.679700  0.871800  1.0  0.0322
  C  C465  1  0.485600  0.733000  0.868100  1.0  -0.1037
  C  C466  1  0.442000  0.718100  0.833800  1.0  -0.0258
  C  C467  1  0.426410  0.651000  0.799200  1.0  -0.1488
  C  C468  1  0.454810  0.604700  0.798900  1.0  -0.0487
  C  C469  1  0.500250  0.617300  0.835600  1.0  -0.0199
  C  C470  1  0.530700  0.565600  0.838200  1.0  -0.0985
  C  C471  1  0.574600  0.579100  0.875200  1.0  -0.1262
  C  C472  1  0.378430  0.638600  0.758900  1.0  0.7099
  O  O473  1  0.217250  0.988300  0.275100  1.0  -0.6242
  O  O474  1  0.280830  0.947400  0.347690  1.0  -0.7681
  O  O475  1  0.202040  0.253200  0.224000  1.0  -0.5625
  O  O476  1  0.258500  0.321800  0.249170  1.0  -0.6776
  O  O477  1  0.622860  0.066600  0.563600  1.0  -0.6549
  O  O478  1  0.611530  0.155300  0.613300  1.0  -0.5967
  O  O479  1  0.281220  0.890200  0.493700  1.0  -0.6215
  O  O480  1  0.225330  0.924600  0.400900  1.0  -0.7352
  O  O481  1  0.256390  0.727000  0.629690  1.0  -0.6113
  O  O482  1  0.188660  0.687100  0.592200  1.0  -0.6978
  O  O483  1  0.864250  0.913300  0.223300  1.0  -0.5796
  O  O484  1  0.853290  0.815300  0.259000  1.0  -0.5855
  O  O485  1  0.717250  0.488300  0.275100  1.0  -0.6242
  O  O486  1  0.780830  0.447400  0.347690  1.0  -0.7681
  O  O487  1  0.702040  0.753200  0.224000  1.0  -0.5625
  O  O488  1  0.758500  0.821800  0.249170  1.0  -0.6776
  O  O489  1  0.122860  0.566600  0.563600  1.0  -0.6549
  O  O490  1  0.111530  0.655300  0.613300  1.0  -0.5967
  O  O491  1  0.781220  0.390200  0.493700  1.0  -0.6215
  O  O492  1  0.725330  0.424600  0.400900  1.0  -0.7352
  O  O493  1  0.756390  0.227000  0.629690  1.0  -0.6113
  O  O494  1  0.688660  0.187100  0.592200  1.0  -0.6978
  O  O495  1  0.364250  0.413300  0.223300  1.0  -0.5796
  O  O496  1  0.353290  0.315300  0.259000  1.0  -0.5851
  O  O497  1  0.782750  0.988300  0.224900  1.0  -0.6223
  O  O498  1  0.719170  0.947400  0.152310  1.0  -0.7686
  O  O499  1  0.797960  0.253200  0.276000  1.0  -0.564
  O  O500  1  0.741500  0.321800  0.250830  1.0  -0.6783
  O  O501  1  0.377140  0.066600  0.936400  1.0  -0.6538
  O  O502  1  0.388470  0.155300  0.886700  1.0  -0.5996
  O  O503  1  0.718780  0.890200  0.006300  1.0  -0.6219
  O  O504  1  0.774670  0.924600  0.099100  1.0  -0.7359
  O  O505  1  0.743610  0.727000  0.870310  1.0  -0.6104
  O  O506  1  0.811340  0.687100  0.907800  1.0  -0.6985
  O  O507  1  0.135750  0.913300  0.276700  1.0  -0.5793
  O  O508  1  0.146710  0.815300  0.241000  1.0  -0.5858
  O  O509  1  0.282750  0.488300  0.224900  1.0  -0.6223
  O  O510  1  0.219170  0.447400  0.152310  1.0  -0.7686
  O  O511  1  0.297960  0.753200  0.276000  1.0  -0.564
  O  O512  1  0.241500  0.821800  0.250830  1.0  -0.6783
  O  O513  1  0.877140  0.566600  0.936400  1.0  -0.6538
  O  O514  1  0.888470  0.655300  0.886700  1.0  -0.5995
  O  O515  1  0.218780  0.390200  0.006300  1.0  -0.6219
  O  O516  1  0.274670  0.424600  0.099100  1.0  -0.7359
  O  O517  1  0.243610  0.227000  0.870310  1.0  -0.6104
  O  O518  1  0.311340  0.187100  0.907800  1.0  -0.6985
  O  O519  1  0.635750  0.413300  0.276700  1.0  -0.5793
  O  O520  1  0.646710  0.315300  0.241000  1.0  -0.5856
  O  O521  1  0.782750  0.011700  0.724900  1.0  -0.6222
  O  O522  1  0.719170  0.052600  0.652310  1.0  -0.768
  O  O523  1  0.797960  0.746800  0.776000  1.0  -0.5642
  O  O524  1  0.741500  0.678200  0.750830  1.0  -0.6776
  O  O525  1  0.377140  0.933400  0.436400  1.0  -0.6539
  O  O526  1  0.388470  0.844700  0.386700  1.0  -0.598
  O  O527  1  0.718780  0.109800  0.506300  1.0  -0.6173
  O  O528  1  0.774670  0.075400  0.599100  1.0  -0.7353
  O  O529  1  0.743610  0.273000  0.370310  1.0  -0.6093
  O  O530  1  0.811340  0.312900  0.407800  1.0  -0.7004
  O  O531  1  0.135750  0.086700  0.776700  1.0  -0.5802
  O  O532  1  0.146710  0.184700  0.741000  1.0  -0.5859
  O  O533  1  0.282750  0.511700  0.724900  1.0  -0.6222
  O  O534  1  0.219170  0.552600  0.652310  1.0  -0.768
  O  O535  1  0.297960  0.246800  0.776000  1.0  -0.5642
  O  O536  1  0.241500  0.178200  0.750830  1.0  -0.6776
  O  O537  1  0.877140  0.433400  0.436400  1.0  -0.6539
  O  O538  1  0.888470  0.344700  0.386700  1.0  -0.5982
  O  O539  1  0.218780  0.609800  0.506300  1.0  -0.6173
  O  O540  1  0.274670  0.575400  0.599100  1.0  -0.7353
  O  O541  1  0.243610  0.773000  0.370310  1.0  -0.6093
  O  O542  1  0.311340  0.812900  0.407800  1.0  -0.7004
  O  O543  1  0.635750  0.586700  0.776700  1.0  -0.5802
  O  O544  1  0.646710  0.684700  0.741000  1.0  -0.5856
  O  O545  1  0.217250  0.011700  0.775100  1.0  -0.6238
  O  O546  1  0.280830  0.052600  0.847690  1.0  -0.7674
  O  O547  1  0.202040  0.746800  0.724000  1.0  -0.563
  O  O548  1  0.258500  0.678200  0.749170  1.0  -0.677
  O  O549  1  0.622860  0.933400  0.063600  1.0  -0.6554
  O  O550  1  0.611530  0.844700  0.113300  1.0  -0.5998
  O  O551  1  0.281220  0.109800  0.993700  1.0  -0.6205
  O  O552  1  0.225330  0.075400  0.900900  1.0  -0.7348
  O  O553  1  0.256390  0.273000  0.129690  1.0  -0.6101
  O  O554  1  0.188660  0.312900  0.092200  1.0  -0.7
  O  O555  1  0.864250  0.086700  0.723300  1.0  -0.5815
  O  O556  1  0.853290  0.184700  0.759000  1.0  -0.5854
  O  O557  1  0.717250  0.511700  0.775100  1.0  -0.6238
  O  O558  1  0.780830  0.552600  0.847690  1.0  -0.7674
  O  O559  1  0.702040  0.246800  0.724000  1.0  -0.563
  O  O560  1  0.758500  0.178200  0.749170  1.0  -0.677
  O  O561  1  0.122860  0.433400  0.063600  1.0  -0.6554
  O  O562  1  0.111530  0.344700  0.113300  1.0  -0.6001
  O  O563  1  0.781220  0.609800  0.993700  1.0  -0.6205
  O  O564  1  0.725330  0.575400  0.900900  1.0  -0.7348
  O  O565  1  0.756390  0.773000  0.129690  1.0  -0.6101
  O  O566  1  0.688660  0.812900  0.092200  1.0  -0.7
  O  O567  1  0.364250  0.586700  0.723300  1.0  -0.5815
  O  O568  1  0.353290  0.684700  0.759000  1.0  -0.585
