# generated using pymatgen
data_ZnP2(HO4)2
_symmetry_space_group_name_H-M   'P 1'
_cell_length_a   9.27100000
_cell_length_b   19.78100000
_cell_length_c   27.04500000
_cell_angle_alpha   90.00000000
_cell_angle_beta   90.00000000
_cell_angle_gamma   90.00000000
_symmetry_Int_Tables_number   1
_chemical_formula_structural   ZnP2(HO4)2
_chemical_formula_sum   'Zn16 P32 H32 O128'
_cell_volume   4959.77311130
_cell_formula_units_Z   16
loop_
 _symmetry_equiv_pos_site_id
 _symmetry_equiv_pos_as_xyz
  1  'x, y, z'
loop_
 _atom_site_type_symbol
 _atom_site_label
 _atom_site_symmetry_multiplicity
 _atom_site_fract_x
 _atom_site_fract_y
 _atom_site_fract_z
 _atom_site_occupancy
 _atom_site_charge
  Zn  Zn1  1  0.250000  0.250000  0.510730  1.0  1.1503
  Zn  Zn2  1  0.250000  0.750000  0.010730  1.0  1.1503
  Zn  Zn3  1  0.750000  0.750000  0.510730  1.0  1.1503
  Zn  Zn4  1  0.750000  0.250000  0.010730  1.0  1.1503
  Zn  Zn5  1  0.500000  0.000000  0.760730  1.0  1.1503
  Zn  Zn6  1  0.500000  0.500000  0.260730  1.0  1.1503
  Zn  Zn7  1  0.000000  0.500000  0.760730  1.0  1.1503
  Zn  Zn8  1  0.000000  0.000000  0.260730  1.0  1.1503
  Zn  Zn9  1  0.750000  0.250000  0.656470  1.0  1.0914
  Zn  Zn10  1  0.750000  0.750000  0.156470  1.0  1.0914
  Zn  Zn11  1  0.250000  0.250000  0.156470  1.0  1.0914
  Zn  Zn12  1  0.250000  0.750000  0.656470  1.0  1.0914
  Zn  Zn13  1  0.000000  0.000000  0.906470  1.0  1.0914
  Zn  Zn14  1  0.000000  0.500000  0.406470  1.0  1.0914
  Zn  Zn15  1  0.500000  0.500000  0.906470  1.0  1.0914
  Zn  Zn16  1  0.500000  0.000000  0.406470  1.0  1.0914
  P  P17  1  0.022700  0.253250  0.592840  1.0  1.8601
  P  P18  1  0.344300  0.107030  0.478420  1.0  1.6743
  P  P19  1  0.022700  0.753250  0.092840  1.0  1.8601
  P  P20  1  0.344300  0.607030  0.978420  1.0  1.6743
  P  P21  1  0.522700  0.253250  0.092840  1.0  1.8601
  P  P22  1  0.844300  0.107030  0.978420  1.0  1.6743
  P  P23  1  0.522700  0.753250  0.592840  1.0  1.8601
  P  P24  1  0.844300  0.607030  0.478420  1.0  1.6743
  P  P25  1  0.977300  0.746750  0.592840  1.0  1.8647
  P  P26  1  0.655700  0.892970  0.478420  1.0  1.672
  P  P27  1  0.977300  0.246750  0.092840  1.0  1.8647
  P  P28  1  0.655700  0.392970  0.978420  1.0  1.672
  P  P29  1  0.477300  0.746750  0.092840  1.0  1.8647
  P  P30  1  0.155700  0.892970  0.978420  1.0  1.672
  P  P31  1  0.477300  0.246750  0.592840  1.0  1.8647
  P  P32  1  0.155700  0.392970  0.478420  1.0  1.672
  P  P33  1  0.272700  0.996750  0.842840  1.0  1.8577
  P  P34  1  0.594300  0.142970  0.728420  1.0  1.6742
  P  P35  1  0.272700  0.496750  0.342840  1.0  1.8577
  P  P36  1  0.594300  0.642970  0.228420  1.0  1.6742
  P  P37  1  0.772700  0.996750  0.342840  1.0  1.8577
  P  P38  1  0.094300  0.142970  0.228420  1.0  1.6742
  P  P39  1  0.772700  0.496750  0.842840  1.0  1.8577
  P  P40  1  0.094300  0.642970  0.728420  1.0  1.6742
  P  P41  1  0.227300  0.503250  0.842840  1.0  1.8611
  P  P42  1  0.905700  0.357030  0.728420  1.0  1.6725
  P  P43  1  0.227300  0.003250  0.342840  1.0  1.8611
  P  P44  1  0.905700  0.857030  0.228420  1.0  1.6725
  P  P45  1  0.727300  0.503250  0.342840  1.0  1.8611
  P  P46  1  0.405700  0.357030  0.228420  1.0  1.6725
  P  P47  1  0.727300  0.003250  0.842840  1.0  1.8611
  P  P48  1  0.405700  0.857030  0.728420  1.0  1.6725
  H  H49  1  0.087000  0.300000  0.654000  1.0  0.3551
  H  H50  1  0.170100  0.069200  0.443000  1.0  0.3935
  H  H51  1  0.087000  0.800000  0.154000  1.0  0.3551
  H  H52  1  0.170100  0.569200  0.943000  1.0  0.3935
  H  H53  1  0.587000  0.300000  0.154000  1.0  0.3551
  H  H54  1  0.670100  0.069200  0.943000  1.0  0.3935
  H  H55  1  0.587000  0.800000  0.654000  1.0  0.3551
  H  H56  1  0.670100  0.569200  0.443000  1.0  0.3935
  H  H57  1  0.913000  0.700000  0.654000  1.0  0.3538
  H  H58  1  0.829900  0.930800  0.443000  1.0  0.3901
  H  H59  1  0.913000  0.200000  0.154000  1.0  0.3538
  H  H60  1  0.829900  0.430800  0.943000  1.0  0.3901
  H  H61  1  0.413000  0.700000  0.154000  1.0  0.3538
  H  H62  1  0.329900  0.930800  0.943000  1.0  0.3901
  H  H63  1  0.413000  0.200000  0.654000  1.0  0.3538
  H  H64  1  0.329900  0.430800  0.443000  1.0  0.3901
  H  H65  1  0.337000  0.950000  0.904000  1.0  0.3542
  H  H66  1  0.420100  0.180800  0.693000  1.0  0.3935
  H  H67  1  0.337000  0.450000  0.404000  1.0  0.3542
  H  H68  1  0.420100  0.680800  0.193000  1.0  0.3935
  H  H69  1  0.837000  0.950000  0.404000  1.0  0.3542
  H  H70  1  0.920100  0.180800  0.193000  1.0  0.3935
  H  H71  1  0.837000  0.450000  0.904000  1.0  0.3542
  H  H72  1  0.920100  0.680800  0.693000  1.0  0.3935
  H  H73  1  0.163000  0.550000  0.904000  1.0  0.3557
  H  H74  1  0.079900  0.319200  0.693000  1.0  0.3904
  H  H75  1  0.163000  0.050000  0.404000  1.0  0.3557
  H  H76  1  0.079900  0.819200  0.193000  1.0  0.3904
  H  H77  1  0.663000  0.550000  0.404000  1.0  0.3557
  H  H78  1  0.579900  0.319200  0.193000  1.0  0.3904
  H  H79  1  0.663000  0.050000  0.904000  1.0  0.3557
  H  H80  1  0.579900  0.819200  0.693000  1.0  0.3904
  O  O81  1  0.103900  0.211300  0.554830  1.0  -0.7469
  O  O82  1  0.318300  0.181100  0.466940  1.0  -0.746
  O  O83  1  0.902400  0.211800  0.616220  1.0  -0.7548
  O  O84  1  0.457600  0.080000  0.444400  1.0  -0.8003
  O  O85  1  0.955300  0.316500  0.568600  1.0  -0.6012
  O  O86  1  0.130100  0.277100  0.633500  1.0  -0.5892
  O  O87  1  0.378500  0.096000  0.533700  1.0  -0.5519
  O  O88  1  0.198200  0.065600  0.471600  1.0  -0.6097
  O  O89  1  0.103900  0.711300  0.054830  1.0  -0.7469
  O  O90  1  0.318300  0.681100  0.966940  1.0  -0.746
  O  O91  1  0.902400  0.711800  0.116220  1.0  -0.7548
  O  O92  1  0.457600  0.580000  0.944400  1.0  -0.8003
  O  O93  1  0.955300  0.816500  0.068600  1.0  -0.6012
  O  O94  1  0.130100  0.777100  0.133500  1.0  -0.5892
  O  O95  1  0.378500  0.596000  0.033700  1.0  -0.5519
  O  O96  1  0.198200  0.565600  0.971600  1.0  -0.6097
  O  O97  1  0.603900  0.211300  0.054830  1.0  -0.7469
  O  O98  1  0.818300  0.181100  0.966940  1.0  -0.746
  O  O99  1  0.402400  0.211800  0.116220  1.0  -0.7548
  O  O100  1  0.957600  0.080000  0.944400  1.0  -0.8003
  O  O101  1  0.455300  0.316500  0.068600  1.0  -0.6012
  O  O102  1  0.630100  0.277100  0.133500  1.0  -0.5892
  O  O103  1  0.878500  0.096000  0.033700  1.0  -0.5519
  O  O104  1  0.698200  0.065600  0.971600  1.0  -0.6097
  O  O105  1  0.603900  0.711300  0.554830  1.0  -0.7469
  O  O106  1  0.818300  0.681100  0.466940  1.0  -0.746
  O  O107  1  0.402400  0.711800  0.616220  1.0  -0.7548
  O  O108  1  0.957600  0.580000  0.444400  1.0  -0.8003
  O  O109  1  0.455300  0.816500  0.568600  1.0  -0.6012
  O  O110  1  0.630100  0.777100  0.633500  1.0  -0.5892
  O  O111  1  0.878500  0.596000  0.533700  1.0  -0.5519
  O  O112  1  0.698200  0.565600  0.471600  1.0  -0.6097
  O  O113  1  0.896100  0.788700  0.554830  1.0  -0.7454
  O  O114  1  0.681700  0.818900  0.466940  1.0  -0.7458
  O  O115  1  0.097600  0.788200  0.616220  1.0  -0.7558
  O  O116  1  0.542400  0.920000  0.444400  1.0  -0.7995
  O  O117  1  0.044700  0.683500  0.568600  1.0  -0.6013
  O  O118  1  0.869900  0.722900  0.633500  1.0  -0.5913
  O  O119  1  0.621500  0.904000  0.533700  1.0  -0.5542
  O  O120  1  0.801800  0.934400  0.471600  1.0  -0.6115
  O  O121  1  0.896100  0.288700  0.054830  1.0  -0.7454
  O  O122  1  0.681700  0.318900  0.966940  1.0  -0.7458
  O  O123  1  0.097600  0.288200  0.116220  1.0  -0.7558
  O  O124  1  0.542400  0.420000  0.944400  1.0  -0.7995
  O  O125  1  0.044700  0.183500  0.068600  1.0  -0.6013
  O  O126  1  0.869900  0.222900  0.133500  1.0  -0.5913
  O  O127  1  0.621500  0.404000  0.033700  1.0  -0.5542
  O  O128  1  0.801800  0.434400  0.971600  1.0  -0.6115
  O  O129  1  0.396100  0.788700  0.054830  1.0  -0.7454
  O  O130  1  0.181700  0.818900  0.966940  1.0  -0.7458
  O  O131  1  0.597600  0.788200  0.116220  1.0  -0.7558
  O  O132  1  0.042400  0.920000  0.944400  1.0  -0.7995
  O  O133  1  0.544700  0.683500  0.068600  1.0  -0.6013
  O  O134  1  0.369900  0.722900  0.133500  1.0  -0.5913
  O  O135  1  0.121500  0.904000  0.033700  1.0  -0.5542
  O  O136  1  0.301800  0.934400  0.971600  1.0  -0.6115
  O  O137  1  0.396100  0.288700  0.554830  1.0  -0.7454
  O  O138  1  0.181700  0.318900  0.466940  1.0  -0.7458
  O  O139  1  0.597600  0.288200  0.616220  1.0  -0.7558
  O  O140  1  0.042400  0.420000  0.444400  1.0  -0.7995
  O  O141  1  0.544700  0.183500  0.568600  1.0  -0.6013
  O  O142  1  0.369900  0.222900  0.633500  1.0  -0.5913
  O  O143  1  0.121500  0.404000  0.533700  1.0  -0.5542
  O  O144  1  0.301800  0.434400  0.471600  1.0  -0.6115
  O  O145  1  0.353900  0.038700  0.804830  1.0  -0.7463
  O  O146  1  0.568300  0.068900  0.716940  1.0  -0.7458
  O  O147  1  0.152400  0.038200  0.866220  1.0  -0.756
  O  O148  1  0.707600  0.170000  0.694400  1.0  -0.7988
  O  O149  1  0.205300  0.933500  0.818600  1.0  -0.5993
  O  O150  1  0.380100  0.972900  0.883500  1.0  -0.5886
  O  O151  1  0.628500  0.154000  0.783700  1.0  -0.5521
  O  O152  1  0.448200  0.184400  0.721600  1.0  -0.6117
  O  O153  1  0.353900  0.538700  0.304830  1.0  -0.7463
  O  O154  1  0.568300  0.568900  0.216940  1.0  -0.7458
  O  O155  1  0.152400  0.538200  0.366220  1.0  -0.756
  O  O156  1  0.707600  0.670000  0.194400  1.0  -0.7988
  O  O157  1  0.205300  0.433500  0.318600  1.0  -0.5993
  O  O158  1  0.380100  0.472900  0.383500  1.0  -0.5886
  O  O159  1  0.628500  0.654000  0.283700  1.0  -0.5521
  O  O160  1  0.448200  0.684400  0.221600  1.0  -0.6117
  O  O161  1  0.853900  0.038700  0.304830  1.0  -0.7463
  O  O162  1  0.068300  0.068900  0.216940  1.0  -0.7458
  O  O163  1  0.652400  0.038200  0.366220  1.0  -0.756
  O  O164  1  0.207600  0.170000  0.194400  1.0  -0.7988
  O  O165  1  0.705300  0.933500  0.318600  1.0  -0.5993
  O  O166  1  0.880100  0.972900  0.383500  1.0  -0.5886
  O  O167  1  0.128500  0.154000  0.283700  1.0  -0.5521
  O  O168  1  0.948200  0.184400  0.221600  1.0  -0.6117
  O  O169  1  0.853900  0.538700  0.804830  1.0  -0.7463
  O  O170  1  0.068300  0.568900  0.716940  1.0  -0.7458
  O  O171  1  0.652400  0.538200  0.866220  1.0  -0.756
  O  O172  1  0.207600  0.670000  0.694400  1.0  -0.7988
  O  O173  1  0.705300  0.433500  0.818600  1.0  -0.5993
  O  O174  1  0.880100  0.472900  0.883500  1.0  -0.5886
  O  O175  1  0.128500  0.654000  0.783700  1.0  -0.5521
  O  O176  1  0.948200  0.684400  0.721600  1.0  -0.6117
  O  O177  1  0.146100  0.461300  0.804830  1.0  -0.7464
  O  O178  1  0.931700  0.431100  0.716940  1.0  -0.7463
  O  O179  1  0.347600  0.461800  0.866220  1.0  -0.7553
  O  O180  1  0.792400  0.330000  0.694400  1.0  -0.7988
  O  O181  1  0.294700  0.566500  0.818600  1.0  -0.6028
  O  O182  1  0.119900  0.527100  0.883500  1.0  -0.5906
  O  O183  1  0.871500  0.346000  0.783700  1.0  -0.554
  O  O184  1  0.051800  0.315600  0.721600  1.0  -0.609
  O  O185  1  0.146100  0.961300  0.304830  1.0  -0.7464
  O  O186  1  0.931700  0.931100  0.216940  1.0  -0.7463
  O  O187  1  0.347600  0.961800  0.366220  1.0  -0.7553
  O  O188  1  0.792400  0.830000  0.194400  1.0  -0.7988
  O  O189  1  0.294700  0.066500  0.318600  1.0  -0.6028
  O  O190  1  0.119900  0.027100  0.383500  1.0  -0.5906
  O  O191  1  0.871500  0.846000  0.283700  1.0  -0.554
  O  O192  1  0.051800  0.815600  0.221600  1.0  -0.609
  O  O193  1  0.646100  0.461300  0.304830  1.0  -0.7464
  O  O194  1  0.431700  0.431100  0.216940  1.0  -0.7463
  O  O195  1  0.847600  0.461800  0.366220  1.0  -0.7553
  O  O196  1  0.292400  0.330000  0.194400  1.0  -0.7988
  O  O197  1  0.794700  0.566500  0.318600  1.0  -0.6028
  O  O198  1  0.619900  0.527100  0.383500  1.0  -0.5906
  O  O199  1  0.371500  0.346000  0.283700  1.0  -0.554
  O  O200  1  0.551800  0.315600  0.221600  1.0  -0.609
  O  O201  1  0.646100  0.961300  0.804830  1.0  -0.7464
  O  O202  1  0.431700  0.931100  0.716940  1.0  -0.7463
  O  O203  1  0.847600  0.961800  0.866220  1.0  -0.7553
  O  O204  1  0.292400  0.830000  0.694400  1.0  -0.7988
  O  O205  1  0.794700  0.066500  0.818600  1.0  -0.6028
  O  O206  1  0.619900  0.027100  0.883500  1.0  -0.5906
  O  O207  1  0.371500  0.846000  0.783700  1.0  -0.554
  O  O208  1  0.551800  0.815600  0.721600  1.0  -0.609
