# generated using pymatgen
data_Cd7Co2H38C92(N3O10)4
_symmetry_space_group_name_H-M   'P 1'
_cell_length_a   16.41300000
_cell_length_b   18.43000000
_cell_length_c   24.70000000
_cell_angle_alpha   87.90000000
_cell_angle_beta   85.39500000
_cell_angle_gamma   75.05800000
_symmetry_Int_Tables_number   1
_chemical_formula_structural   Cd7Co2H38C92(N3O10)4
_chemical_formula_sum   'Cd14 Co4 H76 C184 N24 O80'
_cell_volume   7194.61995653
_cell_formula_units_Z   2
loop_
 _symmetry_equiv_pos_site_id
 _symmetry_equiv_pos_as_xyz
  1  'x, y, z'
loop_
 _atom_site_type_symbol
 _atom_site_label
 _atom_site_symmetry_multiplicity
 _atom_site_fract_x
 _atom_site_fract_y
 _atom_site_fract_z
 _atom_site_occupancy
 _atom_site_charge
  Cd  Cd1  1  0.246190  0.178420  0.352820  1.0  1.0604
  Cd  Cd2  1  0.918890  0.329510  0.554070  1.0  0.9553
  Cd  Cd3  1  0.635960  0.485840  0.496100  1.0  0.8649
  Cd  Cd4  1  0.727530  0.235000  0.031380  1.0  0.844
  Cd  Cd5  1  0.834620  0.699900  0.155940  1.0  0.9479
  Cd  Cd6  1  0.606390  0.996490  0.643640  1.0  0.9944
  Cd  Cd7  1  0.668980  0.052130  0.998950  1.0  0.7885
  Cd  Cd8  1  0.753810  0.821580  0.647180  1.0  1.0608
  Cd  Cd9  1  0.081110  0.670490  0.445930  1.0  0.9575
  Cd  Cd10  1  0.364040  0.514160  0.503900  1.0  0.8656
  Cd  Cd11  1  0.272470  0.765000  0.968620  1.0  0.8433
  Cd  Cd12  1  0.165380  0.300100  0.844060  1.0  0.9461
  Cd  Cd13  1  0.393610  0.003510  0.356360  1.0  0.9934
  Cd  Cd14  1  0.331020  0.947870  0.001050  1.0  0.786
  Co  Co15  1  0.790730  0.101400  0.337120  1.0  0.4808
  Co  Co16  1  0.236310  0.364640  0.152320  1.0  0.4293
  Co  Co17  1  0.209270  0.898600  0.662880  1.0  0.4804
  Co  Co18  1  0.763690  0.635360  0.847680  1.0  0.428
  H  H19  1  0.853200  0.229500  0.144200  1.0  0.3795
  H  H20  1  0.790600  0.504100  0.310700  1.0  0.4178
  H  H21  1  0.588500  0.034500  0.235300  1.0  0.1304
  H  H22  1  0.566300  0.140300  0.180800  1.0  0.0965
  H  H23  1  0.631500  0.234300  0.194200  1.0  0.1419
  H  H24  1  0.964500  0.178900  0.305700  1.0  0.1227
  H  H25  1  0.977400  0.316400  0.424400  1.0  0.1215
  H  H26  1  0.752500  0.316500  0.371400  1.0  0.1198
  H  H27  1  0.681500  0.019500  0.451300  1.0  0.1196
  H  H28  1  0.846500  0.851100  0.521900  1.0  0.1163
  H  H29  1  0.878100  0.893000  0.362200  1.0  0.1235
  H  H30  1  0.079800  0.003900  0.376700  1.0  0.1365
  H  H31  1  0.061100  0.051000  0.463600  1.0  0.1103
  H  H32  1  0.926900  0.115800  0.498400  1.0  0.1343
  H  H33  1  0.661300  0.287100  0.439500  1.0  0.1179
  H  H34  1  0.418300  0.300900  0.419900  1.0  0.1193
  H  H35  1  0.595100  0.113000  0.381500  1.0  0.1139
  H  H36  1  0.874300  0.912700  0.254000  1.0  0.1186
  H  H37  1  0.790300  0.966500  0.105800  1.0  0.1273
  H  H38  1  0.848100  0.120700  0.195000  1.0  0.1032
  H  H39  1  0.980800  0.519100  0.085800  1.0  0.1406
  H  H40  1  0.957800  0.426900  0.032800  1.0  0.1099
  H  H41  1  0.054200  0.310100  0.027700  1.0  0.1334
  H  H42  1  0.264600  0.181000  0.208700  1.0  0.1245
  H  H43  1  0.483100  0.031600  0.167600  1.0  0.1197
  H  H44  1  0.391300  0.201500  0.064600  1.0  0.1292
  H  H45  1  0.334100  0.503500  0.171600  1.0  0.117
  H  H46  1  0.307300  0.596000  0.317600  1.0  0.1197
  H  H47  1  0.117100  0.527900  0.263800  1.0  0.1322
  H  H48  1  0.522800  0.346300  0.186100  1.0  0.1293
  H  H49  1  0.507500  0.319100  0.277200  1.0  0.114
  H  H50  1  0.376300  0.303900  0.316500  1.0  0.1445
  H  H51  1  0.059200  0.418100  0.283100  1.0  0.1256
  H  H52  1  0.862700  0.355500  0.229200  1.0  0.1224
  H  H53  1  0.099100  0.249100  0.179200  1.0  0.1196
  H  H54  1  0.280000  0.335800  0.010900  1.0  0.1229
  H  H55  1  0.224900  0.524800  0.920200  1.0  0.1208
  H  H56  1  0.316000  0.526300  0.066600  1.0  0.1282
  H  H57  1  0.146800  0.770500  0.855800  1.0  0.3798
  H  H58  1  0.209400  0.495900  0.689300  1.0  0.4148
  H  H59  1  0.411500  0.965500  0.764700  1.0  0.1306
  H  H60  1  0.433700  0.859700  0.819200  1.0  0.0963
  H  H61  1  0.368500  0.765700  0.805800  1.0  0.1414
  H  H62  1  0.035500  0.821100  0.694300  1.0  0.1227
  H  H63  1  0.022600  0.683600  0.575600  1.0  0.1214
  H  H64  1  0.247500  0.683500  0.628600  1.0  0.1199
  H  H65  1  0.318500  0.980500  0.548700  1.0  0.119
  H  H66  1  0.153500  0.148900  0.478100  1.0  0.1164
  H  H67  1  0.121900  0.107000  0.637800  1.0  0.1243
  H  H68  1  0.920200  0.996100  0.623300  1.0  0.1353
  H  H69  1  0.938900  0.949000  0.536400  1.0  0.1105
  H  H70  1  0.073100  0.884200  0.501600  1.0  0.133
  H  H71  1  0.338700  0.712900  0.560500  1.0  0.1185
  H  H72  1  0.581700  0.699100  0.580100  1.0  0.1194
  H  H73  1  0.404900  0.887000  0.618500  1.0  0.1126
  H  H74  1  0.125700  0.087300  0.746000  1.0  0.1181
  H  H75  1  0.209700  0.033500  0.894200  1.0  0.1276
  H  H76  1  0.151900  0.879300  0.805000  1.0  0.1046
  H  H77  1  0.019200  0.480900  0.914200  1.0  0.14
  H  H78  1  0.042200  0.573100  0.967200  1.0  0.1101
  H  H79  1  0.945800  0.689900  0.972300  1.0  0.1336
  H  H80  1  0.735400  0.819000  0.791300  1.0  0.1246
  H  H81  1  0.516900  0.968400  0.832400  1.0  0.1195
  H  H82  1  0.608700  0.798500  0.935400  1.0  0.1302
  H  H83  1  0.665900  0.496500  0.828400  1.0  0.1182
  H  H84  1  0.692700  0.404000  0.682400  1.0  0.12
  H  H85  1  0.882900  0.472100  0.736200  1.0  0.1323
  H  H86  1  0.477200  0.653700  0.813900  1.0  0.1291
  H  H87  1  0.492500  0.680900  0.722800  1.0  0.1139
  H  H88  1  0.623700  0.696100  0.683500  1.0  0.1446
  H  H89  1  0.940800  0.581900  0.716900  1.0  0.1252
  H  H90  1  0.137300  0.644500  0.770800  1.0  0.1233
  H  H91  1  0.900900  0.750900  0.820800  1.0  0.1188
  H  H92  1  0.720000  0.664200  0.989100  1.0  0.1218
  H  H93  1  0.775100  0.475200  0.079800  1.0  0.1205
  H  H94  1  0.684000  0.473700  0.933400  1.0  0.1292
  C  C95  1  0.696900  0.999300  0.320700  1.0  0.6127
  C  C96  1  0.670600  0.062800  0.281100  1.0  0.1462
  C  C97  1  0.616100  0.071500  0.240800  1.0  -0.1027
  C  C98  1  0.602500  0.135300  0.208600  1.0  -0.0691
  C  C99  1  0.640400  0.191500  0.216300  1.0  -0.1375
  C  C100  1  0.693500  0.181900  0.259200  1.0  0.157
  C  C101  1  0.742700  0.234900  0.276200  1.0  0.5793
  C  C102  1  0.849800  0.240000  0.334500  1.0  0.209
  C  C103  1  0.937400  0.215100  0.331000  1.0  -0.0829
  C  C104  1  0.984700  0.243600  0.364500  1.0  -0.1154
  C  C105  1  0.945400  0.297900  0.401500  1.0  0.0215
  C  C106  1  0.856900  0.325600  0.404700  1.0  -0.1592
  C  C107  1  0.810800  0.297100  0.370400  1.0  -0.1127
  C  C108  1  0.080700  0.215000  0.362000  1.0  0.6731
  C  C109  1  0.812200  0.382800  0.445200  1.0  0.7019
  C  C110  1  0.775900  0.963300  0.398200  1.0  0.2174
  C  C111  1  0.730300  0.980300  0.448800  1.0  -0.0855
  C  C112  1  0.757800  0.939200  0.494700  1.0  -0.1332
  C  C113  1  0.829300  0.879600  0.491100  1.0  -0.0441
  C  C114  1  0.875100  0.862300  0.441500  1.0  -0.1341
  C  C115  1  0.847400  0.904700  0.395500  1.0  -0.1138
  C  C116  1  0.707300  0.958900  0.548100  1.0  0.7035
  C  C117  1  0.951500  0.796700  0.438900  1.0  0.7241
  C  C118  1  0.954600  0.018900  0.302900  1.0  0.5743
  C  C119  1  0.957200  0.042100  0.360100  1.0  0.1452
  C  C120  1  0.026600  0.030200  0.390800  1.0  -0.0529
  C  C121  1  0.015200  0.058200  0.442400  1.0  -0.0771
  C  C122  1  0.935200  0.097200  0.463300  1.0  -0.0468
  C  C123  1  0.868700  0.107500  0.430600  1.0  0.1569
  C  C124  1  0.778900  0.148500  0.444700  1.0  0.5793
  C  C125  1  0.644000  0.192000  0.409200  1.0  0.2434
  C  C126  1  0.620000  0.265100  0.429300  1.0  -0.1346
  C  C127  1  0.535900  0.305600  0.434300  1.0  -0.1424
  C  C128  1  0.474500  0.273500  0.417800  1.0  0.0138
  C  C129  1  0.495800  0.201100  0.398200  1.0  -0.1763
  C  C130  1  0.580600  0.161800  0.394500  1.0  -0.0531
  C  C131  1  0.510500  0.382300  0.459400  1.0  0.705
  C  C132  1  0.430500  0.163800  0.382800  1.0  0.6888
  C  C133  1  0.862300  0.022000  0.233900  1.0  0.2508
  C  C134  1  0.859700  0.947900  0.226200  1.0  -0.0871
  C  C135  1  0.836000  0.925700  0.178600  1.0  -0.115
  C  C136  1  0.810200  0.979800  0.137300  1.0  0.0119
  C  C137  1  0.814600  0.053000  0.144100  1.0  -0.1289
  C  C138  1  0.842500  0.072100  0.191600  1.0  -0.1407
  C  C139  1  0.830900  0.846400  0.171000  1.0  0.6777
  C  C140  1  0.783200  0.112300  0.101200  1.0  0.7219
  C  C141  1  0.117900  0.504300  0.150600  1.0  0.6387
  C  C142  1  0.091300  0.454900  0.113400  1.0  0.1751
  C  C143  1  0.018700  0.471900  0.083900  1.0  -0.0772
  C  C144  1  0.005500  0.417100  0.052600  1.0  -0.0855
  C  C145  1  0.062600  0.346800  0.049900  1.0  -0.0955
  C  C146  1  0.130200  0.332500  0.079800  1.0  0.1528
  C  C147  1  0.197500  0.259400  0.085500  1.0  0.6125
  C  C148  1  0.316100  0.200400  0.133900  1.0  0.2033
  C  C149  1  0.311000  0.164100  0.184100  1.0  -0.0966
  C  C150  1  0.375300  0.102900  0.197200  1.0  -0.1516
  C  C151  1  0.442200  0.075100  0.159500  1.0  -0.071
  C  C152  1  0.448800  0.111400  0.110000  1.0  -0.0872
  C  C153  1  0.386200  0.175600  0.097200  1.0  -0.1158
  C  C154  1  0.370600  0.068400  0.252700  1.0  0.7011
  C  C155  1  0.523100  0.083600  0.070400  1.0  0.7452
  C  C156  1  0.221500  0.508100  0.211500  1.0  0.2149
  C  C157  1  0.302600  0.517200  0.204400  1.0  -0.1343
  C  C158  1  0.337900  0.546100  0.244300  1.0  -0.0995
  C  C159  1  0.286400  0.572600  0.291100  1.0  0.0217
  C  C160  1  0.206700  0.564600  0.298300  1.0  -0.1163
  C  C161  1  0.172200  0.532700  0.258700  1.0  -0.1443
  C  C162  1  0.426600  0.552200  0.236500  1.0  0.7518
  C  C163  1  0.150200  0.593700  0.349600  1.0  0.7038
  C  C164  1  0.398100  0.376800  0.112800  1.0  0.5893
  C  C165  1  0.404000  0.350300  0.171000  1.0  0.1975
  C  C166  1  0.471100  0.341200  0.201700  1.0  -0.0539
  C  C167  1  0.462000  0.324400  0.255800  1.0  -0.1072
  C  C168  1  0.384000  0.315100  0.279700  1.0  -0.0783
  C  C169  1  0.320600  0.323400  0.245600  1.0  0.1816
  C  C170  1  0.231100  0.317800  0.260900  1.0  0.5991
  C  C171  1  0.095000  0.334800  0.226900  1.0  0.1809
  C  C172  1  0.038200  0.388000  0.261400  1.0  -0.0475
  C  C173  1  0.952300  0.395300  0.263100  1.0  -0.163
  C  C174  1  0.920600  0.349300  0.229900  1.0  -0.0201
  C  C175  1  0.975600  0.296400  0.199300  1.0  -0.0957
  C  C176  1  0.062500  0.287800  0.199000  1.0  -0.1153
  C  C177  1  0.893900  0.453600  0.299100  1.0  0.7264
  C  C178  1  0.946000  0.246100  0.164400  1.0  0.6328
  C  C179  1  0.299300  0.424700  0.047200  1.0  0.2573
  C  C180  1  0.275900  0.387000  0.006800  1.0  -0.0759
  C  C181  1  0.246100  0.424500  0.959700  1.0  -0.1516
  C  C182  1  0.244300  0.499900  0.951900  1.0  0.0026
  C  C183  1  0.271100  0.537800  0.991200  1.0  -0.134
  C  C184  1  0.298600  0.500700  0.039700  1.0  -0.0941
  C  C185  1  0.218900  0.381200  0.918200  1.0  0.691
  C  C186  1  0.275700  0.617200  0.981800  1.0  0.6568
  C  C187  1  0.303100  0.000700  0.679300  1.0  0.6118
  C  C188  1  0.329400  0.937200  0.718900  1.0  0.1458
  C  C189  1  0.383900  0.928500  0.759200  1.0  -0.1049
  C  C190  1  0.397500  0.864700  0.791400  1.0  -0.0692
  C  C191  1  0.359600  0.808500  0.783700  1.0  -0.1362
  C  C192  1  0.306500  0.818100  0.740800  1.0  0.1577
  C  C193  1  0.257300  0.765100  0.723800  1.0  0.5803
  C  C194  1  0.150200  0.760000  0.665500  1.0  0.2083
  C  C195  1  0.062600  0.784900  0.669000  1.0  -0.0837
  C  C196  1  0.015300  0.756400  0.635500  1.0  -0.1156
  C  C197  1  0.054600  0.702100  0.598500  1.0  0.0202
  C  C198  1  0.143100  0.674400  0.595300  1.0  -0.1602
  C  C199  1  0.189200  0.702900  0.629600  1.0  -0.1108
  C  C200  1  0.919300  0.785000  0.638000  1.0  0.6714
  C  C201  1  0.187800  0.617200  0.554800  1.0  0.705
  C  C202  1  0.224100  0.036700  0.601800  1.0  0.2178
  C  C203  1  0.269700  0.019700  0.551200  1.0  -0.0847
  C  C204  1  0.242200  0.060800  0.505300  1.0  -0.1349
  C  C205  1  0.170700  0.120400  0.508900  1.0  -0.0446
  C  C206  1  0.124900  0.137700  0.558500  1.0  -0.1321
  C  C207  1  0.152600  0.095300  0.604500  1.0  -0.118
  C  C208  1  0.292700  0.041100  0.451900  1.0  0.7038
  C  C209  1  0.048500  0.203300  0.561100  1.0  0.7235
  C  C210  1  0.045400  0.981100  0.697100  1.0  0.5744
  C  C211  1  0.042800  0.957900  0.639900  1.0  0.1479
  C  C212  1  0.973400  0.969800  0.609200  1.0  -0.0519
  C  C213  1  0.984800  0.941800  0.557600  1.0  -0.0786
  C  C214  1  0.064800  0.902800  0.536700  1.0  -0.0468
  C  C215  1  0.131300  0.892500  0.569400  1.0  0.1524
  C  C216  1  0.221100  0.851500  0.555300  1.0  0.5778
  C  C217  1  0.356000  0.808000  0.590800  1.0  0.2434
  C  C218  1  0.380000  0.734900  0.570700  1.0  -0.1342
  C  C219  1  0.464100  0.694400  0.565700  1.0  -0.1411
  C  C220  1  0.525500  0.726500  0.582200  1.0  0.0138
  C  C221  1  0.504200  0.798900  0.601800  1.0  -0.1772
  C  C222  1  0.419400  0.838200  0.605500  1.0  -0.0531
  C  C223  1  0.489500  0.617700  0.540600  1.0  0.7074
  C  C224  1  0.569500  0.836200  0.617200  1.0  0.6886
  C  C225  1  0.137700  0.978000  0.766100  1.0  0.2508
  C  C226  1  0.140300  0.052100  0.773800  1.0  -0.0871
  C  C227  1  0.164000  0.074300  0.821400  1.0  -0.1147
  C  C228  1  0.189800  0.020200  0.862700  1.0  0.0103
  C  C229  1  0.185400  0.947000  0.855900  1.0  -0.127
  C  C230  1  0.157500  0.927900  0.808400  1.0  -0.1393
  C  C231  1  0.169100  0.153600  0.829000  1.0  0.6758
  C  C232  1  0.216800  0.887700  0.898800  1.0  0.7258
  C  C233  1  0.882100  0.495700  0.849400  1.0  0.6385
  C  C234  1  0.908700  0.545100  0.886600  1.0  0.1769
  C  C235  1  0.981300  0.528100  0.916100  1.0  -0.0794
  C  C236  1  0.994500  0.582900  0.947400  1.0  -0.0833
  C  C237  1  0.937400  0.653200  0.950100  1.0  -0.0965
  C  C238  1  0.869800  0.667500  0.920200  1.0  0.1542
  C  C239  1  0.802500  0.740600  0.914500  1.0  0.6139
  C  C240  1  0.683900  0.799600  0.866100  1.0  0.2031
  C  C241  1  0.689000  0.835900  0.815900  1.0  -0.0956
  C  C242  1  0.624700  0.897100  0.802800  1.0  -0.1506
  C  C243  1  0.557800  0.924900  0.840500  1.0  -0.0712
  C  C244  1  0.551200  0.888600  0.890000  1.0  -0.0904
  C  C245  1  0.613800  0.824400  0.902800  1.0  -0.1183
  C  C246  1  0.629400  0.931600  0.747300  1.0  0.7003
  C  C247  1  0.476900  0.916400  0.929600  1.0  0.7452
  C  C248  1  0.778500  0.491900  0.788500  1.0  0.2165
  C  C249  1  0.697400  0.482800  0.795600  1.0  -0.1353
  C  C250  1  0.662100  0.453900  0.755700  1.0  -0.098
  C  C251  1  0.713600  0.427400  0.708900  1.0  0.0219
  C  C252  1  0.793300  0.435400  0.701700  1.0  -0.1182
  C  C253  1  0.827800  0.467300  0.741300  1.0  -0.1422
  C  C254  1  0.573400  0.447800  0.763500  1.0  0.7514
  C  C255  1  0.849800  0.406300  0.650400  1.0  0.704
  C  C256  1  0.601900  0.623200  0.887200  1.0  0.5904
  C  C257  1  0.596000  0.649700  0.829000  1.0  0.1975
  C  C258  1  0.528900  0.658800  0.798300  1.0  -0.0529
  C  C259  1  0.538000  0.675600  0.744200  1.0  -0.1088
  C  C260  1  0.616000  0.684900  0.720300  1.0  -0.0769
  C  C261  1  0.679400  0.676600  0.754400  1.0  0.1791
  C  C262  1  0.768900  0.682200  0.739100  1.0  0.6012
  C  C263  1  0.905000  0.665200  0.773100  1.0  0.1809
  C  C264  1  0.961800  0.612000  0.738600  1.0  -0.0497
  C  C265  1  0.047700  0.604700  0.736900  1.0  -0.1629
  C  C266  1  0.079400  0.650700  0.770100  1.0  -0.0192
  C  C267  1  0.024400  0.703600  0.800700  1.0  -0.0957
  C  C268  1  0.937500  0.712200  0.801000  1.0  -0.1164
  C  C269  1  0.106100  0.546400  0.700900  1.0  0.7302
  C  C270  1  0.054000  0.753900  0.835600  1.0  0.6317
  C  C271  1  0.700700  0.575300  0.952800  1.0  0.257
  C  C272  1  0.724100  0.613000  0.993200  1.0  -0.0736
  C  C273  1  0.753900  0.575500  0.040300  1.0  -0.1504
  C  C274  1  0.755700  0.500100  0.048100  1.0  0.0028
  C  C275  1  0.728900  0.462200  0.008800  1.0  -0.1343
  C  C276  1  0.701400  0.499300  0.960300  1.0  -0.0919
  C  C277  1  0.781100  0.618800  0.081800  1.0  0.6918
  C  C278  1  0.724300  0.382800  0.018200  1.0  0.6613
  N  N279  1  0.751500  0.011200  0.352400  1.0  -0.3094
  N  N280  1  0.706200  0.120000  0.289200  1.0  -0.2939
  N  N281  1  0.802000  0.200100  0.308600  1.0  -0.3784
  N  N282  1  0.878700  0.045000  0.285100  1.0  -0.3657
  N  N283  1  0.881600  0.079900  0.381100  1.0  -0.2772
  N  N284  1  0.729800  0.151300  0.402800  1.0  -0.3283
  N  N285  1  0.190600  0.470200  0.171200  1.0  -0.353
  N  N286  1  0.143100  0.386500  0.110500  1.0  -0.2857
  N  N287  1  0.251700  0.265600  0.120900  1.0  -0.3488
  N  N288  1  0.182900  0.334100  0.219800  1.0  -0.3664
  N  N289  1  0.330300  0.342900  0.193800  1.0  -0.2617
  N  N290  1  0.320600  0.389700  0.098300  1.0  -0.3353
  N  N291  1  0.248500  0.988800  0.647600  1.0  -0.3046
  N  N292  1  0.293800  0.880000  0.710800  1.0  -0.2935
  N  N293  1  0.198000  0.799900  0.691400  1.0  -0.3788
  N  N294  1  0.121300  0.955000  0.714900  1.0  -0.3635
  N  N295  1  0.118400  0.920100  0.618900  1.0  -0.278
  N  N296  1  0.270200  0.848700  0.597200  1.0  -0.3253
  N  N297  1  0.809400  0.529800  0.828800  1.0  -0.3537
  N  N298  1  0.856900  0.613500  0.889500  1.0  -0.2841
  N  N299  1  0.748300  0.734400  0.879100  1.0  -0.3486
  N  N300  1  0.817100  0.665900  0.780200  1.0  -0.3656
  N  N301  1  0.669700  0.657100  0.806200  1.0  -0.2614
  N  N302  1  0.679400  0.610300  0.901700  1.0  -0.3374
  O  O303  1  0.665500  0.943900  0.320800  1.0  -0.5138
  O  O304  1  0.727300  0.301300  0.259300  1.0  -0.5357
  O  O305  1  0.115800  0.170600  0.323900  1.0  -0.5844
  O  O306  1  0.120100  0.236100  0.396900  1.0  -0.5491
  O  O307  1  0.852000  0.397900  0.483300  1.0  -0.6992
  O  O308  1  0.737300  0.413600  0.439000  1.0  -0.6142
  O  O309  1  0.637800  0.005200  0.549400  1.0  -0.6313
  O  O310  1  0.737800  0.928300  0.591500  1.0  -0.7199
  O  O311  1  0.976800  0.765900  0.480700  1.0  -0.5999
  O  O312  1  0.987000  0.774200  0.392800  1.0  -0.6665
  O  O313  1  0.019200  0.977600  0.278400  1.0  -0.487
  O  O314  1  0.756600  0.173300  0.491100  1.0  -0.498
  O  O315  1  0.354700  0.204800  0.384600  1.0  -0.6076
  O  O316  1  0.453600  0.098100  0.368200  1.0  -0.6177
  O  O317  1  0.437300  0.422600  0.451300  1.0  -0.5978
  O  O318  1  0.561400  0.403100  0.482400  1.0  -0.6399
  O  O319  1  0.804700  0.828600  0.129600  1.0  -0.5599
  O  O320  1  0.859100  0.798800  0.207300  1.0  -0.6375
  O  O321  1  0.793900  0.177800  0.106100  1.0  -0.6602
  O  O322  1  0.746500  0.096700  0.062200  1.0  -0.7826
  O  O323  1  0.076500  0.570400  0.158300  1.0  -0.4833
  O  O324  1  0.195700  0.203000  0.060400  1.0  -0.4812
  O  O325  1  0.311200  0.096400  0.287200  1.0  -0.68
  O  O326  1  0.429200  0.011100  0.264400  1.0  -0.5886
  O  O327  1  0.550400  0.130400  0.042800  1.0  -0.5987
  O  O328  1  0.557900  0.016700  0.069000  1.0  -0.559
  O  O329  1  0.472300  0.516100  0.199900  1.0  -0.394
  O  O330  1  0.454400  0.586800  0.269400  1.0  -0.3785
  O  O331  1  0.184900  0.610500  0.388100  1.0  -0.537
  O  O332  1  0.075000  0.602100  0.351900  1.0  -0.5488
  O  O333  1  0.462700  0.386300  0.085500  1.0  -0.5151
  O  O334  1  0.212300  0.297300  0.308600  1.0  -0.6591
  O  O335  1  0.992600  0.196300  0.137900  1.0  -0.4692
  O  O336  1  0.865000  0.259200  0.164200  1.0  -0.4719
  O  O337  1  0.817200  0.472300  0.289000  1.0  -0.478
  O  O338  1  0.921900  0.479100  0.336800  1.0  -0.4799
  O  O339  1  0.247800  0.651300  0.939400  1.0  -0.5782
  O  O340  1  0.308700  0.647600  0.015800  1.0  -0.6355
  O  O341  1  0.181100  0.415400  0.878300  1.0  -0.5959
  O  O342  1  0.231400  0.310600  0.924300  1.0  -0.6668
  O  O343  1  0.334500  0.056100  0.679200  1.0  -0.5191
  O  O344  1  0.272700  0.698700  0.740700  1.0  -0.5326
  O  O345  1  0.884200  0.829400  0.676100  1.0  -0.5876
  O  O346  1  0.879900  0.763900  0.603100  1.0  -0.5479
  O  O347  1  0.148000  0.602100  0.516700  1.0  -0.6978
  O  O348  1  0.262700  0.586400  0.561000  1.0  -0.6138
  O  O349  1  0.362200  0.994800  0.450600  1.0  -0.6325
  O  O350  1  0.262200  0.071700  0.408500  1.0  -0.7171
  O  O351  1  0.023200  0.234100  0.519300  1.0  -0.5989
  O  O352  1  0.013000  0.225800  0.607200  1.0  -0.6684
  O  O353  1  0.980800  0.022400  0.721600  1.0  -0.4855
  O  O354  1  0.243400  0.826700  0.508900  1.0  -0.4906
  O  O355  1  0.645300  0.795200  0.615400  1.0  -0.6085
  O  O356  1  0.546400  0.901900  0.631800  1.0  -0.6182
  O  O357  1  0.562700  0.577400  0.548700  1.0  -0.597
  O  O358  1  0.438600  0.596900  0.517600  1.0  -0.6395
  O  O359  1  0.195300  0.171400  0.870400  1.0  -0.5587
  O  O360  1  0.140900  0.201200  0.792700  1.0  -0.6413
  O  O361  1  0.206100  0.822200  0.893900  1.0  -0.661
  O  O362  1  0.253500  0.903300  0.937800  1.0  -0.7798
  O  O363  1  0.923500  0.429600  0.841700  1.0  -0.4819
  O  O364  1  0.804300  0.797000  0.939600  1.0  -0.4781
  O  O365  1  0.688800  0.903600  0.712800  1.0  -0.6815
  O  O366  1  0.570800  0.988900  0.735600  1.0  -0.5848
  O  O367  1  0.449600  0.869600  0.957200  1.0  -0.5979
  O  O368  1  0.442100  0.983300  0.931000  1.0  -0.5564
  O  O369  1  0.527700  0.483900  0.800100  1.0  -0.3901
  O  O370  1  0.545600  0.413200  0.730600  1.0  -0.3722
  O  O371  1  0.815100  0.389500  0.611900  1.0  -0.5413
  O  O372  1  0.925000  0.397900  0.648100  1.0  -0.5454
  O  O373  1  0.537300  0.613700  0.914500  1.0  -0.5129
  O  O374  1  0.787700  0.702700  0.691400  1.0  -0.6582
  O  O375  1  0.007400  0.803700  0.862100  1.0  -0.4662
  O  O376  1  0.135000  0.740800  0.835800  1.0  -0.4733
  O  O377  1  0.182800  0.527700  0.711000  1.0  -0.4752
  O  O378  1  0.078100  0.520900  0.663200  1.0  -0.4783
  O  O379  1  0.752200  0.348700  0.060600  1.0  -0.5775
  O  O380  1  0.691300  0.352400  0.984200  1.0  -0.6358
  O  O381  1  0.818900  0.584600  0.121700  1.0  -0.6026
  O  O382  1  0.768600  0.689400  0.075700  1.0  -0.669
