# generated using pymatgen
data_Na2Zn8Co2H36C92N12O43
_symmetry_space_group_name_H-M   'P 1'
_cell_length_a   19.10800000
_cell_length_b   28.70400000
_cell_length_c   13.64600000
_cell_angle_alpha   90.00000000
_cell_angle_beta   99.58200000
_cell_angle_gamma   90.00000000
_symmetry_Int_Tables_number   1
_chemical_formula_structural   Na2Zn8Co2H36C92N12O43
_chemical_formula_sum   'Na4 Zn16 Co4 H72 C184 N24 O86'
_cell_volume   7380.08298061
_cell_formula_units_Z   2
loop_
 _symmetry_equiv_pos_site_id
 _symmetry_equiv_pos_as_xyz
  1  'x, y, z'
loop_
 _atom_site_type_symbol
 _atom_site_label
 _atom_site_symmetry_multiplicity
 _atom_site_fract_x
 _atom_site_fract_y
 _atom_site_fract_z
 _atom_site_occupancy
 _atom_site_charge
  Na  Na1  1  0.096600  0.000000  0.985200  1.0  0.948
  Na  Na2  1  0.596600  0.500000  0.985200  1.0  0.948
  Na  Na3  1  0.903400  0.000000  0.014800  1.0  0.9778
  Na  Na4  1  0.403400  0.500000  0.014800  1.0  0.9778
  Zn  Zn5  1  0.197070  0.314110  0.606880  1.0  0.876
  Zn  Zn6  1  0.697070  0.814110  0.606880  1.0  0.876
  Zn  Zn7  1  0.802930  0.314110  0.393120  1.0  0.8754
  Zn  Zn8  1  0.302930  0.814110  0.393120  1.0  0.8754
  Zn  Zn9  1  0.802930  0.685890  0.393120  1.0  0.8743
  Zn  Zn10  1  0.302930  0.185890  0.393120  1.0  0.8743
  Zn  Zn11  1  0.197070  0.685890  0.606880  1.0  0.875
  Zn  Zn12  1  0.697070  0.185890  0.606880  1.0  0.875
  Zn  Zn13  1  0.316120  0.500000  0.198720  1.0  1.1258
  Zn  Zn14  1  0.192140  0.500000  0.969170  1.0  0.9865
  Zn  Zn15  1  0.816120  0.000000  0.198720  1.0  1.1258
  Zn  Zn16  1  0.692140  0.000000  0.969170  1.0  0.9865
  Zn  Zn17  1  0.683880  0.500000  0.801280  1.0  1.1239
  Zn  Zn18  1  0.807860  0.500000  0.030830  1.0  0.9878
  Zn  Zn19  1  0.183880  0.000000  0.801280  1.0  1.1239
  Zn  Zn20  1  0.307860  0.000000  0.030830  1.0  0.9878
  Co  Co21  1  0.000000  0.278670  0.000000  1.0  0.5107
  Co  Co22  1  0.500000  0.778670  0.000000  1.0  0.5107
  Co  Co23  1  0.000000  0.721330  0.000000  1.0  0.5111
  Co  Co24  1  0.500000  0.221330  0.000000  1.0  0.5111
  H  H25  1  0.766600  0.247800  0.828300  1.0  0.1164
  H  H26  1  0.711300  0.302300  0.919300  1.0  0.0996
  H  H27  1  0.777700  0.341700  0.052200  1.0  0.1413
  H  H28  1  0.074000  0.392400  0.064800  1.0  0.1146
  H  H29  1  0.207700  0.395500  0.321100  1.0  0.1137
  H  H30  1  0.043500  0.306700  0.284900  1.0  0.1117
  H  H31  1  0.061100  0.254800  0.772000  1.0  0.1046
  H  H32  1  0.151800  0.132600  0.732300  1.0  0.1103
  H  H33  1  0.018600  0.145000  0.930400  1.0  0.1143
  H  H34  1  0.266600  0.747800  0.828300  1.0  0.1164
  H  H35  1  0.211300  0.802300  0.919300  1.0  0.0996
  H  H36  1  0.277700  0.841700  0.052200  1.0  0.1413
  H  H37  1  0.574000  0.892400  0.064800  1.0  0.1146
  H  H38  1  0.707700  0.895500  0.321100  1.0  0.1137
  H  H39  1  0.543500  0.806700  0.284900  1.0  0.1117
  H  H40  1  0.561100  0.754800  0.772000  1.0  0.1046
  H  H41  1  0.651800  0.632600  0.732300  1.0  0.1103
  H  H42  1  0.518600  0.645000  0.930400  1.0  0.1143
  H  H43  1  0.233400  0.247800  0.171700  1.0  0.1169
  H  H44  1  0.288700  0.302300  0.080700  1.0  0.0989
  H  H45  1  0.222300  0.341700  0.947800  1.0  0.1405
  H  H46  1  0.926000  0.392400  0.935200  1.0  0.1149
  H  H47  1  0.792300  0.395500  0.678900  1.0  0.1136
  H  H48  1  0.956500  0.306700  0.715100  1.0  0.1126
  H  H49  1  0.938900  0.254800  0.228000  1.0  0.1043
  H  H50  1  0.848200  0.132600  0.267700  1.0  0.1106
  H  H51  1  0.981400  0.145000  0.069600  1.0  0.1164
  H  H52  1  0.733400  0.747800  0.171700  1.0  0.1169
  H  H53  1  0.788700  0.802300  0.080700  1.0  0.0989
  H  H54  1  0.722300  0.841700  0.947800  1.0  0.1405
  H  H55  1  0.426000  0.892400  0.935200  1.0  0.1149
  H  H56  1  0.292300  0.895500  0.678900  1.0  0.1136
  H  H57  1  0.456500  0.806700  0.715100  1.0  0.1126
  H  H58  1  0.438900  0.754800  0.228000  1.0  0.1043
  H  H59  1  0.348200  0.632600  0.267700  1.0  0.1106
  H  H60  1  0.481400  0.645000  0.069600  1.0  0.1164
  H  H61  1  0.233400  0.752200  0.171700  1.0  0.1177
  H  H62  1  0.288700  0.697700  0.080700  1.0  0.0989
  H  H63  1  0.222300  0.658300  0.947800  1.0  0.1409
  H  H64  1  0.926000  0.607600  0.935200  1.0  0.1142
  H  H65  1  0.792300  0.604500  0.678900  1.0  0.1121
  H  H66  1  0.956500  0.693300  0.715100  1.0  0.1105
  H  H67  1  0.938900  0.745200  0.228000  1.0  0.1045
  H  H68  1  0.848200  0.867400  0.267700  1.0  0.1115
  H  H69  1  0.981400  0.855000  0.069600  1.0  0.1165
  H  H70  1  0.733400  0.252200  0.171700  1.0  0.1177
  H  H71  1  0.788700  0.197700  0.080700  1.0  0.0989
  H  H72  1  0.722300  0.158300  0.947800  1.0  0.1409
  H  H73  1  0.426000  0.107600  0.935200  1.0  0.1142
  H  H74  1  0.292300  0.104500  0.678900  1.0  0.1121
  H  H75  1  0.456500  0.193300  0.715100  1.0  0.1105
  H  H76  1  0.438900  0.245200  0.228000  1.0  0.1045
  H  H77  1  0.348200  0.367400  0.267700  1.0  0.1115
  H  H78  1  0.481400  0.355000  0.069600  1.0  0.1165
  H  H79  1  0.766600  0.752200  0.828300  1.0  0.1174
  H  H80  1  0.711300  0.697700  0.919300  1.0  0.0991
  H  H81  1  0.777700  0.658300  0.052200  1.0  0.1417
  H  H82  1  0.074000  0.607600  0.064800  1.0  0.1138
  H  H83  1  0.207700  0.604500  0.321100  1.0  0.1124
  H  H84  1  0.043500  0.693300  0.284900  1.0  0.1114
  H  H85  1  0.061100  0.745200  0.772000  1.0  0.1044
  H  H86  1  0.151800  0.867400  0.732300  1.0  0.111
  H  H87  1  0.018600  0.855000  0.930400  1.0  0.1159
  H  H88  1  0.266600  0.252200  0.828300  1.0  0.1174
  H  H89  1  0.211300  0.197700  0.919300  1.0  0.0991
  H  H90  1  0.277700  0.158300  0.052200  1.0  0.1417
  H  H91  1  0.574000  0.107600  0.064800  1.0  0.1138
  H  H92  1  0.707700  0.104500  0.321100  1.0  0.1124
  H  H93  1  0.543500  0.193300  0.284900  1.0  0.1114
  H  H94  1  0.561100  0.245200  0.772000  1.0  0.1035
  H  H95  1  0.651800  0.367400  0.732300  1.0  0.111
  H  H96  1  0.518600  0.355000  0.930400  1.0  0.1159
  C  C97  1  0.911600  0.226100  0.859500  1.0  0.636
  C  C98  1  0.864600  0.256600  0.908900  1.0  0.1536
  C  C99  1  0.792600  0.264000  0.881300  1.0  -0.0967
  C  C100  1  0.759800  0.296800  0.936000  1.0  -0.1029
  C  C101  1  0.799100  0.320900  0.014200  1.0  -0.1015
  C  C102  1  0.871100  0.312880  0.033700  1.0  0.1573
  C  C103  1  0.923800  0.338000  0.107200  1.0  0.5869
  C  C104  1  0.049200  0.346700  0.164100  1.0  0.2281
  C  C105  1  0.088300  0.380800  0.128600  1.0  -0.1179
  C  C106  1  0.148100  0.398200  0.185800  1.0  -0.1434
  C  C107  1  0.167900  0.382900  0.281400  1.0  -0.0024
  C  C108  1  0.128800  0.348600  0.319200  1.0  -0.1333
  C  C109  1  0.069500  0.330000  0.260400  1.0  -0.1281
  C  C110  1  0.195600  0.434500  0.145100  1.0  0.7183
  C  C111  1  0.151100  0.332400  0.424400  1.0  0.6986
  C  C112  1  0.029900  0.204210  0.854700  1.0  0.2266
  C  C113  1  0.067400  0.223300  0.787300  1.0  -0.0657
  C  C114  1  0.113500  0.198200  0.741500  1.0  -0.0401
  C  C115  1  0.122500  0.150800  0.764700  1.0  -0.0352
  C  C116  1  0.087700  0.131000  0.835700  1.0  -0.1157
  C  C117  1  0.041400  0.158000  0.881900  1.0  -0.1354
  C  C118  1  0.154900  0.220700  0.670900  1.0  0.6964
  C  C119  1  0.101400  0.081500  0.866100  1.0  0.7401
  C  C120  1  0.411600  0.726100  0.859500  1.0  0.636
  C  C121  1  0.364600  0.756600  0.908900  1.0  0.1536
  C  C122  1  0.292600  0.764000  0.881300  1.0  -0.0967
  C  C123  1  0.259800  0.796800  0.936000  1.0  -0.1029
  C  C124  1  0.299100  0.820900  0.014200  1.0  -0.1015
  C  C125  1  0.371100  0.812880  0.033700  1.0  0.1573
  C  C126  1  0.423800  0.838000  0.107200  1.0  0.5869
  C  C127  1  0.549200  0.846700  0.164100  1.0  0.2281
  C  C128  1  0.588300  0.880800  0.128600  1.0  -0.1179
  C  C129  1  0.648100  0.898200  0.185800  1.0  -0.1434
  C  C130  1  0.667900  0.882900  0.281400  1.0  -0.0024
  C  C131  1  0.628800  0.848600  0.319200  1.0  -0.1333
  C  C132  1  0.569500  0.830000  0.260400  1.0  -0.1281
  C  C133  1  0.695600  0.934500  0.145100  1.0  0.7182
  C  C134  1  0.651100  0.832400  0.424400  1.0  0.6986
  C  C135  1  0.529900  0.704210  0.854700  1.0  0.2266
  C  C136  1  0.567400  0.723300  0.787300  1.0  -0.0657
  C  C137  1  0.613500  0.698200  0.741500  1.0  -0.0401
  C  C138  1  0.622500  0.650800  0.764700  1.0  -0.0352
  C  C139  1  0.587700  0.631000  0.835700  1.0  -0.1157
  C  C140  1  0.541400  0.658000  0.881900  1.0  -0.1354
  C  C141  1  0.654900  0.720700  0.670900  1.0  0.6964
  C  C142  1  0.601400  0.581500  0.866100  1.0  0.7401
  C  C143  1  0.088400  0.226100  0.140500  1.0  0.6381
  C  C144  1  0.135400  0.256600  0.091100  1.0  0.1509
  C  C145  1  0.207400  0.264000  0.118700  1.0  -0.0942
  C  C146  1  0.240200  0.296800  0.064000  1.0  -0.1008
  C  C147  1  0.200900  0.320900  0.985800  1.0  -0.104
  C  C148  1  0.128900  0.312880  0.966300  1.0  0.157
  C  C149  1  0.076200  0.338000  0.892800  1.0  0.5895
  C  C150  1  0.950800  0.346700  0.835900  1.0  0.2287
  C  C151  1  0.911700  0.380800  0.871400  1.0  -0.118
  C  C152  1  0.851900  0.398200  0.814200  1.0  -0.1446
  C  C153  1  0.832100  0.382900  0.718600  1.0  -0.0034
  C  C154  1  0.871200  0.348600  0.680800  1.0  -0.1334
  C  C155  1  0.930500  0.330000  0.739600  1.0  -0.1259
  C  C156  1  0.804400  0.434500  0.854900  1.0  0.7178
  C  C157  1  0.848900  0.332400  0.575600  1.0  0.6973
  C  C158  1  0.970100  0.204210  0.145300  1.0  0.2285
  C  C159  1  0.932600  0.223300  0.212700  1.0  -0.0641
  C  C160  1  0.886500  0.198200  0.258500  1.0  -0.0391
  C  C161  1  0.877500  0.150800  0.235300  1.0  -0.0324
  C  C162  1  0.912300  0.131000  0.164300  1.0  -0.1155
  C  C163  1  0.958600  0.158000  0.118100  1.0  -0.1372
  C  C164  1  0.845100  0.220700  0.329100  1.0  0.6963
  C  C165  1  0.898600  0.081500  0.133900  1.0  0.7397
  C  C166  1  0.588400  0.726100  0.140500  1.0  0.6381
  C  C167  1  0.635400  0.756600  0.091100  1.0  0.1509
  C  C168  1  0.707400  0.764000  0.118700  1.0  -0.0942
  C  C169  1  0.740200  0.796800  0.064000  1.0  -0.1008
  C  C170  1  0.700900  0.820900  0.985800  1.0  -0.104
  C  C171  1  0.628900  0.812880  0.966300  1.0  0.157
  C  C172  1  0.576200  0.838000  0.892800  1.0  0.5895
  C  C173  1  0.450800  0.846700  0.835900  1.0  0.2287
  C  C174  1  0.411700  0.880800  0.871400  1.0  -0.118
  C  C175  1  0.351900  0.898200  0.814200  1.0  -0.1446
  C  C176  1  0.332100  0.882900  0.718600  1.0  -0.0034
  C  C177  1  0.371200  0.848600  0.680800  1.0  -0.1334
  C  C178  1  0.430500  0.830000  0.739600  1.0  -0.1259
  C  C179  1  0.304400  0.934500  0.854900  1.0  0.7178
  C  C180  1  0.348900  0.832400  0.575600  1.0  0.6973
  C  C181  1  0.470100  0.704210  0.145300  1.0  0.2285
  C  C182  1  0.432600  0.723300  0.212700  1.0  -0.0641
  C  C183  1  0.386500  0.698200  0.258500  1.0  -0.0391
  C  C184  1  0.377500  0.650800  0.235300  1.0  -0.0324
  C  C185  1  0.412300  0.631000  0.164300  1.0  -0.1155
  C  C186  1  0.458600  0.658000  0.118100  1.0  -0.1372
  C  C187  1  0.345100  0.720700  0.329100  1.0  0.6963
  C  C188  1  0.398600  0.581500  0.133900  1.0  0.7397
  C  C189  1  0.088400  0.773900  0.140500  1.0  0.6373
  C  C190  1  0.135400  0.743400  0.091100  1.0  0.1502
  C  C191  1  0.207400  0.736000  0.118700  1.0  -0.094
  C  C192  1  0.240200  0.703200  0.064000  1.0  -0.0993
  C  C193  1  0.200900  0.679100  0.985800  1.0  -0.1038
  C  C194  1  0.128900  0.687120  0.966300  1.0  0.1566
  C  C195  1  0.076200  0.662000  0.892800  1.0  0.5899
  C  C196  1  0.950800  0.653300  0.835900  1.0  0.2295
  C  C197  1  0.911700  0.619200  0.871400  1.0  -0.1189
  C  C198  1  0.851900  0.601800  0.814200  1.0  -0.1462
  C  C199  1  0.832100  0.617100  0.718600  1.0  -0.0047
  C  C200  1  0.871200  0.651400  0.680800  1.0  -0.133
  C  C201  1  0.930500  0.670000  0.739600  1.0  -0.1265
  C  C202  1  0.804400  0.565500  0.854900  1.0  0.719
  C  C203  1  0.848900  0.667600  0.575600  1.0  0.6982
  C  C204  1  0.970100  0.795790  0.145300  1.0  0.2211
  C  C205  1  0.932600  0.776700  0.212700  1.0  -0.0649
  C  C206  1  0.886500  0.801800  0.258500  1.0  -0.0389
  C  C207  1  0.877500  0.849200  0.235300  1.0  -0.0326
  C  C208  1  0.912300  0.869000  0.164300  1.0  -0.1143
  C  C209  1  0.958600  0.842000  0.118100  1.0  -0.1395
  C  C210  1  0.845100  0.779300  0.329100  1.0  0.6958
  C  C211  1  0.898600  0.918500  0.133900  1.0  0.7401
  C  C212  1  0.588400  0.273900  0.140500  1.0  0.6373
  C  C213  1  0.635400  0.243400  0.091100  1.0  0.1502
  C  C214  1  0.707400  0.236000  0.118700  1.0  -0.094
  C  C215  1  0.740200  0.203200  0.064000  1.0  -0.0993
  C  C216  1  0.700900  0.179100  0.985800  1.0  -0.1038
  C  C217  1  0.628900  0.187120  0.966300  1.0  0.1566
  C  C218  1  0.576200  0.162000  0.892800  1.0  0.5899
  C  C219  1  0.450800  0.153300  0.835900  1.0  0.2295
  C  C220  1  0.411700  0.119200  0.871400  1.0  -0.1189
  C  C221  1  0.351900  0.101800  0.814200  1.0  -0.1462
  C  C222  1  0.332100  0.117100  0.718600  1.0  -0.0047
  C  C223  1  0.371200  0.151400  0.680800  1.0  -0.133
  C  C224  1  0.430500  0.170000  0.739600  1.0  -0.1265
  C  C225  1  0.304400  0.065500  0.854900  1.0  0.719
  C  C226  1  0.348900  0.167600  0.575600  1.0  0.6982
  C  C227  1  0.470100  0.295790  0.145300  1.0  0.2211
  C  C228  1  0.432600  0.276700  0.212700  1.0  -0.0649
  C  C229  1  0.386500  0.301800  0.258500  1.0  -0.0389
  C  C230  1  0.377500  0.349200  0.235300  1.0  -0.0326
  C  C231  1  0.412300  0.369000  0.164300  1.0  -0.1143
  C  C232  1  0.458600  0.342000  0.118100  1.0  -0.1395
  C  C233  1  0.345100  0.279300  0.329100  1.0  0.6958
  C  C234  1  0.398600  0.418500  0.133900  1.0  0.7401
  C  C235  1  0.911600  0.773900  0.859500  1.0  0.6364
  C  C236  1  0.864600  0.743400  0.908900  1.0  0.1526
  C  C237  1  0.792600  0.736000  0.881300  1.0  -0.0968
  C  C238  1  0.759800  0.703200  0.936000  1.0  -0.1019
  C  C239  1  0.799100  0.679100  0.014200  1.0  -0.1002
  C  C240  1  0.871100  0.687120  0.033700  1.0  0.1572
  C  C241  1  0.923800  0.662000  0.107200  1.0  0.588
  C  C242  1  0.049200  0.653300  0.164100  1.0  0.2293
  C  C243  1  0.088300  0.619200  0.128600  1.0  -0.1173
  C  C244  1  0.148100  0.601800  0.185800  1.0  -0.1446
  C  C245  1  0.167900  0.617100  0.281400  1.0  -0.0035
  C  C246  1  0.128800  0.651400  0.319200  1.0  -0.1337
  C  C247  1  0.069500  0.670000  0.260400  1.0  -0.1284
  C  C248  1  0.195600  0.565500  0.145100  1.0  0.7158
  C  C249  1  0.151100  0.667600  0.424400  1.0  0.6991
  C  C250  1  0.029900  0.795790  0.854700  1.0  0.2261
  C  C251  1  0.067400  0.776700  0.787300  1.0  -0.0665
  C  C252  1  0.113500  0.801800  0.741500  1.0  -0.0404
  C  C253  1  0.122500  0.849200  0.764700  1.0  -0.0349
  C  C254  1  0.087700  0.869000  0.835700  1.0  -0.1139
  C  C255  1  0.041400  0.842000  0.881900  1.0  -0.138
  C  C256  1  0.154900  0.779300  0.670900  1.0  0.6963
  C  C257  1  0.101400  0.918500  0.866100  1.0  0.7404
  C  C258  1  0.411600  0.273900  0.859500  1.0  0.6364
  C  C259  1  0.364600  0.243400  0.908900  1.0  0.1526
  C  C260  1  0.292600  0.236000  0.881300  1.0  -0.0968
  C  C261  1  0.259800  0.203200  0.936000  1.0  -0.1019
  C  C262  1  0.299100  0.179100  0.014200  1.0  -0.1002
  C  C263  1  0.371100  0.187120  0.033700  1.0  0.1572
  C  C264  1  0.423800  0.162000  0.107200  1.0  0.588
  C  C265  1  0.549200  0.153300  0.164100  1.0  0.2293
  C  C266  1  0.588300  0.119200  0.128600  1.0  -0.1173
  C  C267  1  0.648100  0.101800  0.185800  1.0  -0.1446
  C  C268  1  0.667900  0.117100  0.281400  1.0  -0.0035
  C  C269  1  0.628800  0.151400  0.319200  1.0  -0.1337
  C  C270  1  0.569500  0.170000  0.260400  1.0  -0.1284
  C  C271  1  0.695600  0.065500  0.145100  1.0  0.7158
  C  C272  1  0.651100  0.167600  0.424400  1.0  0.6991
  C  C273  1  0.529900  0.295790  0.854700  1.0  0.2261
  C  C274  1  0.567400  0.276700  0.787300  1.0  -0.0665
  C  C275  1  0.613500  0.301800  0.741500  1.0  -0.0404
  C  C276  1  0.622500  0.349200  0.764700  1.0  -0.0349
  C  C277  1  0.587700  0.369000  0.835700  1.0  -0.1139
  C  C278  1  0.541400  0.342000  0.881900  1.0  -0.138
  C  C279  1  0.654900  0.279300  0.670900  1.0  0.6963
  C  C280  1  0.601400  0.418500  0.866100  1.0  0.7404
  N  N281  1  0.979500  0.231100  0.895900  1.0  -0.4071
  N  N282  1  0.901500  0.281600  0.982400  1.0  -0.2805
  N  N283  1  0.990800  0.325720  0.101000  1.0  -0.3134
  N  N284  1  0.479500  0.731100  0.895900  1.0  -0.4071
  N  N285  1  0.401500  0.781600  0.982400  1.0  -0.2805
  N  N286  1  0.490800  0.825720  0.101000  1.0  -0.3134
  N  N287  1  0.020500  0.231100  0.104100  1.0  -0.4087
  N  N288  1  0.098500  0.281600  0.017600  1.0  -0.2788
  N  N289  1  0.009200  0.325720  0.899000  1.0  -0.3111
  N  N290  1  0.520500  0.731100  0.104100  1.0  -0.4087
  N  N291  1  0.598500  0.781600  0.017600  1.0  -0.2788
  N  N292  1  0.509200  0.825720  0.899000  1.0  -0.3111
  N  N293  1  0.020500  0.768900  0.104100  1.0  -0.4084
  N  N294  1  0.098500  0.718400  0.017600  1.0  -0.278
  N  N295  1  0.009200  0.674280  0.899000  1.0  -0.3131
  N  N296  1  0.520500  0.268900  0.104100  1.0  -0.4084
  N  N297  1  0.598500  0.218400  0.017600  1.0  -0.278
  N  N298  1  0.509200  0.174280  0.899000  1.0  -0.3131
  N  N299  1  0.979500  0.768900  0.895900  1.0  -0.4061
  N  N300  1  0.901500  0.718400  0.982400  1.0  -0.2796
  N  N301  1  0.990800  0.674280  0.101000  1.0  -0.3155
  N  N302  1  0.479500  0.268900  0.895900  1.0  -0.4061
  N  N303  1  0.401500  0.218400  0.982400  1.0  -0.2796
  N  N304  1  0.490800  0.174280  0.101000  1.0  -0.3155
  O  O305  1  0.885100  0.201000  0.793200  1.0  -0.4792
  O  O306  1  0.905900  0.368620  0.165300  1.0  -0.5484
  O  O307  1  0.129400  0.295900  0.450600  1.0  -0.5334
  O  O308  1  0.191700  0.357400  0.483700  1.0  -0.5993
  O  O309  1  0.241500  0.451200  0.200900  1.0  -0.5874
  O  O310  1  0.172900  0.446500  0.056200  1.0  -0.6352
  O  O311  1  0.161900  0.264100  0.682200  1.0  -0.6262
  O  O312  1  0.179600  0.196200  0.607700  1.0  -0.5344
  O  O313  1  0.110900  0.052830  0.799100  1.0  -0.684
  O  O314  1  0.101700  0.070500  0.952700  1.0  -0.5592
  O  O315  1  0.385100  0.701000  0.793200  1.0  -0.4792
  O  O316  1  0.405900  0.868620  0.165300  1.0  -0.5484
  O  O317  1  0.629400  0.795900  0.450600  1.0  -0.5334
  O  O318  1  0.691700  0.857400  0.483700  1.0  -0.5993
  O  O319  1  0.741500  0.951200  0.200900  1.0  -0.5874
  O  O320  1  0.672900  0.946500  0.056200  1.0  -0.6352
  O  O321  1  0.661900  0.764100  0.682200  1.0  -0.6262
  O  O322  1  0.679600  0.696200  0.607700  1.0  -0.5344
  O  O323  1  0.610900  0.552830  0.799100  1.0  -0.684
  O  O324  1  0.601700  0.570500  0.952700  1.0  -0.5592
  O  O325  1  0.114900  0.201000  0.206800  1.0  -0.4787
  O  O326  1  0.094100  0.368620  0.834700  1.0  -0.5477
  O  O327  1  0.870600  0.295900  0.549400  1.0  -0.5343
  O  O328  1  0.808300  0.357400  0.516300  1.0  -0.6025
  O  O329  1  0.758500  0.451200  0.799100  1.0  -0.5838
  O  O330  1  0.827100  0.446500  0.943800  1.0  -0.6336
  O  O331  1  0.838100  0.264100  0.317800  1.0  -0.6253
  O  O332  1  0.820400  0.196200  0.392300  1.0  -0.5343
  O  O333  1  0.889100  0.052830  0.200900  1.0  -0.6821
  O  O334  1  0.898300  0.070500  0.047300  1.0  -0.5611
  O  O335  1  0.614900  0.701000  0.206800  1.0  -0.4787
  O  O336  1  0.594100  0.868620  0.834700  1.0  -0.5477
  O  O337  1  0.370600  0.795900  0.549400  1.0  -0.5343
  O  O338  1  0.308300  0.857400  0.516300  1.0  -0.6025
  O  O339  1  0.258500  0.951200  0.799100  1.0  -0.5838
  O  O340  1  0.327100  0.946500  0.943800  1.0  -0.6336
  O  O341  1  0.338100  0.764100  0.317800  1.0  -0.6253
  O  O342  1  0.320400  0.696200  0.392300  1.0  -0.5343
  O  O343  1  0.389100  0.552830  0.200900  1.0  -0.6821
  O  O344  1  0.398300  0.570500  0.047300  1.0  -0.5611
  O  O345  1  0.114900  0.799000  0.206800  1.0  -0.4795
  O  O346  1  0.094100  0.631380  0.834700  1.0  -0.5485
  O  O347  1  0.870600  0.704100  0.549400  1.0  -0.5346
  O  O348  1  0.808300  0.642600  0.516300  1.0  -0.5996
  O  O349  1  0.758500  0.548800  0.799100  1.0  -0.5854
  O  O350  1  0.827100  0.553500  0.943800  1.0  -0.6344
  O  O351  1  0.838100  0.735900  0.317800  1.0  -0.6269
  O  O352  1  0.820400  0.803800  0.392300  1.0  -0.5343
  O  O353  1  0.889100  0.947170  0.200900  1.0  -0.6844
  O  O354  1  0.898300  0.929500  0.047300  1.0  -0.5619
  O  O355  1  0.614900  0.299000  0.206800  1.0  -0.4795
  O  O356  1  0.594100  0.131380  0.834700  1.0  -0.5485
  O  O357  1  0.370600  0.204100  0.549400  1.0  -0.5346
  O  O358  1  0.308300  0.142600  0.516300  1.0  -0.5996
  O  O359  1  0.258500  0.048800  0.799100  1.0  -0.5854
  O  O360  1  0.327100  0.053500  0.943800  1.0  -0.6344
  O  O361  1  0.338100  0.235900  0.317800  1.0  -0.6269
  O  O362  1  0.320400  0.303800  0.392300  1.0  -0.5343
  O  O363  1  0.389100  0.447170  0.200900  1.0  -0.6844
  O  O364  1  0.398300  0.429500  0.047300  1.0  -0.5619
  O  O365  1  0.885100  0.799000  0.793200  1.0  -0.4806
  O  O366  1  0.905900  0.631380  0.165300  1.0  -0.5492
  O  O367  1  0.129400  0.704100  0.450600  1.0  -0.5336
  O  O368  1  0.191700  0.642600  0.483700  1.0  -0.6012
  O  O369  1  0.241500  0.548800  0.200900  1.0  -0.5886
  O  O370  1  0.172900  0.553500  0.056200  1.0  -0.6348
  O  O371  1  0.161900  0.735900  0.682200  1.0  -0.6274
  O  O372  1  0.179600  0.803800  0.607700  1.0  -0.5345
  O  O373  1  0.110900  0.947170  0.799100  1.0  -0.6847
  O  O374  1  0.101700  0.929500  0.952700  1.0  -0.5596
  O  O375  1  0.385100  0.299000  0.793200  1.0  -0.4806
  O  O376  1  0.405900  0.131380  0.165300  1.0  -0.5492
  O  O377  1  0.629400  0.204100  0.450600  1.0  -0.5336
  O  O378  1  0.691700  0.142600  0.483700  1.0  -0.6012
  O  O379  1  0.741500  0.048800  0.200900  1.0  -0.5886
  O  O380  1  0.672900  0.053500  0.056200  1.0  -0.6348
  O  O381  1  0.661900  0.235900  0.682200  1.0  -0.6274
  O  O382  1  0.679600  0.303800  0.607700  1.0  -0.5345
  O  O383  1  0.610900  0.447170  0.799100  1.0  -0.6847
  O  O384  1  0.601700  0.429500  0.952700  1.0  -0.5596
  O  O385  1  0.301500  0.500000  0.028700  1.0  -0.7308
  O  O386  1  0.801500  0.000000  0.028700  1.0  -0.7308
  O  O387  1  0.698500  0.500000  0.971300  1.0  -0.7335
  O  O388  1  0.198500  0.000000  0.971300  1.0  -0.7335
  O  O389  1  0.000000  0.000000  0.000000  1.0  -0.6593
  O  O390  1  0.500000  0.500000  0.000000  1.0  -0.6593
