# generated using pymatgen
data_ZnH8C11N(ClO2)2
_symmetry_space_group_name_H-M   'P 1'
_cell_length_a   24.73180000
_cell_length_b   24.73180000
_cell_length_c   24.73180000
_cell_angle_alpha   127.65300000
_cell_angle_beta   127.65300000
_cell_angle_gamma   77.18810000
_symmetry_Int_Tables_number   1
_chemical_formula_structural   ZnH8C11N(ClO2)2
_chemical_formula_sum   'Zn16 H128 C176 N16 Cl32 O64'
_cell_volume   9201.51950616
_cell_formula_units_Z   16
loop_
 _symmetry_equiv_pos_site_id
 _symmetry_equiv_pos_as_xyz
  1  'x, y, z'
loop_
 _atom_site_type_symbol
 _atom_site_label
 _atom_site_symmetry_multiplicity
 _atom_site_fract_x
 _atom_site_fract_y
 _atom_site_fract_z
 _atom_site_occupancy
 _atom_site_charge
  Zn  Zn1  1  0.028430  0.552640  0.003730  1.0  0.8853
  Zn  Zn2  1  0.548910  0.024700  0.996270  1.0  0.8856
  Zn  Zn3  1  0.302640  0.798910  0.024210  1.0  0.8863
  Zn  Zn4  1  0.774700  0.278430  0.975790  1.0  0.8855
  Zn  Zn5  1  0.701090  0.197360  0.975790  1.0  0.886
  Zn  Zn6  1  0.221570  0.725300  0.024210  1.0  0.8846
  Zn  Zn7  1  0.475300  0.951090  0.003730  1.0  0.8841
  Zn  Zn8  1  0.947360  0.471570  0.996270  1.0  0.8854
  Zn  Zn9  1  0.721570  0.697360  0.496270  1.0  0.8842
  Zn  Zn10  1  0.201090  0.225300  0.503730  1.0  0.8852
  Zn  Zn11  1  0.447360  0.451090  0.475790  1.0  0.8856
  Zn  Zn12  1  0.975300  0.971570  0.524210  1.0  0.8849
  Zn  Zn13  1  0.048910  0.052640  0.524210  1.0  0.8866
  Zn  Zn14  1  0.528430  0.524700  0.475790  1.0  0.886
  Zn  Zn15  1  0.274700  0.298910  0.496270  1.0  0.8855
  Zn  Zn16  1  0.802640  0.778430  0.503730  1.0  0.8851
  H  H17  1  0.210200  0.585010  0.990930  1.0  0.108
  H  H18  1  0.252750  0.657420  0.107740  1.0  0.104
  H  H19  1  0.063670  0.666667  0.914210  1.0  0.0935
  H  H20  1  0.104750  0.591620  0.881920  1.0  0.1011
  H  H21  1  0.018270  0.245060  0.663180  1.0  0.1124
  H  H22  1  0.721670  0.582520  0.704820  1.0  0.1118
  H  H23  1  0.199350  0.756570  0.150180  1.0  0.1088
  H  H24  1  0.117930  0.760430  0.065420  1.0  0.1082
  H  H25  1  0.594080  0.219270  0.009070  1.0  0.1085
  H  H26  1  0.549680  0.145010  0.892260  1.0  0.1033
  H  H27  1  0.752430  0.149460  0.085790  1.0  0.0947
  H  H28  1  0.709700  0.222830  0.118080  1.0  0.0964
  H  H29  1  0.581880  0.355100  0.336820  1.0  0.1132
  H  H30  1  0.877700  0.016850  0.295180  1.0  0.1123
  H  H31  1  0.606380  0.049170  0.849820  1.0  0.1059
  H  H32  1  0.695000  0.052510  0.934580  1.0  0.1091
  H  H33  1  0.335010  0.844080  0.874800  1.0  0.1056
  H  H34  1  0.407420  0.799680  0.904670  1.0  0.1047
  H  H35  1  0.416640  0.002430  0.102970  1.0  0.0958
  H  H36  1  0.341620  0.959700  0.986870  1.0  0.0975
  H  H37  1  0.995060  0.831880  0.726780  1.0  0.1129
  H  H38  1  0.332520  0.127700  0.360850  1.0  0.1133
  H  H39  1  0.506570  0.856380  0.057220  1.0  0.1055
  H  H40  1  0.510430  0.945000  0.142490  1.0  0.1082
  H  H41  1  0.969270  0.460200  0.125200  1.0  0.1063
  H  H42  1  0.895010  0.502750  0.095330  1.0  0.1087
  H  H43  1  0.899460  0.313670  0.897030  1.0  0.0938
  H  H44  1  0.972830  0.354750  0.013130  1.0  0.0934
  H  H45  1  0.105100  0.268270  0.273220  1.0  0.1131
  H  H46  1  0.766850  0.971670  0.639150  1.0  0.1132
  H  H47  1  0.799170  0.449350  0.942780  1.0  0.109
  H  H48  1  0.802510  0.367930  0.857510  1.0  0.1082
  H  H49  1  0.655920  0.164990  0.125200  1.0  0.1068
  H  H50  1  0.700320  0.092580  0.095330  1.0  0.1018
  H  H51  1  0.497570  0.083360  0.897030  1.0  0.0945
  H  H52  1  0.540300  0.158380  0.013130  1.0  0.0991
  H  H53  1  0.668120  0.504940  0.273220  1.0  0.1137
  H  H54  1  0.372300  0.167480  0.639150  1.0  0.1142
  H  H55  1  0.643620  0.993430  0.942780  1.0  0.1073
  H  H56  1  0.555000  0.989570  0.857510  1.0  0.1084
  H  H57  1  0.039800  0.530730  0.874800  1.0  0.1087
  H  H58  1  0.997250  0.604990  0.904670  1.0  0.1035
  H  H59  1  0.186330  0.600540  0.102970  1.0  0.0915
  H  H60  1  0.145250  0.527170  0.986870  1.0  0.0978
  H  H61  1  0.231730  0.394900  0.726780  1.0  0.1132
  H  H62  1  0.528330  0.733150  0.360850  1.0  0.1138
  H  H63  1  0.050650  0.700830  0.057220  1.0  0.1051
  H  H64  1  0.132070  0.697490  0.142490  1.0  0.11
  H  H65  1  0.280730  0.905920  0.990930  1.0  0.1044
  H  H66  1  0.354990  0.950320  0.107740  1.0  0.1061
  H  H67  1  0.350540  0.747570  0.914210  1.0  0.0995
  H  H68  1  0.277170  0.790300  0.881920  1.0  0.094
  H  H69  1  0.144900  0.918120  0.663180  1.0  0.1148
  H  H70  1  0.483150  0.622300  0.704820  1.0  0.1132
  H  H71  1  0.450830  0.893620  0.150180  1.0  0.1055
  H  H72  1  0.447490  0.805000  0.065420  1.0  0.1085
  H  H73  1  0.914990  0.289800  0.009070  1.0  0.1062
  H  H74  1  0.842580  0.247250  0.892260  1.0  0.1049
  H  H75  1  0.833360  0.436330  0.085790  1.0  0.0939
  H  H76  1  0.908380  0.395250  0.118080  1.0  0.0946
  H  H77  1  0.254940  0.481730  0.336820  1.0  0.1138
  H  H78  1  0.917480  0.778330  0.295180  1.0  0.1134
  H  H79  1  0.743430  0.300650  0.849820  1.0  0.1082
  H  H80  1  0.739570  0.382070  0.934580  1.0  0.1064
  H  H81  1  0.539800  0.664990  0.509070  1.0  0.1084
  H  H82  1  0.497250  0.592580  0.392260  1.0  0.1026
  H  H83  1  0.686330  0.583360  0.585790  1.0  0.0931
  H  H84  1  0.645250  0.658380  0.618080  1.0  0.0973
  H  H85  1  0.731730  0.004940  0.836820  1.0  0.1142
  H  H86  1  0.028330  0.667480  0.795180  1.0  0.1118
  H  H87  1  0.550650  0.493430  0.349820  1.0  0.1078
  H  H88  1  0.632070  0.489570  0.434580  1.0  0.1079
  H  H89  1  0.155920  0.030730  0.490930  1.0  0.1094
  H  H90  1  0.200320  0.104990  0.607740  1.0  0.103
  H  H91  1  0.997570  0.100540  0.414210  1.0  0.0958
  H  H92  1  0.040300  0.027170  0.381920  1.0  0.0984
  H  H93  1  0.168120  0.894900  0.163180  1.0  0.1147
  H  H94  1  0.872300  0.233150  0.204820  1.0  0.1126
  H  H95  1  0.143620  0.200830  0.650180  1.0  0.1077
  H  H96  1  0.055000  0.197490  0.565420  1.0  0.1079
  H  H97  1  0.414990  0.405920  0.625200  1.0  0.1051
  H  H98  1  0.342580  0.450320  0.595330  1.0  0.106
  H  H99  1  0.333333  0.247570  0.397030  1.0  0.0971
  H  H100  1  0.408380  0.290300  0.513130  1.0  0.0971
  H  H101  1  0.754940  0.418120  0.773220  1.0  0.1137
  H  H102  1  0.417480  0.122300  0.139150  1.0  0.1142
  H  H103  1  0.243430  0.393620  0.442780  1.0  0.1049
  H  H104  1  0.239570  0.305000  0.357510  1.0  0.1075
  H  H105  1  0.780730  0.789800  0.374800  1.0  0.1065
  H  H106  1  0.854990  0.747250  0.404670  1.0  0.1082
  H  H107  1  0.850540  0.936330  0.602970  1.0  0.0932
  H  H108  1  0.777170  0.895250  0.486870  1.0  0.0932
  H  H109  1  0.644900  0.981730  0.226780  1.0  0.1147
  H  H110  1  0.983150  0.278330  0.860850  1.0  0.1136
  H  H111  1  0.950830  0.800650  0.557220  1.0  0.1071
  H  H112  1  0.947490  0.882070  0.642490  1.0  0.1071
  H  H113  1  0.094080  0.085010  0.374800  1.0  0.1057
  H  H114  1  0.049680  0.157420  0.404670  1.0  0.1024
  H  H115  1  0.252430  0.166640  0.602970  1.0  0.0941
  H  H116  1  0.209700  0.091620  0.486870  1.0  0.0989
  H  H117  1  0.081880  0.745060  0.226780  1.0  0.1148
  H  H118  1  0.377700  0.082520  0.860850  1.0  0.1145
  H  H119  1  0.106380  0.256570  0.557220  1.0  0.108
  H  H120  1  0.195000  0.260430  0.642490  1.0  0.109
  H  H121  1  0.710200  0.719270  0.625200  1.0  0.1077
  H  H122  1  0.752750  0.645010  0.595330  1.0  0.1027
  H  H123  1  0.563670  0.649460  0.397030  1.0  0.0922
  H  H124  1  0.604750  0.722830  0.513130  1.0  0.0969
  H  H125  1  0.518270  0.855100  0.773220  1.0  0.1148
  H  H126  1  0.221670  0.516850  0.139150  1.0  0.1127
  H  H127  1  0.699350  0.549170  0.442780  1.0  0.1064
  H  H128  1  0.617930  0.552510  0.357510  1.0  0.1089
  H  H129  1  0.469270  0.344080  0.509070  1.0  0.105
  H  H130  1  0.395010  0.299680  0.392260  1.0  0.1041
  H  H131  1  0.399460  0.502430  0.585790  1.0  0.0969
  H  H132  1  0.472830  0.459700  0.618080  1.0  0.0961
  H  H133  1  0.605100  0.331880  0.836820  1.0  0.1163
  H  H134  1  0.266850  0.627700  0.795180  1.0  0.113
  H  H135  1  0.299170  0.356380  0.349820  1.0  0.1041
  H  H136  1  0.302510  0.445000  0.434580  1.0  0.1089
  H  H137  1  0.835010  0.960200  0.490930  1.0  0.1072
  H  H138  1  0.907420  0.002750  0.607740  1.0  0.1076
  H  H139  1  0.916640  0.813670  0.414210  1.0  0.0952
  H  H140  1  0.841620  0.854750  0.381920  1.0  0.096
  H  H141  1  0.495060  0.768270  0.163180  1.0  0.1131
  H  H142  1  0.832520  0.471670  0.204820  1.0  0.1139
  H  H143  1  0.006570  0.949350  0.650180  1.0  0.1078
  H  H144  1  0.010430  0.867930  0.565420  1.0  0.1067
  C  C145  1  0.671270  0.491170  0.667700  1.0  -0.1359
  C  C146  1  0.804250  0.509150  0.809500  1.0  -0.1685
  C  C147  1  0.873250  0.512550  0.882100  1.0  0.7059
  C  C148  1  0.602380  0.486880  0.595100  1.0  0.7046
  C  C149  1  0.200260  0.625160  0.039900  1.0  -0.0447
  C  C150  1  0.094000  0.630400  0.930400  1.0  -0.0206
  C  C151  1  0.010200  0.252800  0.708000  1.0  -0.0564
  C  C152  1  0.728200  0.544800  0.719400  1.0  -0.06
  C  C153  1  0.792840  0.552940  0.788500  1.0  0.0921
  C  C154  1  0.005530  0.317430  0.763700  1.0  0.0979
  C  C155  1  0.147500  0.724000  0.081700  1.0  -0.0479
  C  C156  1  0.823470  0.003570  0.332300  1.0  -0.1323
  C  C157  1  0.699650  0.994750  0.190500  1.0  -0.1668
  C  C158  1  0.630450  0.991150  0.117900  1.0  0.707
  C  C159  1  0.891780  0.007280  0.404900  1.0  0.7068
  C  C160  1  0.585260  0.160360  0.960100  1.0  -0.0442
  C  C161  1  0.700000  0.163600  0.069600  1.0  -0.022
  C  C162  1  0.544800  0.302200  0.292000  1.0  -0.0564
  C  C163  1  0.825400  0.008800  0.280600  1.0  -0.0604
  C  C164  1  0.764440  0.004340  0.211500  1.0  0.0913
  C  C165  1  0.553730  0.241830  0.236300  1.0  0.1015
  C  C166  1  0.642300  0.065800  0.918300  1.0  -0.0508
  C  C167  1  0.241170  0.073470  0.319900  1.0  -0.1353
  C  C168  1  0.259150  0.949650  0.204900  1.0  -0.1689
  C  C169  1  0.262550  0.880450  0.139300  1.0  0.7064
  C  C170  1  0.236880  0.141780  0.384500  1.0  0.7066
  C  C171  1  0.375160  0.835260  0.924900  1.0  -0.0426
  C  C172  1  0.380400  0.950000  0.036400  1.0  -0.0223
  C  C173  1  0.002800  0.794800  0.742600  1.0  -0.0556
  C  C174  1  0.294800  0.075400  0.316600  1.0  -0.0603
  C  C175  1  0.302940  0.014440  0.260100  1.0  0.0941
  C  C176  1  0.067430  0.803730  0.811900  1.0  0.0992
  C  C177  1  0.474000  0.892300  0.076500  1.0  -0.0472
  C  C178  1  0.753570  0.921270  0.680100  1.0  -0.1341
  C  C179  1  0.744750  0.054250  0.795100  1.0  -0.1682
  C  C180  1  0.741150  0.123250  0.860700  1.0  0.7064
  C  C181  1  0.757280  0.852380  0.615500  1.0  0.7062
  C  C182  1  0.910360  0.450260  0.075100  1.0  -0.0433
  C  C183  1  0.913600  0.344000  0.963600  1.0  -0.0238
  C  C184  1  0.052200  0.260200  0.257400  1.0  -0.0564
  C  C185  1  0.758800  0.978200  0.683400  1.0  -0.0602
  C  C186  1  0.754340  0.042840  0.739900  1.0  0.09
  C  C187  1  0.991830  0.255530  0.188100  1.0  0.0981
  C  C188  1  0.815800  0.397500  0.923500  1.0  -0.0483
  C  C189  1  0.426530  0.258830  0.680100  1.0  -0.135
  C  C190  1  0.550350  0.240850  0.795100  1.0  -0.1689
  C  C191  1  0.619550  0.237450  0.860700  1.0  0.7058
  C  C192  1  0.358220  0.263120  0.615500  1.0  0.7047
  C  C193  1  0.664740  0.124840  0.075100  1.0  -0.0417
  C  C194  1  0.550000  0.119600  0.963600  1.0  -0.0178
  C  C195  1  0.705200  0.497200  0.257400  1.0  -0.0534
  C  C196  1  0.424600  0.205200  0.683400  1.0  -0.061
  C  C197  1  0.485560  0.197060  0.739900  1.0  0.0897
  C  C198  1  0.696270  0.432570  0.188100  1.0  0.0988
  C  C199  1  0.607700  0.026000  0.923500  1.0  -0.0448
  C  C200  1  0.578730  0.746430  0.319900  1.0  -0.134
  C  C201  1  0.445750  0.755250  0.204900  1.0  -0.1684
  C  C202  1  0.376750  0.758850  0.139300  1.0  0.7065
  C  C203  1  0.647620  0.742720  0.384500  1.0  0.7054
  C  C204  1  0.049740  0.589640  0.924900  1.0  -0.042
  C  C205  1  0.156000  0.586400  0.036400  1.0  -0.0202
  C  C206  1  0.239800  0.447800  0.742600  1.0  -0.0543
  C  C207  1  0.521800  0.741200  0.316600  1.0  -0.0595
  C  C208  1  0.457160  0.745660  0.260100  1.0  0.0981
  C  C209  1  0.244470  0.508170  0.811900  1.0  0.0974
  C  C210  1  0.102500  0.684200  0.076500  1.0  -0.0489
  C  C211  1  0.496430  0.676530  0.667700  1.0  -0.1323
  C  C212  1  0.505250  0.800350  0.809500  1.0  -0.1689
  C  C213  1  0.508850  0.869550  0.882100  1.0  0.7037
  C  C214  1  0.492720  0.608220  0.595100  1.0  0.7047
  C  C215  1  0.339640  0.914740  0.039900  1.0  -0.0435
  C  C216  1  0.336400  0.800000  0.930400  1.0  -0.0207
  C  C217  1  0.197800  0.955200  0.708000  1.0  -0.0546
  C  C218  1  0.491200  0.674600  0.719400  1.0  -0.0568
  C  C219  1  0.495660  0.735560  0.788500  1.0  0.0945
  C  C220  1  0.258170  0.946270  0.763700  1.0  0.0971
  C  C221  1  0.434200  0.857700  0.081700  1.0  -0.0467
  C  C222  1  0.008830  0.828730  0.332300  1.0  -0.1376
  C  C223  1  0.990850  0.695750  0.190500  1.0  -0.1694
  C  C224  1  0.987450  0.626750  0.117900  1.0  0.7046
  C  C225  1  0.013120  0.897620  0.404900  1.0  0.7046
  C  C226  1  0.874840  0.299740  0.960100  1.0  -0.0446
  C  C227  1  0.869600  0.406000  0.069600  1.0  -0.0182
  C  C228  1  0.247200  0.489800  0.292000  1.0  -0.0549
  C  C229  1  0.955200  0.771800  0.280600  1.0  -0.0613
  C  C230  1  0.947060  0.707160  0.211500  1.0  0.0932
  C  C231  1  0.182570  0.494470  0.236300  1.0  0.1017
  C  C232  1  0.776000  0.352500  0.918300  1.0  -0.046
  C  C233  1  0.078730  0.758830  0.832300  1.0  -0.1357
  C  C234  1  0.945750  0.740850  0.690500  1.0  -0.1698
  C  C235  1  0.876750  0.737450  0.617900  1.0  0.7056
  C  C236  1  0.147620  0.763120  0.904900  1.0  0.7045
  C  C237  1  0.549740  0.624840  0.460100  1.0  -0.0432
  C  C238  1  0.656000  0.619600  0.569600  1.0  -0.0212
  C  C239  1  0.739800  0.997200  0.792000  1.0  -0.0552
  C  C240  1  0.021800  0.705200  0.780600  1.0  -0.0603
  C  C241  1  0.957160  0.697060  0.711500  1.0  0.0877
  C  C242  1  0.744470  0.932570  0.736300  1.0  0.0996
  C  C243  1  0.602500  0.526000  0.418300  1.0  -0.0463
  C  C244  1  0.926530  0.246430  0.167700  1.0  -0.1318
  C  C245  1  0.050350  0.255250  0.309500  1.0  -0.1665
  C  C246  1  0.119550  0.258850  0.382100  1.0  0.7074
  C  C247  1  0.858220  0.242720  0.095100  1.0  0.7072
  C  C248  1  0.164740  0.089640  0.539900  1.0  -0.0471
  C  C249  1  0.050000  0.086400  0.430400  1.0  -0.0237
  C  C250  1  0.205200  0.947800  0.208000  1.0  -0.0556
  C  C251  1  0.924600  0.241200  0.219400  1.0  -0.0573
  C  C252  1  0.985560  0.245660  0.288500  1.0  0.09
  C  C253  1  0.196270  0.008170  0.263700  1.0  0.0988
  C  C254  1  0.107700  0.184200  0.581700  1.0  -0.0505
  C  C255  1  0.508830  0.176530  0.180100  1.0  -0.1344
  C  C256  1  0.490850  0.300350  0.295100  1.0  -0.17
  C  C257  1  0.487450  0.369550  0.360700  1.0  0.7059
  C  C258  1  0.513120  0.108220  0.115500  1.0  0.7049
  C  C259  1  0.374840  0.414740  0.575100  1.0  -0.0431
  C  C260  1  0.369600  0.300000  0.463600  1.0  -0.0231
  C  C261  1  0.747200  0.455200  0.757400  1.0  -0.0532
  C  C262  1  0.455200  0.174600  0.183400  1.0  -0.0606
  C  C263  1  0.447060  0.235560  0.239900  1.0  0.0897
  C  C264  1  0.682570  0.446270  0.688100  1.0  0.099
  C  C265  1  0.276000  0.357700  0.423500  1.0  -0.0472
  C  C266  1  0.996430  0.328730  0.819900  1.0  -0.1348
  C  C267  1  0.005250  0.195750  0.704900  1.0  -0.1676
  C  C268  1  0.008850  0.126750  0.639300  1.0  0.7067
  C  C269  1  0.992720  0.397620  0.884500  1.0  0.7061
  C  C270  1  0.839640  0.799740  0.424900  1.0  -0.0426
  C  C271  1  0.836400  0.906000  0.536400  1.0  -0.0236
  C  C272  1  0.697800  0.989800  0.242600  1.0  -0.0539
  C  C273  1  0.991200  0.271800  0.816600  1.0  -0.0592
  C  C274  1  0.995660  0.207160  0.760100  1.0  0.0886
  C  C275  1  0.758170  0.994470  0.311900  1.0  0.0995
  C  C276  1  0.934200  0.852500  0.576500  1.0  -0.0479
  C  C277  1  0.323470  0.991170  0.819900  1.0  -0.1357
  C  C278  1  0.199650  0.009150  0.704900  1.0  -0.1684
  C  C279  1  0.130450  0.012550  0.639300  1.0  0.7061
  C  C280  1  0.391780  0.986880  0.884500  1.0  0.7046
  C  C281  1  0.085260  0.125160  0.424900  1.0  -0.0402
  C  C282  1  0.200000  0.130400  0.536400  1.0  -0.0163
  C  C283  1  0.044800  0.752800  0.242600  1.0  -0.0544
  C  C284  1  0.325400  0.044800  0.816600  1.0  -0.0634
  C  C285  1  0.264440  0.052940  0.760100  1.0  0.0848
  C  C286  1  0.053730  0.817430  0.311900  1.0  0.098
  C  C287  1  0.142300  0.224000  0.576500  1.0  -0.0457
  C  C288  1  0.171270  0.503570  0.180100  1.0  -0.1329
  C  C289  1  0.304250  0.494750  0.295100  1.0  -0.1658
  C  C290  1  0.373250  0.491150  0.360700  1.0  0.7064
  C  C291  1  0.102380  0.507280  0.115500  1.0  0.7055
  C  C292  1  0.700260  0.660360  0.575100  1.0  -0.0414
  C  C293  1  0.594000  0.663600  0.463600  1.0  -0.0202
  C  C294  1  0.510200  0.802200  0.757400  1.0  -0.0574
  C  C295  1  0.228200  0.508800  0.183400  1.0  -0.0577
  C  C296  1  0.292840  0.504340  0.239900  1.0  0.0887
  C  C297  1  0.505530  0.741830  0.688100  1.0  0.0991
  C  C298  1  0.647500  0.565800  0.423500  1.0  -0.0493
  C  C299  1  0.253570  0.573470  0.832300  1.0  -0.1333
  C  C300  1  0.244750  0.449650  0.690500  1.0  -0.1663
  C  C301  1  0.241150  0.380450  0.617900  1.0  0.7048
  C  C302  1  0.257280  0.641780  0.904900  1.0  0.7047
  C  C303  1  0.410360  0.335260  0.460100  1.0  -0.0441
  C  C304  1  0.413600  0.450000  0.569600  1.0  -0.0196
  C  C305  1  0.552200  0.294800  0.792000  1.0  -0.0576
  C  C306  1  0.258800  0.575400  0.780600  1.0  -0.059
  C  C307  1  0.254340  0.514440  0.711500  1.0  0.0858
  C  C308  1  0.491830  0.303730  0.736300  1.0  0.0976
  C  C309  1  0.315800  0.392300  0.418300  1.0  -0.0469
  C  C310  1  0.741170  0.421270  0.167700  1.0  -0.1366
  C  C311  1  0.759150  0.554250  0.309500  1.0  -0.1693
  C  C312  1  0.762550  0.623250  0.382100  1.0  0.7053
  C  C313  1  0.736880  0.352380  0.095100  1.0  0.7033
  C  C314  1  0.875160  0.950260  0.539900  1.0  -0.0439
  C  C315  1  0.880400  0.844000  0.430400  1.0  -0.0169
  C  C316  1  0.502800  0.760200  0.208000  1.0  -0.0556
  C  C317  1  0.794800  0.478200  0.219400  1.0  -0.0603
  C  C318  1  0.802940  0.542840  0.288500  1.0  0.0863
  C  C319  1  0.567430  0.755530  0.263700  1.0  0.1027
  C  C320  1  0.974000  0.897500  0.581700  1.0  -0.046
  N  N321  1  0.162240  0.673140  0.018900  1.0  -0.1501
  N  N322  1  0.654240  0.143340  0.981100  1.0  -0.1491
  N  N323  1  0.423140  0.904240  0.010900  1.0  -0.1492
  N  N324  1  0.893340  0.412240  0.989100  1.0  -0.1498
  N  N325  1  0.595760  0.076860  0.989100  1.0  -0.1495
  N  N326  1  0.087760  0.606660  0.010900  1.0  -0.1513
  N  N327  1  0.356660  0.845760  0.018900  1.0  -0.1494
  N  N328  1  0.826860  0.337760  0.981100  1.0  -0.1502
  N  N329  1  0.587760  0.576860  0.481100  1.0  -0.1508
  N  N330  1  0.095760  0.106660  0.518900  1.0  -0.1495
  N  N331  1  0.326860  0.345760  0.489100  1.0  -0.1503
  N  N332  1  0.856660  0.837760  0.510900  1.0  -0.1503
  N  N333  1  0.154240  0.173140  0.510900  1.0  -0.1496
  N  N334  1  0.662240  0.643340  0.489100  1.0  -0.1505
  N  N335  1  0.393340  0.404240  0.481100  1.0  -0.1483
  N  N336  1  0.923140  0.912240  0.518900  1.0  -0.1493
  Cl  Cl337  1  0.990820  0.140680  0.765080  1.0  -0.1283
  Cl  Cl338  1  0.011020  0.383730  0.760010  1.0  -0.1366
  Cl  Cl339  1  0.375600  0.225740  0.234920  1.0  -0.1264
  Cl  Cl340  1  0.623720  0.251010  0.239990  1.0  -0.1385
  Cl  Cl341  1  0.890680  0.625600  0.649860  1.0  -0.1262
  Cl  Cl342  1  0.133730  0.873720  0.872710  1.0  -0.1368
  Cl  Cl343  1  0.975740  0.240820  0.350140  1.0  -0.1289
  Cl  Cl344  1  0.001010  0.261020  0.127290  1.0  -0.1421
  Cl  Cl345  1  0.874400  0.609320  0.350140  1.0  -0.1234
  Cl  Cl346  1  0.626280  0.366270  0.127290  1.0  -0.1359
  Cl  Cl347  1  0.259180  0.524260  0.649860  1.0  -0.1281
  Cl  Cl348  1  0.238980  0.498990  0.872710  1.0  -0.1395
  Cl  Cl349  1  0.274260  0.124400  0.765080  1.0  -0.1261
  Cl  Cl350  1  0.248990  0.876280  0.760010  1.0  -0.137
  Cl  Cl351  1  0.359320  0.509180  0.234920  1.0  -0.1263
  Cl  Cl352  1  0.116270  0.488980  0.239990  1.0  -0.1363
  Cl  Cl353  1  0.759180  0.109320  0.734920  1.0  -0.1269
  Cl  Cl354  1  0.738980  0.866270  0.739990  1.0  -0.1357
  Cl  Cl355  1  0.374400  0.024260  0.265080  1.0  -0.1259
  Cl  Cl356  1  0.126280  0.998990  0.260010  1.0  -0.1367
  Cl  Cl357  1  0.859320  0.624400  0.850140  1.0  -0.1254
  Cl  Cl358  1  0.616270  0.376280  0.627290  1.0  -0.1367
  Cl  Cl359  1  0.774260  0.009180  0.149860  1.0  -0.1269
  Cl  Cl360  1  0.748990  0.988980  0.372710  1.0  -0.1396
  Cl  Cl361  1  0.875600  0.640680  0.149860  1.0  -0.1251
  Cl  Cl362  1  0.123720  0.883730  0.372710  1.0  -0.1372
  Cl  Cl363  1  0.490820  0.725740  0.850140  1.0  -0.1267
  Cl  Cl364  1  0.511020  0.751010  0.627290  1.0  -0.1403
  Cl  Cl365  1  0.475740  0.125600  0.734920  1.0  -0.1277
  Cl  Cl366  1  0.501010  0.373720  0.739990  1.0  -0.1385
  Cl  Cl367  1  0.390680  0.740820  0.265080  1.0  -0.1276
  Cl  Cl368  1  0.633730  0.761020  0.260010  1.0  -0.1392
  O  O369  1  0.869350  0.495650  0.917900  1.0  -0.5963
  O  O370  1  0.928400  0.530800  0.898800  1.0  -0.5918
  O  O371  1  0.547160  0.471560  0.580000  1.0  -0.5987
  O  O372  1  0.949630  0.394530  0.894700  1.0  -0.6001
  O  O373  1  0.577750  0.951450  0.082100  1.0  -0.5954
  O  O374  1  0.632000  0.029600  0.101200  1.0  -0.5928
  O  O375  1  0.891560  0.967160  0.420000  1.0  -0.5991
  O  O376  1  0.499830  0.054930  0.105300  1.0  -0.6018
  O  O377  1  0.245650  0.827750  0.126300  1.0  -0.5965
  O  O378  1  0.280800  0.882000  0.102400  1.0  -0.5935
  O  O379  1  0.221560  0.141560  0.424400  1.0  -0.5997
  O  O380  1  0.144530  0.749830  0.944900  1.0  -0.601
  O  O381  1  0.701450  0.119350  0.873700  1.0  -0.5963
  O  O382  1  0.779600  0.178400  0.897600  1.0  -0.5907
  O  O383  1  0.717160  0.797160  0.575600  1.0  -0.5978
  O  O384  1  0.804930  0.199630  0.055100  1.0  -0.6018
  O  O385  1  0.672250  0.254350  0.873700  1.0  -0.5949
  O  O386  1  0.618000  0.219200  0.897600  1.0  -0.5917
  O  O387  1  0.358440  0.278440  0.575600  1.0  -0.5995
  O  O388  1  0.750170  0.355470  0.055100  1.0  -0.6022
  O  O389  1  0.380650  0.798550  0.126300  1.0  -0.595
  O  O390  1  0.321600  0.720400  0.102400  1.0  -0.5909
  O  O391  1  0.702840  0.782840  0.424400  1.0  -0.6002
  O  O392  1  0.300370  0.695070  0.944900  1.0  -0.6014
  O  O393  1  0.548550  0.922250  0.917900  1.0  -0.594
  O  O394  1  0.470400  0.868000  0.898800  1.0  -0.5917
  O  O395  1  0.532840  0.608440  0.580000  1.0  -0.5984
  O  O396  1  0.445070  0.000170  0.894700  1.0  -0.6009
  O  O397  1  0.004350  0.630650  0.082100  1.0  -0.5967
  O  O398  1  0.969200  0.571600  0.101200  1.0  -0.5911
  O  O399  1  0.028440  0.952840  0.420000  1.0  -0.5984
  O  O400  1  0.105470  0.550370  0.105300  1.0  -0.6008
  O  O401  1  0.880650  0.754350  0.582100  1.0  -0.5947
  O  O402  1  0.821600  0.719200  0.601200  1.0  -0.5902
  O  O403  1  0.202840  0.778440  0.920000  1.0  -0.5998
  O  O404  1  0.800370  0.855470  0.605300  1.0  -0.6001
  O  O405  1  0.172250  0.298550  0.417900  1.0  -0.5958
  O  O406  1  0.118000  0.220400  0.398800  1.0  -0.5915
  O  O407  1  0.858440  0.282840  0.080000  1.0  -0.5983
  O  O408  1  0.250170  0.195070  0.394700  1.0  -0.6019
  O  O409  1  0.504350  0.422250  0.373700  1.0  -0.595
  O  O410  1  0.469200  0.368000  0.397600  1.0  -0.5933
  O  O411  1  0.528440  0.108440  0.075600  1.0  -0.5999
  O  O412  1  0.605470  0.500170  0.555100  1.0  -0.6018
  O  O413  1  0.048550  0.130650  0.626300  1.0  -0.5948
  O  O414  1  0.970400  0.071600  0.602400  1.0  -0.591
  O  O415  1  0.032840  0.452840  0.924400  1.0  -0.5981
  O  O416  1  0.945070  0.050370  0.444900  1.0  -0.6018
  O  O417  1  0.077750  0.995650  0.626300  1.0  -0.5938
  O  O418  1  0.132000  0.030800  0.602400  1.0  -0.5923
  O  O419  1  0.391560  0.971560  0.924400  1.0  -0.599
  O  O420  1  0.999830  0.894530  0.444900  1.0  -0.602
  O  O421  1  0.369350  0.451450  0.373700  1.0  -0.5974
  O  O422  1  0.428400  0.529600  0.397600  1.0  -0.5921
  O  O423  1  0.047160  0.467160  0.075600  1.0  -0.5994
  O  O424  1  0.449630  0.554930  0.555100  1.0  -0.6008
  O  O425  1  0.201450  0.327750  0.582100  1.0  -0.5955
  O  O426  1  0.279600  0.382000  0.601200  1.0  -0.5913
  O  O427  1  0.217160  0.641560  0.920000  1.0  -0.5989
  O  O428  1  0.304930  0.249830  0.605300  1.0  -0.5996
  O  O429  1  0.745650  0.619350  0.417900  1.0  -0.5966
  O  O430  1  0.780800  0.678400  0.398800  1.0  -0.5912
  O  O431  1  0.721560  0.297160  0.080000  1.0  -0.5978
  O  O432  1  0.644530  0.699630  0.394700  1.0  -0.6014
