# generated using pymatgen
data_Na3Cu2H58Pd2C106(N5O8)2
_symmetry_space_group_name_H-M   'P 1'
_cell_length_a   12.87400000
_cell_length_b   13.07900000
_cell_length_c   16.47100000
_cell_angle_alpha   86.19300000
_cell_angle_beta   85.95400000
_cell_angle_gamma   80.81500000
_symmetry_Int_Tables_number   1
_chemical_formula_structural   Na3Cu2H58Pd2C106(N5O8)2
_chemical_formula_sum   'Na3 Cu2 H58 Pd2 C106 N10 O16'
_cell_volume   2726.70411607
_cell_formula_units_Z   1
loop_
 _symmetry_equiv_pos_site_id
 _symmetry_equiv_pos_as_xyz
  1  'x, y, z'
loop_
 _atom_site_type_symbol
 _atom_site_label
 _atom_site_symmetry_multiplicity
 _atom_site_fract_x
 _atom_site_fract_y
 _atom_site_fract_z
 _atom_site_occupancy
 _atom_site_charge
  Na  Na1  1  0.607460  0.397610  0.495180  1.0  0.9648
  Na  Na2  1  0.392540  0.602390  0.504820  1.0  0.9652
  Na  Na3  1  0.500000  0.000000  0.500000  1.0  0.9874
  Cu  Cu4  1  0.458560  0.233310  0.489540  1.0  0.9738
  Cu  Cu5  1  0.541440  0.766690  0.510460  1.0  0.9715
  H  H6  1  0.750300  0.103700  0.064200  1.0  0.1188
  H  H7  1  0.730300  0.092900  0.917000  1.0  0.1191
  H  H8  1  0.874600  0.816700  0.696700  1.0  0.1246
  H  H9  1  0.016300  0.664200  0.693400  1.0  0.1165
  H  H10  1  0.284100  0.471900  0.904600  1.0  0.115
  H  H11  1  0.302200  0.480100  0.052400  1.0  0.1302
  H  H12  1  0.090600  0.698800  0.286000  1.0  0.1207
  H  H13  1  0.944900  0.847900  0.290400  1.0  0.1147
  H  H14  1  0.734300  0.881700  0.247700  1.0  0.1105
  H  H15  1  0.627800  0.980400  0.343200  1.0  0.0986
  H  H16  1  0.784000  0.221100  0.279900  1.0  0.0901
  H  H17  1  0.884800  0.125300  0.180200  1.0  0.0931
  H  H18  1  0.853000  0.097100  0.780400  1.0  0.0943
  H  H19  1  0.758100  0.196300  0.680700  1.0  0.1021
  H  H20  1  0.574700  0.973100  0.672100  1.0  0.0986
  H  H21  1  0.675600  0.870600  0.769200  1.0  0.1101
  H  H22  1  0.300100  0.597900  0.752200  1.0  0.0978
  H  H23  1  0.375200  0.482600  0.654700  1.0  0.0963
  H  H24  1  0.118000  0.339300  0.684100  1.0  0.0998
  H  H25  1  0.043900  0.454700  0.781500  1.0  0.1134
  H  H26  1  0.160700  0.436200  0.193400  1.0  0.1039
  H  H27  1  0.260400  0.347600  0.296500  1.0  0.1115
  H  H28  1  0.407100  0.597700  0.312100  1.0  0.1133
  H  H29  1  0.309700  0.683700  0.207200  1.0  0.1
  H  H30  1  0.183900  0.738000  0.551400  1.0  0.0827
  H  H31  1  0.009800  0.795000  0.522900  1.0  0.1151
  H  H32  1  0.925400  0.692300  0.450800  1.0  0.107
  H  H33  1  0.019900  0.530200  0.408900  1.0  0.1193
  H  H34  1  0.189200  0.476500  0.451400  1.0  0.0701
  H  H35  1  0.249700  0.896300  0.935800  1.0  0.1188
  H  H36  1  0.269700  0.907100  0.083000  1.0  0.1186
  H  H37  1  0.125400  0.183300  0.303300  1.0  0.1233
  H  H38  1  0.983700  0.335800  0.306600  1.0  0.1161
  H  H39  1  0.715900  0.528100  0.095400  1.0  0.1144
  H  H40  1  0.697800  0.519900  0.947600  1.0  0.1306
  H  H41  1  0.909400  0.301200  0.714000  1.0  0.1197
  H  H42  1  0.055100  0.152100  0.709600  1.0  0.1151
  H  H43  1  0.265700  0.118300  0.752300  1.0  0.1101
  H  H44  1  0.372200  0.019600  0.656800  1.0  0.0986
  H  H45  1  0.216000  0.778900  0.720100  1.0  0.0903
  H  H46  1  0.115200  0.874700  0.819800  1.0  0.0934
  H  H47  1  0.147000  0.902900  0.219600  1.0  0.094
  H  H48  1  0.241900  0.803700  0.319300  1.0  0.1027
  H  H49  1  0.425300  0.026900  0.327900  1.0  0.0981
  H  H50  1  0.324400  0.129400  0.230800  1.0  0.1103
  H  H51  1  0.699900  0.402100  0.247800  1.0  0.0978
  H  H52  1  0.624800  0.517400  0.345300  1.0  0.0952
  H  H53  1  0.882000  0.660700  0.315900  1.0  0.1002
  H  H54  1  0.956100  0.545300  0.218500  1.0  0.1138
  H  H55  1  0.839300  0.563800  0.806600  1.0  0.1031
  H  H56  1  0.739600  0.652400  0.703500  1.0  0.1108
  H  H57  1  0.592900  0.402300  0.687900  1.0  0.1131
  H  H58  1  0.690300  0.316300  0.792800  1.0  0.0985
  H  H59  1  0.816100  0.262000  0.448600  1.0  0.082
  H  H60  1  0.990200  0.205000  0.477100  1.0  0.1148
  H  H61  1  0.074600  0.307700  0.549200  1.0  0.1074
  H  H62  1  0.980100  0.469800  0.591100  1.0  0.1193
  H  H63  1  0.810800  0.523500  0.548600  1.0  0.0702
  Pd  Pd64  1  0.998080  0.771530  0.988390  1.0  0.3908
  Pd  Pd65  1  0.001920  0.228470  0.011610  1.0  0.3923
  C  C66  1  0.951100  0.845300  0.160400  1.0  0.2102
  C  C67  1  0.878900  0.930900  0.136900  1.0  -0.0908
  C  C68  1  0.856000  0.959500  0.056600  1.0  0.2058
  C  C69  1  0.783900  0.050000  0.030900  1.0  -0.1679
  C  C70  1  0.773100  0.043900  0.950500  1.0  -0.1588
  C  C71  1  0.837900  0.950200  0.924500  1.0  0.219
  C  C72  1  0.840100  0.912000  0.847100  1.0  -0.0835
  C  C73  1  0.905000  0.822000  0.822700  1.0  0.211
  C  C74  1  0.914800  0.787000  0.741000  1.0  -0.1761
  C  C75  1  0.992200  0.703900  0.739200  1.0  -0.1797
  C  C76  1  0.031200  0.686600  0.819400  1.0  0.2087
  C  C77  1  0.115400  0.610600  0.840400  1.0  -0.0669
  C  C78  1  0.153700  0.594700  0.917900  1.0  0.2077
  C  C79  1  0.241300  0.517700  0.940100  1.0  -0.169
  C  C80  1  0.251500  0.522300  0.020500  1.0  -0.1738
  C  C81  1  0.170700  0.603400  0.048600  1.0  0.2126
  C  C82  1  0.154900  0.630700  0.129500  1.0  -0.0973
  C  C83  1  0.077500  0.710600  0.156500  1.0  0.1984
  C  C84  1  0.056100  0.734000  0.240700  1.0  -0.194
  C  C85  1  0.977100  0.815800  0.242900  1.0  -0.1814
  C  C86  1  0.818500  0.994400  0.202100  1.0  0.0724
  C  C87  1  0.742900  0.951800  0.252800  1.0  -0.1089
  C  C88  1  0.680200  0.010100  0.310400  1.0  -0.0367
  C  C89  1  0.693800  0.112300  0.320400  1.0  -0.1312
  C  C90  1  0.771900  0.152700  0.272300  1.0  -0.0367
  C  C91  1  0.832800  0.095200  0.213300  1.0  -0.0824
  C  C92  1  0.624300  0.178500  0.379500  1.0  0.6769
  C  C93  1  0.773500  0.974500  0.785400  1.0  0.0631
  C  C94  1  0.796800  0.071400  0.758200  1.0  -0.0945
  C  C95  1  0.739500  0.131000  0.699500  1.0  -0.0238
  C  C96  1  0.654900  0.096800  0.667700  1.0  -0.118
  C  C97  1  0.631400  0.998500  0.693900  1.0  -0.046
  C  C98  1  0.691200  0.937600  0.752200  1.0  -0.081
  C  C99  1  0.593600  0.166200  0.605000  1.0  0.6869
  C  C100  1  0.165000  0.538400  0.776600  1.0  0.0784
  C  C101  1  0.262800  0.545100  0.738400  1.0  -0.0934
  C  C102  1  0.307800  0.476500  0.680400  1.0  -0.0704
  C  C103  1  0.253700  0.398700  0.660100  1.0  -0.1598
  C  C104  1  0.155600  0.391900  0.698000  1.0  -0.0393
  C  C105  1  0.111300  0.460700  0.755900  1.0  -0.1269
  C  C106  1  0.300200  0.319500  0.600000  1.0  0.6675
  C  C107  1  0.222900  0.570400  0.191400  1.0  0.0741
  C  C108  1  0.210300  0.469300  0.217800  1.0  -0.1353
  C  C109  1  0.269300  0.416600  0.279100  1.0  -0.0259
  C  C110  1  0.341600  0.464900  0.315200  1.0  -0.1295
  C  C111  1  0.356900  0.564900  0.288200  1.0  -0.0465
  C  C112  1  0.298300  0.616000  0.226300  1.0  -0.1009
  C  C113  1  0.402900  0.410200  0.384300  1.0  0.6698
  C  C114  1  0.149200  0.694300  0.522400  1.0  0.1669
  C  C115  1  0.045000  0.730000  0.505400  1.0  -0.128
  C  C116  1  0.996400  0.670600  0.464200  1.0  -0.1323
  C  C117  1  0.052000  0.573700  0.440200  1.0  -0.1517
  C  C118  1  0.154500  0.543900  0.463600  1.0  0.1805
  C  C119  1  0.048900  0.154700  0.839600  1.0  0.2088
  C  C120  1  0.121100  0.069100  0.863100  1.0  -0.0902
  C  C121  1  0.144000  0.040500  0.943400  1.0  0.2075
  C  C122  1  0.216100  0.950000  0.969100  1.0  -0.1664
  C  C123  1  0.226900  0.956100  0.049500  1.0  -0.16
  C  C124  1  0.162100  0.049800  0.075500  1.0  0.2205
  C  C125  1  0.159900  0.088000  0.152900  1.0  -0.0817
  C  C126  1  0.095000  0.178000  0.177300  1.0  0.2126
  C  C127  1  0.085200  0.213000  0.259000  1.0  -0.1755
  C  C128  1  0.007800  0.296100  0.260800  1.0  -0.1798
  C  C129  1  0.968800  0.313400  0.180600  1.0  0.2084
  C  C130  1  0.884600  0.389400  0.159600  1.0  -0.0673
  C  C131  1  0.846300  0.405300  0.082100  1.0  0.2064
  C  C132  1  0.758700  0.482300  0.059900  1.0  -0.1681
  C  C133  1  0.748500  0.477700  0.979500  1.0  -0.1732
  C  C134  1  0.829300  0.396600  0.951400  1.0  0.2104
  C  C135  1  0.845100  0.369300  0.870500  1.0  -0.0976
  C  C136  1  0.922500  0.289400  0.843500  1.0  0.197
  C  C137  1  0.943900  0.266000  0.759300  1.0  -0.1949
  C  C138  1  0.022900  0.184200  0.757100  1.0  -0.1813
  C  C139  1  0.181500  0.005600  0.797900  1.0  0.073
  C  C140  1  0.257100  0.048200  0.747200  1.0  -0.1102
  C  C141  1  0.319800  0.989900  0.689600  1.0  -0.0381
  C  C142  1  0.306200  0.887700  0.679600  1.0  -0.1301
  C  C143  1  0.228100  0.847300  0.727700  1.0  -0.037
  C  C144  1  0.167200  0.904800  0.786700  1.0  -0.0838
  C  C145  1  0.375700  0.821500  0.620500  1.0  0.6764
  C  C146  1  0.226500  0.025500  0.214600  1.0  0.0625
  C  C147  1  0.203200  0.928600  0.241800  1.0  -0.0933
  C  C148  1  0.260500  0.869000  0.300500  1.0  -0.0237
  C  C149  1  0.345100  0.903200  0.332300  1.0  -0.1174
  C  C150  1  0.368600  0.001500  0.306100  1.0  -0.0468
  C  C151  1  0.308800  0.062400  0.247800  1.0  -0.0811
  C  C152  1  0.406400  0.833800  0.395000  1.0  0.6853
  C  C153  1  0.835000  0.461600  0.223400  1.0  0.0773
  C  C154  1  0.737200  0.454900  0.261600  1.0  -0.0931
  C  C155  1  0.692200  0.523500  0.319600  1.0  -0.0702
  C  C156  1  0.746300  0.601300  0.339900  1.0  -0.16
  C  C157  1  0.844400  0.608100  0.302000  1.0  -0.0393
  C  C158  1  0.888700  0.539300  0.244100  1.0  -0.1291
  C  C159  1  0.699800  0.680500  0.400000  1.0  0.6656
  C  C160  1  0.777100  0.429600  0.808600  1.0  0.073
  C  C161  1  0.789700  0.530700  0.782200  1.0  -0.1363
  C  C162  1  0.730700  0.583400  0.720900  1.0  -0.0243
  C  C163  1  0.658400  0.535100  0.684800  1.0  -0.1304
  C  C164  1  0.643100  0.435100  0.711800  1.0  -0.0473
  C  C165  1  0.701700  0.384000  0.773700  1.0  -0.0994
  C  C166  1  0.597100  0.589800  0.615700  1.0  0.6691
  C  C167  1  0.850800  0.305700  0.477600  1.0  0.1657
  C  C168  1  0.955000  0.270000  0.494600  1.0  -0.1294
  C  C169  1  0.003600  0.329400  0.535800  1.0  -0.1308
  C  C170  1  0.948000  0.426300  0.559800  1.0  -0.1522
  C  C171  1  0.845500  0.456100  0.536400  1.0  0.1799
  N  N172  1  0.012600  0.778500  0.108710  1.0  -0.414
  N  N173  1  0.889400  0.901600  0.990090  1.0  -0.3851
  N  N174  1  0.976600  0.759100  0.869420  1.0  -0.3745
  N  N175  1  0.113600  0.647600  0.984940  1.0  -0.3964
  N  N176  1  0.205500  0.602400  0.501000  1.0  -0.3469
  N  N177  1  0.987400  0.221500  0.891290  1.0  -0.4153
  N  N178  1  0.110600  0.098400  0.009910  1.0  -0.3843
  N  N179  1  0.023400  0.240900  0.130580  1.0  -0.3783
  N  N180  1  0.886400  0.352400  0.015060  1.0  -0.3951
  N  N181  1  0.794500  0.397600  0.499000  1.0  -0.346
  O  O182  1  0.546000  0.139430  0.414470  1.0  -0.6778
  O  O183  1  0.643600  0.266320  0.391210  1.0  -0.6901
  O  O184  1  0.622000  0.249840  0.582450  1.0  -0.6868
  O  O185  1  0.513900  0.134010  0.579120  1.0  -0.6868
  O  O186  1  0.389900  0.330750  0.567030  1.0  -0.5968
  O  O187  1  0.249600  0.249800  0.587200  1.0  -0.5699
  O  O188  1  0.393500  0.314520  0.398800  1.0  -0.5722
  O  O189  1  0.457700  0.459050  0.422260  1.0  -0.6767
  O  O190  1  0.454000  0.860570  0.585530  1.0  -0.6737
  O  O191  1  0.356400  0.733680  0.608790  1.0  -0.6878
  O  O192  1  0.378000  0.750160  0.417550  1.0  -0.6871
  O  O193  1  0.486100  0.865990  0.420880  1.0  -0.6855
  O  O194  1  0.610100  0.669250  0.432970  1.0  -0.5976
  O  O195  1  0.750400  0.750200  0.412800  1.0  -0.5694
  O  O196  1  0.606500  0.685480  0.601200  1.0  -0.5721
  O  O197  1  0.542300  0.540950  0.577740  1.0  -0.6785
