# generated using pymatgen
data_Na3Cu2H58Pt2C106(N5O8)2
_symmetry_space_group_name_H-M   'P 1'
_cell_length_a   12.92400000
_cell_length_b   13.13700000
_cell_length_c   16.60000000
_cell_angle_alpha   85.57500000
_cell_angle_beta   85.42600000
_cell_angle_gamma   80.09800000
_symmetry_Int_Tables_number   1
_chemical_formula_structural   Na3Cu2H58Pt2C106(N5O8)2
_chemical_formula_sum   'Na3 Cu2 H58 Pt2 C106 N10 O16'
_cell_volume   2761.78212273
_cell_formula_units_Z   1
loop_
 _symmetry_equiv_pos_site_id
 _symmetry_equiv_pos_as_xyz
  1  'x, y, z'
loop_
 _atom_site_type_symbol
 _atom_site_label
 _atom_site_symmetry_multiplicity
 _atom_site_fract_x
 _atom_site_fract_y
 _atom_site_fract_z
 _atom_site_occupancy
 _atom_site_charge
  Na  Na1  1  0.607120  0.398080  0.493220  1.0  0.9537
  Na  Na2  1  0.392880  0.601920  0.506780  1.0  0.9546
  Na  Na3  1  0.500000  0.000000  0.500000  1.0  0.988
  Cu  Cu4  1  0.457460  0.234850  0.489860  1.0  0.934
  Cu  Cu5  1  0.542540  0.765150  0.510140  1.0  0.932
  H  H6  1  0.749600  0.105700  0.061600  1.0  0.118
  H  H7  1  0.727100  0.095500  0.916500  1.0  0.1342
  H  H8  1  0.872500  0.818300  0.699500  1.0  0.1314
  H  H9  1  0.014200  0.664900  0.696100  1.0  0.126
  H  H10  1  0.282700  0.470000  0.906300  1.0  0.1269
  H  H11  1  0.304200  0.481200  0.051200  1.0  0.1345
  H  H12  1  0.089600  0.701700  0.284000  1.0  0.1173
  H  H13  1  0.944100  0.850600  0.288900  1.0  0.1325
  H  H14  1  0.732300  0.885000  0.247400  1.0  0.1195
  H  H15  1  0.628300  0.982800  0.342000  1.0  0.1024
  H  H16  1  0.781800  0.223500  0.277200  1.0  0.1045
  H  H17  1  0.883200  0.126900  0.178400  1.0  0.0951
  H  H18  1  0.848700  0.098800  0.779600  1.0  0.0919
  H  H19  1  0.753800  0.197900  0.678200  1.0  0.1077
  H  H20  1  0.572100  0.976700  0.676100  1.0  0.1018
  H  H21  1  0.673600  0.874100  0.773600  1.0  0.1187
  H  H22  1  0.299700  0.596800  0.753200  1.0  0.1139
  H  H23  1  0.372300  0.481500  0.654700  1.0  0.1002
  H  H24  1  0.116900  0.340100  0.688500  1.0  0.1041
  H  H25  1  0.044000  0.454700  0.786600  1.0  0.1185
  H  H26  1  0.165600  0.437500  0.193100  1.0  0.116
  H  H27  1  0.263600  0.351000  0.295900  1.0  0.1149
  H  H28  1  0.406500  0.600500  0.309800  1.0  0.1126
  H  H29  1  0.309200  0.685800  0.204300  1.0  0.1061
  H  H30  1  0.180200  0.738200  0.555900  1.0  0.0909
  H  H31  1  0.010100  0.798400  0.520000  1.0  0.1422
  H  H32  1  0.927100  0.691700  0.446900  1.0  0.1217
  H  H33  1  0.025200  0.530000  0.407700  1.0  0.1235
  H  H34  1  0.193500  0.479600  0.451800  1.0  0.0712
  H  H35  1  0.250400  0.894300  0.938400  1.0  0.1144
  H  H36  1  0.272900  0.904500  0.083500  1.0  0.1336
  H  H37  1  0.127500  0.181700  0.300500  1.0  0.1307
  H  H38  1  0.985800  0.335100  0.303900  1.0  0.1263
  H  H39  1  0.717300  0.530000  0.093700  1.0  0.1264
  H  H40  1  0.695800  0.518800  0.948800  1.0  0.1354
  H  H41  1  0.910400  0.298300  0.716000  1.0  0.116
  H  H42  1  0.055900  0.149400  0.711100  1.0  0.1333
  H  H43  1  0.267700  0.115000  0.752600  1.0  0.1189
  H  H44  1  0.371700  0.017200  0.658000  1.0  0.1021
  H  H45  1  0.218200  0.776500  0.722800  1.0  0.1045
  H  H46  1  0.116800  0.873100  0.821600  1.0  0.0951
  H  H47  1  0.151300  0.901200  0.220400  1.0  0.092
  H  H48  1  0.246200  0.802100  0.321800  1.0  0.1084
  H  H49  1  0.427900  0.023300  0.323900  1.0  0.101
  H  H50  1  0.326400  0.125900  0.226400  1.0  0.1191
  H  H51  1  0.700300  0.403200  0.246800  1.0  0.1141
  H  H52  1  0.627700  0.518500  0.345300  1.0  0.0988
  H  H53  1  0.883100  0.659900  0.311500  1.0  0.1045
  H  H54  1  0.956000  0.545300  0.213400  1.0  0.1188
  H  H55  1  0.834400  0.562500  0.806900  1.0  0.1151
  H  H56  1  0.736400  0.649000  0.704100  1.0  0.1145
  H  H57  1  0.593500  0.399500  0.690200  1.0  0.1123
  H  H58  1  0.690800  0.314200  0.795700  1.0  0.1044
  H  H59  1  0.819800  0.261800  0.444100  1.0  0.0904
  H  H60  1  0.989900  0.201600  0.480000  1.0  0.1413
  H  H61  1  0.072900  0.308300  0.553100  1.0  0.1223
  H  H62  1  0.974800  0.470000  0.592300  1.0  0.123
  H  H63  1  0.806500  0.520400  0.548200  1.0  0.0709
  Pt  Pt64  1  0.997360  0.773810  0.988200  1.0  0.1278
  Pt  Pt65  1  0.002640  0.226190  0.011800  1.0  0.1293
  C  C66  1  0.949300  0.848000  0.159300  1.0  0.162
  C  C67  1  0.877100  0.934100  0.135500  1.0  -0.0837
  C  C68  1  0.854200  0.962300  0.055700  1.0  0.1828
  C  C69  1  0.783000  0.051600  0.028900  1.0  -0.1501
  C  C70  1  0.770900  0.046700  0.949600  1.0  -0.1656
  C  C71  1  0.837100  0.953500  0.924500  1.0  0.1807
  C  C72  1  0.839700  0.914800  0.848300  1.0  -0.0383
  C  C73  1  0.904500  0.823900  0.823400  1.0  0.1696
  C  C74  1  0.913300  0.788500  0.743100  1.0  -0.1656
  C  C75  1  0.990500  0.704900  0.741300  1.0  -0.1751
  C  C76  1  0.029900  0.688000  0.820700  1.0  0.203
  C  C77  1  0.114300  0.610900  0.842000  1.0  -0.084
  C  C78  1  0.153200  0.595800  0.918300  1.0  0.126
  C  C79  1  0.240800  0.517200  0.941100  1.0  -0.1594
  C  C80  1  0.252400  0.522900  0.020000  1.0  -0.1675
  C  C81  1  0.171200  0.604700  0.048500  1.0  0.2175
  C  C82  1  0.155600  0.632600  0.128700  1.0  -0.0678
  C  C83  1  0.077700  0.713300  0.155400  1.0  0.204
  C  C84  1  0.055100  0.737100  0.239000  1.0  -0.1785
  C  C85  1  0.976100  0.818500  0.241700  1.0  -0.1727
  C  C86  1  0.816500  0.996800  0.200200  1.0  0.0789
  C  C87  1  0.741300  0.954500  0.252000  1.0  -0.0976
  C  C88  1  0.680600  0.012200  0.309100  1.0  -0.0358
  C  C89  1  0.694000  0.113400  0.320000  1.0  -0.1191
  C  C90  1  0.770700  0.155100  0.270500  1.0  -0.0353
  C  C91  1  0.831200  0.097400  0.211500  1.0  -0.0839
  C  C92  1  0.624000  0.180200  0.380200  1.0  0.6987
  C  C93  1  0.771400  0.977400  0.785900  1.0  0.03
  C  C94  1  0.793200  0.073000  0.758000  1.0  -0.1049
  C  C95  1  0.735500  0.133200  0.698300  1.0  -0.0514
  C  C96  1  0.651800  0.098400  0.668600  1.0  -0.1097
  C  C97  1  0.628900  0.001700  0.696600  1.0  -0.0298
  C  C98  1  0.689200  0.940400  0.755200  1.0  -0.0852
  C  C99  1  0.590800  0.167500  0.605300  1.0  0.689
  C  C100  1  0.163600  0.537900  0.778500  1.0  0.0691
  C  C101  1  0.262100  0.544900  0.739800  1.0  -0.1084
  C  C102  1  0.305600  0.475900  0.681500  1.0  -0.0206
  C  C103  1  0.251600  0.398800  0.662600  1.0  -0.1374
  C  C104  1  0.154400  0.392100  0.701500  1.0  -0.0218
  C  C105  1  0.110600  0.460800  0.759700  1.0  -0.0976
  C  C106  1  0.298800  0.319200  0.603000  1.0  0.6993
  C  C107  1  0.224300  0.573100  0.190600  1.0  0.0385
  C  C108  1  0.213600  0.471200  0.217300  1.0  -0.1171
  C  C109  1  0.272000  0.419800  0.278100  1.0  -0.0116
  C  C110  1  0.343900  0.467800  0.314300  1.0  -0.1437
  C  C111  1  0.357300  0.567300  0.286500  1.0  -0.05
  C  C112  1  0.298300  0.618400  0.224200  1.0  -0.0943
  C  C113  1  0.404500  0.412900  0.383600  1.0  0.6897
  C  C114  1  0.147900  0.696400  0.524600  1.0  0.1746
  C  C115  1  0.046000  0.732700  0.504600  1.0  -0.1435
  C  C116  1  0.997600  0.670200  0.461300  1.0  -0.0868
  C  C117  1  0.055000  0.574000  0.438800  1.0  -0.1459
  C  C118  1  0.156700  0.546200  0.463900  1.0  0.1926
  C  C119  1  0.050700  0.152000  0.840700  1.0  0.1603
  C  C120  1  0.122900  0.065900  0.864500  1.0  -0.083
  C  C121  1  0.145800  0.037700  0.944300  1.0  0.1849
  C  C122  1  0.217000  0.948400  0.971100  1.0  -0.1494
  C  C123  1  0.229100  0.953300  0.050400  1.0  -0.1645
  C  C124  1  0.162900  0.046500  0.075500  1.0  0.1831
  C  C125  1  0.160300  0.085200  0.151700  1.0  -0.035
  C  C126  1  0.095500  0.176100  0.176600  1.0  0.1725
  C  C127  1  0.086700  0.211500  0.256900  1.0  -0.1652
  C  C128  1  0.009500  0.295100  0.258700  1.0  -0.1751
  C  C129  1  0.970100  0.312000  0.179300  1.0  0.2044
  C  C130  1  0.885700  0.389100  0.158000  1.0  -0.0842
  C  C131  1  0.846800  0.404200  0.081700  1.0  0.1261
  C  C132  1  0.759200  0.482800  0.058900  1.0  -0.1586
  C  C133  1  0.747600  0.477100  0.980000  1.0  -0.1667
  C  C134  1  0.828800  0.395300  0.951500  1.0  0.2163
  C  C135  1  0.844400  0.367400  0.871300  1.0  -0.0675
  C  C136  1  0.922300  0.286700  0.844600  1.0  0.2033
  C  C137  1  0.944900  0.262900  0.761000  1.0  -0.1793
  C  C138  1  0.023900  0.181500  0.758300  1.0  -0.1718
  C  C139  1  0.183500  0.003200  0.799800  1.0  0.0798
  C  C140  1  0.258700  0.045500  0.748000  1.0  -0.0985
  C  C141  1  0.319400  0.987800  0.690900  1.0  -0.038
  C  C142  1  0.306000  0.886600  0.680000  1.0  -0.1186
  C  C143  1  0.229300  0.844900  0.729500  1.0  -0.0352
  C  C144  1  0.168800  0.902600  0.788500  1.0  -0.0836
  C  C145  1  0.376000  0.819800  0.619800  1.0  0.6981
  C  C146  1  0.228600  0.022600  0.214100  1.0  0.0311
  C  C147  1  0.206800  0.927000  0.242000  1.0  -0.1037
  C  C148  1  0.264500  0.866800  0.301700  1.0  -0.053
  C  C149  1  0.348200  0.901600  0.331400  1.0  -0.1088
  C  C150  1  0.371100  0.998300  0.303400  1.0  -0.0308
  C  C151  1  0.310800  0.059600  0.244800  1.0  -0.0859
  C  C152  1  0.409200  0.832500  0.394700  1.0  0.6877
  C  C153  1  0.836400  0.462100  0.221500  1.0  0.0662
  C  C154  1  0.737900  0.455100  0.260200  1.0  -0.1084
  C  C155  1  0.694400  0.524100  0.318500  1.0  -0.0203
  C  C156  1  0.748400  0.601200  0.337400  1.0  -0.1385
  C  C157  1  0.845600  0.607900  0.298500  1.0  -0.0228
  C  C158  1  0.889400  0.539200  0.240300  1.0  -0.0995
  C  C159  1  0.701200  0.680800  0.397000  1.0  0.6979
  C  C160  1  0.775700  0.426900  0.809400  1.0  0.0381
  C  C161  1  0.786400  0.528800  0.782700  1.0  -0.1189
  C  C162  1  0.728000  0.580200  0.721900  1.0  -0.0098
  C  C163  1  0.656100  0.532200  0.685700  1.0  -0.1428
  C  C164  1  0.642700  0.432700  0.713500  1.0  -0.0508
  C  C165  1  0.701700  0.381600  0.775800  1.0  -0.093
  C  C166  1  0.595500  0.587100  0.616400  1.0  0.6891
  C  C167  1  0.852100  0.303600  0.475400  1.0  0.1737
  C  C168  1  0.954000  0.267300  0.495400  1.0  -0.1428
  C  C169  1  0.002400  0.329800  0.538700  1.0  -0.0877
  C  C170  1  0.945000  0.426000  0.561200  1.0  -0.1453
  C  C171  1  0.843300  0.453800  0.536100  1.0  0.1926
  N  N172  1  0.012100  0.781100  0.106900  1.0  -0.4174
  N  N173  1  0.889000  0.904200  0.989800  1.0  -0.3913
  N  N174  1  0.976800  0.760500  0.870900  1.0  -0.3889
  N  N175  1  0.112400  0.648700  0.986100  1.0  -0.3971
  N  N176  1  0.205700  0.604100  0.502500  1.0  -0.3492
  N  N177  1  0.987900  0.218900  0.893100  1.0  -0.4172
  N  N178  1  0.111000  0.095800  0.010200  1.0  -0.3901
  N  N179  1  0.023200  0.239500  0.129100  1.0  -0.3906
  N  N180  1  0.887600  0.351300  0.013900  1.0  -0.396
  N  N181  1  0.794300  0.395900  0.497500  1.0  -0.3504
  O  O182  1  0.546400  0.141200  0.415700  1.0  -0.6824
  O  O183  1  0.643600  0.267300  0.391000  1.0  -0.6749
  O  O184  1  0.617500  0.250800  0.582000  1.0  -0.7014
  O  O185  1  0.512100  0.134100  0.579900  1.0  -0.6797
  O  O186  1  0.384900  0.332500  0.566300  1.0  -0.5722
  O  O187  1  0.249900  0.247600  0.594200  1.0  -0.5838
  O  O188  1  0.395500  0.318300  0.399000  1.0  -0.5592
  O  O189  1  0.457700  0.462600  0.421100  1.0  -0.6731
  O  O190  1  0.453600  0.858800  0.584300  1.0  -0.6782
  O  O191  1  0.356400  0.732700  0.609000  1.0  -0.6741
  O  O192  1  0.382500  0.749200  0.418000  1.0  -0.7015
  O  O193  1  0.487900  0.865900  0.420100  1.0  -0.6787
  O  O194  1  0.615100  0.667500  0.433700  1.0  -0.5724
  O  O195  1  0.750100  0.752400  0.405800  1.0  -0.5844
  O  O196  1  0.604500  0.681700  0.601000  1.0  -0.5596
  O  O197  1  0.542300  0.537400  0.578900  1.0  -0.6751
