# generated using pymatgen
data_Zn4H24C45N3O16
_symmetry_space_group_name_H-M   'P 1'
_cell_length_a   19.08930000
_cell_length_b   26.95200000
_cell_length_c   27.78910000
_cell_angle_alpha   90.00000000
_cell_angle_beta   97.08720000
_cell_angle_gamma   90.00000000
_symmetry_Int_Tables_number   1
_chemical_formula_structural   Zn4H24C45N3O16
_chemical_formula_sum   'Zn16 H96 C180 N12 O64'
_cell_volume   14188.10930968
_cell_formula_units_Z   4
loop_
 _symmetry_equiv_pos_site_id
 _symmetry_equiv_pos_as_xyz
  1  'x, y, z'
loop_
 _atom_site_type_symbol
 _atom_site_label
 _atom_site_symmetry_multiplicity
 _atom_site_fract_x
 _atom_site_fract_y
 _atom_site_fract_z
 _atom_site_occupancy
 _atom_site_charge
  Zn  Zn1  1  0.169870  0.390590  0.434880  1.0  0.9958
  Zn  Zn2  1  0.284380  0.446990  0.503830  1.0  1.0442
  Zn  Zn3  1  0.160990  0.388230  0.549620  1.0  1.0529
  Zn  Zn4  1  0.282280  0.331340  0.503850  1.0  1.0738
  Zn  Zn5  1  0.330130  0.890590  0.065120  1.0  0.9963
  Zn  Zn6  1  0.215620  0.946990  0.996170  1.0  1.0448
  Zn  Zn7  1  0.339010  0.888230  0.950380  1.0  1.0533
  Zn  Zn8  1  0.217720  0.831340  0.996150  1.0  1.0737
  Zn  Zn9  1  0.830130  0.609410  0.565120  1.0  0.996
  Zn  Zn10  1  0.715620  0.553010  0.496170  1.0  1.0448
  Zn  Zn11  1  0.839010  0.611770  0.450380  1.0  1.0523
  Zn  Zn12  1  0.717720  0.668660  0.496150  1.0  1.0744
  Zn  Zn13  1  0.669870  0.109410  0.934880  1.0  0.9962
  Zn  Zn14  1  0.784380  0.053010  0.003830  1.0  1.0441
  Zn  Zn15  1  0.660990  0.111770  0.049620  1.0  1.0531
  Zn  Zn16  1  0.782280  0.168660  0.003850  1.0  1.0748
  H  H17  1  0.953000  0.339400  0.430600  1.0  0.1233
  H  H18  1  0.832100  0.333400  0.430100  1.0  0.1195
  H  H19  1  0.827600  0.470700  0.485200  1.0  0.1005
  H  H20  1  0.948500  0.477300  0.484800  1.0  0.1145
  H  H21  1  0.628500  0.320600  0.525000  1.0  0.1204
  H  H22  1  0.507300  0.319600  0.526200  1.0  0.115
  H  H23  1  0.495300  0.460300  0.477500  1.0  0.108
  H  H24  1  0.616400  0.461800  0.477300  1.0  0.1064
  H  H25  1  0.307900  0.502600  0.671400  1.0  0.1275
  H  H26  1  0.302000  0.565700  0.727400  1.0  0.1665
  H  H27  1  0.148700  0.631900  0.637600  1.0  0.121
  H  H28  1  0.155500  0.569500  0.581500  1.0  0.2216
  H  H29  1  0.200400  0.653800  0.841900  1.0  0.1258
  H  H30  1  0.190300  0.718100  0.896400  1.0  0.1279
  H  H31  1  0.324400  0.800200  0.827500  1.0  0.1223
  H  H32  1  0.331700  0.735900  0.772800  1.0  0.1262
  H  H33  1  0.298800  0.572300  0.417200  1.0  0.1056
  H  H34  1  0.304600  0.634600  0.360000  1.0  0.1267
  H  H35  1  0.188700  0.552000  0.259900  1.0  0.1221
  H  H36  1  0.182000  0.489400  0.317200  1.0  0.1203
  H  H37  1  0.313800  0.718500  0.238600  1.0  0.1355
  H  H38  1  0.322500  0.784500  0.185200  1.0  0.1181
  H  H39  1  0.200000  0.710400  0.081400  1.0  0.1156
  H  H40  1  0.194900  0.642800  0.134100  1.0  0.1297
  H  H41  1  0.547000  0.839400  0.069400  1.0  0.123
  H  H42  1  0.667900  0.833400  0.069900  1.0  0.1196
  H  H43  1  0.672400  0.970700  0.014800  1.0  0.1009
  H  H44  1  0.551500  0.977300  0.015200  1.0  0.1145
  H  H45  1  0.871500  0.820600  0.975000  1.0  0.1201
  H  H46  1  0.992700  0.819600  0.973800  1.0  0.115
  H  H47  1  0.004700  0.960300  0.022500  1.0  0.108
  H  H48  1  0.883600  0.961800  0.022700  1.0  0.1065
  H  H49  1  0.192100  0.002600  0.828600  1.0  0.1266
  H  H50  1  0.198000  0.065700  0.772600  1.0  0.1659
  H  H51  1  0.351300  0.131900  0.862400  1.0  0.1213
  H  H52  1  0.344500  0.069500  0.918500  1.0  0.2246
  H  H53  1  0.299600  0.153800  0.658100  1.0  0.1257
  H  H54  1  0.309700  0.218100  0.603600  1.0  0.1284
  H  H55  1  0.175600  0.300200  0.672500  1.0  0.1222
  H  H56  1  0.168300  0.235900  0.727200  1.0  0.126
  H  H57  1  0.201200  0.072300  0.082800  1.0  0.1058
  H  H58  1  0.195400  0.134600  0.140000  1.0  0.1271
  H  H59  1  0.311300  0.052000  0.240100  1.0  0.1237
  H  H60  1  0.318000  0.989400  0.182800  1.0  0.12
  H  H61  1  0.186200  0.218500  0.261400  1.0  0.1359
  H  H62  1  0.177500  0.284500  0.314800  1.0  0.118
  H  H63  1  0.300000  0.210400  0.418600  1.0  0.1153
  H  H64  1  0.305100  0.142800  0.365900  1.0  0.1276
  H  H65  1  0.047000  0.660600  0.569400  1.0  0.1238
  H  H66  1  0.167900  0.666667  0.569900  1.0  0.1227
  H  H67  1  0.172400  0.529300  0.514800  1.0  0.1008
  H  H68  1  0.051500  0.522700  0.515200  1.0  0.1147
  H  H69  1  0.371500  0.679400  0.475000  1.0  0.1215
  H  H70  1  0.492700  0.680400  0.473800  1.0  0.115
  H  H71  1  0.504700  0.539700  0.522500  1.0  0.108
  H  H72  1  0.383600  0.538200  0.522700  1.0  0.1062
  H  H73  1  0.692100  0.497400  0.328600  1.0  0.1274
  H  H74  1  0.698000  0.434300  0.272600  1.0  0.1684
  H  H75  1  0.851300  0.368100  0.362400  1.0  0.1221
  H  H76  1  0.844500  0.430500  0.418500  1.0  0.2251
  H  H77  1  0.799600  0.346200  0.158100  1.0  0.1263
  H  H78  1  0.809700  0.281900  0.103600  1.0  0.1285
  H  H79  1  0.675600  0.199800  0.172500  1.0  0.1217
  H  H80  1  0.668300  0.264100  0.227200  1.0  0.1265
  H  H81  1  0.701200  0.427700  0.582800  1.0  0.1059
  H  H82  1  0.695400  0.365400  0.640000  1.0  0.1268
  H  H83  1  0.811300  0.448000  0.740100  1.0  0.1218
  H  H84  1  0.818000  0.510600  0.682800  1.0  0.1204
  H  H85  1  0.686200  0.281500  0.761400  1.0  0.1357
  H  H86  1  0.677500  0.215500  0.814800  1.0  0.1174
  H  H87  1  0.800000  0.289600  0.918600  1.0  0.1153
  H  H88  1  0.805100  0.357200  0.865900  1.0  0.131
  H  H89  1  0.453000  0.160600  0.930600  1.0  0.124
  H  H90  1  0.332100  0.166600  0.930100  1.0  0.1217
  H  H91  1  0.327600  0.029300  0.985200  1.0  0.1005
  H  H92  1  0.448500  0.022700  0.984800  1.0  0.1153
  H  H93  1  0.128500  0.179400  0.025000  1.0  0.1211
  H  H94  1  0.007300  0.180400  0.026200  1.0  0.1153
  H  H95  1  0.995300  0.039700  0.977500  1.0  0.1077
  H  H96  1  0.116400  0.038200  0.977300  1.0  0.106
  H  H97  1  0.807900  0.997400  0.171400  1.0  0.1279
  H  H98  1  0.802000  0.934300  0.227400  1.0  0.1661
  H  H99  1  0.648700  0.868100  0.137600  1.0  0.1213
  H  H100  1  0.655500  0.930500  0.081500  1.0  0.2221
  H  H101  1  0.700400  0.846200  0.341900  1.0  0.126
  H  H102  1  0.690300  0.781900  0.396400  1.0  0.1278
  H  H103  1  0.824400  0.699800  0.327500  1.0  0.1218
  H  H104  1  0.831700  0.764100  0.272800  1.0  0.126
  H  H105  1  0.798800  0.927700  0.917200  1.0  0.1059
  H  H106  1  0.804600  0.865400  0.860000  1.0  0.1268
  H  H107  1  0.688700  0.948000  0.759900  1.0  0.1237
  H  H108  1  0.682000  0.010600  0.817200  1.0  0.1208
  H  H109  1  0.813800  0.781500  0.738600  1.0  0.1354
  H  H110  1  0.822500  0.715500  0.685200  1.0  0.1177
  H  H111  1  0.700000  0.789600  0.581400  1.0  0.1155
  H  H112  1  0.694900  0.857200  0.634100  1.0  0.1282
  C  C113  1  0.041480  0.410680  0.459300  1.0  0.7153
  C  C114  1  0.962680  0.409420  0.457390  1.0  -0.0167
  C  C115  1  0.927730  0.365910  0.441300  1.0  -0.1548
  C  C116  1  0.855480  0.362250  0.441270  1.0  -0.0959
  C  C117  1  0.817620  0.401370  0.457810  1.0  0.0943
  C  C118  1  0.852780  0.444360  0.474090  1.0  0.0517
  C  C119  1  0.925220  0.448330  0.473860  1.0  -0.1191
  C  C120  1  0.739830  0.397610  0.457450  1.0  0.5689
  C  C121  1  0.634830  0.391210  0.501210  1.0  0.1268
  C  C122  1  0.601880  0.348650  0.515650  1.0  -0.07
  C  C123  1  0.529090  0.347970  0.516140  1.0  -0.0453
  C  C124  1  0.489030  0.389320  0.501750  1.0  -0.1301
  C  C125  1  0.522080  0.432350  0.487070  1.0  -0.0517
  C  C126  1  0.594500  0.433230  0.486910  1.0  -0.1813
  C  C127  1  0.411090  0.386760  0.501120  1.0  0.7274
  C  C128  1  0.236930  0.488300  0.585280  1.0  0.7135
  C  C129  1  0.232010  0.529270  0.620620  1.0  -0.0436
  C  C130  1  0.276020  0.528550  0.664550  1.0  -0.1007
  C  C131  1  0.272670  0.566270  0.698150  1.0  -0.1293
  C  C132  1  0.225070  0.605030  0.687720  1.0  0.0999
  C  C133  1  0.180720  0.606130  0.644220  1.0  -0.1249
  C  C134  1  0.184770  0.568620  0.610870  1.0  -0.0873
  C  C135  1  0.267950  0.648670  0.763870  1.0  0.6032
  C  C136  1  0.265930  0.689170  0.801220  1.0  -0.0095
  C  C137  1  0.224500  0.683430  0.838830  1.0  -0.0856
  C  C138  1  0.218990  0.721660  0.871880  1.0  -0.0864
  C  C139  1  0.257030  0.765260  0.867680  1.0  -0.1221
  C  C140  1  0.299260  0.770930  0.830310  1.0  -0.0668
  C  C141  1  0.303370  0.732430  0.797490  1.0  -0.0801
  C  C142  1  0.254890  0.803330  0.905270  1.0  0.7268
  C  C143  1  0.233900  0.486320  0.409380  1.0  0.7279
  C  C144  1  0.240140  0.524930  0.372760  1.0  -0.1333
  C  C145  1  0.276710  0.568170  0.385730  1.0  -0.042
  C  C146  1  0.280260  0.605450  0.351510  1.0  -0.0838
  C  C147  1  0.247530  0.598970  0.304960  1.0  -0.0099
  C  C148  1  0.210600  0.555940  0.291430  1.0  -0.0743
  C  C149  1  0.206730  0.518460  0.325710  1.0  -0.05
  C  C150  1  0.250820  0.640970  0.270860  1.0  0.4158
  C  C151  1  0.254750  0.674650  0.191630  1.0  0.0679
  C  C152  1  0.291790  0.716530  0.206940  1.0  -0.1204
  C  C153  1  0.296540  0.756430  0.175060  1.0  -0.0346
  C  C154  1  0.261600  0.753390  0.127640  1.0  -0.1087
  C  C155  1  0.223590  0.711820  0.112730  1.0  -0.0516
  C  C156  1  0.219900  0.671220  0.144370  1.0  -0.1042
  C  C157  1  0.267790  0.796720  0.094210  1.0  0.738
  C  C158  1  0.458520  0.910680  0.040700  1.0  0.7165
  C  C159  1  0.537320  0.909420  0.042610  1.0  -0.0167
  C  C160  1  0.572270  0.865910  0.058700  1.0  -0.1569
  C  C161  1  0.644520  0.862250  0.058730  1.0  -0.0976
  C  C162  1  0.682380  0.901370  0.042190  1.0  0.0931
  C  C163  1  0.647220  0.944360  0.025910  1.0  0.0512
  C  C164  1  0.574780  0.948330  0.026140  1.0  -0.1214
  C  C165  1  0.760170  0.897610  0.042550  1.0  0.571
  C  C166  1  0.865170  0.891210  0.998790  1.0  0.1255
  C  C167  1  0.898120  0.848650  0.984350  1.0  -0.0694
  C  C168  1  0.970910  0.847970  0.983860  1.0  -0.0468
  C  C169  1  0.010970  0.889320  0.998250  1.0  -0.1298
  C  C170  1  0.977920  0.932350  0.012930  1.0  -0.0517
  C  C171  1  0.905500  0.933230  0.013090  1.0  -0.1827
  C  C172  1  0.088910  0.886760  0.998880  1.0  0.7266
  C  C173  1  0.263070  0.988300  0.914720  1.0  0.7143
  C  C174  1  0.267990  0.029270  0.879380  1.0  -0.0475
  C  C175  1  0.223980  0.028550  0.835450  1.0  -0.0985
  C  C176  1  0.227330  0.066270  0.801850  1.0  -0.1297
  C  C177  1  0.274930  0.105030  0.812280  1.0  0.0992
  C  C178  1  0.319280  0.106130  0.855780  1.0  -0.1262
  C  C179  1  0.315230  0.068620  0.889130  1.0  -0.0895
  C  C180  1  0.232050  0.148670  0.736130  1.0  0.6035
  C  C181  1  0.234070  0.189170  0.698780  1.0  -0.0099
  C  C182  1  0.275500  0.183430  0.661170  1.0  -0.0862
  C  C183  1  0.281010  0.221660  0.628120  1.0  -0.0866
  C  C184  1  0.242970  0.265260  0.632320  1.0  -0.1219
  C  C185  1  0.200740  0.270930  0.669690  1.0  -0.0666
  C  C186  1  0.196630  0.232430  0.702510  1.0  -0.0804
  C  C187  1  0.245110  0.303330  0.594730  1.0  0.7273
  C  C188  1  0.266100  0.986320  0.090620  1.0  0.7274
  C  C189  1  0.259860  0.024930  0.127240  1.0  -0.1336
  C  C190  1  0.223290  0.068170  0.114270  1.0  -0.0435
  C  C191  1  0.219740  0.105450  0.148490  1.0  -0.0836
  C  C192  1  0.252470  0.098970  0.195040  1.0  -0.0101
  C  C193  1  0.289400  0.055940  0.208570  1.0  -0.0747
  C  C194  1  0.293270  0.018460  0.174290  1.0  -0.0501
  C  C195  1  0.249180  0.140970  0.229140  1.0  0.4179
  C  C196  1  0.245250  0.174650  0.308370  1.0  0.0703
  C  C197  1  0.208210  0.216530  0.293060  1.0  -0.1218
  C  C198  1  0.203460  0.256430  0.324940  1.0  -0.0357
  C  C199  1  0.238400  0.253390  0.372360  1.0  -0.1085
  C  C200  1  0.276410  0.211820  0.387270  1.0  -0.0522
  C  C201  1  0.280100  0.171220  0.355630  1.0  -0.1041
  C  C202  1  0.232210  0.296720  0.405790  1.0  0.7379
  C  C203  1  0.958520  0.589320  0.540700  1.0  0.7164
  C  C204  1  0.037320  0.590580  0.542610  1.0  -0.0162
  C  C205  1  0.072270  0.634090  0.558700  1.0  -0.1581
  C  C206  1  0.144520  0.637750  0.558730  1.0  -0.0902
  C  C207  1  0.182380  0.598630  0.542190  1.0  0.0893
  C  C208  1  0.147220  0.555640  0.525910  1.0  0.0527
  C  C209  1  0.074780  0.551670  0.526140  1.0  -0.1195
  C  C210  1  0.260170  0.602390  0.542550  1.0  0.5711
  C  C211  1  0.365170  0.608790  0.498790  1.0  0.1252
  C  C212  1  0.398120  0.651350  0.484350  1.0  -0.0701
  C  C213  1  0.470910  0.652030  0.483860  1.0  -0.0463
  C  C214  1  0.510970  0.610680  0.498250  1.0  -0.1292
  C  C215  1  0.477920  0.567650  0.512930  1.0  -0.0509
  C  C216  1  0.405500  0.566770  0.513090  1.0  -0.182
  C  C217  1  0.588910  0.613240  0.498880  1.0  0.7265
  C  C218  1  0.763070  0.511700  0.414720  1.0  0.7136
  C  C219  1  0.767990  0.470730  0.379380  1.0  -0.0456
  C  C220  1  0.723980  0.471450  0.335450  1.0  -0.0999
  C  C221  1  0.727330  0.433730  0.301850  1.0  -0.1303
  C  C222  1  0.774930  0.394970  0.312280  1.0  0.1001
  C  C223  1  0.819280  0.393870  0.355780  1.0  -0.1272
  C  C224  1  0.815230  0.431380  0.389130  1.0  -0.0884
  C  C225  1  0.732050  0.351330  0.236130  1.0  0.603
  C  C226  1  0.734070  0.310830  0.198780  1.0  -0.0104
  C  C227  1  0.775500  0.316570  0.161170  1.0  -0.0871
  C  C228  1  0.781010  0.278340  0.128120  1.0  -0.0864
  C  C229  1  0.742970  0.234740  0.132320  1.0  -0.1222
  C  C230  1  0.700740  0.229070  0.169690  1.0  -0.0664
  C  C231  1  0.696630  0.267570  0.202510  1.0  -0.0802
  C  C232  1  0.745110  0.196670  0.094730  1.0  0.7271
  C  C233  1  0.766100  0.513680  0.590620  1.0  0.729
  C  C234  1  0.759860  0.475070  0.627240  1.0  -0.1329
  C  C235  1  0.723290  0.431830  0.614270  1.0  -0.0439
  C  C236  1  0.719740  0.394550  0.648490  1.0  -0.084
  C  C237  1  0.752470  0.401030  0.695040  1.0  -0.0103
  C  C238  1  0.789400  0.444060  0.708570  1.0  -0.0748
  C  C239  1  0.793270  0.481540  0.674290  1.0  -0.0489
  C  C240  1  0.749180  0.359030  0.729140  1.0  0.4182
  C  C241  1  0.745250  0.325350  0.808370  1.0  0.0668
  C  C242  1  0.708210  0.283470  0.793060  1.0  -0.1228
  C  C243  1  0.703460  0.243570  0.824940  1.0  -0.0366
  C  C244  1  0.738400  0.246610  0.872360  1.0  -0.1082
  C  C245  1  0.776410  0.288180  0.887270  1.0  -0.0522
  C  C246  1  0.780100  0.328780  0.855630  1.0  -0.1026
  C  C247  1  0.732210  0.203280  0.905790  1.0  0.7384
  C  C248  1  0.541480  0.089320  0.959300  1.0  0.7153
  C  C249  1  0.462680  0.090580  0.957390  1.0  -0.0171
  C  C250  1  0.427730  0.134090  0.941300  1.0  -0.1526
  C  C251  1  0.355480  0.137750  0.941270  1.0  -0.0882
  C  C252  1  0.317620  0.098630  0.957810  1.0  0.0929
  C  C253  1  0.352780  0.055640  0.974090  1.0  0.0533
  C  C254  1  0.425220  0.051670  0.973860  1.0  -0.1172
  C  C255  1  0.239830  0.102390  0.957450  1.0  0.57
  C  C256  1  0.134830  0.108790  0.001210  1.0  0.1258
  C  C257  1  0.101880  0.151350  0.015650  1.0  -0.0702
  C  C258  1  0.029090  0.152030  0.016140  1.0  -0.0464
  C  C259  1  0.989030  0.110680  0.001750  1.0  -0.1296
  C  C260  1  0.022080  0.067650  0.987070  1.0  -0.0505
  C  C261  1  0.094500  0.066770  0.986910  1.0  -0.1797
  C  C262  1  0.911090  0.113240  0.001120  1.0  0.7271
  C  C263  1  0.736930  0.011700  0.085280  1.0  0.7119
  C  C264  1  0.732010  0.970730  0.120620  1.0  -0.0442
  C  C265  1  0.776020  0.971450  0.164550  1.0  -0.0991
  C  C266  1  0.772670  0.933730  0.198150  1.0  -0.1297
  C  C267  1  0.725070  0.894970  0.187720  1.0  0.1008
  C  C268  1  0.680720  0.893870  0.144220  1.0  -0.1252
  C  C269  1  0.684770  0.931380  0.110870  1.0  -0.0876
  C  C270  1  0.767950  0.851330  0.263870  1.0  0.6026
  C  C271  1  0.765930  0.810830  0.301220  1.0  -0.0096
  C  C272  1  0.724500  0.816570  0.338830  1.0  -0.0863
  C  C273  1  0.718990  0.778340  0.371880  1.0  -0.0869
  C  C274  1  0.757030  0.734740  0.367680  1.0  -0.1222
  C  C275  1  0.799260  0.729070  0.330310  1.0  -0.0665
  C  C276  1  0.803370  0.767570  0.297490  1.0  -0.0797
  C  C277  1  0.754890  0.696670  0.405270  1.0  0.7271
  C  C278  1  0.733900  0.013680  0.909380  1.0  0.7288
  C  C279  1  0.740140  0.975070  0.872760  1.0  -0.1325
  C  C280  1  0.776710  0.931830  0.885730  1.0  -0.042
  C  C281  1  0.780260  0.894550  0.851510  1.0  -0.0849
  C  C282  1  0.747530  0.901030  0.804960  1.0  -0.0106
  C  C283  1  0.710600  0.944060  0.791430  1.0  -0.0743
  C  C284  1  0.706730  0.981540  0.825710  1.0  -0.0504
  C  C285  1  0.750820  0.859030  0.770860  1.0  0.4164
  C  C286  1  0.754750  0.825350  0.691630  1.0  0.0697
  C  C287  1  0.791790  0.783470  0.706940  1.0  -0.1206
  C  C288  1  0.796540  0.743570  0.675060  1.0  -0.0352
  C  C289  1  0.761600  0.746610  0.627640  1.0  -0.109
  C  C290  1  0.723590  0.788180  0.612730  1.0  -0.0519
  C  C291  1  0.719900  0.828780  0.644370  1.0  -0.1036
  C  C292  1  0.767790  0.703280  0.594210  1.0  0.7383
  N  N293  1  0.711760  0.394400  0.499460  1.0  -0.4258
  N  N294  1  0.246170  0.634270  0.226390  1.0  -0.2256
  N  N295  1  0.225710  0.647890  0.723190  1.0  -0.2809
  N  N296  1  0.788240  0.894400  0.000540  1.0  -0.4278
  N  N297  1  0.253830  0.134270  0.273610  1.0  -0.227
  N  N298  1  0.274290  0.147890  0.776810  1.0  -0.2809
  N  N299  1  0.288240  0.605600  0.500540  1.0  -0.4263
  N  N300  1  0.753830  0.365730  0.773610  1.0  -0.2233
  N  N301  1  0.774290  0.352110  0.276810  1.0  -0.2802
  N  N302  1  0.211760  0.105600  0.999460  1.0  -0.4259
  N  N303  1  0.746170  0.865730  0.726390  1.0  -0.2287
  N  N304  1  0.725710  0.852110  0.223190  1.0  -0.2801
  O  O305  1  0.224130  0.389890  0.498260  1.0  -1.2301
  O  O306  1  0.068870  0.388520  0.427290  1.0  -0.5695
  O  O307  1  0.699900  0.398600  0.418160  1.0  -0.5334
  O  O308  1  0.382270  0.347230  0.504980  1.0  -0.5759
  O  O309  1  0.376700  0.426690  0.499850  1.0  -0.6025
  O  O310  1  0.192160  0.454270  0.584950  1.0  -0.6622
  O  O311  1  0.281490  0.492680  0.557780  1.0  -0.5661
  O  O312  1  0.312930  0.614500  0.773770  1.0  -0.4909
  O  O313  1  0.219740  0.790940  0.938660  1.0  -0.5658
  O  O314  1  0.199520  0.446980  0.397070  1.0  -0.6319
  O  O315  1  0.264060  0.495240  0.451230  1.0  -0.5846
  O  O316  1  0.256290  0.688090  0.275750  1.0  -0.5627
  O  O317  1  0.236350  0.794630  0.052210  1.0  -0.6678
  O  O318  1  0.306080  0.831820  0.107630  1.0  -0.5631
  O  O319  1  0.077880  0.435230  0.490140  1.0  -0.626
  O  O320  1  0.284530  0.842800  0.899970  1.0  -0.5859
  O  O321  1  0.275870  0.889890  0.001740  1.0  -1.2302
  O  O322  1  0.431130  0.888520  0.072710  1.0  -0.5688
  O  O323  1  0.800100  0.898600  0.081840  1.0  -0.5327
  O  O324  1  0.117730  0.847230  0.995020  1.0  -0.5756
  O  O325  1  0.123300  0.926690  0.000150  1.0  -0.603
  O  O326  1  0.307840  0.954270  0.915050  1.0  -0.6576
  O  O327  1  0.218510  0.992680  0.942220  1.0  -0.567
  O  O328  1  0.187070  0.114500  0.726230  1.0  -0.4912
  O  O329  1  0.280260  0.290940  0.561340  1.0  -0.5666
  O  O330  1  0.300480  0.946980  0.102930  1.0  -0.6325
  O  O331  1  0.235940  0.995240  0.048770  1.0  -0.5868
  O  O332  1  0.243710  0.188090  0.224250  1.0  -0.5645
  O  O333  1  0.263650  0.294630  0.447790  1.0  -0.6678
  O  O334  1  0.193920  0.331820  0.392370  1.0  -0.561
  O  O335  1  0.422120  0.935230  0.009860  1.0  -0.6275
  O  O336  1  0.215470  0.342800  0.600030  1.0  -0.5857
  O  O337  1  0.775870  0.610110  0.501740  1.0  -1.2304
  O  O338  1  0.931130  0.611480  0.572710  1.0  -0.5688
  O  O339  1  0.300100  0.601400  0.581840  1.0  -0.5326
  O  O340  1  0.617730  0.652770  0.495020  1.0  -0.5768
  O  O341  1  0.623300  0.573310  0.500150  1.0  -0.601
  O  O342  1  0.807840  0.545730  0.415050  1.0  -0.6645
  O  O343  1  0.718510  0.507320  0.442220  1.0  -0.5657
  O  O344  1  0.687070  0.385500  0.226230  1.0  -0.4923
  O  O345  1  0.780260  0.209060  0.061340  1.0  -0.5665
  O  O346  1  0.800480  0.553020  0.602930  1.0  -0.6327
  O  O347  1  0.735940  0.504760  0.548770  1.0  -0.5868
  O  O348  1  0.743710  0.311910  0.724250  1.0  -0.5635
  O  O349  1  0.763650  0.205370  0.947790  1.0  -0.6681
  O  O350  1  0.693920  0.168180  0.892370  1.0  -0.5611
  O  O351  1  0.922120  0.564770  0.509860  1.0  -0.6262
  O  O352  1  0.715470  0.157200  0.100030  1.0  -0.5859
  O  O353  1  0.724130  0.110110  0.998260  1.0  -1.2303
  O  O354  1  0.568870  0.111480  0.927290  1.0  -0.5703
  O  O355  1  0.199900  0.101400  0.918160  1.0  -0.5318
  O  O356  1  0.882270  0.152770  0.004980  1.0  -0.5759
  O  O357  1  0.876700  0.073310  0.999850  1.0  -0.601
  O  O358  1  0.692160  0.045730  0.084950  1.0  -0.6626
  O  O359  1  0.781490  0.007320  0.057780  1.0  -0.5646
  O  O360  1  0.812930  0.885500  0.273770  1.0  -0.4902
  O  O361  1  0.719740  0.709060  0.438660  1.0  -0.5658
  O  O362  1  0.699520  0.053020  0.897070  1.0  -0.6339
  O  O363  1  0.764060  0.004760  0.951230  1.0  -0.5852
  O  O364  1  0.756290  0.811910  0.775750  1.0  -0.5639
  O  O365  1  0.736350  0.705370  0.552210  1.0  -0.6673
  O  O366  1  0.806080  0.668180  0.607630  1.0  -0.5632
  O  O367  1  0.577880  0.064770  0.990140  1.0  -0.6269
  O  O368  1  0.784530  0.657200  0.399970  1.0  -0.586
