# generated using pymatgen
data_Sr3Ag6H22C36S6(N3O7)2
_symmetry_space_group_name_H-M   'P 1'
_cell_length_a   12.63560000
_cell_length_b   12.69630000
_cell_length_c   22.17550000
_cell_angle_alpha   84.86400000
_cell_angle_beta   88.08800000
_cell_angle_gamma   72.98000000
_symmetry_Int_Tables_number   1
_chemical_formula_structural   Sr3Ag6H22C36S6(N3O7)2
_chemical_formula_sum   'Sr6 Ag12 H44 C72 S12 N12 O28'
_cell_volume   3387.94951177
_cell_formula_units_Z   2
loop_
 _symmetry_equiv_pos_site_id
 _symmetry_equiv_pos_as_xyz
  1  'x, y, z'
loop_
 _atom_site_type_symbol
 _atom_site_label
 _atom_site_symmetry_multiplicity
 _atom_site_fract_x
 _atom_site_fract_y
 _atom_site_fract_z
 _atom_site_occupancy
 _atom_site_charge
  Sr  Sr1  1  0.839040  0.042920  0.457280  1.0  1.6554
  Sr  Sr2  1  0.869450  0.892200  0.180480  1.0  1.6283
  Sr  Sr3  1  0.645130  0.946270  0.049920  1.0  1.5551
  Sr  Sr4  1  0.160960  0.957080  0.542720  1.0  1.658
  Sr  Sr5  1  0.130550  0.107800  0.819520  1.0  1.627
  Sr  Sr6  1  0.354870  0.053730  0.950080  1.0  1.5549
  Ag  Ag7  1  0.204490  0.412970  0.346930  1.0  0.3192
  Ag  Ag8  1  0.293610  0.606710  0.300660  1.0  0.2884
  Ag  Ag9  1  0.389490  0.407190  0.239070  1.0  0.2734
  Ag  Ag10  1  0.235220  0.585650  0.159070  1.0  0.2791
  Ag  Ag11  1  0.161620  0.385800  0.202040  1.0  0.1911
  Ag  Ag12  1  0.031330  0.575110  0.273090  1.0  0.2657
  Ag  Ag13  1  0.795510  0.587030  0.653070  1.0  0.321
  Ag  Ag14  1  0.706390  0.393290  0.699340  1.0  0.29
  Ag  Ag15  1  0.610510  0.592810  0.760930  1.0  0.273
  Ag  Ag16  1  0.764780  0.414350  0.840930  1.0  0.2805
  Ag  Ag17  1  0.838380  0.614200  0.797960  1.0  0.1911
  Ag  Ag18  1  0.968670  0.424890  0.726910  1.0  0.2664
  H  H19  1  0.052300  0.686600  0.556500  1.0  0.0941
  H  H20  1  0.123800  0.496600  0.574300  1.0  0.1077
  H  H21  1  0.179800  0.392300  0.493800  1.0  0.0693
  H  H22  1  0.662500  0.423600  0.478700  1.0  0.0902
  H  H23  1  0.604200  0.611500  0.449500  1.0  0.1149
  H  H24  1  0.459400  0.678600  0.384100  1.0  0.0646
  H  H25  1  0.733900  0.624200  0.154900  1.0  0.0785
  H  H26  1  0.773600  0.433100  0.164300  1.0  0.1126
  H  H27  1  0.633800  0.357000  0.191700  1.0  0.0689
  H  H28  1  0.473100  0.328900  0.955300  1.0  0.096
  H  H29  1  0.391800  0.519100  0.943700  1.0  0.1091
  H  H30  1  0.302900  0.607800  0.024300  1.0  0.0766
  H  H31  1  0.824800  0.566600  0.007100  1.0  0.084
  H  H32  1  0.902700  0.377800  0.025700  1.0  0.1204
  H  H33  1  0.029700  0.313200  0.102100  1.0  0.0793
  H  H34  1  0.739500  0.286100  0.334200  1.0  0.11
  H  H35  1  0.663400  0.476500  0.319400  1.0  0.1044
  H  H36  1  0.778200  0.584700  0.297100  1.0  0.0718
  H  H37  1  0.833000  0.054000  0.066800  1.0  0.4032
  H  H38  1  0.884000  0.967000  0.037000  1.0  0.3817
  H  H39  1  0.623000  0.947000  0.180100  1.0  0.3515
  H  H40  1  0.629000  0.039000  0.174200  1.0  0.4551
  H  H41  1  0.947700  0.313400  0.443500  1.0  0.0943
  H  H42  1  0.876200  0.503400  0.425700  1.0  0.1079
  H  H43  1  0.820200  0.607700  0.506200  1.0  0.0676
  H  H44  1  0.337500  0.576400  0.521300  1.0  0.0893
  H  H45  1  0.395800  0.388500  0.550500  1.0  0.1156
  H  H46  1  0.540600  0.321400  0.615900  1.0  0.0648
  H  H47  1  0.266100  0.375800  0.845100  1.0  0.0787
  H  H48  1  0.226400  0.566900  0.835700  1.0  0.1129
  H  H49  1  0.366200  0.643000  0.808300  1.0  0.067
  H  H50  1  0.526900  0.671100  0.044700  1.0  0.0955
  H  H51  1  0.608200  0.480900  0.056300  1.0  0.109
  H  H52  1  0.697100  0.392200  0.975700  1.0  0.079
  H  H53  1  0.175200  0.433400  0.992900  1.0  0.0839
  H  H54  1  0.097300  0.622200  0.974300  1.0  0.1194
  H  H55  1  0.970300  0.686800  0.897900  1.0  0.0786
  H  H56  1  0.260500  0.713900  0.665800  1.0  0.1103
  H  H57  1  0.336600  0.523500  0.680600  1.0  0.1044
  H  H58  1  0.221800  0.415300  0.702900  1.0  0.0751
  H  H59  1  0.167000  0.946000  0.933200  1.0  0.4037
  H  H60  1  0.116000  0.033000  0.963000  1.0  0.3848
  H  H61  1  0.377000  0.053000  0.819900  1.0  0.351
  H  H62  1  0.371000  0.961000  0.825800  1.0  0.4534
  C  C63  1  0.104300  0.623100  0.418300  1.0  0.106
  C  C64  1  0.065100  0.691400  0.465440  1.0  -0.0872
  C  C65  1  0.074900  0.642900  0.524260  1.0  0.0023
  C  C66  1  0.117900  0.530200  0.535070  1.0  -0.1856
  C  C67  1  0.151900  0.468600  0.486610  1.0  0.1494
  C  C68  1  0.008300  0.813200  0.454730  1.0  0.7121
  C  C69  1  0.468900  0.427800  0.385340  1.0  0.0591
  C  C70  1  0.552700  0.382500  0.428640  1.0  -0.1186
  C  C71  1  0.604400  0.452200  0.451610  1.0  -0.0064
  C  C72  1  0.570100  0.563800  0.434360  1.0  -0.1935
  C  C73  1  0.484700  0.602800  0.394450  1.0  0.1507
  C  C74  1  0.590000  0.262200  0.451930  1.0  0.7231
  C  C75  1  0.489200  0.605600  0.190690  1.0  0.0551
  C  C76  1  0.570800  0.657000  0.173220  1.0  -0.0812
  C  C77  1  0.678000  0.591500  0.164790  1.0  -0.0662
  C  C78  1  0.702300  0.478000  0.171000  1.0  -0.1724
  C  C79  1  0.618000  0.433500  0.187390  1.0  0.1472
  C  C80  1  0.549200  0.780900  0.165040  1.0  0.7018
  C  C81  1  0.367100  0.367700  0.089590  1.0  0.1863
  C  C82  1  0.427300  0.308700  0.042890  1.0  -0.0745
  C  C83  1  0.435500  0.366200  0.987490  1.0  -0.0333
  C  C84  1  0.387400  0.479300  0.980520  1.0  -0.1842
  C  C85  1  0.333100  0.531400  0.028830  1.0  0.1537
  C  C86  1  0.490600  0.187600  0.051010  1.0  0.7198
  C  C87  1  0.980600  0.566900  0.120110  1.0  0.0557
  C  C88  1  0.900300  0.611100  0.075050  1.0  -0.0636
  C  C89  1  0.874500  0.538900  0.038690  1.0  -0.0107
  C  C90  1  0.921700  0.426800  0.048950  1.0  -0.1277
  C  C91  1  0.997900  0.389000  0.094670  1.0  0.1352
  C  C92  1  0.834600  0.731400  0.065460  1.0  0.7121
  C  C93  1  0.964100  0.356500  0.304690  1.0  0.0802
  C  C94  1  0.897600  0.286400  0.318370  1.0  -0.0882
  C  C95  1  0.784600  0.331500  0.324470  1.0  -0.0119
  C  C96  1  0.739400  0.444400  0.316060  1.0  -0.1818
  C  C97  1  0.808900  0.508500  0.302670  1.0  0.1514
  C  C98  1  0.947200  0.163300  0.327100  1.0  0.6832
  C  C99  1  0.895700  0.376900  0.581700  1.0  0.11
  C  C100  1  0.934900  0.308600  0.534560  1.0  -0.0882
  C  C101  1  0.925100  0.357100  0.475740  1.0  0.0013
  C  C102  1  0.882100  0.469800  0.464930  1.0  -0.1847
  C  C103  1  0.848100  0.531400  0.513390  1.0  0.1492
  C  C104  1  0.991700  0.186800  0.545270  1.0  0.715
  C  C105  1  0.531100  0.572200  0.614660  1.0  0.059
  C  C106  1  0.447300  0.617500  0.571360  1.0  -0.1174
  C  C107  1  0.395600  0.547800  0.548390  1.0  -0.0044
  C  C108  1  0.429900  0.436200  0.565640  1.0  -0.1946
  C  C109  1  0.515300  0.397200  0.605550  1.0  0.1502
  C  C110  1  0.410000  0.737800  0.548070  1.0  0.726
  C  C111  1  0.510800  0.394400  0.809310  1.0  0.0567
  C  C112  1  0.429200  0.343000  0.826780  1.0  -0.0847
  C  C113  1  0.322000  0.408500  0.835210  1.0  -0.0664
  C  C114  1  0.297700  0.522000  0.829000  1.0  -0.1723
  C  C115  1  0.382000  0.566500  0.812610  1.0  0.1479
  C  C116  1  0.450800  0.219100  0.834960  1.0  0.699
  C  C117  1  0.632900  0.632300  0.910410  1.0  0.1851
  C  C118  1  0.572700  0.691300  0.957110  1.0  -0.0705
  C  C119  1  0.564500  0.633800  0.012510  1.0  -0.0323
  C  C120  1  0.612600  0.520700  0.019480  1.0  -0.186
  C  C121  1  0.666900  0.468600  0.971170  1.0  0.1542
  C  C122  1  0.509400  0.812400  0.948990  1.0  0.7192
  C  C123  1  0.019400  0.433100  0.879890  1.0  0.0532
  C  C124  1  0.099700  0.388900  0.924950  1.0  -0.0655
  C  C125  1  0.125500  0.461100  0.961310  1.0  -0.0113
  C  C126  1  0.078300  0.573200  0.951050  1.0  -0.1244
  C  C127  1  0.002100  0.611000  0.905330  1.0  0.1366
  C  C128  1  0.165400  0.268600  0.934540  1.0  0.7117
  C  C129  1  0.035900  0.643500  0.695310  1.0  0.0812
  C  C130  1  0.102400  0.713600  0.681630  1.0  -0.0855
  C  C131  1  0.215400  0.668500  0.675530  1.0  -0.0095
  C  C132  1  0.260600  0.555600  0.683940  1.0  -0.1818
  C  C133  1  0.191100  0.491500  0.697330  1.0  0.1527
  C  C134  1  0.052800  0.836700  0.672900  1.0  0.6857
  S  S135  1  0.104430  0.680030  0.342660  1.0  -0.2816
  S  S136  1  0.411340  0.342250  0.347040  1.0  -0.3207
  S  S137  1  0.352070  0.686360  0.202900  1.0  -0.3331
  S  S138  1  0.349210  0.296140  0.159200  1.0  -0.3275
  S  S139  1  0.030660  0.650750  0.164370  1.0  -0.2459
  S  S140  1  0.108720  0.299240  0.298700  1.0  -0.3193
  S  S141  1  0.895570  0.319970  0.657340  1.0  -0.2849
  S  S142  1  0.588660  0.657750  0.652960  1.0  -0.324
  S  S143  1  0.647930  0.313640  0.797100  1.0  -0.3322
  S  S144  1  0.650790  0.703860  0.840800  1.0  -0.3246
  S  S145  1  0.969340  0.349250  0.835630  1.0  -0.2487
  S  S146  1  0.891280  0.700760  0.701300  1.0  -0.3197
  N  N147  1  0.146700  0.513270  0.429240  1.0  -0.3348
  N  N148  1  0.435500  0.537200  0.369410  1.0  -0.3428
  N  N149  1  0.514100  0.494400  0.197520  1.0  -0.3557
  N  N150  1  0.321270  0.477800  0.082440  1.0  -0.3663
  N  N151  1  0.028500  0.456960  0.129010  1.0  -0.3591
  N  N152  1  0.919200  0.466800  0.297150  1.0  -0.3713
  N  N153  1  0.853300  0.486730  0.570760  1.0  -0.3335
  N  N154  1  0.564500  0.462800  0.630590  1.0  -0.3434
  N  N155  1  0.485900  0.505600  0.802480  1.0  -0.3563
  N  N156  1  0.678730  0.522200  0.917560  1.0  -0.366
  N  N157  1  0.971500  0.543040  0.870990  1.0  -0.3587
  N  N158  1  0.080800  0.533200  0.702850  1.0  -0.369
  O  O159  1  0.920640  0.843950  0.424490  1.0  -0.6324
  O  O160  1  0.046790  0.880010  0.477680  1.0  -0.7965
  O  O161  1  0.518180  0.213960  0.465910  1.0  -0.4923
  O  O162  1  0.691820  0.220350  0.458280  1.0  -0.7494
  O  O163  1  0.532500  0.827150  0.112550  1.0  -0.698
  O  O164  1  0.558500  0.827790  0.211120  1.0  -0.5267
  O  O165  1  0.582110  0.162970  0.076480  1.0  -0.6544
  O  O166  1  0.453960  0.117310  0.029750  1.0  -0.7962
  O  O167  1  0.810000  0.773030  0.012850  1.0  -0.6443
  O  O168  1  0.800500  0.782900  0.111800  1.0  -0.7608
  O  O169  1  0.957320  0.119420  0.380170  1.0  -0.696
  O  O170  1  0.971170  0.111960  0.280230  1.0  -0.5157
  O  O171  1  0.835700  0.994300  0.067160  1.0  -0.8776
  O  O172  1  0.657650  0.976300  0.165070  1.0  -0.9012
  O  O173  1  0.079360  0.156050  0.575510  1.0  -0.6334
  O  O174  1  0.953210  0.119990  0.522320  1.0  -0.7963
  O  O175  1  0.481820  0.786040  0.534090  1.0  -0.4938
  O  O176  1  0.308180  0.779650  0.541720  1.0  -0.7493
  O  O177  1  0.467500  0.172850  0.887450  1.0  -0.6973
  O  O178  1  0.441500  0.172210  0.788880  1.0  -0.5285
  O  O179  1  0.417890  0.837030  0.923520  1.0  -0.6535
  O  O180  1  0.546040  0.882690  0.970250  1.0  -0.7942
  O  O181  1  0.190000  0.226970  0.987150  1.0  -0.6473
  O  O182  1  0.199500  0.217100  0.888200  1.0  -0.7635
  O  O183  1  0.042680  0.880580  0.619830  1.0  -0.7003
  O  O184  1  0.028830  0.888040  0.719770  1.0  -0.5184
  O  O185  1  0.164300  0.005700  0.932840  1.0  -0.8802
  O  O186  1  0.342350  0.023700  0.834930  1.0  -0.9026
