# generated using pymatgen
data_ZnH15C21N2O5
_symmetry_space_group_name_H-M   'P 1'
_cell_length_a   26.98200000
_cell_length_b   8.03300000
_cell_length_c   23.29300000
_cell_angle_alpha   90.00000000
_cell_angle_beta   98.99200000
_cell_angle_gamma   90.00000000
_symmetry_Int_Tables_number   1
_chemical_formula_structural   ZnH15C21N2O5
_chemical_formula_sum   'Zn8 H120 C168 N16 O40'
_cell_volume   4986.62670620
_cell_formula_units_Z   8
loop_
 _symmetry_equiv_pos_site_id
 _symmetry_equiv_pos_as_xyz
  1  'x, y, z'
loop_
 _atom_site_type_symbol
 _atom_site_label
 _atom_site_symmetry_multiplicity
 _atom_site_fract_x
 _atom_site_fract_y
 _atom_site_fract_z
 _atom_site_occupancy
 _atom_site_charge
  Zn  Zn1  1  0.039810  0.124770  0.001640  1.0  0.9268
  Zn  Zn2  1  0.539810  0.624770  0.001640  1.0  0.9268
  Zn  Zn3  1  0.960190  0.124770  0.498360  1.0  0.9258
  Zn  Zn4  1  0.460190  0.624770  0.498360  1.0  0.9258
  Zn  Zn5  1  0.960190  0.875230  0.998360  1.0  0.926
  Zn  Zn6  1  0.460190  0.375230  0.998360  1.0  0.926
  Zn  Zn7  1  0.039810  0.875230  0.501640  1.0  0.9269
  Zn  Zn8  1  0.539810  0.375230  0.501640  1.0  0.9269
  H  H9  1  0.864600  0.143600  0.105900  1.0  0.1066
  H  H10  1  0.827200  0.324300  0.163700  1.0  0.1094
  H  H11  1  0.928000  0.671100  0.144400  1.0  0.1263
  H  H12  1  0.965600  0.493800  0.086900  1.0  0.0941
  H  H13  1  0.835100  0.866300  0.248500  1.0  0.1245
  H  H14  1  0.876800  0.976500  0.334200  1.0  0.1031
  H  H15  1  0.977400  0.611800  0.341400  1.0  0.0921
  H  H16  1  0.935000  0.501000  0.257700  1.0  0.117
  H  H17  1  0.139900  0.197300  0.969200  1.0  0.0806
  H  H18  1  0.199100  0.403800  0.977900  1.0  0.1135
  H  H19  1  0.115700  0.661700  0.072000  1.0  0.1072
  H  H20  1  0.060400  0.437900  0.064500  1.0  0.0732
  H  H21  1  0.199200  0.825100  0.102700  1.0  0.1282
  H  H22  1  0.154500  0.875500  0.054400  1.0  0.1241
  H  H23  1  0.208900  0.939400  0.051000  1.0  0.1255
  H  H24  1  0.364600  0.643600  0.105900  1.0  0.1066
  H  H25  1  0.327200  0.824300  0.163700  1.0  0.1094
  H  H26  1  0.428000  0.171100  0.144400  1.0  0.1263
  H  H27  1  0.465600  0.993800  0.086900  1.0  0.0941
  H  H28  1  0.335100  0.366300  0.248500  1.0  0.1245
  H  H29  1  0.376800  0.476500  0.334200  1.0  0.1031
  H  H30  1  0.477400  0.111800  0.341400  1.0  0.0921
  H  H31  1  0.435000  0.001000  0.257700  1.0  0.117
  H  H32  1  0.639900  0.697300  0.969200  1.0  0.0806
  H  H33  1  0.699100  0.903800  0.977900  1.0  0.1135
  H  H34  1  0.615700  0.161700  0.072000  1.0  0.1072
  H  H35  1  0.560400  0.937900  0.064500  1.0  0.0732
  H  H36  1  0.699200  0.325100  0.102700  1.0  0.1282
  H  H37  1  0.654500  0.375500  0.054400  1.0  0.1241
  H  H38  1  0.708900  0.439400  0.051000  1.0  0.1255
  H  H39  1  0.135400  0.143600  0.394100  1.0  0.1066
  H  H40  1  0.172800  0.324300  0.336300  1.0  0.1101
  H  H41  1  0.072000  0.671100  0.355600  1.0  0.1265
  H  H42  1  0.034400  0.493800  0.413100  1.0  0.094
  H  H43  1  0.164900  0.866300  0.251500  1.0  0.1248
  H  H44  1  0.123200  0.976500  0.165800  1.0  0.1033
  H  H45  1  0.022600  0.611800  0.158600  1.0  0.0927
  H  H46  1  0.065000  0.501000  0.242300  1.0  0.1169
  H  H47  1  0.860100  0.197300  0.530800  1.0  0.0814
  H  H48  1  0.800900  0.403800  0.522100  1.0  0.113
  H  H49  1  0.884300  0.661700  0.428000  1.0  0.1076
  H  H50  1  0.939600  0.437900  0.435500  1.0  0.073
  H  H51  1  0.800800  0.825100  0.397300  1.0  0.129
  H  H52  1  0.845500  0.875500  0.445600  1.0  0.1215
  H  H53  1  0.791100  0.939400  0.449000  1.0  0.1257
  H  H54  1  0.635400  0.643600  0.394100  1.0  0.1066
  H  H55  1  0.672800  0.824300  0.336300  1.0  0.1101
  H  H56  1  0.572000  0.171100  0.355600  1.0  0.1265
  H  H57  1  0.534400  0.993800  0.413100  1.0  0.094
  H  H58  1  0.664900  0.366300  0.251500  1.0  0.1248
  H  H59  1  0.623200  0.476500  0.165800  1.0  0.1033
  H  H60  1  0.522600  0.111800  0.158600  1.0  0.0927
  H  H61  1  0.565000  0.001000  0.242300  1.0  0.1169
  H  H62  1  0.360100  0.697300  0.530800  1.0  0.0814
  H  H63  1  0.300900  0.903800  0.522100  1.0  0.113
  H  H64  1  0.384300  0.161700  0.428000  1.0  0.1076
  H  H65  1  0.439600  0.937900  0.435500  1.0  0.073
  H  H66  1  0.300800  0.325100  0.397300  1.0  0.129
  H  H67  1  0.345500  0.375500  0.445600  1.0  0.1215
  H  H68  1  0.291100  0.439400  0.449000  1.0  0.1257
  H  H69  1  0.135400  0.856400  0.894100  1.0  0.1065
  H  H70  1  0.172800  0.675700  0.836300  1.0  0.1106
  H  H71  1  0.072000  0.328900  0.855600  1.0  0.1272
  H  H72  1  0.034400  0.506200  0.913100  1.0  0.094
  H  H73  1  0.164900  0.133700  0.751500  1.0  0.1247
  H  H74  1  0.123200  0.023500  0.665800  1.0  0.1036
  H  H75  1  0.022600  0.388200  0.658600  1.0  0.093
  H  H76  1  0.065000  0.499000  0.742300  1.0  0.1172
  H  H77  1  0.860100  0.802700  0.030800  1.0  0.0811
  H  H78  1  0.800900  0.596200  0.022100  1.0  0.1128
  H  H79  1  0.884300  0.338300  0.928000  1.0  0.1079
  H  H80  1  0.939600  0.562100  0.935500  1.0  0.0729
  H  H81  1  0.800800  0.174900  0.897300  1.0  0.1289
  H  H82  1  0.845500  0.124500  0.945600  1.0  0.1219
  H  H83  1  0.791100  0.060600  0.949000  1.0  0.1257
  H  H84  1  0.635400  0.356400  0.894100  1.0  0.1065
  H  H85  1  0.672800  0.175700  0.836300  1.0  0.1106
  H  H86  1  0.572000  0.828900  0.855600  1.0  0.1272
  H  H87  1  0.534400  0.006200  0.913100  1.0  0.094
  H  H88  1  0.664900  0.633700  0.751500  1.0  0.1247
  H  H89  1  0.623200  0.523500  0.665800  1.0  0.1036
  H  H90  1  0.522600  0.888200  0.658600  1.0  0.093
  H  H91  1  0.565000  0.999000  0.742300  1.0  0.1172
  H  H92  1  0.360100  0.302700  0.030800  1.0  0.0811
  H  H93  1  0.300900  0.096200  0.022100  1.0  0.1128
  H  H94  1  0.384300  0.838300  0.928000  1.0  0.1079
  H  H95  1  0.439600  0.062100  0.935500  1.0  0.0729
  H  H96  1  0.300800  0.674900  0.897300  1.0  0.1289
  H  H97  1  0.345500  0.624500  0.945600  1.0  0.1219
  H  H98  1  0.291100  0.560600  0.949000  1.0  0.1257
  H  H99  1  0.864600  0.856400  0.605900  1.0  0.1066
  H  H100  1  0.827200  0.675700  0.663700  1.0  0.1094
  H  H101  1  0.928000  0.328900  0.644400  1.0  0.127
  H  H102  1  0.965600  0.506200  0.586900  1.0  0.0941
  H  H103  1  0.835100  0.133700  0.748500  1.0  0.1245
  H  H104  1  0.876800  0.023500  0.834200  1.0  0.1032
  H  H105  1  0.977400  0.388200  0.841400  1.0  0.0925
  H  H106  1  0.935000  0.499000  0.757700  1.0  0.1171
  H  H107  1  0.139900  0.802700  0.469200  1.0  0.0811
  H  H108  1  0.199100  0.596200  0.477900  1.0  0.114
  H  H109  1  0.115700  0.338300  0.572000  1.0  0.1078
  H  H110  1  0.060400  0.562100  0.564500  1.0  0.0734
  H  H111  1  0.199200  0.174900  0.602700  1.0  0.1285
  H  H112  1  0.154500  0.124500  0.554400  1.0  0.1236
  H  H113  1  0.208900  0.060600  0.551000  1.0  0.1265
  H  H114  1  0.364600  0.356400  0.605900  1.0  0.1066
  H  H115  1  0.327200  0.175700  0.663700  1.0  0.1094
  H  H116  1  0.428000  0.828900  0.644400  1.0  0.127
  H  H117  1  0.465600  0.006200  0.586900  1.0  0.0941
  H  H118  1  0.335100  0.633700  0.748500  1.0  0.1245
  H  H119  1  0.376800  0.523500  0.834200  1.0  0.1032
  H  H120  1  0.477400  0.888200  0.841400  1.0  0.0925
  H  H121  1  0.435000  0.999000  0.757700  1.0  0.1171
  H  H122  1  0.639900  0.302700  0.469200  1.0  0.0811
  H  H123  1  0.699100  0.096200  0.477900  1.0  0.114
  H  H124  1  0.615700  0.838300  0.572000  1.0  0.1078
  H  H125  1  0.560400  0.062100  0.564500  1.0  0.0734
  H  H126  1  0.699200  0.674900  0.602700  1.0  0.1285
  H  H127  1  0.654500  0.624500  0.554400  1.0  0.1236
  H  H128  1  0.708900  0.560600  0.551000  1.0  0.1265
  C  C129  1  0.945780  0.184100  0.055600  1.0  0.6756
  C  C130  1  0.920080  0.298700  0.091200  1.0  -0.1363
  C  C131  1  0.878000  0.249100  0.114100  1.0  -0.0292
  C  C132  1  0.856000  0.356800  0.149200  1.0  -0.1871
  C  C133  1  0.875400  0.504200  0.162000  1.0  0.2782
  C  C134  1  0.916100  0.563100  0.137400  1.0  -0.2268
  C  C135  1  0.937980  0.457600  0.102900  1.0  -0.0657
  C  C136  1  0.880900  0.674900  0.245800  1.0  0.3072
  C  C137  1  0.863800  0.814600  0.267700  1.0  -0.189
  C  C138  1  0.889100  0.881100  0.318700  1.0  -0.0295
  C  C139  1  0.932180  0.808600  0.346900  1.0  -0.0742
  C  C140  1  0.948600  0.664300  0.322900  1.0  -0.0644
  C  C141  1  0.923400  0.597800  0.273100  1.0  -0.1886
  C  C142  1  0.958580  0.875100  0.402000  1.0  0.689
  C  C143  1  0.134860  0.292100  0.990400  1.0  0.162
  C  C144  1  0.170470  0.416600  0.995200  1.0  -0.1245
  C  C145  1  0.163890  0.557000  0.024900  1.0  -0.0099
  C  C146  1  0.121800  0.567500  0.051000  1.0  -0.2349
  C  C147  1  0.088200  0.432600  0.045400  1.0  0.1671
  C  C148  1  0.198810  0.699000  0.028000  1.0  0.2795
  C  C149  1  0.189600  0.847800  0.062000  1.0  -0.3813
  C  C150  1  0.445780  0.684100  0.055600  1.0  0.6756
  C  C151  1  0.420080  0.798700  0.091200  1.0  -0.1363
  C  C152  1  0.378000  0.749100  0.114100  1.0  -0.0292
  C  C153  1  0.356000  0.856800  0.149200  1.0  -0.1871
  C  C154  1  0.375400  0.004200  0.162000  1.0  0.2782
  C  C155  1  0.416100  0.063100  0.137400  1.0  -0.2268
  C  C156  1  0.437980  0.957600  0.102900  1.0  -0.0657
  C  C157  1  0.380900  0.174900  0.245800  1.0  0.3072
  C  C158  1  0.363800  0.314600  0.267700  1.0  -0.189
  C  C159  1  0.389100  0.381100  0.318700  1.0  -0.0295
  C  C160  1  0.432180  0.308600  0.346900  1.0  -0.0742
  C  C161  1  0.448600  0.164300  0.322900  1.0  -0.0644
  C  C162  1  0.423400  0.097800  0.273100  1.0  -0.1886
  C  C163  1  0.458580  0.375100  0.402000  1.0  0.689
  C  C164  1  0.634860  0.792100  0.990400  1.0  0.162
  C  C165  1  0.670470  0.916600  0.995200  1.0  -0.1245
  C  C166  1  0.663890  0.057000  0.024900  1.0  -0.0099
  C  C167  1  0.621800  0.067500  0.051000  1.0  -0.2349
  C  C168  1  0.588200  0.932600  0.045400  1.0  0.1671
  C  C169  1  0.698810  0.199000  0.028000  1.0  0.2795
  C  C170  1  0.689600  0.347800  0.062000  1.0  -0.3813
  C  C171  1  0.054220  0.184100  0.444400  1.0  0.6757
  C  C172  1  0.079920  0.298700  0.408800  1.0  -0.1363
  C  C173  1  0.122000  0.249100  0.385900  1.0  -0.0324
  C  C174  1  0.144000  0.356800  0.350800  1.0  -0.1858
  C  C175  1  0.124600  0.504200  0.338000  1.0  0.279
  C  C176  1  0.083900  0.563100  0.362600  1.0  -0.2278
  C  C177  1  0.062020  0.457600  0.397100  1.0  -0.0648
  C  C178  1  0.119100  0.674900  0.254200  1.0  0.3075
  C  C179  1  0.136200  0.814600  0.232300  1.0  -0.1888
  C  C180  1  0.110900  0.881100  0.181300  1.0  -0.0308
  C  C181  1  0.067820  0.808600  0.153100  1.0  -0.0756
  C  C182  1  0.051400  0.664300  0.177100  1.0  -0.066
  C  C183  1  0.076600  0.597800  0.226900  1.0  -0.1889
  C  C184  1  0.041420  0.875100  0.098000  1.0  0.6893
  C  C185  1  0.865140  0.292100  0.509600  1.0  0.1623
  C  C186  1  0.829530  0.416600  0.504800  1.0  -0.1247
  C  C187  1  0.836110  0.557000  0.475100  1.0  -0.012
  C  C188  1  0.878200  0.567500  0.449000  1.0  -0.239
  C  C189  1  0.911800  0.432600  0.454600  1.0  0.1661
  C  C190  1  0.801190  0.699000  0.472000  1.0  0.2828
  C  C191  1  0.810400  0.847800  0.438000  1.0  -0.379
  C  C192  1  0.554220  0.684100  0.444400  1.0  0.6757
  C  C193  1  0.579920  0.798700  0.408800  1.0  -0.1363
  C  C194  1  0.622000  0.749100  0.385900  1.0  -0.0324
  C  C195  1  0.644000  0.856800  0.350800  1.0  -0.1858
  C  C196  1  0.624600  0.004200  0.338000  1.0  0.279
  C  C197  1  0.583900  0.063100  0.362600  1.0  -0.2278
  C  C198  1  0.562020  0.957600  0.397100  1.0  -0.0648
  C  C199  1  0.619100  0.174900  0.254200  1.0  0.3075
  C  C200  1  0.636200  0.314600  0.232300  1.0  -0.1888
  C  C201  1  0.610900  0.381100  0.181300  1.0  -0.0308
  C  C202  1  0.567820  0.308600  0.153100  1.0  -0.0756
  C  C203  1  0.551400  0.164300  0.177100  1.0  -0.066
  C  C204  1  0.576600  0.097800  0.226900  1.0  -0.1889
  C  C205  1  0.541420  0.375100  0.098000  1.0  0.6893
  C  C206  1  0.365140  0.792100  0.509600  1.0  0.1623
  C  C207  1  0.329530  0.916600  0.504800  1.0  -0.1247
  C  C208  1  0.336110  0.057000  0.475100  1.0  -0.012
  C  C209  1  0.378200  0.067500  0.449000  1.0  -0.239
  C  C210  1  0.411800  0.932600  0.454600  1.0  0.1661
  C  C211  1  0.301190  0.199000  0.472000  1.0  0.2828
  C  C212  1  0.310400  0.347800  0.438000  1.0  -0.379
  C  C213  1  0.054220  0.815900  0.944400  1.0  0.675
  C  C214  1  0.079920  0.701300  0.908800  1.0  -0.1352
  C  C215  1  0.122000  0.750900  0.885900  1.0  -0.0287
  C  C216  1  0.144000  0.643200  0.850800  1.0  -0.1862
  C  C217  1  0.124600  0.495800  0.838000  1.0  0.2786
  C  C218  1  0.083900  0.436900  0.862600  1.0  -0.2264
  C  C219  1  0.062020  0.542400  0.897100  1.0  -0.0649
  C  C220  1  0.119100  0.325100  0.754200  1.0  0.3074
  C  C221  1  0.136200  0.185400  0.732300  1.0  -0.1877
  C  C222  1  0.110900  0.118900  0.681300  1.0  -0.0323
  C  C223  1  0.067820  0.191400  0.653100  1.0  -0.0768
  C  C224  1  0.051400  0.335700  0.677100  1.0  -0.0659
  C  C225  1  0.076600  0.402200  0.726900  1.0  -0.1891
  C  C226  1  0.041420  0.124900  0.598000  1.0  0.6878
  C  C227  1  0.865140  0.707900  0.009600  1.0  0.1627
  C  C228  1  0.829530  0.583400  0.004800  1.0  -0.1248
  C  C229  1  0.836110  0.443000  0.975100  1.0  -0.0113
  C  C230  1  0.878200  0.432500  0.949000  1.0  -0.2384
  C  C231  1  0.911800  0.567400  0.954600  1.0  0.1669
  C  C232  1  0.801190  0.301000  0.972000  1.0  0.2825
  C  C233  1  0.810400  0.152200  0.938000  1.0  -0.3802
  C  C234  1  0.554220  0.315900  0.944400  1.0  0.675
  C  C235  1  0.579920  0.201300  0.908800  1.0  -0.1352
  C  C236  1  0.622000  0.250900  0.885900  1.0  -0.0287
  C  C237  1  0.644000  0.143200  0.850800  1.0  -0.1862
  C  C238  1  0.624600  0.995800  0.838000  1.0  0.2786
  C  C239  1  0.583900  0.936900  0.862600  1.0  -0.2264
  C  C240  1  0.562020  0.042400  0.897100  1.0  -0.0649
  C  C241  1  0.619100  0.825100  0.754200  1.0  0.3074
  C  C242  1  0.636200  0.685400  0.732300  1.0  -0.1877
  C  C243  1  0.610900  0.618900  0.681300  1.0  -0.0323
  C  C244  1  0.567820  0.691400  0.653100  1.0  -0.0768
  C  C245  1  0.551400  0.835700  0.677100  1.0  -0.0659
  C  C246  1  0.576600  0.902200  0.726900  1.0  -0.1891
  C  C247  1  0.541420  0.624900  0.598000  1.0  0.6878
  C  C248  1  0.365140  0.207900  0.009600  1.0  0.1627
  C  C249  1  0.329530  0.083400  0.004800  1.0  -0.1248
  C  C250  1  0.336110  0.943000  0.975100  1.0  -0.0113
  C  C251  1  0.378200  0.932500  0.949000  1.0  -0.2384
  C  C252  1  0.411800  0.067400  0.954600  1.0  0.1669
  C  C253  1  0.301190  0.801000  0.972000  1.0  0.2825
  C  C254  1  0.310400  0.652200  0.938000  1.0  -0.3802
  C  C255  1  0.945780  0.815900  0.555600  1.0  0.6753
  C  C256  1  0.920080  0.701300  0.591200  1.0  -0.1352
  C  C257  1  0.878000  0.750900  0.614100  1.0  -0.0297
  C  C258  1  0.856000  0.643200  0.649200  1.0  -0.1885
  C  C259  1  0.875400  0.495800  0.662000  1.0  0.279
  C  C260  1  0.916100  0.436900  0.637400  1.0  -0.2255
  C  C261  1  0.937980  0.542400  0.602900  1.0  -0.0657
  C  C262  1  0.880900  0.325100  0.745800  1.0  0.3069
  C  C263  1  0.863800  0.185400  0.767700  1.0  -0.1885
  C  C264  1  0.889100  0.118900  0.818700  1.0  -0.033
  C  C265  1  0.932180  0.191400  0.846900  1.0  -0.0742
  C  C266  1  0.948600  0.335700  0.822900  1.0  -0.0643
  C  C267  1  0.923400  0.402200  0.773100  1.0  -0.1881
  C  C268  1  0.958580  0.124900  0.902000  1.0  0.6883
  C  C269  1  0.134860  0.707900  0.490400  1.0  0.1622
  C  C270  1  0.170470  0.583400  0.495200  1.0  -0.1247
  C  C271  1  0.163890  0.443000  0.524900  1.0  -0.0102
  C  C272  1  0.121800  0.432500  0.551000  1.0  -0.2355
  C  C273  1  0.088200  0.567400  0.545400  1.0  0.1668
  C  C274  1  0.198810  0.301000  0.528000  1.0  0.2792
  C  C275  1  0.189600  0.152200  0.562000  1.0  -0.3815
  C  C276  1  0.445780  0.315900  0.555600  1.0  0.6753
  C  C277  1  0.420080  0.201300  0.591200  1.0  -0.1352
  C  C278  1  0.378000  0.250900  0.614100  1.0  -0.0297
  C  C279  1  0.356000  0.143200  0.649200  1.0  -0.1885
  C  C280  1  0.375400  0.995800  0.662000  1.0  0.279
  C  C281  1  0.416100  0.936900  0.637400  1.0  -0.2255
  C  C282  1  0.437980  0.042400  0.602900  1.0  -0.0657
  C  C283  1  0.380900  0.825100  0.745800  1.0  0.3069
  C  C284  1  0.363800  0.685400  0.767700  1.0  -0.1885
  C  C285  1  0.389100  0.618900  0.818700  1.0  -0.033
  C  C286  1  0.432180  0.691400  0.846900  1.0  -0.0742
  C  C287  1  0.448600  0.835700  0.822900  1.0  -0.0643
  C  C288  1  0.423400  0.902200  0.773100  1.0  -0.1881
  C  C289  1  0.458580  0.624900  0.902000  1.0  0.6883
  C  C290  1  0.634860  0.207900  0.490400  1.0  0.1622
  C  C291  1  0.670470  0.083400  0.495200  1.0  -0.1247
  C  C292  1  0.663890  0.943000  0.524900  1.0  -0.0102
  C  C293  1  0.621800  0.932500  0.551000  1.0  -0.2355
  C  C294  1  0.588200  0.067400  0.545400  1.0  0.1668
  C  C295  1  0.698810  0.801000  0.528000  1.0  0.2792
  C  C296  1  0.689600  0.652200  0.562000  1.0  -0.3815
  N  N297  1  0.093850  0.301900  0.014820  1.0  -0.3118
  N  N298  1  0.234220  0.679800  0.999100  1.0  -0.222
  N  N299  1  0.593850  0.801900  0.014820  1.0  -0.3118
  N  N300  1  0.734220  0.179800  0.999100  1.0  -0.222
  N  N301  1  0.906150  0.301900  0.485180  1.0  -0.3131
  N  N302  1  0.765780  0.679800  0.500900  1.0  -0.2241
  N  N303  1  0.406150  0.801900  0.485180  1.0  -0.3131
  N  N304  1  0.265780  0.179800  0.500900  1.0  -0.2241
  N  N305  1  0.906150  0.698100  0.985180  1.0  -0.3135
  N  N306  1  0.765780  0.320200  0.000900  1.0  -0.225
  N  N307  1  0.406150  0.198100  0.985180  1.0  -0.3135
  N  N308  1  0.265780  0.820200  0.000900  1.0  -0.225
  N  N309  1  0.093850  0.698100  0.514820  1.0  -0.3119
  N  N310  1  0.234220  0.320200  0.499100  1.0  -0.2231
  N  N311  1  0.593850  0.198100  0.514820  1.0  -0.3119
  N  N312  1  0.734220  0.820200  0.499100  1.0  -0.2231
  O  O313  1  0.986050  0.233400  0.041530  1.0  -0.5982
  O  O314  1  0.925590  0.046900  0.042150  1.0  -0.5798
  O  O315  1  0.852550  0.609900  0.196600  1.0  -0.2763
  O  O316  1  0.938860  0.995000  0.423390  1.0  -0.5915
  O  O317  1  0.998640  0.808300  0.424180  1.0  -0.5825
  O  O318  1  0.486050  0.733400  0.041530  1.0  -0.5982
  O  O319  1  0.425590  0.546900  0.042150  1.0  -0.5798
  O  O320  1  0.352550  0.109900  0.196600  1.0  -0.2763
  O  O321  1  0.438860  0.495000  0.423390  1.0  -0.5915
  O  O322  1  0.498640  0.308300  0.424180  1.0  -0.5825
  O  O323  1  0.013950  0.233400  0.458470  1.0  -0.5995
  O  O324  1  0.074410  0.046900  0.457850  1.0  -0.5805
  O  O325  1  0.147450  0.609900  0.303400  1.0  -0.2813
  O  O326  1  0.061140  0.995000  0.076610  1.0  -0.59
  O  O327  1  0.001360  0.808300  0.075820  1.0  -0.5819
  O  O328  1  0.513950  0.733400  0.458470  1.0  -0.5995
  O  O329  1  0.574410  0.546900  0.457850  1.0  -0.5805
  O  O330  1  0.647450  0.109900  0.303400  1.0  -0.2813
  O  O331  1  0.561140  0.495000  0.076610  1.0  -0.59
  O  O332  1  0.501360  0.308300  0.075820  1.0  -0.5819
  O  O333  1  0.013950  0.766600  0.958470  1.0  -0.5993
  O  O334  1  0.074410  0.953100  0.957850  1.0  -0.5801
  O  O335  1  0.147450  0.390100  0.803400  1.0  -0.2819
  O  O336  1  0.061140  0.005000  0.576610  1.0  -0.5904
  O  O337  1  0.001360  0.191700  0.575820  1.0  -0.5818
  O  O338  1  0.513950  0.266600  0.958470  1.0  -0.5993
  O  O339  1  0.574410  0.453100  0.957850  1.0  -0.5801
  O  O340  1  0.647450  0.890100  0.803400  1.0  -0.2819
  O  O341  1  0.561140  0.505000  0.576610  1.0  -0.5904
  O  O342  1  0.501360  0.691700  0.575820  1.0  -0.5818
  O  O343  1  0.986050  0.766600  0.541530  1.0  -0.5983
  O  O344  1  0.925590  0.953100  0.542150  1.0  -0.5795
  O  O345  1  0.852550  0.390100  0.696600  1.0  -0.2769
  O  O346  1  0.938860  0.005000  0.923390  1.0  -0.592
  O  O347  1  0.998640  0.191700  0.924180  1.0  -0.5822
  O  O348  1  0.486050  0.266600  0.541530  1.0  -0.5983
  O  O349  1  0.425590  0.453100  0.542150  1.0  -0.5795
  O  O350  1  0.352550  0.890100  0.696600  1.0  -0.2769
  O  O351  1  0.438860  0.505000  0.923390  1.0  -0.592
  O  O352  1  0.498640  0.691700  0.924180  1.0  -0.5822
