# generated using pymatgen
data_Cu6H26C53NO30
_symmetry_space_group_name_H-M   'P 1'
_cell_length_a   32.27000000
_cell_length_b   18.63100000
_cell_length_c   23.51200000
_cell_angle_alpha   90.00000000
_cell_angle_beta   117.22500000
_cell_angle_gamma   90.00000000
_symmetry_Int_Tables_number   1
_chemical_formula_structural   Cu6H26C53NO30
_chemical_formula_sum   'Cu24 H104 C212 N4 O120'
_cell_volume   12569.91624918
_cell_formula_units_Z   4
loop_
 _symmetry_equiv_pos_site_id
 _symmetry_equiv_pos_as_xyz
  1  'x, y, z'
loop_
 _atom_site_type_symbol
 _atom_site_label
 _atom_site_symmetry_multiplicity
 _atom_site_fract_x
 _atom_site_fract_y
 _atom_site_fract_z
 _atom_site_occupancy
 _atom_site_charge
  Cu  Cu1  1  0.251210  0.447780  0.297870  1.0  0.9573
  Cu  Cu2  1  0.239870  0.518030  0.193950  1.0  0.9698
  Cu  Cu3  1  0.040770  0.231120  0.302170  1.0  0.8592
  Cu  Cu4  1  0.751210  0.947780  0.297870  1.0  0.9573
  Cu  Cu5  1  0.739870  0.018030  0.193950  1.0  0.9698
  Cu  Cu6  1  0.540770  0.731120  0.302170  1.0  0.8591
  Cu  Cu7  1  0.748790  0.447780  0.202130  1.0  0.9601
  Cu  Cu8  1  0.760130  0.518030  0.306050  1.0  0.9689
  Cu  Cu9  1  0.959230  0.231120  0.197830  1.0  0.8594
  Cu  Cu10  1  0.248790  0.947780  0.202130  1.0  0.9601
  Cu  Cu11  1  0.260130  0.018030  0.306050  1.0  0.9689
  Cu  Cu12  1  0.459230  0.731120  0.197830  1.0  0.8594
  Cu  Cu13  1  0.748790  0.552220  0.702130  1.0  0.9587
  Cu  Cu14  1  0.760130  0.481970  0.806050  1.0  0.9679
  Cu  Cu15  1  0.959230  0.768880  0.697830  1.0  0.8594
  Cu  Cu16  1  0.248790  0.052220  0.702130  1.0  0.9587
  Cu  Cu17  1  0.260130  0.981970  0.806050  1.0  0.9679
  Cu  Cu18  1  0.459230  0.268880  0.697830  1.0  0.8594
  Cu  Cu19  1  0.251210  0.552220  0.797870  1.0  0.9568
  Cu  Cu20  1  0.239870  0.481970  0.693950  1.0  0.9688
  Cu  Cu21  1  0.040770  0.768880  0.802170  1.0  0.8592
  Cu  Cu22  1  0.751210  0.052220  0.797870  1.0  0.9568
  Cu  Cu23  1  0.739870  0.981970  0.693950  1.0  0.9688
  Cu  Cu24  1  0.540770  0.268880  0.802170  1.0  0.8592
  H  H25  1  0.249800  0.339200  0.087000  1.0  0.1495
  H  H26  1  0.258000  0.123900  0.092800  1.0  0.1658
  H  H27  1  0.263700  0.233100  0.243600  1.0  0.1621
  H  H28  1  0.378300  0.585000  0.253800  1.0  0.1639
  H  H29  1  0.504100  0.578700  0.407600  1.0  0.1468
  H  H30  1  0.396800  0.469800  0.408100  1.0  0.1657
  H  H31  1  0.452400  0.684100  0.310400  1.0  0.1684
  H  H32  1  0.109100  0.377700  0.238300  1.0  0.1617
  H  H33  1  0.981500  0.395700  0.089200  1.0  0.1618
  H  H34  1  0.088900  0.505900  0.090400  1.0  0.1497
  H  H35  1  0.469800  0.458300  0.496000  1.0  0.2379
  H  H36  1  0.257100  0.184700  0.005600  1.0  0.1478
  H  H37  1  0.969400  0.459800  0.001900  1.0  0.1521
  H  H38  1  0.749800  0.839200  0.087000  1.0  0.1495
  H  H39  1  0.758000  0.623900  0.092800  1.0  0.1658
  H  H40  1  0.763700  0.733100  0.243600  1.0  0.1621
  H  H41  1  0.878300  0.085000  0.253800  1.0  0.1639
  H  H42  1  0.004100  0.078700  0.407600  1.0  0.1468
  H  H43  1  0.896800  0.969800  0.408100  1.0  0.1657
  H  H44  1  0.952400  0.184100  0.310400  1.0  0.1684
  H  H45  1  0.609100  0.877700  0.238300  1.0  0.1617
  H  H46  1  0.481500  0.895700  0.089200  1.0  0.1618
  H  H47  1  0.588900  0.005900  0.090400  1.0  0.1497
  H  H48  1  0.969800  0.958300  0.496000  1.0  0.2379
  H  H49  1  0.757100  0.684700  0.005600  1.0  0.1478
  H  H50  1  0.469400  0.959800  0.001900  1.0  0.1521
  H  H51  1  0.750200  0.339200  0.413000  1.0  0.1492
  H  H52  1  0.742000  0.123900  0.407200  1.0  0.1664
  H  H53  1  0.736300  0.233100  0.256400  1.0  0.1607
  H  H54  1  0.621700  0.585000  0.246200  1.0  0.1632
  H  H55  1  0.495900  0.578700  0.092400  1.0  0.1467
  H  H56  1  0.603200  0.469800  0.091900  1.0  0.1651
  H  H57  1  0.547600  0.684100  0.189600  1.0  0.171
  H  H58  1  0.890900  0.377700  0.261700  1.0  0.1612
  H  H59  1  0.018500  0.395700  0.410800  1.0  0.1622
  H  H60  1  0.911100  0.505900  0.409600  1.0  0.1488
  H  H61  1  0.530200  0.458300  0.004000  1.0  0.2387
  H  H62  1  0.742900  0.184700  0.494400  1.0  0.1461
  H  H63  1  0.030600  0.459800  0.498100  1.0  0.1546
  H  H64  1  0.250200  0.839200  0.413000  1.0  0.1492
  H  H65  1  0.242000  0.623900  0.407200  1.0  0.1664
  H  H66  1  0.236300  0.733100  0.256400  1.0  0.1607
  H  H67  1  0.121700  0.085000  0.246200  1.0  0.1632
  H  H68  1  0.995900  0.078700  0.092400  1.0  0.1467
  H  H69  1  0.103200  0.969800  0.091900  1.0  0.1651
  H  H70  1  0.047600  0.184100  0.189600  1.0  0.171
  H  H71  1  0.390900  0.877700  0.261700  1.0  0.1612
  H  H72  1  0.518500  0.895700  0.410800  1.0  0.1622
  H  H73  1  0.411100  0.005900  0.409600  1.0  0.1488
  H  H74  1  0.030200  0.958300  0.004000  1.0  0.2387
  H  H75  1  0.242900  0.684700  0.494400  1.0  0.1461
  H  H76  1  0.530600  0.959800  0.498100  1.0  0.1546
  H  H77  1  0.750200  0.660800  0.913000  1.0  0.1493
  H  H78  1  0.742000  0.876100  0.907200  1.0  0.1669
  H  H79  1  0.736300  0.766900  0.756400  1.0  0.1607
  H  H80  1  0.621700  0.415000  0.746200  1.0  0.1635
  H  H81  1  0.495900  0.421300  0.592400  1.0  0.1471
  H  H82  1  0.603200  0.530200  0.591900  1.0  0.1649
  H  H83  1  0.547600  0.315900  0.689600  1.0  0.1736
  H  H84  1  0.890900  0.622300  0.761700  1.0  0.1614
  H  H85  1  0.018500  0.604300  0.910800  1.0  0.1626
  H  H86  1  0.911100  0.494100  0.909600  1.0  0.1484
  H  H87  1  0.530200  0.541700  0.504000  1.0  0.2403
  H  H88  1  0.742900  0.815300  0.994400  1.0  0.1452
  H  H89  1  0.030600  0.540200  0.998100  1.0  0.1524
  H  H90  1  0.250200  0.160800  0.913000  1.0  0.1493
  H  H91  1  0.242000  0.376100  0.907200  1.0  0.1669
  H  H92  1  0.236300  0.266900  0.756400  1.0  0.1607
  H  H93  1  0.121700  0.915000  0.746200  1.0  0.1635
  H  H94  1  0.995900  0.921300  0.592400  1.0  0.1471
  H  H95  1  0.103200  0.030200  0.591900  1.0  0.1649
  H  H96  1  0.047600  0.815900  0.689600  1.0  0.1736
  H  H97  1  0.390900  0.122300  0.761700  1.0  0.1614
  H  H98  1  0.518500  0.104300  0.910800  1.0  0.1626
  H  H99  1  0.411100  0.994100  0.909600  1.0  0.1484
  H  H100  1  0.030200  0.041700  0.504000  1.0  0.2403
  H  H101  1  0.242900  0.315300  0.994400  1.0  0.1452
  H  H102  1  0.530600  0.040200  0.998100  1.0  0.1524
  H  H103  1  0.249800  0.660800  0.587000  1.0  0.1494
  H  H104  1  0.258000  0.876100  0.592800  1.0  0.1669
  H  H105  1  0.263700  0.766900  0.743600  1.0  0.1621
  H  H106  1  0.378300  0.415000  0.753800  1.0  0.164
  H  H107  1  0.504100  0.421300  0.907600  1.0  0.1468
  H  H108  1  0.396800  0.530200  0.908100  1.0  0.1654
  H  H109  1  0.452400  0.315900  0.810400  1.0  0.1707
  H  H110  1  0.109100  0.622300  0.738300  1.0  0.1614
  H  H111  1  0.981500  0.604300  0.589200  1.0  0.1618
  H  H112  1  0.088900  0.494100  0.590400  1.0  0.1489
  H  H113  1  0.469800  0.541700  0.996000  1.0  0.2397
  H  H114  1  0.257100  0.815300  0.505600  1.0  0.1469
  H  H115  1  0.969400  0.540200  0.501900  1.0  0.1516
  H  H116  1  0.749800  0.160800  0.587000  1.0  0.1494
  H  H117  1  0.758000  0.376100  0.592800  1.0  0.1669
  H  H118  1  0.763700  0.266900  0.743600  1.0  0.1621
  H  H119  1  0.878300  0.915000  0.753800  1.0  0.164
  H  H120  1  0.004100  0.921300  0.907600  1.0  0.1468
  H  H121  1  0.896800  0.030200  0.908100  1.0  0.1654
  H  H122  1  0.952400  0.815900  0.810400  1.0  0.1707
  H  H123  1  0.609100  0.122300  0.738300  1.0  0.1614
  H  H124  1  0.481500  0.104300  0.589200  1.0  0.1618
  H  H125  1  0.588900  0.994100  0.590400  1.0  0.1489
  H  H126  1  0.969800  0.041700  0.996000  1.0  0.2397
  H  H127  1  0.757100  0.315300  0.505600  1.0  0.1469
  H  H128  1  0.469400  0.040200  0.501900  1.0  0.1516
  C  C129  1  0.252500  0.368000  0.199100  1.0  0.7355
  C  C130  1  0.256700  0.296900  0.170100  1.0  -0.0973
  C  C131  1  0.252700  0.296300  0.108700  1.0  -0.0831
  C  C132  1  0.253200  0.231400  0.079800  1.0  0.0913
  C  C133  1  0.257600  0.167300  0.112200  1.0  -0.1185
  C  C134  1  0.261600  0.167900  0.173600  1.0  -0.0762
  C  C135  1  0.261100  0.232700  0.202600  1.0  0.0812
  C  C136  1  0.262600  0.098900  0.202800  1.0  0.7237
  C  C137  1  0.331000  0.505800  0.294900  1.0  0.7436
  C  C138  1  0.379870  0.524000  0.325900  1.0  -0.0963
  C  C139  1  0.397590  0.568800  0.295000  1.0  -0.0548
  C  C140  1  0.444200  0.589300  0.325600  1.0  0.1174
  C  C141  1  0.472990  0.565000  0.387100  1.0  -0.0589
  C  C142  1  0.455300  0.520200  0.418000  1.0  0.1282
  C  C143  1  0.408700  0.499700  0.387400  1.0  -0.1441
  C  C144  1  0.463800  0.642400  0.296200  1.0  0.0167
  C  C145  1  0.157300  0.457500  0.197000  1.0  0.7491
  C  C146  1  0.106790  0.444800  0.169300  1.0  -0.0926
  C  C147  1  0.089360  0.397200  0.198600  1.0  0.0897
  C  C148  1  0.042420  0.378800  0.168600  1.0  -0.0774
  C  C149  1  0.012900  0.408000  0.109300  1.0  -0.1047
  C  C150  1  0.030300  0.455600  0.080000  1.0  0.1824
  C  C151  1  0.077300  0.474000  0.110000  1.0  -0.0569
  C  C152  1  0.020500  0.325700  0.199200  1.0  0.5278
  C  C153  1  0.252800  0.226600  0.017400  1.0  0.0048
  C  C154  1  0.996800  0.478500  0.017000  1.0  0.0071
  C  C155  1  0.482500  0.491200  0.483400  1.0  0.0456
  C  C156  1  0.752500  0.868000  0.199100  1.0  0.7355
  C  C157  1  0.756700  0.796900  0.170100  1.0  -0.0973
  C  C158  1  0.752700  0.796300  0.108700  1.0  -0.0831
  C  C159  1  0.753200  0.731400  0.079800  1.0  0.0913
  C  C160  1  0.757600  0.667300  0.112200  1.0  -0.1185
  C  C161  1  0.761600  0.667900  0.173600  1.0  -0.0762
  C  C162  1  0.761100  0.732700  0.202600  1.0  0.0812
  C  C163  1  0.762600  0.598900  0.202800  1.0  0.7237
  C  C164  1  0.831000  0.005800  0.294900  1.0  0.7436
  C  C165  1  0.879870  0.024000  0.325900  1.0  -0.0963
  C  C166  1  0.897590  0.068800  0.295000  1.0  -0.0548
  C  C167  1  0.944200  0.089300  0.325600  1.0  0.1174
  C  C168  1  0.972990  0.065000  0.387100  1.0  -0.0611
  C  C169  1  0.955300  0.020200  0.418000  1.0  0.1282
  C  C170  1  0.908700  0.999700  0.387400  1.0  -0.1441
  C  C171  1  0.963800  0.142400  0.296200  1.0  0.0167
  C  C172  1  0.657300  0.957500  0.197000  1.0  0.7491
  C  C173  1  0.606790  0.944800  0.169300  1.0  -0.0926
  C  C174  1  0.589360  0.897200  0.198600  1.0  0.0897
  C  C175  1  0.542420  0.878800  0.168600  1.0  -0.0774
  C  C176  1  0.512900  0.908000  0.109300  1.0  -0.1047
  C  C177  1  0.530300  0.955600  0.080000  1.0  0.1824
  C  C178  1  0.577300  0.974000  0.110000  1.0  -0.0569
  C  C179  1  0.520500  0.825700  0.199200  1.0  0.5278
  C  C180  1  0.752800  0.726600  0.017400  1.0  0.0048
  C  C181  1  0.496800  0.978500  0.017000  1.0  0.0071
  C  C182  1  0.982500  0.991200  0.483400  1.0  0.0456
  C  C183  1  0.747500  0.368000  0.300900  1.0  0.7355
  C  C184  1  0.743300  0.296900  0.329900  1.0  -0.0961
  C  C185  1  0.747300  0.296300  0.391300  1.0  -0.0828
  C  C186  1  0.746800  0.231400  0.420200  1.0  0.0916
  C  C187  1  0.742400  0.167300  0.387800  1.0  -0.1187
  C  C188  1  0.738400  0.167900  0.326400  1.0  -0.0755
  C  C189  1  0.738900  0.232700  0.297400  1.0  0.0802
  C  C190  1  0.737400  0.098900  0.297200  1.0  0.7233
  C  C191  1  0.669000  0.505800  0.205100  1.0  0.7436
  C  C192  1  0.620130  0.524000  0.174100  1.0  -0.0966
  C  C193  1  0.602410  0.568800  0.205000  1.0  -0.0551
  C  C194  1  0.555800  0.589300  0.174400  1.0  0.1183
  C  C195  1  0.527010  0.565000  0.112900  1.0  -0.0605
  C  C196  1  0.544700  0.520200  0.082000  1.0  0.1257
  C  C197  1  0.591300  0.499700  0.112600  1.0  -0.1447
  C  C198  1  0.536200  0.642400  0.203800  1.0  0.0143
  C  C199  1  0.842700  0.457500  0.303000  1.0  0.7484
  C  C200  1  0.893210  0.444800  0.330700  1.0  -0.0926
  C  C201  1  0.910640  0.397200  0.301400  1.0  0.0904
  C  C202  1  0.957580  0.378800  0.331400  1.0  -0.0772
  C  C203  1  0.987100  0.408000  0.390700  1.0  -0.1027
  C  C204  1  0.969700  0.455600  0.420000  1.0  0.1843
  C  C205  1  0.922700  0.474000  0.390000  1.0  -0.0567
  C  C206  1  0.979500  0.325700  0.300800  1.0  0.5274
  C  C207  1  0.747200  0.226600  0.482600  1.0  0.0106
  C  C208  1  0.003200  0.478500  0.483000  1.0  0.0124
  C  C209  1  0.517500  0.491200  0.016600  1.0  0.0427
  C  C210  1  0.247500  0.868000  0.300900  1.0  0.7355
  C  C211  1  0.243300  0.796900  0.329900  1.0  -0.0961
  C  C212  1  0.247300  0.796300  0.391300  1.0  -0.0828
  C  C213  1  0.246800  0.731400  0.420200  1.0  0.0916
  C  C214  1  0.242400  0.667300  0.387800  1.0  -0.1187
  C  C215  1  0.238400  0.667900  0.326400  1.0  -0.0755
  C  C216  1  0.238900  0.732700  0.297400  1.0  0.0802
  C  C217  1  0.237400  0.598900  0.297200  1.0  0.7233
  C  C218  1  0.169000  0.005800  0.205100  1.0  0.7436
  C  C219  1  0.120130  0.024000  0.174100  1.0  -0.0966
  C  C220  1  0.102410  0.068800  0.205000  1.0  -0.0551
  C  C221  1  0.055800  0.089300  0.174400  1.0  0.1183
  C  C222  1  0.027010  0.065000  0.112900  1.0  -0.0625
  C  C223  1  0.044700  0.020200  0.082000  1.0  0.1257
  C  C224  1  0.091300  0.999700  0.112600  1.0  -0.1447
  C  C225  1  0.036200  0.142400  0.203800  1.0  0.0143
  C  C226  1  0.342700  0.957500  0.303000  1.0  0.7484
  C  C227  1  0.393210  0.944800  0.330700  1.0  -0.0926
  C  C228  1  0.410640  0.897200  0.301400  1.0  0.0904
  C  C229  1  0.457580  0.878800  0.331400  1.0  -0.0772
  C  C230  1  0.487100  0.908000  0.390700  1.0  -0.1027
  C  C231  1  0.469700  0.955600  0.420000  1.0  0.1843
  C  C232  1  0.422700  0.974000  0.390000  1.0  -0.0567
  C  C233  1  0.479500  0.825700  0.300800  1.0  0.5274
  C  C234  1  0.247200  0.726600  0.482600  1.0  0.0106
  C  C235  1  0.503200  0.978500  0.483000  1.0  0.0124
  C  C236  1  0.017500  0.991200  0.016600  1.0  0.0427
  C  C237  1  0.747500  0.632000  0.800900  1.0  0.7357
  C  C238  1  0.743300  0.703100  0.829900  1.0  -0.0966
  C  C239  1  0.747300  0.703700  0.891300  1.0  -0.0827
  C  C240  1  0.746800  0.768600  0.920200  1.0  0.0919
  C  C241  1  0.742400  0.832700  0.887800  1.0  -0.1189
  C  C242  1  0.738400  0.832100  0.826400  1.0  -0.0751
  C  C243  1  0.738900  0.767300  0.797400  1.0  0.0802
  C  C244  1  0.737400  0.901100  0.797200  1.0  0.7236
  C  C245  1  0.669000  0.494200  0.705100  1.0  0.7436
  C  C246  1  0.620130  0.476000  0.674100  1.0  -0.097
  C  C247  1  0.602410  0.431200  0.705000  1.0  -0.055
  C  C248  1  0.555800  0.410700  0.674400  1.0  0.1178
  C  C249  1  0.527010  0.435000  0.612900  1.0  -0.0597
  C  C250  1  0.544700  0.479800  0.582000  1.0  0.1859
  C  C251  1  0.591300  0.500300  0.612600  1.0  -0.1448
  C  C252  1  0.536200  0.357600  0.703800  1.0  0.0144
  C  C253  1  0.842700  0.542500  0.803000  1.0  0.7484
  C  C254  1  0.893210  0.555200  0.830700  1.0  -0.0925
  C  C255  1  0.910640  0.602800  0.801400  1.0  0.0904
  C  C256  1  0.957580  0.621200  0.831400  1.0  -0.0766
  C  C257  1  0.987100  0.592000  0.890700  1.0  -0.1028
  C  C258  1  0.969700  0.544400  0.920000  1.0  0.1844
  C  C259  1  0.922700  0.526000  0.890000  1.0  -0.0572
  C  C260  1  0.979500  0.674300  0.800800  1.0  0.5269
  C  C261  1  0.747200  0.773400  0.982600  1.0  0.0107
  C  C262  1  0.003200  0.521500  0.983000  1.0  0.0125
  C  C263  1  0.247500  0.132000  0.800900  1.0  0.7357
  C  C264  1  0.243300  0.203100  0.829900  1.0  -0.0966
  C  C265  1  0.247300  0.203700  0.891300  1.0  -0.0827
  C  C266  1  0.246800  0.268600  0.920200  1.0  0.0919
  C  C267  1  0.242400  0.332700  0.887800  1.0  -0.1189
  C  C268  1  0.238400  0.332100  0.826400  1.0  -0.0751
  C  C269  1  0.238900  0.267300  0.797400  1.0  0.0802
  C  C270  1  0.237400  0.401100  0.797200  1.0  0.7236
  C  C271  1  0.169000  0.994200  0.705100  1.0  0.7436
  C  C272  1  0.120130  0.976000  0.674100  1.0  -0.097
  C  C273  1  0.102410  0.931200  0.705000  1.0  -0.055
  C  C274  1  0.055800  0.910700  0.674400  1.0  0.1178
  C  C275  1  0.027010  0.935000  0.612900  1.0  -0.0617
  C  C276  1  0.044700  0.979800  0.582000  1.0  0.1859
  C  C277  1  0.091300  0.000300  0.612600  1.0  -0.1448
  C  C278  1  0.036200  0.857600  0.703800  1.0  0.0144
  C  C279  1  0.342700  0.042500  0.803000  1.0  0.7484
  C  C280  1  0.393210  0.055200  0.830700  1.0  -0.0925
  C  C281  1  0.410640  0.102800  0.801400  1.0  0.0904
  C  C282  1  0.457580  0.121200  0.831400  1.0  -0.0766
  C  C283  1  0.487100  0.092000  0.890700  1.0  -0.1028
  C  C284  1  0.469700  0.044400  0.920000  1.0  0.1844
  C  C285  1  0.422700  0.026000  0.890000  1.0  -0.0572
  C  C286  1  0.479500  0.174300  0.800800  1.0  0.5269
  C  C287  1  0.247200  0.273400  0.982600  1.0  0.0107
  C  C288  1  0.503200  0.021500  0.983000  1.0  0.0125
  C  C289  1  0.252500  0.632000  0.699100  1.0  0.7358
  C  C290  1  0.256700  0.703100  0.670100  1.0  -0.097
  C  C291  1  0.252700  0.703700  0.608700  1.0  -0.0824
  C  C292  1  0.253200  0.768600  0.579800  1.0  0.0915
  C  C293  1  0.257600  0.832700  0.612200  1.0  -0.1189
  C  C294  1  0.261600  0.832100  0.673600  1.0  -0.0767
  C  C295  1  0.261100  0.767300  0.702600  1.0  0.0812
  C  C296  1  0.262600  0.901100  0.702800  1.0  0.7242
  C  C297  1  0.331000  0.494200  0.794900  1.0  0.7436
  C  C298  1  0.379870  0.476000  0.825900  1.0  -0.0965
  C  C299  1  0.397590  0.431200  0.795000  1.0  -0.0546
  C  C300  1  0.444200  0.410700  0.825600  1.0  0.1176
  C  C301  1  0.472990  0.435000  0.887100  1.0  -0.0579
  C  C302  1  0.455300  0.479800  0.918000  1.0  0.1888
  C  C303  1  0.408700  0.500300  0.887400  1.0  -0.144
  C  C304  1  0.463800  0.357600  0.796200  1.0  0.0152
  C  C305  1  0.157300  0.542500  0.697000  1.0  0.7491
  C  C306  1  0.106790  0.555200  0.669300  1.0  -0.0922
  C  C307  1  0.089360  0.602800  0.698600  1.0  0.0896
  C  C308  1  0.042420  0.621200  0.668600  1.0  -0.0772
  C  C309  1  0.012900  0.592000  0.609300  1.0  -0.1051
  C  C310  1  0.030300  0.544400  0.580000  1.0  0.1829
  C  C311  1  0.077300  0.526000  0.610000  1.0  -0.0566
  C  C312  1  0.020500  0.674300  0.699200  1.0  0.5274
  C  C313  1  0.252800  0.773400  0.517400  1.0  0.0047
  C  C314  1  0.996800  0.521500  0.517000  1.0  0.0079
  C  C315  1  0.752500  0.132000  0.699100  1.0  0.7358
  C  C316  1  0.756700  0.203100  0.670100  1.0  -0.097
  C  C317  1  0.752700  0.203700  0.608700  1.0  -0.0824
  C  C318  1  0.753200  0.268600  0.579800  1.0  0.0915
  C  C319  1  0.757600  0.332700  0.612200  1.0  -0.1189
  C  C320  1  0.761600  0.332100  0.673600  1.0  -0.0767
  C  C321  1  0.761100  0.267300  0.702600  1.0  0.0812
  C  C322  1  0.762600  0.401100  0.702800  1.0  0.7242
  C  C323  1  0.831000  0.994200  0.794900  1.0  0.7436
  C  C324  1  0.879870  0.976000  0.825900  1.0  -0.0965
  C  C325  1  0.897590  0.931200  0.795000  1.0  -0.0546
  C  C326  1  0.944200  0.910700  0.825600  1.0  0.1176
  C  C327  1  0.972990  0.935000  0.887100  1.0  -0.0602
  C  C328  1  0.955300  0.979800  0.918000  1.0  0.1888
  C  C329  1  0.908700  0.000300  0.887400  1.0  -0.144
  C  C330  1  0.963800  0.857600  0.796200  1.0  0.0152
  C  C331  1  0.657300  0.042500  0.697000  1.0  0.7491
  C  C332  1  0.606790  0.055200  0.669300  1.0  -0.0922
  C  C333  1  0.589360  0.102800  0.698600  1.0  0.0896
  C  C334  1  0.542420  0.121200  0.668600  1.0  -0.0772
  C  C335  1  0.512900  0.092000  0.609300  1.0  -0.1051
  C  C336  1  0.530300  0.044400  0.580000  1.0  0.1829
  C  C337  1  0.577300  0.026000  0.610000  1.0  -0.0566
  C  C338  1  0.520500  0.174300  0.699200  1.0  0.5274
  C  C339  1  0.752800  0.273400  0.517400  1.0  0.0047
  C  C340  1  0.496800  0.021500  0.517000  1.0  0.0079
  N  N341  1  0.517500  0.508800  0.516600  1.0  -0.0567
  N  N342  1  0.017500  0.008800  0.516600  1.0  -0.0567
  N  N343  1  0.482500  0.508800  0.983400  1.0  -0.0555
  N  N344  1  0.982500  0.008800  0.983400  1.0  -0.0555
  O  O345  1  0.257500  0.362300  0.252700  1.0  -0.5191
  O  O346  1  0.245200  0.422500  0.164000  1.0  -0.5198
  O  O347  1  0.267200  0.100200  0.261800  1.0  -0.5548
  O  O348  1  0.258800  0.041900  0.175200  1.0  -0.5303
  O  O349  1  0.317510  0.471900  0.324200  1.0  -0.5353
  O  O350  1  0.307200  0.530800  0.238100  1.0  -0.5507
  O  O351  1  0.507300  0.659300  0.330400  1.0  -0.6084
  O  O352  1  0.440900  0.657000  0.239300  1.0  -0.6044
  O  O353  1  0.184500  0.438200  0.253200  1.0  -0.5606
  O  O354  1  0.172300  0.497900  0.165800  1.0  -0.5508
  O  O355  1  0.054140  0.303400  0.257000  1.0  -0.5284
  O  O356  1  0.982810  0.294500  0.175000  1.0  -0.5209
  O  O357  1  0.276000  0.181000  0.007100  1.0  -0.5585
  O  O358  1  0.965400  0.439000  0.981800  1.0  -0.5042
  O  O359  1  0.472500  0.428900  0.493500  1.0  -0.4684
  O  O360  1  0.757500  0.862300  0.252700  1.0  -0.5191
  O  O361  1  0.745200  0.922500  0.164000  1.0  -0.5198
  O  O362  1  0.767200  0.600200  0.261800  1.0  -0.5548
  O  O363  1  0.758800  0.541900  0.175200  1.0  -0.5303
  O  O364  1  0.817510  0.971900  0.324200  1.0  -0.5353
  O  O365  1  0.807200  0.030800  0.238100  1.0  -0.5507
  O  O366  1  0.007300  0.159300  0.330400  1.0  -0.6084
  O  O367  1  0.940900  0.157000  0.239300  1.0  -0.6044
  O  O368  1  0.684500  0.938200  0.253200  1.0  -0.5606
  O  O369  1  0.672300  0.997900  0.165800  1.0  -0.5508
  O  O370  1  0.554140  0.803400  0.257000  1.0  -0.5293
  O  O371  1  0.482810  0.794500  0.175000  1.0  -0.5209
  O  O372  1  0.776000  0.681000  0.007100  1.0  -0.5585
  O  O373  1  0.465400  0.939000  0.981800  1.0  -0.5042
  O  O374  1  0.972500  0.928900  0.493500  1.0  -0.4684
  O  O375  1  0.742500  0.362300  0.247300  1.0  -0.519
  O  O376  1  0.754800  0.422500  0.336000  1.0  -0.5188
  O  O377  1  0.732800  0.100200  0.238200  1.0  -0.5558
  O  O378  1  0.741200  0.041900  0.324800  1.0  -0.529
  O  O379  1  0.682490  0.471900  0.175800  1.0  -0.536
  O  O380  1  0.692800  0.530800  0.261900  1.0  -0.5488
  O  O381  1  0.492700  0.659300  0.169600  1.0  -0.6121
  O  O382  1  0.559100  0.657000  0.260700  1.0  -0.6003
  O  O383  1  0.815500  0.438200  0.246800  1.0  -0.5624
  O  O384  1  0.827700  0.497900  0.334200  1.0  -0.5496
  O  O385  1  0.945860  0.303400  0.243000  1.0  -0.526
  O  O386  1  0.017190  0.294500  0.325000  1.0  -0.5199
  O  O387  1  0.724000  0.181000  0.492900  1.0  -0.5549
  O  O388  1  0.034600  0.439000  0.518200  1.0  -0.5037
  O  O389  1  0.527500  0.428900  0.006500  1.0  -0.4648
  O  O390  1  0.242500  0.862300  0.247300  1.0  -0.519
  O  O391  1  0.254800  0.922500  0.336000  1.0  -0.5188
  O  O392  1  0.232800  0.600200  0.238200  1.0  -0.5558
  O  O393  1  0.241200  0.541900  0.324800  1.0  -0.529
  O  O394  1  0.182490  0.971900  0.175800  1.0  -0.536
  O  O395  1  0.192800  0.030800  0.261900  1.0  -0.5488
  O  O396  1  0.992700  0.159300  0.169600  1.0  -0.6121
  O  O397  1  0.059100  0.157000  0.260700  1.0  -0.6003
  O  O398  1  0.315500  0.938200  0.246800  1.0  -0.5624
  O  O399  1  0.327700  0.997900  0.334200  1.0  -0.5496
  O  O400  1  0.445860  0.803400  0.243000  1.0  -0.5281
  O  O401  1  0.517190  0.794500  0.325000  1.0  -0.5199
  O  O402  1  0.224000  0.681000  0.492900  1.0  -0.5549
  O  O403  1  0.534600  0.939000  0.518200  1.0  -0.5037
  O  O404  1  0.027500  0.928900  0.006500  1.0  -0.4648
  O  O405  1  0.742500  0.637700  0.747300  1.0  -0.5194
  O  O406  1  0.754800  0.577500  0.836000  1.0  -0.5189
  O  O407  1  0.732800  0.899800  0.738200  1.0  -0.5558
  O  O408  1  0.741200  0.958100  0.824800  1.0  -0.5298
  O  O409  1  0.682490  0.528100  0.675800  1.0  -0.5349
  O  O410  1  0.692800  0.469200  0.761900  1.0  -0.5486
  O  O411  1  0.492700  0.340700  0.669600  1.0  -0.6124
  O  O412  1  0.559100  0.343000  0.760700  1.0  -0.5999
  O  O413  1  0.815500  0.561800  0.746800  1.0  -0.5621
  O  O414  1  0.827700  0.502100  0.834200  1.0  -0.549
  O  O415  1  0.945860  0.696600  0.743000  1.0  -0.5294
  O  O416  1  0.017190  0.705500  0.825000  1.0  -0.5192
  O  O417  1  0.724000  0.819000  0.992900  1.0  -0.5556
  O  O418  1  0.034600  0.561000  0.018200  1.0  -0.4972
  O  O419  1  0.527500  0.571100  0.506500  1.0  -0.4294
  O  O420  1  0.242500  0.137700  0.747300  1.0  -0.5194
  O  O421  1  0.254800  0.077500  0.836000  1.0  -0.5189
  O  O422  1  0.232800  0.399800  0.738200  1.0  -0.5558
  O  O423  1  0.241200  0.458100  0.824800  1.0  -0.5298
  O  O424  1  0.182490  0.028100  0.675800  1.0  -0.5349
  O  O425  1  0.192800  0.969200  0.761900  1.0  -0.5486
  O  O426  1  0.992700  0.840700  0.669600  1.0  -0.6124
  O  O427  1  0.059100  0.843000  0.760700  1.0  -0.5999
  O  O428  1  0.315500  0.061800  0.746800  1.0  -0.5621
  O  O429  1  0.327700  0.002100  0.834200  1.0  -0.549
  O  O430  1  0.445860  0.196600  0.743000  1.0  -0.5304
  O  O431  1  0.517190  0.205500  0.825000  1.0  -0.5192
  O  O432  1  0.224000  0.319000  0.992900  1.0  -0.5556
  O  O433  1  0.534600  0.061000  0.018200  1.0  -0.4972
  O  O434  1  0.027500  0.071100  0.506500  1.0  -0.4294
  O  O435  1  0.257500  0.637700  0.752700  1.0  -0.52
  O  O436  1  0.245200  0.577500  0.664000  1.0  -0.5202
  O  O437  1  0.267200  0.899800  0.761800  1.0  -0.5542
  O  O438  1  0.258800  0.958100  0.675200  1.0  -0.5306
  O  O439  1  0.317510  0.528100  0.824200  1.0  -0.5355
  O  O440  1  0.307200  0.469200  0.738100  1.0  -0.5508
  O  O441  1  0.507300  0.340700  0.830400  1.0  -0.608
  O  O442  1  0.440900  0.343000  0.739300  1.0  -0.6041
  O  O443  1  0.184500  0.561800  0.753200  1.0  -0.5606
  O  O444  1  0.172300  0.502100  0.665800  1.0  -0.5501
  O  O445  1  0.054140  0.696600  0.757000  1.0  -0.5265
  O  O446  1  0.982810  0.705500  0.675000  1.0  -0.5211
  O  O447  1  0.276000  0.819000  0.507100  1.0  -0.559
  O  O448  1  0.965400  0.561000  0.481800  1.0  -0.496
  O  O449  1  0.472500  0.571100  0.993500  1.0  -0.4316
  O  O450  1  0.757500  0.137700  0.752700  1.0  -0.52
  O  O451  1  0.745200  0.077500  0.664000  1.0  -0.5202
  O  O452  1  0.767200  0.399800  0.761800  1.0  -0.5542
  O  O453  1  0.758800  0.458100  0.675200  1.0  -0.5306
  O  O454  1  0.817510  0.028100  0.824200  1.0  -0.5355
  O  O455  1  0.807200  0.969200  0.738100  1.0  -0.5508
  O  O456  1  0.007300  0.840700  0.830400  1.0  -0.608
  O  O457  1  0.940900  0.843000  0.739300  1.0  -0.6041
  O  O458  1  0.684500  0.061800  0.753200  1.0  -0.5606
  O  O459  1  0.672300  0.002100  0.665800  1.0  -0.5501
  O  O460  1  0.554140  0.196600  0.757000  1.0  -0.5289
  O  O461  1  0.482810  0.205500  0.675000  1.0  -0.5209
  O  O462  1  0.776000  0.319000  0.507100  1.0  -0.559
  O  O463  1  0.465400  0.061000  0.481800  1.0  -0.496
  O  O464  1  0.972500  0.071100  0.993500  1.0  -0.4316
