# generated using pymatgen
data_CuH18C18(NO)4
_symmetry_space_group_name_H-M   'P 1'
_cell_length_a   9.05210000
_cell_length_b   15.40100000
_cell_length_c   17.14100000
_cell_angle_alpha   90.00000000
_cell_angle_beta   90.00000000
_cell_angle_gamma   90.00000000
_symmetry_Int_Tables_number   1
_chemical_formula_structural   CuH18C18(NO)4
_chemical_formula_sum   'Cu4 H72 C72 N16 O16'
_cell_volume   2389.65067199
_cell_formula_units_Z   4
loop_
 _symmetry_equiv_pos_site_id
 _symmetry_equiv_pos_as_xyz
  1  'x, y, z'
loop_
 _atom_site_type_symbol
 _atom_site_label
 _atom_site_symmetry_multiplicity
 _atom_site_fract_x
 _atom_site_fract_y
 _atom_site_fract_z
 _atom_site_occupancy
 _atom_site_charge
  Cu  Cu1  1  0.570640  0.278270  0.781850  1.0  0.869
  Cu  Cu2  1  0.070640  0.721730  0.218150  1.0  0.8686
  Cu  Cu3  1  0.570640  0.778270  0.718150  1.0  0.8687
  Cu  Cu4  1  0.070640  0.221730  0.281850  1.0  0.8689
  H  H5  1  0.265100  0.691400  0.667900  1.0  0.1076
  H  H6  1  0.391100  0.767000  0.874500  1.0  0.1139
  H  H7  1  0.139600  0.707500  0.887700  1.0  0.1394
  H  H8  1  0.976000  0.667000  0.700300  1.0  0.0818
  H  H9  1  0.941200  0.653800  0.789000  1.0  0.085
  H  H10  1  0.075500  0.534200  0.688600  1.0  0.0786
  H  H11  1  0.931800  0.519800  0.737800  1.0  0.0926
  H  H12  1  0.076700  0.515400  0.852400  1.0  0.0811
  H  H13  1  0.219300  0.525700  0.801300  1.0  0.0951
  H  H14  1  0.143900  0.388400  0.737900  1.0  0.0823
  H  H15  1  0.212300  0.380500  0.821700  1.0  0.0891
  H  H16  1  0.856900  0.361100  0.726100  1.0  0.1146
  H  H17  1  0.035500  0.328300  0.934100  1.0  0.1367
  H  H18  1  0.783400  0.270500  0.936500  1.0  0.1168
  H  H19  1  0.808300  0.220500  0.574300  1.0  0.0989
  H  H20  1  0.875900  0.027900  0.421100  1.0  0.0972
  H  H21  1  0.737500  0.936100  0.497000  1.0  0.0947
  H  H22  1  0.653100  0.981900  0.618100  1.0  0.0946
  H  H23  1  0.765100  0.308600  0.332100  1.0  0.1072
  H  H24  1  0.891100  0.233000  0.125500  1.0  0.1144
  H  H25  1  0.639600  0.292500  0.112300  1.0  0.1399
  H  H26  1  0.476000  0.333000  0.299700  1.0  0.0825
  H  H27  1  0.441200  0.346200  0.211000  1.0  0.0841
  H  H28  1  0.575500  0.465800  0.311400  1.0  0.0772
  H  H29  1  0.431800  0.480200  0.262200  1.0  0.0922
  H  H30  1  0.576700  0.484600  0.147600  1.0  0.0822
  H  H31  1  0.719300  0.474300  0.198700  1.0  0.0955
  H  H32  1  0.643900  0.611600  0.262100  1.0  0.0824
  H  H33  1  0.712300  0.619500  0.178300  1.0  0.0888
  H  H34  1  0.356900  0.638900  0.273900  1.0  0.1141
  H  H35  1  0.535500  0.671700  0.065900  1.0  0.1372
  H  H36  1  0.283400  0.729500  0.063500  1.0  0.1168
  H  H37  1  0.308300  0.779500  0.425700  1.0  0.1004
  H  H38  1  0.375900  0.972100  0.578900  1.0  0.0975
  H  H39  1  0.237500  0.063900  0.503000  1.0  0.095
  H  H40  1  0.153100  0.018100  0.381900  1.0  0.0944
  H  H41  1  0.265100  0.191400  0.832100  1.0  0.1069
  H  H42  1  0.391100  0.267000  0.625500  1.0  0.1144
  H  H43  1  0.139600  0.207500  0.612300  1.0  0.1399
  H  H44  1  0.976000  0.167000  0.799700  1.0  0.0829
  H  H45  1  0.941200  0.153800  0.711000  1.0  0.0839
  H  H46  1  0.075500  0.034200  0.811400  1.0  0.0779
  H  H47  1  0.931800  0.019800  0.762200  1.0  0.0931
  H  H48  1  0.076700  0.015400  0.647600  1.0  0.0821
  H  H49  1  0.219300  0.025700  0.698700  1.0  0.0956
  H  H50  1  0.143900  0.888400  0.762100  1.0  0.0822
  H  H51  1  0.212300  0.880500  0.678300  1.0  0.0887
  H  H52  1  0.856900  0.861100  0.773900  1.0  0.1139
  H  H53  1  0.035500  0.828300  0.565900  1.0  0.1372
  H  H54  1  0.783400  0.770500  0.563500  1.0  0.1171
  H  H55  1  0.808300  0.720500  0.925700  1.0  0.099
  H  H56  1  0.875900  0.527900  0.078900  1.0  0.0976
  H  H57  1  0.737500  0.436100  0.003000  1.0  0.0948
  H  H58  1  0.653100  0.481900  0.881900  1.0  0.0941
  H  H59  1  0.765100  0.808600  0.167900  1.0  0.1081
  H  H60  1  0.891100  0.733000  0.374500  1.0  0.1144
  H  H61  1  0.639600  0.792500  0.387700  1.0  0.1398
  H  H62  1  0.476000  0.833000  0.200300  1.0  0.0825
  H  H63  1  0.441200  0.846200  0.289000  1.0  0.0843
  H  H64  1  0.575500  0.965800  0.188600  1.0  0.0785
  H  H65  1  0.431800  0.980200  0.237800  1.0  0.0928
  H  H66  1  0.576700  0.984600  0.352400  1.0  0.0814
  H  H67  1  0.719300  0.974300  0.301300  1.0  0.0951
  H  H68  1  0.643900  0.111600  0.237900  1.0  0.0822
  H  H69  1  0.712300  0.119500  0.321700  1.0  0.0889
  H  H70  1  0.356900  0.138900  0.226100  1.0  0.1147
  H  H71  1  0.535500  0.171700  0.434100  1.0  0.1361
  H  H72  1  0.283400  0.229500  0.436500  1.0  0.1169
  H  H73  1  0.308300  0.279500  0.074300  1.0  0.1001
  H  H74  1  0.375900  0.472100  0.921100  1.0  0.0972
  H  H75  1  0.237500  0.563900  0.997000  1.0  0.0954
  H  H76  1  0.153100  0.518100  0.118100  1.0  0.0943
  C  C77  1  0.265100  0.702900  0.721200  1.0  0.1436
  C  C78  1  0.333800  0.744200  0.834400  1.0  0.0114
  C  C79  1  0.194700  0.711500  0.842000  1.0  -0.1576
  C  C80  1  0.013400  0.642300  0.748500  1.0  -0.0192
  C  C81  1  0.029500  0.545700  0.738600  1.0  -0.1294
  C  C82  1  0.120000  0.502100  0.802000  1.0  -0.1618
  C  C83  1  0.128500  0.402400  0.792500  1.0  -0.0246
  C  C84  1  0.869200  0.345800  0.778200  1.0  0.1258
  C  C85  1  0.969000  0.328100  0.892800  1.0  -0.1521
  C  C86  1  0.829700  0.296100  0.893900  1.0  0.0124
  C  C87  1  0.718900  0.107100  0.607200  1.0  -0.1551
  C  C88  1  0.796700  0.162800  0.559700  1.0  -0.0341
  C  C89  1  0.857900  0.133700  0.490300  1.0  -0.1563
  C  C90  1  0.835800  0.047800  0.467700  1.0  -0.057
  C  C91  1  0.755600  0.992600  0.513600  1.0  -0.1235
  C  C92  1  0.701100  0.020600  0.585200  1.0  -0.028
  C  C93  1  0.656200  0.138600  0.683100  1.0  0.6531
  C  C94  1  0.946100  0.194400  0.437800  1.0  0.6609
  C  C95  1  0.765100  0.297100  0.278800  1.0  0.1441
  C  C96  1  0.833800  0.255800  0.165600  1.0  0.0106
  C  C97  1  0.694700  0.288500  0.158000  1.0  -0.1581
  C  C98  1  0.513400  0.357700  0.251500  1.0  -0.0204
  C  C99  1  0.529500  0.454300  0.261400  1.0  -0.1352
  C  C100  1  0.620000  0.497900  0.198000  1.0  -0.1615
  C  C101  1  0.628500  0.597600  0.207500  1.0  -0.0237
  C  C102  1  0.369200  0.654200  0.221800  1.0  0.1263
  C  C103  1  0.469000  0.671900  0.107200  1.0  -0.1521
  C  C104  1  0.329700  0.703900  0.106100  1.0  0.0119
  C  C105  1  0.218900  0.892900  0.392800  1.0  -0.1565
  C  C106  1  0.296700  0.837200  0.440300  1.0  -0.033
  C  C107  1  0.357900  0.866300  0.509700  1.0  -0.157
  C  C108  1  0.335800  0.952200  0.532300  1.0  -0.059
  C  C109  1  0.255600  0.007400  0.486400  1.0  -0.1229
  C  C110  1  0.201100  0.979400  0.414800  1.0  -0.0281
  C  C111  1  0.156200  0.861400  0.316900  1.0  0.6536
  C  C112  1  0.446100  0.805600  0.562200  1.0  0.6601
  C  C113  1  0.265100  0.202900  0.778800  1.0  0.144
  C  C114  1  0.333800  0.244200  0.665600  1.0  0.011
  C  C115  1  0.194700  0.211500  0.658000  1.0  -0.1575
  C  C116  1  0.013400  0.142300  0.751500  1.0  -0.0201
  C  C117  1  0.029500  0.045700  0.761400  1.0  -0.1363
  C  C118  1  0.120000  0.002100  0.698000  1.0  -0.1609
  C  C119  1  0.128500  0.902400  0.707500  1.0  -0.0236
  C  C120  1  0.869200  0.845800  0.721800  1.0  0.1263
  C  C121  1  0.969000  0.828100  0.607200  1.0  -0.1527
  C  C122  1  0.829700  0.796100  0.606100  1.0  0.0129
  C  C123  1  0.718900  0.607100  0.892800  1.0  -0.1555
  C  C124  1  0.796700  0.662800  0.940300  1.0  -0.034
  C  C125  1  0.857900  0.633700  0.009700  1.0  -0.1567
  C  C126  1  0.835800  0.547800  0.032300  1.0  -0.0581
  C  C127  1  0.755600  0.492600  0.986400  1.0  -0.1235
  C  C128  1  0.701100  0.520600  0.914800  1.0  -0.0274
  C  C129  1  0.656200  0.638600  0.816900  1.0  0.6534
  C  C130  1  0.946100  0.694400  0.062200  1.0  0.6604
  C  C131  1  0.765100  0.797100  0.221200  1.0  0.1439
  C  C132  1  0.833800  0.755800  0.334400  1.0  0.0121
  C  C133  1  0.694700  0.788500  0.342000  1.0  -0.157
  C  C134  1  0.513400  0.857700  0.248500  1.0  -0.0197
  C  C135  1  0.529500  0.954300  0.238600  1.0  -0.1299
  C  C136  1  0.620000  0.997900  0.302000  1.0  -0.1621
  C  C137  1  0.628500  0.097600  0.292500  1.0  -0.0241
  C  C138  1  0.369200  0.154200  0.278200  1.0  0.1257
  C  C139  1  0.469000  0.171900  0.392800  1.0  -0.1518
  C  C140  1  0.329700  0.203900  0.393900  1.0  0.0092
  C  C141  1  0.218900  0.392900  0.107200  1.0  -0.1558
  C  C142  1  0.296700  0.337200  0.059700  1.0  -0.033
  C  C143  1  0.357900  0.366300  0.990300  1.0  -0.1568
  C  C144  1  0.335800  0.452200  0.967700  1.0  -0.0579
  C  C145  1  0.255600  0.507400  0.013600  1.0  -0.1229
  C  C146  1  0.201100  0.479400  0.085200  1.0  -0.0279
  C  C147  1  0.156200  0.361400  0.183100  1.0  0.6532
  C  C148  1  0.446100  0.305600  0.937800  1.0  0.6599
  N  N149  1  0.374700  0.737900  0.758600  1.0  -0.3623
  N  N150  1  0.152400  0.685600  0.768900  1.0  0.0418
  N  N151  1  0.993300  0.359700  0.819900  1.0  0.0477
  N  N152  1  0.768100  0.307800  0.821000  1.0  -0.365
  N  N153  1  0.874700  0.262100  0.241400  1.0  -0.3622
  N  N154  1  0.652400  0.314400  0.231100  1.0  0.0417
  N  N155  1  0.493300  0.640300  0.180100  1.0  0.0477
  N  N156  1  0.268100  0.692200  0.179000  1.0  -0.3649
  N  N157  1  0.374700  0.237900  0.741400  1.0  -0.3616
  N  N158  1  0.152400  0.185600  0.731100  1.0  0.0417
  N  N159  1  0.993300  0.859700  0.680100  1.0  0.0477
  N  N160  1  0.768100  0.807800  0.679000  1.0  -0.3651
  N  N161  1  0.874700  0.762100  0.258600  1.0  -0.3629
  N  N162  1  0.652400  0.814400  0.268900  1.0  0.0417
  N  N163  1  0.493300  0.140300  0.319900  1.0  0.0475
  N  N164  1  0.268100  0.192200  0.321000  1.0  -0.3646
  O  O165  1  0.661000  0.220000  0.693500  1.0  -0.6039
  O  O166  1  0.608100  0.085100  0.730700  1.0  -0.5989
  O  O167  1  0.974400  0.165900  0.371100  1.0  -0.6038
  O  O168  1  0.986300  0.265600  0.464000  1.0  -0.6286
  O  O169  1  0.161000  0.780000  0.306500  1.0  -0.6036
  O  O170  1  0.108100  0.914900  0.269300  1.0  -0.5997
  O  O171  1  0.474400  0.834100  0.628900  1.0  -0.6034
  O  O172  1  0.486300  0.734400  0.536000  1.0  -0.63
  O  O173  1  0.661000  0.720000  0.806500  1.0  -0.6039
  O  O174  1  0.608100  0.585100  0.769300  1.0  -0.6013
  O  O175  1  0.974400  0.665900  0.128900  1.0  -0.6041
  O  O176  1  0.986300  0.765600  0.036000  1.0  -0.6276
  O  O177  1  0.161000  0.280000  0.193500  1.0  -0.6038
  O  O178  1  0.108100  0.414900  0.230700  1.0  -0.5999
  O  O179  1  0.474400  0.334100  0.871100  1.0  -0.6036
  O  O180  1  0.486300  0.234400  0.964000  1.0  -0.6283
