# generated using pymatgen
data_InH4C12(NO2)4
_symmetry_space_group_name_H-M   'P 1'
_cell_length_a   17.70990000
_cell_length_b   17.70990000
_cell_length_c   32.97700000
_cell_angle_alpha   90.00000000
_cell_angle_beta   90.00000000
_cell_angle_gamma   120.00000000
_symmetry_Int_Tables_number   1
_chemical_formula_structural   InH4C12(NO2)4
_chemical_formula_sum   'In18 H72 C216 N72 O144'
_cell_volume   8957.23552360
_cell_formula_units_Z   18
loop_
 _symmetry_equiv_pos_site_id
 _symmetry_equiv_pos_as_xyz
  1  'x, y, z'
loop_
 _atom_site_type_symbol
 _atom_site_label
 _atom_site_symmetry_multiplicity
 _atom_site_fract_x
 _atom_site_fract_y
 _atom_site_fract_z
 _atom_site_occupancy
 _atom_site_charge
  In  In1  1  0.005340  0.672010  0.083330  1.0  1.4932
  In  In2  1  0.338670  0.338670  0.750000  1.0  1.4925
  In  In3  1  0.327990  0.333333  0.083330  1.0  1.4889
  In  In4  1  0.666667  0.994660  0.083330  1.0  1.4929
  In  In5  1  0.333333  0.327990  0.416670  1.0  1.4936
  In  In6  1  0.672010  0.005340  0.416670  1.0  1.4938
  In  In7  1  0.000000  0.661330  0.750000  1.0  1.4933
  In  In8  1  0.994660  0.666667  0.416670  1.0  1.4895
  In  In9  1  0.661330  0.000000  0.750000  1.0  1.4885
  In  In10  1  0.994660  0.327990  0.916670  1.0  1.494
  In  In11  1  0.661330  0.661330  0.250000  1.0  1.4926
  In  In12  1  0.672010  0.666667  0.916670  1.0  1.4899
  In  In13  1  0.338670  0.000000  0.250000  1.0  1.4897
  In  In14  1  0.005340  0.333333  0.583330  1.0  1.4893
  In  In15  1  0.333333  0.005340  0.916670  1.0  1.4937
  In  In16  1  0.000000  0.338670  0.250000  1.0  1.4928
  In  In17  1  0.327990  0.994660  0.583330  1.0  1.4933
  In  In18  1  0.666667  0.672010  0.583330  1.0  1.4932
  H  H19  1  0.161800  0.582000  0.970100  1.0  0.0796
  H  H20  1  0.076700  0.558300  0.026200  1.0  0.1122
  H  H21  1  0.828470  0.915330  0.303430  1.0  0.0796
  H  H22  1  0.743370  0.891630  0.359530  1.0  0.1122
  H  H23  1  0.495130  0.248670  0.636770  1.0  0.0796
  H  H24  1  0.410030  0.224970  0.692870  1.0  0.1122
  H  H25  1  0.418000  0.579800  0.970100  1.0  0.0807
  H  H26  1  0.441700  0.518400  0.026200  1.0  0.1133
  H  H27  1  0.084670  0.913130  0.303430  1.0  0.0807
  H  H28  1  0.108370  0.851730  0.359530  1.0  0.1133
  H  H29  1  0.751330  0.246470  0.636770  1.0  0.0807
  H  H30  1  0.775030  0.185070  0.692870  1.0  0.1133
  H  H31  1  0.420200  0.838200  0.970100  1.0  0.0797
  H  H32  1  0.481600  0.923300  0.026200  1.0  0.1112
  H  H33  1  0.086870  0.171530  0.303430  1.0  0.0797
  H  H34  1  0.148270  0.256630  0.359530  1.0  0.1112
  H  H35  1  0.753530  0.504870  0.636770  1.0  0.0797
  H  H36  1  0.814930  0.589970  0.692870  1.0  0.1112
  H  H37  1  0.582000  0.161800  0.529900  1.0  0.0793
  H  H38  1  0.558300  0.076700  0.473800  1.0  0.1111
  H  H39  1  0.248670  0.495130  0.863230  1.0  0.0793
  H  H40  1  0.224970  0.410030  0.807130  1.0  0.1111
  H  H41  1  0.915330  0.828470  0.196570  1.0  0.0793
  H  H42  1  0.891630  0.743370  0.140470  1.0  0.1111
  H  H43  1  0.579800  0.418000  0.529900  1.0  0.0791
  H  H44  1  0.518400  0.441700  0.473800  1.0  0.1123
  H  H45  1  0.246470  0.751330  0.863230  1.0  0.0791
  H  H46  1  0.185070  0.775030  0.807130  1.0  0.1123
  H  H47  1  0.913130  0.084670  0.196570  1.0  0.0791
  H  H48  1  0.851730  0.108370  0.140470  1.0  0.1123
  H  H49  1  0.838200  0.420200  0.529900  1.0  0.0805
  H  H50  1  0.923300  0.481600  0.473800  1.0  0.1126
  H  H51  1  0.504870  0.753530  0.863230  1.0  0.0805
  H  H52  1  0.589970  0.814930  0.807130  1.0  0.1127
  H  H53  1  0.171530  0.086870  0.196570  1.0  0.0805
  H  H54  1  0.256630  0.148270  0.140470  1.0  0.1126
  H  H55  1  0.838200  0.418000  0.029900  1.0  0.0795
  H  H56  1  0.923300  0.441700  0.973800  1.0  0.1121
  H  H57  1  0.504870  0.751330  0.363230  1.0  0.0795
  H  H58  1  0.589970  0.775030  0.307130  1.0  0.1122
  H  H59  1  0.171530  0.084670  0.696570  1.0  0.0795
  H  H60  1  0.256630  0.108370  0.640470  1.0  0.1121
  H  H61  1  0.582000  0.420200  0.029900  1.0  0.0801
  H  H62  1  0.558300  0.481600  0.973800  1.0  0.1117
  H  H63  1  0.248670  0.753530  0.363230  1.0  0.0801
  H  H64  1  0.224970  0.814930  0.307130  1.0  0.1117
  H  H65  1  0.915330  0.086870  0.696570  1.0  0.0801
  H  H66  1  0.891630  0.148270  0.640470  1.0  0.1117
  H  H67  1  0.579800  0.161800  0.029900  1.0  0.0794
  H  H68  1  0.518400  0.076700  0.973800  1.0  0.1115
  H  H69  1  0.246470  0.495130  0.363230  1.0  0.0794
  H  H70  1  0.185070  0.410030  0.307130  1.0  0.1116
  H  H71  1  0.913130  0.828470  0.696570  1.0  0.0794
  H  H72  1  0.851730  0.743370  0.640470  1.0  0.1115
  H  H73  1  0.418000  0.838200  0.470100  1.0  0.0797
  H  H74  1  0.441700  0.923300  0.526200  1.0  0.1117
  H  H75  1  0.084670  0.171530  0.803430  1.0  0.0797
  H  H76  1  0.108370  0.256630  0.859530  1.0  0.1117
  H  H77  1  0.751330  0.504870  0.136770  1.0  0.0797
  H  H78  1  0.775030  0.589970  0.192870  1.0  0.1117
  H  H79  1  0.420200  0.582000  0.470100  1.0  0.0793
  H  H80  1  0.481600  0.558300  0.526200  1.0  0.112
  H  H81  1  0.086870  0.915330  0.803430  1.0  0.0793
  H  H82  1  0.148270  0.891630  0.859530  1.0  0.112
  H  H83  1  0.753530  0.248670  0.136770  1.0  0.0793
  H  H84  1  0.814930  0.224970  0.192870  1.0  0.112
  H  H85  1  0.161800  0.579800  0.470100  1.0  0.0809
  H  H86  1  0.076700  0.518400  0.526200  1.0  0.1127
  H  H87  1  0.828470  0.913130  0.803430  1.0  0.0809
  H  H88  1  0.743370  0.851730  0.859530  1.0  0.1127
  H  H89  1  0.495130  0.246470  0.136770  1.0  0.0809
  H  H90  1  0.410030  0.185070  0.192870  1.0  0.1127
  C  C91  1  0.128600  0.752600  0.008580  1.0  0.0961
  C  C92  1  0.182300  0.766700  0.975390  1.0  0.2158
  C  C93  1  0.155400  0.627700  0.980050  1.0  0.1552
  C  C94  1  0.103000  0.612600  0.013610  1.0  0.1321
  C  C95  1  0.230700  0.851900  0.953100  1.0  0.6838
  C  C96  1  0.110500  0.821500  0.024770  1.0  0.6806
  C  C97  1  0.795270  0.085930  0.341910  1.0  0.0961
  C  C98  1  0.848970  0.100030  0.308720  1.0  0.2159
  C  C99  1  0.822070  0.961030  0.313380  1.0  0.1553
  C  C100  1  0.769670  0.945930  0.346940  1.0  0.1321
  C  C101  1  0.897370  0.185230  0.286430  1.0  0.6839
  C  C102  1  0.777170  0.154830  0.358100  1.0  0.6806
  C  C103  1  0.461930  0.419270  0.675250  1.0  0.0961
  C  C104  1  0.515630  0.433370  0.642060  1.0  0.2158
  C  C105  1  0.488730  0.294370  0.646720  1.0  0.1552
  C  C106  1  0.436330  0.279270  0.680280  1.0  0.13
  C  C107  1  0.564030  0.518570  0.619770  1.0  0.6838
  C  C108  1  0.443830  0.488170  0.691440  1.0  0.6807
  C  C109  1  0.247400  0.376000  0.008580  1.0  0.0953
  C  C110  1  0.233300  0.415600  0.975390  1.0  0.2158
  C  C111  1  0.372300  0.527700  0.980050  1.0  0.153
  C  C112  1  0.387400  0.490400  0.013610  1.0  0.1306
  C  C113  1  0.148100  0.378800  0.953100  1.0  0.6803
  C  C114  1  0.178500  0.289000  0.024770  1.0  0.6824
  C  C115  1  0.914070  0.709330  0.341910  1.0  0.0953
  C  C116  1  0.899970  0.748930  0.308720  1.0  0.2157
  C  C117  1  0.038970  0.861030  0.313380  1.0  0.1531
  C  C118  1  0.054070  0.823730  0.346940  1.0  0.1306
  C  C119  1  0.814770  0.712130  0.286430  1.0  0.6804
  C  C120  1  0.845170  0.622330  0.358100  1.0  0.6824
  C  C121  1  0.580730  0.042670  0.675250  1.0  0.0953
  C  C122  1  0.566630  0.082270  0.642060  1.0  0.2158
  C  C123  1  0.705630  0.194370  0.646720  1.0  0.153
  C  C124  1  0.720730  0.157070  0.680280  1.0  0.1315
  C  C125  1  0.481430  0.045470  0.619770  1.0  0.6803
  C  C126  1  0.511830  0.955670  0.691440  1.0  0.6824
  C  C127  1  0.624000  0.871400  0.008580  1.0  0.0949
  C  C128  1  0.584400  0.817700  0.975390  1.0  0.2162
  C  C129  1  0.472300  0.844600  0.980050  1.0  0.1555
  C  C130  1  0.509600  0.897000  0.013610  1.0  0.136
  C  C131  1  0.621200  0.769300  0.953100  1.0  0.6811
  C  C132  1  0.711000  0.889500  0.024770  1.0  0.6836
  C  C133  1  0.290670  0.204730  0.341910  1.0  0.0948
  C  C134  1  0.251070  0.151030  0.308720  1.0  0.2161
  C  C135  1  0.138970  0.177930  0.313380  1.0  0.1557
  C  C136  1  0.176270  0.230330  0.346940  1.0  0.136
  C  C137  1  0.287870  0.102630  0.286430  1.0  0.6811
  C  C138  1  0.377670  0.222830  0.358100  1.0  0.6836
  C  C139  1  0.957330  0.538070  0.675250  1.0  0.0949
  C  C140  1  0.917730  0.484370  0.642060  1.0  0.2162
  C  C141  1  0.805630  0.511270  0.646720  1.0  0.1555
  C  C142  1  0.842930  0.563670  0.680280  1.0  0.1309
  C  C143  1  0.954530  0.435970  0.619770  1.0  0.6811
  C  C144  1  0.044330  0.556170  0.691440  1.0  0.6836
  C  C145  1  0.752600  0.128600  0.491420  1.0  0.0956
  C  C146  1  0.766700  0.182300  0.524610  1.0  0.2166
  C  C147  1  0.627700  0.155400  0.519950  1.0  0.1544
  C  C148  1  0.612600  0.103000  0.486390  1.0  0.1332
  C  C149  1  0.851900  0.230700  0.546900  1.0  0.6811
  C  C150  1  0.821500  0.110500  0.475230  1.0  0.6836
  C  C151  1  0.419270  0.461930  0.824750  1.0  0.0956
  C  C152  1  0.433370  0.515630  0.857940  1.0  0.2166
  C  C153  1  0.294370  0.488730  0.853280  1.0  0.1544
  C  C154  1  0.279270  0.436330  0.819720  1.0  0.1312
  C  C155  1  0.518570  0.564030  0.880230  1.0  0.6811
  C  C156  1  0.488170  0.443830  0.808560  1.0  0.6836
  C  C157  1  0.085930  0.795270  0.158090  1.0  0.0956
  C  C158  1  0.100030  0.848970  0.191280  1.0  0.2167
  C  C159  1  0.961030  0.822070  0.186620  1.0  0.1545
  C  C160  1  0.945930  0.769670  0.153060  1.0  0.1332
  C  C161  1  0.185230  0.897370  0.213570  1.0  0.6811
  C  C162  1  0.154830  0.777170  0.141900  1.0  0.6836
  C  C163  1  0.376000  0.247400  0.491420  1.0  0.0965
  C  C164  1  0.415600  0.233300  0.524610  1.0  0.216
  C  C165  1  0.527700  0.372300  0.519950  1.0  0.1543
  C  C166  1  0.490400  0.387400  0.486390  1.0  0.1299
  C  C167  1  0.378800  0.148100  0.546900  1.0  0.6835
  C  C168  1  0.289000  0.178500  0.475230  1.0  0.6815
  C  C169  1  0.042670  0.580730  0.824750  1.0  0.0965
  C  C170  1  0.082270  0.566630  0.857940  1.0  0.216
  C  C171  1  0.194370  0.705630  0.853280  1.0  0.1543
  C  C172  1  0.157070  0.720730  0.819720  1.0  0.1312
  C  C173  1  0.045470  0.481430  0.880230  1.0  0.6835
  C  C174  1  0.955670  0.511830  0.808560  1.0  0.6815
  C  C175  1  0.709330  0.914070  0.158090  1.0  0.0965
  C  C176  1  0.748930  0.899970  0.191280  1.0  0.2159
  C  C177  1  0.861030  0.038970  0.186620  1.0  0.1545
  C  C178  1  0.823730  0.054070  0.153060  1.0  0.1299
  C  C179  1  0.712130  0.814770  0.213570  1.0  0.6835
  C  C180  1  0.622330  0.845170  0.141900  1.0  0.6815
  C  C181  1  0.871400  0.624000  0.491420  1.0  0.0959
  C  C182  1  0.817700  0.584400  0.524610  1.0  0.217
  C  C183  1  0.844600  0.472300  0.519950  1.0  0.1523
  C  C184  1  0.897000  0.509600  0.486390  1.0  0.1361
  C  C185  1  0.769300  0.621200  0.546900  1.0  0.6801
  C  C186  1  0.889500  0.711000  0.475230  1.0  0.6812
  C  C187  1  0.538070  0.957330  0.824750  1.0  0.0959
  C  C188  1  0.484370  0.917730  0.857940  1.0  0.217
  C  C189  1  0.511270  0.805630  0.853280  1.0  0.1523
  C  C190  1  0.563670  0.842930  0.819720  1.0  0.1302
  C  C191  1  0.435970  0.954530  0.880230  1.0  0.6801
  C  C192  1  0.556170  0.044330  0.808560  1.0  0.6812
  C  C193  1  0.204730  0.290670  0.158090  1.0  0.0959
  C  C194  1  0.151030  0.251070  0.191280  1.0  0.217
  C  C195  1  0.177930  0.138970  0.186620  1.0  0.1525
  C  C196  1  0.230330  0.176270  0.153060  1.0  0.1361
  C  C197  1  0.102630  0.287870  0.213570  1.0  0.6801
  C  C198  1  0.222830  0.377670  0.141900  1.0  0.6812
  C  C199  1  0.871400  0.247400  0.991420  1.0  0.0966
  C  C200  1  0.817700  0.233300  0.024610  1.0  0.2164
  C  C201  1  0.844600  0.372300  0.019950  1.0  0.155
  C  C202  1  0.897000  0.387400  0.986390  1.0  0.1318
  C  C203  1  0.769300  0.148100  0.046900  1.0  0.6831
  C  C204  1  0.889500  0.178500  0.975230  1.0  0.6824
  C  C205  1  0.538070  0.580730  0.324750  1.0  0.0966
  C  C206  1  0.484370  0.566630  0.357940  1.0  0.2164
  C  C207  1  0.511270  0.705630  0.353280  1.0  0.155
  C  C208  1  0.563670  0.720730  0.319720  1.0  0.1297
  C  C209  1  0.435970  0.481430  0.380230  1.0  0.6831
  C  C210  1  0.556170  0.511830  0.308560  1.0  0.6825
  C  C211  1  0.204730  0.914070  0.658090  1.0  0.0966
  C  C212  1  0.151030  0.899970  0.691280  1.0  0.2166
  C  C213  1  0.177930  0.038970  0.686620  1.0  0.1552
  C  C214  1  0.230330  0.054070  0.653060  1.0  0.1318
  C  C215  1  0.102630  0.814770  0.713570  1.0  0.6831
  C  C216  1  0.222830  0.845170  0.641900  1.0  0.6824
  C  C217  1  0.752600  0.624000  0.991420  1.0  0.0955
  C  C218  1  0.766700  0.584400  0.024610  1.0  0.2169
  C  C219  1  0.627700  0.472300  0.019950  1.0  0.153
  C  C220  1  0.612600  0.509600  0.986390  1.0  0.1317
  C  C221  1  0.851900  0.621200  0.046900  1.0  0.6796
  C  C222  1  0.821500  0.711000  0.975230  1.0  0.6825
  C  C223  1  0.419270  0.957330  0.324750  1.0  0.0955
  C  C224  1  0.433370  0.917730  0.357940  1.0  0.2169
  C  C225  1  0.294370  0.805630  0.353280  1.0  0.153
  C  C226  1  0.279270  0.842930  0.319720  1.0  0.1321
  C  C227  1  0.518570  0.954530  0.380230  1.0  0.6796
  C  C228  1  0.488170  0.044330  0.308560  1.0  0.6826
  C  C229  1  0.085930  0.290670  0.658090  1.0  0.0955
  C  C230  1  0.100030  0.251070  0.691280  1.0  0.2168
  C  C231  1  0.961030  0.138970  0.686620  1.0  0.1532
  C  C232  1  0.945930  0.176270  0.653060  1.0  0.1317
  C  C233  1  0.185230  0.287870  0.713570  1.0  0.6796
  C  C234  1  0.154830  0.377670  0.641900  1.0  0.6825
  C  C235  1  0.376000  0.128600  0.991420  1.0  0.0957
  C  C236  1  0.415600  0.182300  0.024610  1.0  0.2167
  C  C237  1  0.527700  0.155400  0.019950  1.0  0.1543
  C  C238  1  0.490400  0.103000  0.986390  1.0  0.1367
  C  C239  1  0.378800  0.230700  0.046900  1.0  0.6809
  C  C240  1  0.289000  0.110500  0.975230  1.0  0.6809
  C  C241  1  0.042670  0.461930  0.324750  1.0  0.0957
  C  C242  1  0.082270  0.515630  0.357940  1.0  0.2167
  C  C243  1  0.194370  0.488730  0.353280  1.0  0.1543
  C  C244  1  0.157070  0.436330  0.319720  1.0  0.1303
  C  C245  1  0.045470  0.564030  0.380230  1.0  0.6809
  C  C246  1  0.955670  0.443830  0.308560  1.0  0.6809
  C  C247  1  0.709330  0.795270  0.658090  1.0  0.0957
  C  C248  1  0.748930  0.848970  0.691280  1.0  0.2166
  C  C249  1  0.861030  0.822070  0.686620  1.0  0.1545
  C  C250  1  0.823730  0.769670  0.653060  1.0  0.1367
  C  C251  1  0.712130  0.897370  0.713570  1.0  0.6809
  C  C252  1  0.622330  0.777170  0.641900  1.0  0.6809
  C  C253  1  0.247400  0.871400  0.508580  1.0  0.095
  C  C254  1  0.233300  0.817700  0.475390  1.0  0.2158
  C  C255  1  0.372300  0.844600  0.480050  1.0  0.1535
  C  C256  1  0.387400  0.897000  0.513610  1.0  0.1347
  C  C257  1  0.148100  0.769300  0.453100  1.0  0.6808
  C  C258  1  0.178500  0.889500  0.524770  1.0  0.6811
  C  C259  1  0.914070  0.204730  0.841910  1.0  0.095
  C  C260  1  0.899970  0.151030  0.808720  1.0  0.2159
  C  C261  1  0.038970  0.177930  0.813380  1.0  0.1536
  C  C262  1  0.054070  0.230330  0.846940  1.0  0.1346
  C  C263  1  0.814770  0.102630  0.786430  1.0  0.6809
  C  C264  1  0.845170  0.222830  0.858100  1.0  0.6811
  C  C265  1  0.580730  0.538070  0.175250  1.0  0.095
  C  C266  1  0.566630  0.484370  0.142060  1.0  0.2158
  C  C267  1  0.705630  0.511270  0.146720  1.0  0.1535
  C  C268  1  0.720730  0.563670  0.180280  1.0  0.1318
  C  C269  1  0.481430  0.435970  0.119770  1.0  0.6808
  C  C270  1  0.511830  0.556170  0.191440  1.0  0.6811
  C  C271  1  0.624000  0.752600  0.508580  1.0  0.096
  C  C272  1  0.584400  0.766700  0.475390  1.0  0.2165
  C  C273  1  0.472300  0.627700  0.480050  1.0  0.1544
  C  C274  1  0.509600  0.612600  0.513610  1.0  0.1303
  C  C275  1  0.621200  0.851900  0.453100  1.0  0.6832
  C  C276  1  0.711000  0.821500  0.524770  1.0  0.6817
  C  C277  1  0.290670  0.085930  0.841910  1.0  0.096
  C  C278  1  0.251070  0.100030  0.808720  1.0  0.2163
  C  C279  1  0.138970  0.961030  0.813380  1.0  0.1545
  C  C280  1  0.176270  0.945930  0.846940  1.0  0.1303
  C  C281  1  0.287870  0.185230  0.786430  1.0  0.6833
  C  C282  1  0.377670  0.154830  0.858100  1.0  0.6817
  C  C283  1  0.957330  0.419270  0.175250  1.0  0.096
  C  C284  1  0.917730  0.433370  0.142060  1.0  0.2165
  C  C285  1  0.805630  0.294370  0.146720  1.0  0.1544
  C  C286  1  0.842930  0.279270  0.180280  1.0  0.1312
  C  C287  1  0.954530  0.518570  0.119770  1.0  0.6832
  C  C288  1  0.044330  0.488170  0.191440  1.0  0.6817
  C  C289  1  0.128600  0.376000  0.508580  1.0  0.0952
  C  C290  1  0.182300  0.415600  0.475390  1.0  0.2158
  C  C291  1  0.155400  0.527700  0.480050  1.0  0.1521
  C  C292  1  0.103000  0.490400  0.513610  1.0  0.1358
  C  C293  1  0.230700  0.378800  0.453100  1.0  0.6802
  C  C294  1  0.110500  0.289000  0.524770  1.0  0.6833
  C  C295  1  0.795270  0.709330  0.841910  1.0  0.0952
  C  C296  1  0.848970  0.748930  0.808720  1.0  0.2157
  C  C297  1  0.822070  0.861030  0.813380  1.0  0.1523
  C  C298  1  0.769670  0.823730  0.846940  1.0  0.1358
  C  C299  1  0.897370  0.712130  0.786430  1.0  0.6803
  C  C300  1  0.777170  0.622330  0.858100  1.0  0.6833
  C  C301  1  0.461930  0.042670  0.175250  1.0  0.0952
  C  C302  1  0.515630  0.082270  0.142060  1.0  0.2158
  C  C303  1  0.488730  0.194370  0.146720  1.0  0.1522
  C  C304  1  0.436330  0.157070  0.180280  1.0  0.1306
  C  C305  1  0.564030  0.045470  0.119770  1.0  0.6802
  C  C306  1  0.443830  0.955670  0.191440  1.0  0.6833
  N  N307  1  0.089900  0.675500  0.027960  1.0  -0.3098
  N  N308  1  0.197300  0.704400  0.961210  1.0  -0.3518
  N  N309  1  0.756570  0.008830  0.361290  1.0  -0.3098
  N  N310  1  0.863970  0.037730  0.294540  1.0  -0.351
  N  N311  1  0.423230  0.342170  0.694630  1.0  -0.3099
  N  N312  1  0.530630  0.371070  0.627880  1.0  -0.3518
  N  N313  1  0.324500  0.414400  0.027960  1.0  -0.3117
  N  N314  1  0.295600  0.492900  0.961210  1.0  -0.3522
  N  N315  1  0.991170  0.747730  0.361290  1.0  -0.3117
  N  N316  1  0.962270  0.826230  0.294540  1.0  -0.3506
  N  N317  1  0.657830  0.081070  0.694630  1.0  -0.3118
  N  N318  1  0.628930  0.159570  0.627880  1.0  -0.3522
  N  N319  1  0.585600  0.910100  0.027960  1.0  -0.312
  N  N320  1  0.507100  0.802700  0.961210  1.0  -0.3444
  N  N321  1  0.252270  0.243430  0.361290  1.0  -0.3121
  N  N322  1  0.173770  0.136030  0.294540  1.0  -0.3605
  N  N323  1  0.918930  0.576770  0.694630  1.0  -0.3122
  N  N324  1  0.840430  0.469370  0.627880  1.0  -0.3444
  N  N325  1  0.675500  0.089900  0.472040  1.0  -0.3143
  N  N326  1  0.704400  0.197300  0.538790  1.0  -0.3504
  N  N327  1  0.342170  0.423230  0.805370  1.0  -0.3144
  N  N328  1  0.371070  0.530630  0.872120  1.0  -0.3504
  N  N329  1  0.008830  0.756570  0.138710  1.0  -0.3143
  N  N330  1  0.037730  0.863970  0.205460  1.0  -0.3499
  N  N331  1  0.414400  0.324500  0.472040  1.0  -0.3124
  N  N332  1  0.492900  0.295600  0.538790  1.0  -0.3513
  N  N333  1  0.081070  0.657830  0.805370  1.0  -0.3125
  N  N334  1  0.159570  0.628930  0.872120  1.0  -0.3513
  N  N335  1  0.747730  0.991170  0.138710  1.0  -0.3124
  N  N336  1  0.826230  0.962270  0.205460  1.0  -0.3512
  N  N337  1  0.910100  0.585600  0.472040  1.0  -0.3136
  N  N338  1  0.802700  0.507100  0.538790  1.0  -0.3443
  N  N339  1  0.576770  0.918930  0.805370  1.0  -0.3137
  N  N340  1  0.469370  0.840430  0.872120  1.0  -0.3443
  N  N341  1  0.243430  0.252270  0.138710  1.0  -0.3136
  N  N342  1  0.136030  0.173770  0.205460  1.0  -0.3607
  N  N343  1  0.910100  0.324500  0.972040  1.0  -0.3128
  N  N344  1  0.802700  0.295600  0.038790  1.0  -0.35
  N  N345  1  0.576770  0.657830  0.305370  1.0  -0.3129
  N  N346  1  0.469370  0.628930  0.372120  1.0  -0.35
  N  N347  1  0.243430  0.991170  0.638710  1.0  -0.3128
  N  N348  1  0.136030  0.962270  0.705460  1.0  -0.3494
  N  N349  1  0.675500  0.585600  0.972040  1.0  -0.3136
  N  N350  1  0.704400  0.507100  0.038790  1.0  -0.3499
  N  N351  1  0.342170  0.918930  0.305370  1.0  -0.3137
  N  N352  1  0.371070  0.840430  0.372120  1.0  -0.3499
  N  N353  1  0.008830  0.252270  0.638710  1.0  -0.3136
  N  N354  1  0.037730  0.173770  0.705460  1.0  -0.3494
  N  N355  1  0.414400  0.089900  0.972040  1.0  -0.3138
  N  N356  1  0.492900  0.197300  0.038790  1.0  -0.3438
  N  N357  1  0.081070  0.423230  0.305370  1.0  -0.3139
  N  N358  1  0.159570  0.530630  0.372120  1.0  -0.3438
  N  N359  1  0.747730  0.756570  0.638710  1.0  -0.3138
  N  N360  1  0.826230  0.863970  0.705460  1.0  -0.3599
  N  N361  1  0.324500  0.910100  0.527960  1.0  -0.3117
  N  N362  1  0.295600  0.802700  0.461210  1.0  -0.351
  N  N363  1  0.991170  0.243430  0.861290  1.0  -0.3117
  N  N364  1  0.962270  0.136030  0.794540  1.0  -0.3505
  N  N365  1  0.657830  0.576770  0.194630  1.0  -0.3118
  N  N366  1  0.628930  0.469370  0.127880  1.0  -0.351
  N  N367  1  0.585600  0.675500  0.527960  1.0  -0.3104
  N  N368  1  0.507100  0.704400  0.461210  1.0  -0.3509
  N  N369  1  0.252270  0.008830  0.861290  1.0  -0.3104
  N  N370  1  0.173770  0.037730  0.794540  1.0  -0.3493
  N  N371  1  0.918930  0.342170  0.194630  1.0  -0.3105
  N  N372  1  0.840430  0.371070  0.127880  1.0  -0.3509
  N  N373  1  0.089900  0.414400  0.527960  1.0  -0.3115
  N  N374  1  0.197300  0.492900  0.461210  1.0  -0.3452
  N  N375  1  0.756570  0.747730  0.861290  1.0  -0.3115
  N  N376  1  0.863970  0.826230  0.794540  1.0  -0.3606
  N  N377  1  0.423230  0.081070  0.194630  1.0  -0.3116
  N  N378  1  0.530630  0.159570  0.127880  1.0  -0.3452
  O  O379  1  0.057910  0.799630  0.054490  1.0  -0.61
  O  O380  1  0.307100  0.904000  0.963990  1.0  -0.5595
  O  O381  1  0.330800  0.197300  0.076380  1.0  -0.6118
  O  O382  1  0.147100  0.892800  0.008410  1.0  -0.4646
  O  O383  1  0.724580  0.132960  0.387820  1.0  -0.6102
  O  O384  1  0.973770  0.237330  0.297320  1.0  -0.5589
  O  O385  1  0.997470  0.530630  0.409710  1.0  -0.6118
  O  O386  1  0.813770  0.226130  0.341740  1.0  -0.4646
  O  O387  1  0.391240  0.466300  0.721160  1.0  -0.6024
  O  O388  1  0.640430  0.570670  0.630660  1.0  -0.5588
  O  O389  1  0.664130  0.863970  0.743050  1.0  -0.6118
  O  O390  1  0.480430  0.559470  0.675080  1.0  -0.4648
  O  O391  1  0.200370  0.258280  0.054490  1.0  -0.5909
  O  O392  1  0.096000  0.403100  0.963990  1.0  -0.5579
  O  O393  1  0.802700  0.133500  0.076380  1.0  -0.6145
  O  O394  1  0.107200  0.254300  0.008410  1.0  -0.4635
  O  O395  1  0.867040  0.591610  0.387820  1.0  -0.5911
  O  O396  1  0.762670  0.736430  0.297320  1.0  -0.5586
  O  O397  1  0.469370  0.466830  0.409710  1.0  -0.6145
  O  O398  1  0.773870  0.587630  0.341740  1.0  -0.4635
  O  O399  1  0.533700  0.924950  0.721160  1.0  -0.6102
  O  O400  1  0.429330  0.069770  0.630660  1.0  -0.5578
  O  O401  1  0.136030  0.800170  0.743050  1.0  -0.6145
  O  O402  1  0.440530  0.920970  0.675080  1.0  -0.4635
  O  O403  1  0.741720  0.942090  0.054490  1.0  -0.5926
  O  O404  1  0.596900  0.692900  0.963990  1.0  -0.5607
  O  O405  1  0.866500  0.669200  0.076380  1.0  -0.6124
  O  O406  1  0.745700  0.852900  0.008410  1.0  -0.4659
  O  O407  1  0.408390  0.275420  0.387820  1.0  -0.5926
  O  O408  1  0.263570  0.026230  0.297320  1.0  -0.5598
  O  O409  1  0.533170  0.002530  0.409710  1.0  -0.6124
  O  O410  1  0.412370  0.186230  0.341740  1.0  -0.4659
  O  O411  1  0.075050  0.608760  0.721160  1.0  -0.6062
  O  O412  1  0.930230  0.359570  0.630660  1.0  -0.5606
  O  O413  1  0.199830  0.335870  0.743050  1.0  -0.6124
  O  O414  1  0.079030  0.519570  0.675080  1.0  -0.466
  O  O415  1  0.799630  0.057910  0.445510  1.0  -0.6072
  O  O416  1  0.904000  0.307100  0.536010  1.0  -0.5586
  O  O417  1  0.197300  0.330800  0.423620  1.0  -0.6134
  O  O418  1  0.892800  0.147100  0.491590  1.0  -0.4677
  O  O419  1  0.466300  0.391240  0.778840  1.0  -0.5994
  O  O420  1  0.570670  0.640430  0.869340  1.0  -0.5579
  O  O421  1  0.863970  0.664130  0.756950  1.0  -0.6134
  O  O422  1  0.559470  0.480430  0.824920  1.0  -0.4677
  O  O423  1  0.132960  0.724580  0.112180  1.0  -0.6074
  O  O424  1  0.237330  0.973770  0.202680  1.0  -0.558
  O  O425  1  0.530630  0.997470  0.090290  1.0  -0.6134
  O  O426  1  0.226130  0.813770  0.158260  1.0  -0.4677
  O  O427  1  0.258280  0.200370  0.445510  1.0  -0.5885
  O  O428  1  0.403100  0.096000  0.536010  1.0  -0.5576
  O  O429  1  0.133500  0.802700  0.423620  1.0  -0.6113
  O  O430  1  0.254300  0.107200  0.491590  1.0  -0.4648
  O  O431  1  0.924950  0.533700  0.778840  1.0  -0.6086
  O  O432  1  0.069770  0.429330  0.869340  1.0  -0.5575
  O  O433  1  0.800170  0.136030  0.756950  1.0  -0.6113
  O  O434  1  0.920970  0.440530  0.824920  1.0  -0.4648
  O  O435  1  0.591610  0.867040  0.112180  1.0  -0.5887
  O  O436  1  0.736430  0.762670  0.202680  1.0  -0.5583
  O  O437  1  0.466830  0.469370  0.090290  1.0  -0.6113
  O  O438  1  0.587630  0.773870  0.158260  1.0  -0.4648
  O  O439  1  0.942090  0.741720  0.445510  1.0  -0.5974
  O  O440  1  0.692900  0.596900  0.536010  1.0  -0.5585
  O  O441  1  0.669200  0.866500  0.423620  1.0  -0.6145
  O  O442  1  0.852900  0.745700  0.491590  1.0  -0.4644
  O  O443  1  0.608760  0.075050  0.778840  1.0  -0.6122
  O  O444  1  0.359570  0.930230  0.869340  1.0  -0.5584
  O  O445  1  0.335870  0.199830  0.756950  1.0  -0.6145
  O  O446  1  0.519570  0.079030  0.824920  1.0  -0.4644
  O  O447  1  0.275420  0.408390  0.112180  1.0  -0.5974
  O  O448  1  0.026230  0.263570  0.202680  1.0  -0.5576
  O  O449  1  0.002530  0.533170  0.090290  1.0  -0.6145
  O  O450  1  0.186230  0.412370  0.158260  1.0  -0.4644
  O  O451  1  0.942090  0.200370  0.945510  1.0  -0.6099
  O  O452  1  0.692900  0.096000  0.036010  1.0  -0.5582
  O  O453  1  0.669200  0.802700  0.923620  1.0  -0.611
  O  O454  1  0.852900  0.107200  0.991590  1.0  -0.4643
  O  O455  1  0.608760  0.533700  0.278840  1.0  -0.6008
  O  O456  1  0.359570  0.429330  0.369340  1.0  -0.5574
  O  O457  1  0.335870  0.136030  0.256950  1.0  -0.611
  O  O458  1  0.519570  0.440530  0.324920  1.0  -0.4645
  O  O459  1  0.275420  0.867040  0.612180  1.0  -0.6101
  O  O460  1  0.026230  0.762670  0.702680  1.0  -0.5575
  O  O461  1  0.002530  0.469370  0.590290  1.0  -0.611
  O  O462  1  0.186230  0.773870  0.658260  1.0  -0.4645
  O  O463  1  0.799630  0.741720  0.945510  1.0  -0.5901
  O  O464  1  0.904000  0.596900  0.036010  1.0  -0.5591
  O  O465  1  0.197300  0.866500  0.923620  1.0  -0.6143
  O  O466  1  0.892800  0.745700  0.991590  1.0  -0.465
  O  O467  1  0.466300  0.075050  0.278840  1.0  -0.6096
  O  O468  1  0.570670  0.930230  0.369340  1.0  -0.559
  O  O469  1  0.863970  0.199830  0.256950  1.0  -0.6143
  O  O470  1  0.559470  0.079030  0.324920  1.0  -0.4649
  O  O471  1  0.132960  0.408390  0.612180  1.0  -0.5903
  O  O472  1  0.237330  0.263570  0.702680  1.0  -0.5598
  O  O473  1  0.530630  0.533170  0.590290  1.0  -0.6143
  O  O474  1  0.226130  0.412370  0.658260  1.0  -0.465
  O  O475  1  0.258280  0.057910  0.945510  1.0  -0.5932
  O  O476  1  0.403100  0.307100  0.036010  1.0  -0.5585
  O  O477  1  0.133500  0.330800  0.923620  1.0  -0.6132
  O  O478  1  0.254300  0.147100  0.991590  1.0  -0.4649
  O  O479  1  0.924950  0.391240  0.278840  1.0  -0.6083
  O  O480  1  0.069770  0.640430  0.369340  1.0  -0.5585
  O  O481  1  0.800170  0.664130  0.256950  1.0  -0.6132
  O  O482  1  0.920970  0.480430  0.324920  1.0  -0.4648
  O  O483  1  0.591610  0.724580  0.612180  1.0  -0.5932
  O  O484  1  0.736430  0.973770  0.702680  1.0  -0.5576
  O  O485  1  0.466830  0.997470  0.590290  1.0  -0.6132
  O  O486  1  0.587630  0.813770  0.658260  1.0  -0.4648
  O  O487  1  0.200370  0.942090  0.554490  1.0  -0.6065
  O  O488  1  0.096000  0.692900  0.463990  1.0  -0.5608
  O  O489  1  0.802700  0.669200  0.576380  1.0  -0.6121
  O  O490  1  0.107200  0.852900  0.508410  1.0  -0.4646
  O  O491  1  0.867040  0.275420  0.887820  1.0  -0.6068
  O  O492  1  0.762670  0.026230  0.797320  1.0  -0.5602
  O  O493  1  0.469370  0.002530  0.909710  1.0  -0.6121
  O  O494  1  0.773870  0.186230  0.841740  1.0  -0.4646
  O  O495  1  0.533700  0.608760  0.221160  1.0  -0.5988
  O  O496  1  0.429330  0.359570  0.130660  1.0  -0.56
  O  O497  1  0.136030  0.335870  0.243050  1.0  -0.6121
  O  O498  1  0.440530  0.519570  0.175080  1.0  -0.4648
  O  O499  1  0.741720  0.799630  0.554490  1.0  -0.5915
  O  O500  1  0.596900  0.904000  0.463990  1.0  -0.5581
  O  O501  1  0.866500  0.197300  0.576380  1.0  -0.6114
  O  O502  1  0.745700  0.892800  0.508410  1.0  -0.4631
  O  O503  1  0.408390  0.132960  0.887820  1.0  -0.5917
  O  O504  1  0.263570  0.237330  0.797320  1.0  -0.5588
  O  O505  1  0.533170  0.530630  0.909710  1.0  -0.6114
  O  O506  1  0.412370  0.226130  0.841740  1.0  -0.4631
  O  O507  1  0.075050  0.466300  0.221160  1.0  -0.6105
  O  O508  1  0.930230  0.570670  0.130660  1.0  -0.5581
  O  O509  1  0.199830  0.863970  0.243050  1.0  -0.6114
  O  O510  1  0.079030  0.559470  0.175080  1.0  -0.4631
  O  O511  1  0.057910  0.258280  0.554490  1.0  -0.5958
  O  O512  1  0.307100  0.403100  0.463990  1.0  -0.5604
  O  O513  1  0.330800  0.133500  0.576380  1.0  -0.6136
  O  O514  1  0.147100  0.254300  0.508410  1.0  -0.4641
  O  O515  1  0.724580  0.591610  0.887820  1.0  -0.5958
  O  O516  1  0.973770  0.736430  0.797320  1.0  -0.5595
  O  O517  1  0.997470  0.466830  0.909710  1.0  -0.6136
  O  O518  1  0.813770  0.587630  0.841740  1.0  -0.4641
  O  O519  1  0.391240  0.924950  0.221160  1.0  -0.6101
  O  O520  1  0.640430  0.069770  0.130660  1.0  -0.5603
  O  O521  1  0.664130  0.800170  0.243050  1.0  -0.6136
  O  O522  1  0.480430  0.920970  0.175080  1.0  -0.4642
