# generated using pymatgen
data_InH4C12(NO2)4
_symmetry_space_group_name_H-M   'P 1'
_cell_length_a   15.03840000
_cell_length_b   15.03840000
_cell_length_c   15.03840000
_cell_angle_alpha   71.97810000
_cell_angle_beta   71.97810000
_cell_angle_gamma   71.97810000
_symmetry_Int_Tables_number   1
_chemical_formula_structural   InH4C12(NO2)4
_chemical_formula_sum   'In6 H24 C72 N24 O48'
_cell_volume   2988.37505745
_cell_formula_units_Z   6
loop_
 _symmetry_equiv_pos_site_id
 _symmetry_equiv_pos_as_xyz
  1  'x, y, z'
loop_
 _atom_site_type_symbol
 _atom_site_label
 _atom_site_symmetry_multiplicity
 _atom_site_fract_x
 _atom_site_fract_y
 _atom_site_fract_z
 _atom_site_occupancy
 _atom_site_charge
  In  In1  1  0.250000  0.590090  0.909910  1.0  1.502
  In  In2  1  0.909910  0.250000  0.590090  1.0  1.4973
  In  In3  1  0.590090  0.909910  0.250000  1.0  1.4973
  In  In4  1  0.750000  0.409910  0.090090  1.0  1.5021
  In  In5  1  0.090090  0.750000  0.409910  1.0  1.4972
  In  In6  1  0.409910  0.090090  0.750000  1.0  1.4966
  H  H7  1  0.608400  0.611700  0.872900  1.0  0.0935
  H  H8  1  0.490800  0.533100  0.898400  1.0  0.1087
  H  H9  1  0.872900  0.608400  0.611700  1.0  0.0958
  H  H10  1  0.898400  0.490800  0.533100  1.0  0.1114
  H  H11  1  0.611700  0.872900  0.608400  1.0  0.0953
  H  H12  1  0.533100  0.898400  0.490800  1.0  0.1105
  H  H13  1  0.888300  0.891600  0.627100  1.0  0.0965
  H  H14  1  0.966900  0.009200  0.601600  1.0  0.1103
  H  H15  1  0.891600  0.627100  0.888300  1.0  0.0947
  H  H16  1  0.009200  0.601600  0.966900  1.0  0.111
  H  H17  1  0.627100  0.888300  0.891600  1.0  0.0961
  H  H18  1  0.601600  0.966900  0.009200  1.0  0.1087
  H  H19  1  0.391600  0.388300  0.127100  1.0  0.0935
  H  H20  1  0.509200  0.466900  0.101600  1.0  0.1087
  H  H21  1  0.127100  0.391600  0.388300  1.0  0.0953
  H  H22  1  0.101600  0.509200  0.466900  1.0  0.1112
  H  H23  1  0.388300  0.127100  0.391600  1.0  0.0964
  H  H24  1  0.466900  0.101600  0.509200  1.0  0.1098
  H  H25  1  0.111700  0.108400  0.372900  1.0  0.0964
  H  H26  1  0.033100  0.990800  0.398400  1.0  0.1106
  H  H27  1  0.108400  0.372900  0.111700  1.0  0.095
  H  H28  1  0.990800  0.398400  0.033100  1.0  0.1119
  H  H29  1  0.372900  0.111700  0.108400  1.0  0.0953
  H  H30  1  0.398400  0.033100  0.990800  1.0  0.1082
  C  C31  1  0.366340  0.745780  0.862050  1.0  0.07
  C  C32  1  0.439450  0.792010  0.842430  1.0  0.206
  C  C33  1  0.546750  0.647750  0.867750  1.0  0.1574
  C  C34  1  0.475610  0.600010  0.884810  1.0  0.1412
  C  C35  1  0.424810  0.900210  0.815410  1.0  0.7173
  C  C36  1  0.263510  0.798250  0.861260  1.0  0.6825
  C  C37  1  0.862050  0.366340  0.745780  1.0  0.0708
  C  C38  1  0.842430  0.439450  0.792010  1.0  0.2067
  C  C39  1  0.867750  0.546750  0.647750  1.0  0.155
  C  C40  1  0.884810  0.475610  0.600010  1.0  0.1443
  C  C41  1  0.815410  0.424810  0.900210  1.0  0.7191
  C  C42  1  0.861260  0.263510  0.798250  1.0  0.6846
  C  C43  1  0.745780  0.862050  0.366340  1.0  0.071
  C  C44  1  0.792010  0.842430  0.439450  1.0  0.206
  C  C45  1  0.647750  0.867750  0.546750  1.0  0.157
  C  C46  1  0.600010  0.884810  0.475610  1.0  0.1445
  C  C47  1  0.900210  0.815410  0.424810  1.0  0.7162
  C  C48  1  0.798250  0.861260  0.263510  1.0  0.6862
  C  C49  1  0.754220  0.133660  0.637950  1.0  0.0706
  C  C50  1  0.707990  0.060550  0.657570  1.0  0.2062
  C  C51  1  0.852250  0.953250  0.632250  1.0  0.1537
  C  C52  1  0.899990  0.024390  0.615190  1.0  0.1446
  C  C53  1  0.599790  0.075190  0.684590  1.0  0.7132
  C  C54  1  0.701750  0.236490  0.638740  1.0  0.6869
  C  C55  1  0.133660  0.637950  0.754220  1.0  0.0715
  C  C56  1  0.060550  0.657570  0.707990  1.0  0.2067
  C  C57  1  0.953250  0.632250  0.852250  1.0  0.1533
  C  C58  1  0.024390  0.615190  0.899990  1.0  0.1439
  C  C59  1  0.075190  0.684590  0.599790  1.0  0.7183
  C  C60  1  0.236490  0.638740  0.701750  1.0  0.6834
  C  C61  1  0.637950  0.754220  0.133660  1.0  0.0702
  C  C62  1  0.657570  0.707990  0.060550  1.0  0.2054
  C  C63  1  0.632250  0.852250  0.953250  1.0  0.1564
  C  C64  1  0.615190  0.899990  0.024390  1.0  0.144
  C  C65  1  0.684590  0.599790  0.075190  1.0  0.7159
  C  C66  1  0.638740  0.701750  0.236490  1.0  0.6859
  C  C67  1  0.633660  0.254220  0.137950  1.0  0.0706
  C  C68  1  0.560550  0.207990  0.157570  1.0  0.205
  C  C69  1  0.453250  0.352250  0.132250  1.0  0.157
  C  C70  1  0.524390  0.399990  0.115190  1.0  0.1421
  C  C71  1  0.575190  0.099790  0.184590  1.0  0.7152
  C  C72  1  0.736490  0.201750  0.138740  1.0  0.6832
  C  C73  1  0.137950  0.633660  0.254220  1.0  0.0708
  C  C74  1  0.157570  0.560550  0.207990  1.0  0.2068
  C  C75  1  0.132250  0.453250  0.352250  1.0  0.1537
  C  C76  1  0.115190  0.524390  0.399990  1.0  0.1435
  C  C77  1  0.184590  0.575190  0.099790  1.0  0.7148
  C  C78  1  0.138740  0.736490  0.201750  1.0  0.6862
  C  C79  1  0.254220  0.137950  0.633660  1.0  0.0709
  C  C80  1  0.207990  0.157570  0.560550  1.0  0.2063
  C  C81  1  0.352250  0.132250  0.453250  1.0  0.1576
  C  C82  1  0.399990  0.115190  0.524390  1.0  0.1449
  C  C83  1  0.099790  0.184590  0.575190  1.0  0.7097
  C  C84  1  0.201750  0.138740  0.736490  1.0  0.6839
  C  C85  1  0.245780  0.866340  0.362050  1.0  0.0708
  C  C86  1  0.292010  0.939450  0.342430  1.0  0.2053
  C  C87  1  0.147750  0.046750  0.367750  1.0  0.154
  C  C88  1  0.100010  0.975610  0.384810  1.0  0.1433
  C  C89  1  0.400210  0.924810  0.315410  1.0  0.7146
  C  C90  1  0.298250  0.763510  0.361260  1.0  0.6857
  C  C91  1  0.866340  0.362050  0.245780  1.0  0.0704
  C  C92  1  0.939450  0.342430  0.292010  1.0  0.2067
  C  C93  1  0.046750  0.367750  0.147750  1.0  0.1547
  C  C94  1  0.975610  0.384810  0.100010  1.0  0.1444
  C  C95  1  0.924810  0.315410  0.400210  1.0  0.7154
  C  C96  1  0.763510  0.361260  0.298250  1.0  0.6824
  C  C97  1  0.362050  0.245780  0.866340  1.0  0.0707
  C  C98  1  0.342430  0.292010  0.939450  1.0  0.2063
  C  C99  1  0.367750  0.147750  0.046750  1.0  0.1567
  C  C100  1  0.384810  0.100010  0.975610  1.0  0.1422
  C  C101  1  0.315410  0.400210  0.924810  1.0  0.715
  C  C102  1  0.361260  0.298250  0.763510  1.0  0.6857
  N  N103  1  0.385810  0.648880  0.881850  1.0  -0.3031
  N  N104  1  0.530270  0.743750  0.844060  1.0  -0.3407
  N  N105  1  0.881850  0.385810  0.648880  1.0  -0.3057
  N  N106  1  0.844060  0.530270  0.743750  1.0  -0.3426
  N  N107  1  0.648880  0.881850  0.385810  1.0  -0.3047
  N  N108  1  0.743750  0.844060  0.530270  1.0  -0.3393
  N  N109  1  0.851120  0.114190  0.618150  1.0  -0.3038
  N  N110  1  0.756250  0.969730  0.655940  1.0  -0.3385
  N  N111  1  0.114190  0.618150  0.851120  1.0  -0.303
  N  N112  1  0.969730  0.655940  0.756250  1.0  -0.3412
  N  N113  1  0.618150  0.851120  0.114190  1.0  -0.3044
  N  N114  1  0.655940  0.756250  0.969730  1.0  -0.3424
  N  N115  1  0.614190  0.351120  0.118150  1.0  -0.3035
  N  N116  1  0.469730  0.256250  0.155940  1.0  -0.3411
  N  N117  1  0.118150  0.614190  0.351120  1.0  -0.306
  N  N118  1  0.155940  0.469730  0.256250  1.0  -0.3407
  N  N119  1  0.351120  0.118150  0.614190  1.0  -0.302
  N  N120  1  0.256250  0.155940  0.469730  1.0  -0.3401
  N  N121  1  0.148880  0.885810  0.381850  1.0  -0.3048
  N  N122  1  0.243750  0.030270  0.344060  1.0  -0.3396
  N  N123  1  0.885810  0.381850  0.148880  1.0  -0.3032
  N  N124  1  0.030270  0.344060  0.243750  1.0  -0.3415
  N  N125  1  0.381850  0.148880  0.885810  1.0  -0.3061
  N  N126  1  0.344060  0.243750  0.030270  1.0  -0.3419
  O  O127  1  0.203440  0.746450  0.884420  1.0  -0.6022
  O  O128  1  0.272090  0.558290  0.058440  1.0  -0.5571
  O  O129  1  0.120270  0.598570  0.055020  1.0  -0.6559
  O  O130  1  0.244680  0.886280  0.838560  1.0  -0.4651
  O  O131  1  0.884420  0.203440  0.746450  1.0  -0.6003
  O  O132  1  0.058440  0.272090  0.558290  1.0  -0.5603
  O  O133  1  0.055020  0.120270  0.598570  1.0  -0.6538
  O  O134  1  0.838560  0.244680  0.886280  1.0  -0.4645
  O  O135  1  0.746450  0.884420  0.203440  1.0  -0.6022
  O  O136  1  0.558290  0.058440  0.272090  1.0  -0.5586
  O  O137  1  0.598570  0.055020  0.120270  1.0  -0.6605
  O  O138  1  0.886280  0.838560  0.244680  1.0  -0.4691
  O  O139  1  0.753550  0.296560  0.615580  1.0  -0.6054
  O  O140  1  0.941710  0.227910  0.441560  1.0  -0.5602
  O  O141  1  0.901430  0.379730  0.444980  1.0  -0.6576
  O  O142  1  0.613720  0.255320  0.661440  1.0  -0.4689
  O  O143  1  0.296560  0.615580  0.753550  1.0  -0.6018
  O  O144  1  0.227910  0.441560  0.941710  1.0  -0.5584
  O  O145  1  0.379730  0.444980  0.901430  1.0  -0.6573
  O  O146  1  0.255320  0.661440  0.613720  1.0  -0.4694
  O  O147  1  0.615580  0.753550  0.296560  1.0  -0.6037
  O  O148  1  0.441560  0.941710  0.227910  1.0  -0.5595
  O  O149  1  0.444980  0.901430  0.379730  1.0  -0.6595
  O  O150  1  0.661440  0.613720  0.255320  1.0  -0.4656
  O  O151  1  0.796560  0.253550  0.115580  1.0  -0.6016
  O  O152  1  0.727910  0.441710  0.941560  1.0  -0.5583
  O  O153  1  0.879730  0.401430  0.944980  1.0  -0.657
  O  O154  1  0.755320  0.113720  0.161440  1.0  -0.4671
  O  O155  1  0.115580  0.796560  0.253550  1.0  -0.6019
  O  O156  1  0.941560  0.727910  0.441710  1.0  -0.5613
  O  O157  1  0.944980  0.879730  0.401430  1.0  -0.6536
  O  O158  1  0.161440  0.755320  0.113720  1.0  -0.4657
  O  O159  1  0.253550  0.115580  0.796560  1.0  -0.6044
  O  O160  1  0.441710  0.941560  0.727910  1.0  -0.559
  O  O161  1  0.401430  0.944980  0.879730  1.0  -0.6603
  O  O162  1  0.113720  0.161440  0.755320  1.0  -0.4678
  O  O163  1  0.246450  0.703440  0.384420  1.0  -0.602
  O  O164  1  0.058290  0.772090  0.558440  1.0  -0.5596
  O  O165  1  0.098570  0.620270  0.555020  1.0  -0.6571
  O  O166  1  0.386280  0.744680  0.338560  1.0  -0.4666
  O  O167  1  0.703440  0.384420  0.246450  1.0  -0.5998
  O  O168  1  0.772090  0.558440  0.058290  1.0  -0.5572
  O  O169  1  0.620270  0.555020  0.098570  1.0  -0.6569
  O  O170  1  0.744680  0.338560  0.386280  1.0  -0.4683
  O  O171  1  0.384420  0.246450  0.703440  1.0  -0.6033
  O  O172  1  0.558440  0.058290  0.772090  1.0  -0.5594
  O  O173  1  0.555020  0.098570  0.620270  1.0  -0.66
  O  O174  1  0.338560  0.386280  0.744680  1.0  -0.4643
