# generated using pymatgen
data_InH4C12(NO2)4
_symmetry_space_group_name_H-M   'P 1'
_cell_length_a   14.97690000
_cell_length_b   14.97690000
_cell_length_c   14.97690000
_cell_angle_alpha   72.57110000
_cell_angle_beta   72.57110000
_cell_angle_gamma   72.57110000
_symmetry_Int_Tables_number   1
_chemical_formula_structural   InH4C12(NO2)4
_chemical_formula_sum   'In6 H24 C72 N24 O48'
_cell_volume   2975.70908969
_cell_formula_units_Z   6
loop_
 _symmetry_equiv_pos_site_id
 _symmetry_equiv_pos_as_xyz
  1  'x, y, z'
loop_
 _atom_site_type_symbol
 _atom_site_label
 _atom_site_symmetry_multiplicity
 _atom_site_fract_x
 _atom_site_fract_y
 _atom_site_fract_z
 _atom_site_occupancy
 _atom_site_charge
  In  In1  1  0.587660  0.250000  0.912340  1.0  1.4986
  In  In2  1  0.912340  0.587660  0.250000  1.0  1.5002
  In  In3  1  0.250000  0.912340  0.587660  1.0  1.504
  In  In4  1  0.412340  0.750000  0.087660  1.0  1.4991
  In  In5  1  0.087660  0.412340  0.750000  1.0  1.4994
  In  In6  1  0.750000  0.087660  0.412340  1.0  1.5039
  H  H7  1  0.531900  0.493800  0.893300  1.0  0.1027
  H  H8  1  0.610700  0.610300  0.866600  1.0  0.0852
  H  H9  1  0.893300  0.531900  0.493800  1.0  0.1015
  H  H10  1  0.866600  0.610700  0.610300  1.0  0.0828
  H  H11  1  0.493800  0.893300  0.531900  1.0  0.1033
  H  H12  1  0.610300  0.866600  0.610700  1.0  0.0836
  H  H13  1  0.006200  0.968100  0.606700  1.0  0.1024
  H  H14  1  0.889700  0.889300  0.633400  1.0  0.0824
  H  H15  1  0.968100  0.606700  0.006200  1.0  0.1015
  H  H16  1  0.889300  0.633400  0.889700  1.0  0.0843
  H  H17  1  0.606700  0.006200  0.968100  1.0  0.103
  H  H18  1  0.633400  0.889700  0.889300  1.0  0.0834
  H  H19  1  0.468100  0.506200  0.106700  1.0  0.1017
  H  H20  1  0.389300  0.389700  0.133400  1.0  0.0856
  H  H21  1  0.106700  0.468100  0.506200  1.0  0.102
  H  H22  1  0.133400  0.389300  0.389700  1.0  0.0839
  H  H23  1  0.506200  0.106700  0.468100  1.0  0.1025
  H  H24  1  0.389700  0.133400  0.389300  1.0  0.0829
  H  H25  1  0.993800  0.031900  0.393300  1.0  0.1018
  H  H26  1  0.110300  0.110700  0.366600  1.0  0.0828
  H  H27  1  0.031900  0.393300  0.993800  1.0  0.103
  H  H28  1  0.110700  0.366600  0.110300  1.0  0.0829
  H  H29  1  0.393300  0.993800  0.031900  1.0  0.1034
  H  H30  1  0.366600  0.110300  0.110700  1.0  0.0837
  C  C31  1  0.789170  0.442070  0.841570  1.0  0.1925
  C  C32  1  0.795080  0.265180  0.865880  1.0  0.6754
  C  C33  1  0.742560  0.368560  0.863560  1.0  0.0862
  C  C34  1  0.598700  0.478000  0.881300  1.0  0.1144
  C  C35  1  0.646600  0.548300  0.863000  1.0  0.1538
  C  C36  1  0.899000  0.428100  0.812100  1.0  0.7004
  C  C37  1  0.841570  0.789170  0.442070  1.0  0.1921
  C  C38  1  0.865880  0.795080  0.265180  1.0  0.6738
  C  C39  1  0.863560  0.742560  0.368560  1.0  0.0873
  C  C40  1  0.881300  0.598700  0.478000  1.0  0.1143
  C  C41  1  0.863000  0.646600  0.548300  1.0  0.1565
  C  C42  1  0.812100  0.899000  0.428100  1.0  0.701
  C  C43  1  0.442070  0.841570  0.789170  1.0  0.1929
  C  C44  1  0.265180  0.865880  0.795080  1.0  0.6734
  C  C45  1  0.368560  0.863560  0.742560  1.0  0.0861
  C  C46  1  0.478000  0.881300  0.598700  1.0  0.1131
  C  C47  1  0.548300  0.863000  0.646600  1.0  0.1554
  C  C48  1  0.428100  0.812100  0.899000  1.0  0.7022
  C  C49  1  0.057930  0.710830  0.658430  1.0  0.1924
  C  C50  1  0.234820  0.704920  0.634120  1.0  0.6737
  C  C51  1  0.131440  0.757440  0.636440  1.0  0.0866
  C  C52  1  0.022000  0.901300  0.618700  1.0  0.1113
  C  C53  1  0.951700  0.853400  0.637000  1.0  0.1557
  C  C54  1  0.071900  0.601000  0.687900  1.0  0.7028
  C  C55  1  0.710830  0.658430  0.057930  1.0  0.1929
  C  C56  1  0.704920  0.634120  0.234820  1.0  0.6762
  C  C57  1  0.757440  0.636440  0.131440  1.0  0.086
  C  C58  1  0.901300  0.618700  0.022000  1.0  0.114
  C  C59  1  0.853400  0.637000  0.951700  1.0  0.1564
  C  C60  1  0.601000  0.687900  0.071900  1.0  0.6986
  C  C61  1  0.658430  0.057930  0.710830  1.0  0.193
  C  C62  1  0.634120  0.234820  0.704920  1.0  0.6748
  C  C63  1  0.636440  0.131440  0.757440  1.0  0.0863
  C  C64  1  0.618700  0.022000  0.901300  1.0  0.1127
  C  C65  1  0.637000  0.951700  0.853400  1.0  0.1521
  C  C66  1  0.687900  0.071900  0.601000  1.0  0.702
  C  C67  1  0.210830  0.557930  0.158430  1.0  0.1931
  C  C68  1  0.204920  0.734820  0.134120  1.0  0.675
  C  C69  1  0.257440  0.631440  0.136440  1.0  0.0861
  C  C70  1  0.401300  0.522000  0.118700  1.0  0.1151
  C  C71  1  0.353400  0.451700  0.137000  1.0  0.1537
  C  C72  1  0.101000  0.571900  0.187900  1.0  0.6989
  C  C73  1  0.158430  0.210830  0.557930  1.0  0.192
  C  C74  1  0.134120  0.204920  0.734820  1.0  0.6772
  C  C75  1  0.136440  0.257440  0.631440  1.0  0.0872
  C  C76  1  0.118700  0.401300  0.522000  1.0  0.1131
  C  C77  1  0.137000  0.353400  0.451700  1.0  0.1562
  C  C78  1  0.187900  0.101000  0.571900  1.0  0.7011
  C  C79  1  0.557930  0.158430  0.210830  1.0  0.1931
  C  C80  1  0.734820  0.134120  0.204920  1.0  0.6744
  C  C81  1  0.631440  0.136440  0.257440  1.0  0.0866
  C  C82  1  0.522000  0.118700  0.401300  1.0  0.1135
  C  C83  1  0.451700  0.137000  0.353400  1.0  0.1549
  C  C84  1  0.571900  0.187900  0.101000  1.0  0.7032
  C  C85  1  0.942070  0.289170  0.341570  1.0  0.1921
  C  C86  1  0.765180  0.295080  0.365880  1.0  0.6729
  C  C87  1  0.868560  0.242560  0.363560  1.0  0.0863
  C  C88  1  0.978000  0.098700  0.381300  1.0  0.1118
  C  C89  1  0.048300  0.146600  0.363000  1.0  0.156
  C  C90  1  0.928100  0.399000  0.312100  1.0  0.7017
  C  C91  1  0.289170  0.341570  0.942070  1.0  0.1929
  C  C92  1  0.295080  0.365880  0.765180  1.0  0.6759
  C  C93  1  0.242560  0.363560  0.868560  1.0  0.0861
  C  C94  1  0.098700  0.381300  0.978000  1.0  0.113
  C  C95  1  0.146600  0.363000  0.048300  1.0  0.157
  C  C96  1  0.399000  0.312100  0.928100  1.0  0.7003
  C  C97  1  0.341570  0.942070  0.289170  1.0  0.193
  C  C98  1  0.365880  0.765180  0.295080  1.0  0.6762
  C  C99  1  0.363560  0.868560  0.242560  1.0  0.0862
  C  C100  1  0.381300  0.978000  0.098700  1.0  0.1135
  C  C101  1  0.363000  0.048300  0.146600  1.0  0.154
  C  C102  1  0.312100  0.928100  0.399000  1.0  0.7016
  N  N103  1  0.646040  0.387140  0.882340  1.0  -0.296
  N  N104  1  0.740810  0.532810  0.840410  1.0  -0.3552
  N  N105  1  0.882340  0.646040  0.387140  1.0  -0.2956
  N  N106  1  0.840410  0.740810  0.532810  1.0  -0.3532
  N  N107  1  0.387140  0.882340  0.646040  1.0  -0.2939
  N  N108  1  0.532810  0.840410  0.740810  1.0  -0.3542
  N  N109  1  0.112860  0.853960  0.617660  1.0  -0.2945
  N  N110  1  0.967190  0.759190  0.659590  1.0  -0.3551
  N  N111  1  0.853960  0.617660  0.112860  1.0  -0.2914
  N  N112  1  0.759190  0.659590  0.967190  1.0  -0.3508
  N  N113  1  0.617660  0.112860  0.853960  1.0  -0.2952
  N  N114  1  0.659590  0.967190  0.759190  1.0  -0.3545
  N  N115  1  0.353960  0.612860  0.117660  1.0  -0.2955
  N  N116  1  0.259190  0.467190  0.159590  1.0  -0.3532
  N  N117  1  0.117660  0.353960  0.612860  1.0  -0.2933
  N  N118  1  0.159590  0.259190  0.467190  1.0  -0.3536
  N  N119  1  0.612860  0.117660  0.353960  1.0  -0.2934
  N  N120  1  0.467190  0.159590  0.259190  1.0  -0.3539
  N  N121  1  0.887140  0.146040  0.382340  1.0  -0.2937
  N  N122  1  0.032810  0.240810  0.340410  1.0  -0.3553
  N  N123  1  0.146040  0.382340  0.887140  1.0  -0.2939
  N  N124  1  0.240810  0.340410  0.032810  1.0  -0.3514
  N  N125  1  0.382340  0.887140  0.146040  1.0  -0.2956
  N  N126  1  0.340410  0.032810  0.240810  1.0  -0.3554
  O  O127  1  0.742600  0.204600  0.889600  1.0  -0.5871
  O  O128  1  0.883430  0.247730  0.843430  1.0  -0.4729
  O  O129  1  0.940020  0.440320  0.726820  1.0  -0.5324
  O  O130  1  0.121480  0.058480  0.591380  1.0  -0.6166
  O  O131  1  0.889600  0.742600  0.204600  1.0  -0.5897
  O  O132  1  0.843430  0.883430  0.247730  1.0  -0.4718
  O  O133  1  0.726820  0.940020  0.440320  1.0  -0.532
  O  O134  1  0.591380  0.121480  0.058480  1.0  -0.6168
  O  O135  1  0.204600  0.889600  0.742600  1.0  -0.5865
  O  O136  1  0.247730  0.843430  0.883430  1.0  -0.4764
  O  O137  1  0.440320  0.726820  0.940020  1.0  -0.5331
  O  O138  1  0.058480  0.591380  0.121480  1.0  -0.622
  O  O139  1  0.295400  0.757400  0.610400  1.0  -0.5863
  O  O140  1  0.252270  0.616570  0.656570  1.0  -0.4735
  O  O141  1  0.059680  0.559980  0.773180  1.0  -0.5309
  O  O142  1  0.441520  0.378520  0.908620  1.0  -0.6155
  O  O143  1  0.757400  0.610400  0.295400  1.0  -0.5878
  O  O144  1  0.616570  0.656570  0.252270  1.0  -0.474
  O  O145  1  0.559980  0.773180  0.059680  1.0  -0.5323
  O  O146  1  0.378520  0.908620  0.441520  1.0  -0.6167
  O  O147  1  0.610400  0.295400  0.757400  1.0  -0.5878
  O  O148  1  0.656570  0.252270  0.616570  1.0  -0.4731
  O  O149  1  0.773180  0.059680  0.559980  1.0  -0.5325
  O  O150  1  0.908620  0.441520  0.378520  1.0  -0.6207
  O  O151  1  0.257400  0.795400  0.110400  1.0  -0.5903
  O  O152  1  0.116570  0.752270  0.156570  1.0  -0.4745
  O  O153  1  0.059980  0.559680  0.273180  1.0  -0.5308
  O  O154  1  0.878520  0.941520  0.408620  1.0  -0.6173
  O  O155  1  0.110400  0.257400  0.795400  1.0  -0.5879
  O  O156  1  0.156570  0.116570  0.752270  1.0  -0.473
  O  O157  1  0.273180  0.059980  0.559680  1.0  -0.5313
  O  O158  1  0.408620  0.878520  0.941520  1.0  -0.6177
  O  O159  1  0.795400  0.110400  0.257400  1.0  -0.5877
  O  O160  1  0.752270  0.156570  0.116570  1.0  -0.4757
  O  O161  1  0.559680  0.273180  0.059980  1.0  -0.5323
  O  O162  1  0.941520  0.408620  0.878520  1.0  -0.6217
  O  O163  1  0.704600  0.242600  0.389600  1.0  -0.5872
  O  O164  1  0.747730  0.383430  0.343430  1.0  -0.4723
  O  O165  1  0.940320  0.440020  0.226820  1.0  -0.5331
  O  O166  1  0.558480  0.621480  0.091380  1.0  -0.6148
  O  O167  1  0.242600  0.389600  0.704600  1.0  -0.5879
  O  O168  1  0.383430  0.343430  0.747730  1.0  -0.4752
  O  O169  1  0.440020  0.226820  0.940320  1.0  -0.5339
  O  O170  1  0.621480  0.091380  0.558480  1.0  -0.6167
  O  O171  1  0.389600  0.704600  0.242600  1.0  -0.5879
  O  O172  1  0.343430  0.747730  0.383430  1.0  -0.4724
  O  O173  1  0.226820  0.940320  0.440020  1.0  -0.532
  O  O174  1  0.091380  0.558480  0.621480  1.0  -0.6207
