# generated using pymatgen
data_Zn2SiH16(C7O2)4
_symmetry_space_group_name_H-M   'P 1'
_cell_length_a   12.48680000
_cell_length_b   13.02550000
_cell_length_c   23.75550000
_cell_angle_alpha   90.00000000
_cell_angle_beta   90.00000000
_cell_angle_gamma   90.00000000
_symmetry_Int_Tables_number   1
_chemical_formula_structural   Zn2SiH16(C7O2)4
_chemical_formula_sum   'Zn8 Si4 H64 C112 O32'
_cell_volume   3863.75637572
_cell_formula_units_Z   4
loop_
 _symmetry_equiv_pos_site_id
 _symmetry_equiv_pos_as_xyz
  1  'x, y, z'
loop_
 _atom_site_type_symbol
 _atom_site_label
 _atom_site_symmetry_multiplicity
 _atom_site_fract_x
 _atom_site_fract_y
 _atom_site_fract_z
 _atom_site_occupancy
 _atom_site_charge
  Zn  Zn1  1  0.240700  0.750000  0.750000  1.0  1.025
  Zn  Zn2  1  0.259300  0.250000  0.750000  1.0  1.0254
  Zn  Zn3  1  0.759300  0.250000  0.250000  1.0  1.0255
  Zn  Zn4  1  0.740700  0.750000  0.250000  1.0  1.0251
  Zn  Zn5  1  0.750000  0.000000  0.298520  1.0  1.0593
  Zn  Zn6  1  0.750000  0.500000  0.201480  1.0  1.0594
  Zn  Zn7  1  0.250000  0.000000  0.701480  1.0  1.0608
  Zn  Zn8  1  0.250000  0.500000  0.798520  1.0  1.0608
  Si  Si9  1  0.750000  0.500000  0.538420  1.0  0.9491
  Si  Si10  1  0.750000  0.000000  0.961580  1.0  0.9485
  Si  Si11  1  0.250000  0.500000  0.461580  1.0  0.9485
  Si  Si12  1  0.250000  0.000000  0.038420  1.0  0.9491
  H  H13  1  0.613500  0.310100  0.526000  1.0  0.1014
  H  H14  1  0.605900  0.176900  0.460800  1.0  0.1136
  H  H15  1  0.856600  0.300000  0.375800  1.0  0.1155
  H  H16  1  0.865800  0.431200  0.442300  1.0  0.0904
  H  H17  1  0.633000  0.377500  0.623000  1.0  0.1042
  H  H18  1  0.499900  0.408900  0.689100  1.0  0.1147
  H  H19  1  0.467700  0.698000  0.629700  1.0  0.1026
  H  H20  1  0.600300  0.666300  0.563100  1.0  0.1027
  H  H21  1  0.886500  0.689900  0.526000  1.0  0.1012
  H  H22  1  0.894100  0.823100  0.460800  1.0  0.1142
  H  H23  1  0.643400  0.700000  0.375800  1.0  0.1156
  H  H24  1  0.634200  0.568800  0.442300  1.0  0.0906
  H  H25  1  0.867000  0.622500  0.623000  1.0  0.1047
  H  H26  1  0.000100  0.591100  0.689100  1.0  0.1146
  H  H27  1  0.032300  0.302000  0.629700  1.0  0.1021
  H  H28  1  0.899700  0.333700  0.563100  1.0  0.1037
  H  H29  1  0.886500  0.810100  0.974000  1.0  0.1005
  H  H30  1  0.894100  0.676900  0.039200  1.0  0.1144
  H  H31  1  0.643400  0.800000  0.124200  1.0  0.1162
  H  H32  1  0.634200  0.931200  0.057700  1.0  0.0905
  H  H33  1  0.867000  0.877500  0.877000  1.0  0.1041
  H  H34  1  0.000100  0.908900  0.810900  1.0  0.1145
  H  H35  1  0.032300  0.198000  0.870300  1.0  0.1025
  H  H36  1  0.899700  0.166300  0.936900  1.0  0.1025
  H  H37  1  0.613500  0.189900  0.974000  1.0  0.1005
  H  H38  1  0.605900  0.323100  0.039200  1.0  0.1151
  H  H39  1  0.856600  0.200000  0.124200  1.0  0.1158
  H  H40  1  0.865800  0.068800  0.057700  1.0  0.0908
  H  H41  1  0.633000  0.122500  0.877000  1.0  0.1044
  H  H42  1  0.499900  0.091100  0.810900  1.0  0.1146
  H  H43  1  0.467700  0.802000  0.870300  1.0  0.1022
  H  H44  1  0.600300  0.833700  0.936900  1.0  0.1032
  H  H45  1  0.386500  0.689900  0.474000  1.0  0.1004
  H  H46  1  0.394100  0.823100  0.539200  1.0  0.1146
  H  H47  1  0.143400  0.700000  0.624200  1.0  0.1165
  H  H48  1  0.134200  0.568800  0.557700  1.0  0.0905
  H  H49  1  0.367000  0.622500  0.377000  1.0  0.1048
  H  H50  1  0.500100  0.591100  0.310900  1.0  0.1139
  H  H51  1  0.532300  0.302000  0.370300  1.0  0.102
  H  H52  1  0.399700  0.333700  0.436900  1.0  0.1022
  H  H53  1  0.113500  0.310100  0.474000  1.0  0.1005
  H  H54  1  0.105900  0.176900  0.539200  1.0  0.1138
  H  H55  1  0.356600  0.300000  0.624200  1.0  0.1165
  H  H56  1  0.365800  0.431200  0.557700  1.0  0.0904
  H  H57  1  0.133000  0.377500  0.377000  1.0  0.1042
  H  H58  1  0.999900  0.408900  0.310900  1.0  0.1152
  H  H59  1  0.967700  0.698000  0.370300  1.0  0.1028
  H  H60  1  0.100300  0.666300  0.436900  1.0  0.103
  H  H61  1  0.113500  0.189900  0.026000  1.0  0.1013
  H  H62  1  0.105900  0.323100  0.960800  1.0  0.115
  H  H63  1  0.356600  0.200000  0.875800  1.0  0.1162
  H  H64  1  0.365800  0.068800  0.942300  1.0  0.091
  H  H65  1  0.133000  0.122500  0.123000  1.0  0.1043
  H  H66  1  0.999900  0.091100  0.189100  1.0  0.1141
  H  H67  1  0.967700  0.802000  0.129700  1.0  0.1023
  H  H68  1  0.100300  0.833700  0.063100  1.0  0.1034
  H  H69  1  0.386500  0.810100  0.026000  1.0  0.1014
  H  H70  1  0.394100  0.676900  0.960800  1.0  0.114
  H  H71  1  0.143400  0.800000  0.875800  1.0  0.1159
  H  H72  1  0.134200  0.931200  0.942300  1.0  0.0905
  H  H73  1  0.367000  0.877500  0.123000  1.0  0.104
  H  H74  1  0.500100  0.908900  0.189100  1.0  0.1151
  H  H75  1  0.532300  0.198000  0.129700  1.0  0.1022
  H  H76  1  0.399700  0.166300  0.063100  1.0  0.1035
  C  C77  1  0.739000  0.386400  0.490500  1.0  -0.3153
  C  C78  1  0.662800  0.308700  0.495490  1.0  -0.0427
  C  C79  1  0.657900  0.229600  0.456600  1.0  -0.0683
  C  C80  1  0.729100  0.226800  0.411290  1.0  -0.1161
  C  C81  1  0.807000  0.302000  0.406090  1.0  -0.0754
  C  C82  1  0.811700  0.380300  0.445680  1.0  -0.0345
  C  C83  1  0.719100  0.144400  0.368120  1.0  0.653
  C  C84  1  0.632400  0.518800  0.586060  1.0  -0.3485
  C  C85  1  0.599900  0.443100  0.624220  1.0  -0.0463
  C  C86  1  0.520700  0.461700  0.663660  1.0  -0.0292
  C  C87  1  0.471300  0.557100  0.666180  1.0  -0.1198
  C  C88  1  0.501500  0.632700  0.628500  1.0  -0.0373
  C  C89  1  0.580800  0.613700  0.588860  1.0  -0.0296
  C  C90  1  0.386200  0.577900  0.709550  1.0  0.7246
  C  C91  1  0.761000  0.613600  0.490500  1.0  -0.315
  C  C92  1  0.837200  0.691300  0.495490  1.0  -0.0442
  C  C93  1  0.842100  0.770400  0.456600  1.0  -0.0694
  C  C94  1  0.770900  0.773200  0.411290  1.0  -0.1141
  C  C95  1  0.693000  0.698000  0.406090  1.0  -0.0755
  C  C96  1  0.688300  0.619700  0.445680  1.0  -0.0339
  C  C97  1  0.780900  0.855600  0.368120  1.0  0.6534
  C  C98  1  0.867600  0.481200  0.586060  1.0  -0.3491
  C  C99  1  0.900100  0.556900  0.624220  1.0  -0.0472
  C  C100  1  0.979300  0.538300  0.663660  1.0  -0.0283
  C  C101  1  0.028700  0.442900  0.666180  1.0  -0.119
  C  C102  1  0.998500  0.367300  0.628500  1.0  -0.0377
  C  C103  1  0.919200  0.386300  0.588860  1.0  -0.0281
  C  C104  1  0.113800  0.422100  0.709550  1.0  0.7219
  C  C105  1  0.761000  0.886400  0.009500  1.0  -0.3144
  C  C106  1  0.837200  0.808700  0.004510  1.0  -0.0443
  C  C107  1  0.842100  0.729600  0.043400  1.0  -0.0721
  C  C108  1  0.770900  0.726800  0.088710  1.0  -0.1168
  C  C109  1  0.693000  0.802000  0.093910  1.0  -0.0751
  C  C110  1  0.688300  0.880300  0.054320  1.0  -0.0334
  C  C111  1  0.780900  0.644400  0.131880  1.0  0.6527
  C  C112  1  0.867600  0.018800  0.913940  1.0  -0.3497
  C  C113  1  0.900100  0.943100  0.875780  1.0  -0.0454
  C  C114  1  0.979300  0.961700  0.836340  1.0  -0.0273
  C  C115  1  0.028700  0.057100  0.833820  1.0  -0.1191
  C  C116  1  0.998500  0.132700  0.871500  1.0  -0.0385
  C  C117  1  0.919200  0.113700  0.911140  1.0  -0.0297
  C  C118  1  0.113800  0.077900  0.790450  1.0  0.7241
  C  C119  1  0.739000  0.113600  0.009500  1.0  -0.3152
  C  C120  1  0.662800  0.191300  0.004510  1.0  -0.0429
  C  C121  1  0.657900  0.270400  0.043400  1.0  -0.07
  C  C122  1  0.729100  0.273200  0.088710  1.0  -0.1146
  C  C123  1  0.807000  0.198000  0.093910  1.0  -0.0747
  C  C124  1  0.811700  0.119700  0.054320  1.0  -0.0344
  C  C125  1  0.719100  0.355600  0.131880  1.0  0.6525
  C  C126  1  0.632400  0.981200  0.913940  1.0  -0.348
  C  C127  1  0.599900  0.056900  0.875780  1.0  -0.0467
  C  C128  1  0.520700  0.038300  0.836340  1.0  -0.028
  C  C129  1  0.471300  0.942900  0.833820  1.0  -0.1192
  C  C130  1  0.501500  0.867300  0.871500  1.0  -0.0374
  C  C131  1  0.580800  0.886300  0.911140  1.0  -0.0281
  C  C132  1  0.386200  0.922100  0.790450  1.0  0.7245
  C  C133  1  0.261000  0.613600  0.509500  1.0  -0.315
  C  C134  1  0.337200  0.691300  0.504510  1.0  -0.0438
  C  C135  1  0.342100  0.770400  0.543400  1.0  -0.0695
  C  C136  1  0.270900  0.773200  0.588710  1.0  -0.1143
  C  C137  1  0.193000  0.698000  0.593910  1.0  -0.0751
  C  C138  1  0.188300  0.619700  0.554320  1.0  -0.0336
  C  C139  1  0.280900  0.855600  0.631880  1.0  0.6524
  C  C140  1  0.367600  0.481200  0.413940  1.0  -0.3494
  C  C141  1  0.400100  0.556900  0.375780  1.0  -0.0451
  C  C142  1  0.479300  0.538300  0.336340  1.0  -0.0275
  C  C143  1  0.528700  0.442900  0.333820  1.0  -0.1197
  C  C144  1  0.498500  0.367300  0.371500  1.0  -0.0383
  C  C145  1  0.419200  0.386300  0.411140  1.0  -0.0282
  C  C146  1  0.613800  0.422100  0.290450  1.0  0.7238
  C  C147  1  0.239000  0.386400  0.509500  1.0  -0.3146
  C  C148  1  0.162800  0.308700  0.504510  1.0  -0.0426
  C  C149  1  0.157900  0.229600  0.543400  1.0  -0.0681
  C  C150  1  0.229100  0.226800  0.588710  1.0  -0.1161
  C  C151  1  0.307000  0.302000  0.593910  1.0  -0.0748
  C  C152  1  0.311700  0.380300  0.554320  1.0  -0.0345
  C  C153  1  0.219100  0.144400  0.631880  1.0  0.6527
  C  C154  1  0.132400  0.518800  0.413940  1.0  -0.3483
  C  C155  1  0.099900  0.443100  0.375780  1.0  -0.0466
  C  C156  1  0.020700  0.461700  0.336340  1.0  -0.0285
  C  C157  1  0.971300  0.557100  0.333820  1.0  -0.1184
  C  C158  1  0.001500  0.632700  0.371500  1.0  -0.0379
  C  C159  1  0.080800  0.613700  0.411140  1.0  -0.0295
  C  C160  1  0.886200  0.577900  0.290450  1.0  0.7247
  C  C161  1  0.239000  0.113600  0.990500  1.0  -0.3152
  C  C162  1  0.162800  0.191300  0.995490  1.0  -0.044
  C  C163  1  0.157900  0.270400  0.956600  1.0  -0.0708
  C  C164  1  0.229100  0.273200  0.911290  1.0  -0.1144
  C  C165  1  0.307000  0.198000  0.906090  1.0  -0.0748
  C  C166  1  0.311700  0.119700  0.945680  1.0  -0.0345
  C  C167  1  0.219100  0.355600  0.868120  1.0  0.6535
  C  C168  1  0.132400  0.981200  0.086060  1.0  -0.3484
  C  C169  1  0.099900  0.056900  0.124220  1.0  -0.0475
  C  C170  1  0.020700  0.038300  0.163660  1.0  -0.0284
  C  C171  1  0.971300  0.942900  0.166180  1.0  -0.1197
  C  C172  1  0.001500  0.867300  0.128500  1.0  -0.0368
  C  C173  1  0.080800  0.886300  0.088860  1.0  -0.0281
  C  C174  1  0.886200  0.922100  0.209550  1.0  0.7245
  C  C175  1  0.261000  0.886400  0.990500  1.0  -0.3151
  C  C176  1  0.337200  0.808700  0.995490  1.0  -0.0438
  C  C177  1  0.342100  0.729600  0.956600  1.0  -0.0723
  C  C178  1  0.270900  0.726800  0.911290  1.0  -0.1167
  C  C179  1  0.193000  0.802000  0.906090  1.0  -0.0758
  C  C180  1  0.188300  0.880300  0.945680  1.0  -0.0337
  C  C181  1  0.280900  0.644400  0.868120  1.0  0.653
  C  C182  1  0.367600  0.018800  0.086060  1.0  -0.3493
  C  C183  1  0.400100  0.943100  0.124220  1.0  -0.046
  C  C184  1  0.479300  0.961700  0.163660  1.0  -0.028
  C  C185  1  0.528700  0.057100  0.166180  1.0  -0.1193
  C  C186  1  0.498500  0.132700  0.128500  1.0  -0.0379
  C  C187  1  0.419200  0.113700  0.088860  1.0  -0.0298
  C  C188  1  0.613800  0.077900  0.209550  1.0  0.722
  O  O189  1  0.777800  0.149390  0.323410  1.0  -0.6463
  O  O190  1  0.657700  0.070300  0.375670  1.0  -0.6012
  O  O191  1  0.338910  0.662920  0.706850  1.0  -0.6372
  O  O192  1  0.370300  0.508610  0.745180  1.0  -0.5924
  O  O193  1  0.722200  0.850610  0.323410  1.0  -0.6453
  O  O194  1  0.842300  0.929700  0.375670  1.0  -0.6027
  O  O195  1  0.161090  0.337080  0.706850  1.0  -0.6359
  O  O196  1  0.129700  0.491390  0.745180  1.0  -0.5919
  O  O197  1  0.722200  0.649390  0.176590  1.0  -0.6454
  O  O198  1  0.842300  0.570300  0.124330  1.0  -0.6033
  O  O199  1  0.161090  0.162920  0.793150  1.0  -0.6364
  O  O200  1  0.129700  0.008610  0.754820  1.0  -0.5938
  O  O201  1  0.777800  0.350610  0.176590  1.0  -0.6462
  O  O202  1  0.657700  0.429700  0.124330  1.0  -0.602
  O  O203  1  0.338910  0.837080  0.793150  1.0  -0.6366
  O  O204  1  0.370300  0.991390  0.754820  1.0  -0.5931
  O  O205  1  0.222200  0.850610  0.676590  1.0  -0.6455
  O  O206  1  0.342300  0.929700  0.624330  1.0  -0.6022
  O  O207  1  0.661090  0.337080  0.293150  1.0  -0.6358
  O  O208  1  0.629700  0.491390  0.254820  1.0  -0.5939
  O  O209  1  0.277800  0.149390  0.676590  1.0  -0.6459
  O  O210  1  0.157700  0.070300  0.624330  1.0  -0.6024
  O  O211  1  0.838910  0.662920  0.293150  1.0  -0.637
  O  O212  1  0.870300  0.508610  0.254820  1.0  -0.5932
  O  O213  1  0.277800  0.350610  0.823410  1.0  -0.6463
  O  O214  1  0.157700  0.429700  0.875670  1.0  -0.602
  O  O215  1  0.838910  0.837080  0.206850  1.0  -0.6367
  O  O216  1  0.870300  0.991390  0.245180  1.0  -0.5927
  O  O217  1  0.222200  0.649390  0.823410  1.0  -0.6455
  O  O218  1  0.342300  0.570300  0.875670  1.0  -0.6028
  O  O219  1  0.661090  0.162920  0.206850  1.0  -0.637
  O  O220  1  0.629700  0.008610  0.245180  1.0  -0.5915
