# generated using pymatgen
data_ZnPHO4
_symmetry_space_group_name_H-M   'P 1'
_cell_length_a   10.47870000
_cell_length_b   20.00910000
_cell_length_c   14.95940000
_cell_angle_alpha   90.00000000
_cell_angle_beta   90.00000000
_cell_angle_gamma   90.00000000
_symmetry_Int_Tables_number   1
_chemical_formula_structural   ZnPHO4
_chemical_formula_sum   'Zn24 P24 H24 O96'
_cell_volume   3136.52776669
_cell_formula_units_Z   24
loop_
 _symmetry_equiv_pos_site_id
 _symmetry_equiv_pos_as_xyz
  1  'x, y, z'
loop_
 _atom_site_type_symbol
 _atom_site_label
 _atom_site_symmetry_multiplicity
 _atom_site_fract_x
 _atom_site_fract_y
 _atom_site_fract_z
 _atom_site_occupancy
 _atom_site_charge
  Zn  Zn1  1  0.073520  0.756280  0.386580  1.0  1.0903
  Zn  Zn2  1  0.905680  0.588930  0.434160  1.0  1.0021
  Zn  Zn3  1  0.367400  0.083860  0.982100  1.0  0.8579
  Zn  Zn4  1  0.426480  0.743720  0.886580  1.0  1.0904
  Zn  Zn5  1  0.594320  0.911070  0.934160  1.0  1.0028
  Zn  Zn6  1  0.132600  0.416140  0.482100  1.0  0.8582
  Zn  Zn7  1  0.926480  0.756280  0.113420  1.0  1.0908
  Zn  Zn8  1  0.094320  0.588930  0.065840  1.0  0.9973
  Zn  Zn9  1  0.632600  0.083860  0.517900  1.0  0.8457
  Zn  Zn10  1  0.573520  0.743720  0.613420  1.0  1.0901
  Zn  Zn11  1  0.405680  0.911070  0.565840  1.0  0.9967
  Zn  Zn12  1  0.867400  0.416140  0.017900  1.0  0.8455
  Zn  Zn13  1  0.926480  0.243720  0.613420  1.0  1.0904
  Zn  Zn14  1  0.094320  0.411070  0.565840  1.0  0.9971
  Zn  Zn15  1  0.632600  0.916140  0.017900  1.0  0.8464
  Zn  Zn16  1  0.573520  0.256280  0.113420  1.0  1.0904
  Zn  Zn17  1  0.405680  0.088930  0.065840  1.0  0.9958
  Zn  Zn18  1  0.867400  0.583860  0.517900  1.0  0.8449
  Zn  Zn19  1  0.073520  0.243720  0.886580  1.0  1.09
  Zn  Zn20  1  0.905680  0.411070  0.934160  1.0  1.0023
  Zn  Zn21  1  0.367400  0.916140  0.482100  1.0  0.8584
  Zn  Zn22  1  0.426480  0.256280  0.386580  1.0  1.0907
  Zn  Zn23  1  0.594320  0.088930  0.434160  1.0  1.0041
  Zn  Zn24  1  0.132600  0.583860  0.982100  1.0  0.8576
  P  P25  1  0.307730  0.765690  0.521510  1.0  1.7612
  P  P26  1  0.136400  0.441270  0.078960  1.0  1.7677
  P  P27  1  0.192270  0.734310  0.021510  1.0  1.7617
  P  P28  1  0.363600  0.058730  0.578960  1.0  1.7674
  P  P29  1  0.692270  0.765690  0.978490  1.0  1.7611
  P  P30  1  0.863600  0.441270  0.421040  1.0  1.7661
  P  P31  1  0.807730  0.734310  0.478490  1.0  1.7614
  P  P32  1  0.636400  0.058730  0.921040  1.0  1.7664
  P  P33  1  0.692270  0.234310  0.478490  1.0  1.7619
  P  P34  1  0.863600  0.558730  0.921040  1.0  1.7662
  P  P35  1  0.807730  0.265690  0.978490  1.0  1.7607
  P  P36  1  0.636400  0.941270  0.421040  1.0  1.7663
  P  P37  1  0.307730  0.234310  0.021510  1.0  1.7614
  P  P38  1  0.136400  0.558730  0.578960  1.0  1.7678
  P  P39  1  0.192270  0.265690  0.521510  1.0  1.7615
  P  P40  1  0.363600  0.941270  0.078960  1.0  1.7673
  P  P41  1  0.000000  0.880210  0.250000  1.0  1.902
  P  P42  1  0.000000  0.637980  0.250000  1.0  1.9341
  P  P43  1  0.500000  0.619790  0.750000  1.0  1.9029
  P  P44  1  0.500000  0.862020  0.750000  1.0  1.9341
  P  P45  1  0.000000  0.119790  0.750000  1.0  1.9029
  P  P46  1  0.000000  0.362020  0.750000  1.0  1.9341
  P  P47  1  0.500000  0.380210  0.250000  1.0  1.902
  P  P48  1  0.500000  0.137980  0.250000  1.0  1.9341
  H  H49  1  0.141800  0.911000  0.173400  1.0  0.3209
  H  H50  1  0.737900  0.807900  0.402600  1.0  0.3811
  H  H51  1  0.918400  0.567200  0.796200  1.0  0.3563
  H  H52  1  0.358200  0.589000  0.673400  1.0  0.3199
  H  H53  1  0.762100  0.692100  0.902600  1.0  0.3831
  H  H54  1  0.581600  0.932800  0.296200  1.0  0.3549
  H  H55  1  0.858200  0.911000  0.326600  1.0  0.3186
  H  H56  1  0.262100  0.807900  0.097400  1.0  0.3805
  H  H57  1  0.081600  0.567200  0.703800  1.0  0.3568
  H  H58  1  0.641800  0.589000  0.826600  1.0  0.3202
  H  H59  1  0.237900  0.692100  0.597400  1.0  0.3831
  H  H60  1  0.418400  0.932800  0.203800  1.0  0.3572
  H  H61  1  0.858200  0.089000  0.826600  1.0  0.3193
  H  H62  1  0.262100  0.192100  0.597400  1.0  0.3829
  H  H63  1  0.081600  0.432800  0.203800  1.0  0.3556
  H  H64  1  0.641800  0.411000  0.326600  1.0  0.3195
  H  H65  1  0.237900  0.307900  0.097400  1.0  0.3806
  H  H66  1  0.418400  0.067200  0.703800  1.0  0.3565
  H  H67  1  0.141800  0.089000  0.673400  1.0  0.3214
  H  H68  1  0.737900  0.192100  0.902600  1.0  0.3834
  H  H69  1  0.918400  0.432800  0.296200  1.0  0.3556
  H  H70  1  0.358200  0.411000  0.173400  1.0  0.3198
  H  H71  1  0.762100  0.307900  0.402600  1.0  0.3806
  H  H72  1  0.581600  0.067200  0.796200  1.0  0.3552
  O  O73  1  0.075300  0.838400  0.314000  1.0  -0.8812
  O  O74  1  0.920000  0.679100  0.188800  1.0  -0.8672
  O  O75  1  0.245000  0.745800  0.434800  1.0  -0.8004
  O  O76  1  0.945800  0.758000  0.479600  1.0  -0.8107
  O  O77  1  0.087000  0.931100  0.201900  1.0  -0.6603
  O  O78  1  0.907900  0.593200  0.302000  1.0  -0.8026
  O  O79  1  0.735800  0.767100  0.397700  1.0  -0.7154
  O  O80  1  0.292800  0.840000  0.539700  1.0  -0.9089
  O  O81  1  0.190700  0.506300  0.050500  1.0  -0.8346
  O  O82  1  0.244100  0.393500  0.103000  1.0  -0.6474
  O  O83  1  0.052900  0.408600  0.011900  1.0  -0.845
  O  O84  1  0.943400  0.544000  0.837800  1.0  -0.6722
  O  O85  1  0.424700  0.661600  0.814000  1.0  -0.8785
  O  O86  1  0.580000  0.820900  0.688800  1.0  -0.8686
  O  O87  1  0.255000  0.754200  0.934800  1.0  -0.7993
  O  O88  1  0.554200  0.742000  0.979600  1.0  -0.8104
  O  O89  1  0.413000  0.568900  0.701900  1.0  -0.6601
  O  O90  1  0.592100  0.906800  0.802000  1.0  -0.8028
  O  O91  1  0.764200  0.732900  0.897700  1.0  -0.7131
  O  O92  1  0.207200  0.660000  0.039700  1.0  -0.9123
  O  O93  1  0.309300  0.993700  0.550500  1.0  -0.8317
  O  O94  1  0.255900  0.106500  0.603000  1.0  -0.647
  O  O95  1  0.447100  0.091400  0.511900  1.0  -0.8437
  O  O96  1  0.556600  0.956000  0.337800  1.0  -0.6739
  O  O97  1  0.924700  0.838400  0.186000  1.0  -0.878
  O  O98  1  0.080000  0.679100  0.311200  1.0  -0.8695
  O  O99  1  0.755000  0.745800  0.065200  1.0  -0.8017
  O  O100  1  0.054200  0.758000  0.020400  1.0  -0.8119
  O  O101  1  0.913000  0.931100  0.298100  1.0  -0.6605
  O  O102  1  0.092100  0.593200  0.198000  1.0  -0.803
  O  O103  1  0.264200  0.767100  0.102300  1.0  -0.7147
  O  O104  1  0.707200  0.840000  0.960300  1.0  -0.9096
  O  O105  1  0.809300  0.506300  0.449500  1.0  -0.8328
  O  O106  1  0.755900  0.393500  0.397000  1.0  -0.6472
  O  O107  1  0.947100  0.408600  0.488100  1.0  -0.8452
  O  O108  1  0.056600  0.544000  0.662200  1.0  -0.6742
  O  O109  1  0.575300  0.661600  0.686000  1.0  -0.8792
  O  O110  1  0.420000  0.820900  0.811200  1.0  -0.8682
  O  O111  1  0.745000  0.754200  0.565200  1.0  -0.8006
  O  O112  1  0.445800  0.742000  0.520400  1.0  -0.8127
  O  O113  1  0.587000  0.568900  0.798100  1.0  -0.6611
  O  O114  1  0.407900  0.906800  0.698000  1.0  -0.8022
  O  O115  1  0.235800  0.732900  0.602300  1.0  -0.7144
  O  O116  1  0.792800  0.660000  0.460300  1.0  -0.9084
  O  O117  1  0.690700  0.993700  0.949500  1.0  -0.8353
  O  O118  1  0.744100  0.106500  0.897000  1.0  -0.6473
  O  O119  1  0.552900  0.091400  0.988100  1.0  -0.8446
  O  O120  1  0.443400  0.956000  0.162200  1.0  -0.675
  O  O121  1  0.924700  0.161600  0.686000  1.0  -0.8777
  O  O122  1  0.080000  0.320900  0.811200  1.0  -0.8697
  O  O123  1  0.755000  0.254200  0.565200  1.0  -0.801
  O  O124  1  0.054200  0.242000  0.520400  1.0  -0.8122
  O  O125  1  0.913000  0.068900  0.798100  1.0  -0.6607
  O  O126  1  0.092100  0.406800  0.698000  1.0  -0.8031
  O  O127  1  0.264200  0.232900  0.602300  1.0  -0.7133
  O  O128  1  0.707200  0.160000  0.460300  1.0  -0.9119
  O  O129  1  0.809300  0.493700  0.949500  1.0  -0.832
  O  O130  1  0.755900  0.606500  0.897000  1.0  -0.6476
  O  O131  1  0.947100  0.591400  0.988100  1.0  -0.8445
  O  O132  1  0.056600  0.456000  0.162200  1.0  -0.6746
  O  O133  1  0.575300  0.338400  0.186000  1.0  -0.8796
  O  O134  1  0.420000  0.179100  0.311200  1.0  -0.8685
  O  O135  1  0.745000  0.245800  0.065200  1.0  -0.8014
  O  O136  1  0.445800  0.258000  0.020400  1.0  -0.8124
  O  O137  1  0.587000  0.431100  0.298100  1.0  -0.6601
  O  O138  1  0.407900  0.093200  0.198000  1.0  -0.8019
  O  O139  1  0.235800  0.267100  0.102300  1.0  -0.7145
  O  O140  1  0.792800  0.340000  0.960300  1.0  -0.9104
  O  O141  1  0.690700  0.006300  0.449500  1.0  -0.8358
  O  O142  1  0.744100  0.893500  0.397000  1.0  -0.6471
  O  O143  1  0.552900  0.908600  0.488100  1.0  -0.8454
  O  O144  1  0.443400  0.044000  0.662200  1.0  -0.6742
  O  O145  1  0.075300  0.161600  0.814000  1.0  -0.8805
  O  O146  1  0.920000  0.320900  0.688800  1.0  -0.8674
  O  O147  1  0.245000  0.254200  0.934800  1.0  -0.8002
  O  O148  1  0.945800  0.242000  0.979600  1.0  -0.8112
  O  O149  1  0.087000  0.068900  0.701900  1.0  -0.661
  O  O150  1  0.907900  0.406800  0.802000  1.0  -0.8027
  O  O151  1  0.735800  0.232900  0.897700  1.0  -0.7141
  O  O152  1  0.292800  0.160000  0.039700  1.0  -0.9087
  O  O153  1  0.190700  0.493700  0.550500  1.0  -0.835
  O  O154  1  0.244100  0.606500  0.603000  1.0  -0.6468
  O  O155  1  0.052900  0.591400  0.511900  1.0  -0.8436
  O  O156  1  0.943400  0.456000  0.337800  1.0  -0.6729
  O  O157  1  0.424700  0.338400  0.314000  1.0  -0.8789
  O  O158  1  0.580000  0.179100  0.188800  1.0  -0.8682
  O  O159  1  0.255000  0.245800  0.434800  1.0  -0.7994
  O  O160  1  0.554200  0.258000  0.479600  1.0  -0.8104
  O  O161  1  0.413000  0.431100  0.201900  1.0  -0.6599
  O  O162  1  0.592100  0.093200  0.302000  1.0  -0.8029
  O  O163  1  0.764200  0.267100  0.397700  1.0  -0.7145
  O  O164  1  0.207200  0.340000  0.539700  1.0  -0.911
  O  O165  1  0.309300  0.006300  0.050500  1.0  -0.8318
  O  O166  1  0.255900  0.893500  0.103000  1.0  -0.6475
  O  O167  1  0.447100  0.908600  0.011900  1.0  -0.8449
  O  O168  1  0.556600  0.044000  0.837800  1.0  -0.6733
