# generated using pymatgen
data_AgH6C8S(N2O)2
_symmetry_space_group_name_H-M   'P 1'
_cell_length_a   8.35620000
_cell_length_b   12.84370000
_cell_length_c   25.59000000
_cell_angle_alpha   90.94400000
_cell_angle_beta   90.00000000
_cell_angle_gamma   90.00000000
_symmetry_Int_Tables_number   1
_chemical_formula_structural   AgH6C8S(N2O)2
_chemical_formula_sum   'Ag8 H48 C64 S8 N32 O16'
_cell_volume   2746.06185978
_cell_formula_units_Z   8
loop_
 _symmetry_equiv_pos_site_id
 _symmetry_equiv_pos_as_xyz
  1  'x, y, z'
loop_
 _atom_site_type_symbol
 _atom_site_label
 _atom_site_symmetry_multiplicity
 _atom_site_fract_x
 _atom_site_fract_y
 _atom_site_fract_z
 _atom_site_occupancy
 _atom_site_charge
  Ag  Ag1  1  0.159950  0.007600  0.517030  1.0  -0.2013
  Ag  Ag2  1  0.159950  0.992400  0.982970  1.0  -0.2026
  Ag  Ag3  1  0.840050  0.992400  0.482970  1.0  -0.2023
  Ag  Ag4  1  0.840050  0.007600  0.017030  1.0  -0.2008
  Ag  Ag5  1  0.500000  0.000000  0.500000  1.0  0.3325
  Ag  Ag6  1  0.500000  0.000000  0.000000  1.0  0.3325
  Ag  Ag7  1  0.894520  0.500000  0.750000  1.0  0.365
  Ag  Ag8  1  0.105480  0.500000  0.250000  1.0  0.3651
  H  H9  1  0.440500  0.243700  0.486000  1.0  0.0696
  H  H10  1  0.409100  0.396100  0.532900  1.0  0.0816
  H  H11  1  0.541600  0.098700  0.613400  1.0  0.0755
  H  H12  1  0.256400  0.407300  0.720700  1.0  0.0992
  H  H13  1  0.855200  0.255500  0.736100  1.0  0.0808
  H  H14  1  0.979600  0.104600  0.715500  1.0  0.0892
  H  H15  1  0.258700  0.023300  0.635100  1.0  0.086
  H  H16  1  0.348400  0.924100  0.704400  1.0  0.076
  H  H17  1  0.243400  0.769900  0.548200  1.0  0.0994
  H  H18  1  0.544200  0.558600  0.699500  1.0  0.0913
  H  H19  1  0.957800  0.552100  0.631100  1.0  0.0821
  H  H20  1  0.840900  0.601300  0.555400  1.0  0.082
  H  H21  1  0.440500  0.756300  0.014000  1.0  0.0687
  H  H22  1  0.409100  0.603900  0.967100  1.0  0.0822
  H  H23  1  0.541600  0.901300  0.886600  1.0  0.0756
  H  H24  1  0.256400  0.592700  0.779300  1.0  0.0992
  H  H25  1  0.855200  0.744500  0.763900  1.0  0.0814
  H  H26  1  0.979600  0.895400  0.784500  1.0  0.0889
  H  H27  1  0.258700  0.976700  0.864900  1.0  0.0856
  H  H28  1  0.348400  0.075900  0.795600  1.0  0.0755
  H  H29  1  0.243400  0.230100  0.951800  1.0  0.0985
  H  H30  1  0.544200  0.441400  0.800500  1.0  0.0894
  H  H31  1  0.957800  0.447900  0.868900  1.0  0.0821
  H  H32  1  0.840900  0.398700  0.944600  1.0  0.0821
  H  H33  1  0.559500  0.756300  0.514000  1.0  0.0692
  H  H34  1  0.590900  0.603900  0.467100  1.0  0.0822
  H  H35  1  0.458400  0.901300  0.386600  1.0  0.0756
  H  H36  1  0.743600  0.592700  0.279300  1.0  0.0992
  H  H37  1  0.144800  0.744500  0.263900  1.0  0.0811
  H  H38  1  0.020400  0.895400  0.284500  1.0  0.0895
  H  H39  1  0.741300  0.976700  0.364900  1.0  0.0855
  H  H40  1  0.651600  0.075900  0.295600  1.0  0.0768
  H  H41  1  0.756600  0.230100  0.451800  1.0  0.098
  H  H42  1  0.455800  0.441400  0.300500  1.0  0.0898
  H  H43  1  0.042200  0.447900  0.368900  1.0  0.0818
  H  H44  1  0.159100  0.398700  0.444600  1.0  0.0824
  H  H45  1  0.559500  0.243700  0.986000  1.0  0.0704
  H  H46  1  0.590900  0.396100  0.032900  1.0  0.0815
  H  H47  1  0.458400  0.098700  0.113400  1.0  0.0754
  H  H48  1  0.743600  0.407300  0.220700  1.0  0.0995
  H  H49  1  0.144800  0.255500  0.236100  1.0  0.081
  H  H50  1  0.020400  0.104600  0.215500  1.0  0.0884
  H  H51  1  0.741300  0.023300  0.135100  1.0  0.0858
  H  H52  1  0.651600  0.924100  0.204400  1.0  0.0749
  H  H53  1  0.756600  0.769900  0.048200  1.0  0.0999
  H  H54  1  0.455800  0.558600  0.199500  1.0  0.0893
  H  H55  1  0.042200  0.552100  0.131100  1.0  0.0818
  H  H56  1  0.159100  0.601300  0.055400  1.0  0.0818
  C  C57  1  0.454000  0.243000  0.522100  1.0  0.0661
  C  C58  1  0.432600  0.335300  0.550600  1.0  0.1208
  C  C59  1  0.480100  0.248300  0.623900  1.0  -0.0433
  C  C60  1  0.509500  0.158000  0.595900  1.0  0.1091
  C  C61  1  0.271200  0.253000  0.707900  1.0  -0.0245
  C  C62  1  0.197400  0.345900  0.719900  1.0  0.1456
  C  C63  1  0.964100  0.256900  0.728700  1.0  0.0836
  C  C64  1  0.038800  0.165900  0.716500  1.0  0.0865
  C  C65  1  0.273300  0.952000  0.630400  1.0  0.0583
  C  C66  1  0.324800  0.891000  0.672700  1.0  0.1449
  C  C67  1  0.308200  0.748500  0.623000  1.0  -0.035
  C  C68  1  0.262500  0.804100  0.579900  1.0  0.0952
  C  C69  1  0.540600  0.591600  0.623500  1.0  -0.0158
  C  C70  1  0.608500  0.565500  0.670100  1.0  0.1481
  C  C71  1  0.847800  0.562800  0.630400  1.0  0.0742
  C  C72  1  0.776700  0.591500  0.584600  1.0  0.1038
  C  C73  1  0.454000  0.757000  0.977900  1.0  0.0633
  C  C74  1  0.432600  0.664700  0.949400  1.0  0.1216
  C  C75  1  0.480100  0.751700  0.876100  1.0  -0.0433
  C  C76  1  0.509500  0.842000  0.904100  1.0  0.1071
  C  C77  1  0.271200  0.747000  0.792100  1.0  -0.0238
  C  C78  1  0.197400  0.654100  0.780100  1.0  0.146
  C  C79  1  0.964100  0.743100  0.771300  1.0  0.0834
  C  C80  1  0.038800  0.834100  0.783500  1.0  0.0868
  C  C81  1  0.273300  0.048000  0.869600  1.0  0.06
  C  C82  1  0.324800  0.109000  0.827300  1.0  0.1431
  C  C83  1  0.308200  0.251500  0.877000  1.0  -0.0346
  C  C84  1  0.262500  0.195900  0.920100  1.0  0.0944
  C  C85  1  0.540600  0.408400  0.876500  1.0  -0.0162
  C  C86  1  0.608500  0.434500  0.829900  1.0  0.1459
  C  C87  1  0.847800  0.437200  0.869600  1.0  0.0744
  C  C88  1  0.776700  0.408500  0.915400  1.0  0.1026
  C  C89  1  0.546000  0.757000  0.477900  1.0  0.0639
  C  C90  1  0.567400  0.664700  0.449400  1.0  0.1222
  C  C91  1  0.519900  0.751700  0.376100  1.0  -0.043
  C  C92  1  0.490500  0.842000  0.404100  1.0  0.1075
  C  C93  1  0.728800  0.747000  0.292100  1.0  -0.0262
  C  C94  1  0.802600  0.654100  0.280100  1.0  0.1454
  C  C95  1  0.035900  0.743100  0.271300  1.0  0.0874
  C  C96  1  0.961200  0.834100  0.283500  1.0  0.0859
  C  C97  1  0.726700  0.048000  0.369600  1.0  0.0587
  C  C98  1  0.675200  0.109000  0.327300  1.0  0.1422
  C  C99  1  0.691800  0.251500  0.377000  1.0  -0.0349
  C  C100  1  0.737500  0.195900  0.420100  1.0  0.0947
  C  C101  1  0.459400  0.408400  0.376500  1.0  -0.0115
  C  C102  1  0.391500  0.434500  0.329900  1.0  0.1466
  C  C103  1  0.152200  0.437200  0.369600  1.0  0.0724
  C  C104  1  0.223300  0.408500  0.415400  1.0  0.1025
  C  C105  1  0.546000  0.243000  0.022100  1.0  0.0669
  C  C106  1  0.567400  0.335300  0.050600  1.0  0.1215
  C  C107  1  0.519900  0.248300  0.123900  1.0  -0.0427
  C  C108  1  0.490500  0.158000  0.095900  1.0  0.1093
  C  C109  1  0.728800  0.253000  0.207900  1.0  -0.0272
  C  C110  1  0.802600  0.345900  0.219900  1.0  0.1451
  C  C111  1  0.035900  0.256900  0.228700  1.0  0.0882
  C  C112  1  0.961200  0.165900  0.216500  1.0  0.0859
  C  C113  1  0.726700  0.952000  0.130400  1.0  0.0582
  C  C114  1  0.675200  0.891000  0.172700  1.0  0.1441
  C  C115  1  0.691800  0.748500  0.123000  1.0  -0.035
  C  C116  1  0.737500  0.804100  0.079900  1.0  0.0954
  C  C117  1  0.459400  0.591600  0.123500  1.0  -0.0108
  C  C118  1  0.391500  0.565500  0.170100  1.0  0.1486
  C  C119  1  0.152200  0.562800  0.130400  1.0  0.0724
  C  C120  1  0.223300  0.591500  0.084600  1.0  0.1037
  S  S121  1  0.480000  0.248660  0.693700  1.0  1.0274
  S  S122  1  0.327340  0.610830  0.618720  1.0  1.0172
  S  S123  1  0.480000  0.751340  0.806300  1.0  1.0269
  S  S124  1  0.327340  0.389170  0.881280  1.0  1.0177
  S  S125  1  0.520000  0.751340  0.306300  1.0  1.0277
  S  S126  1  0.672660  0.389170  0.381280  1.0  1.0168
  S  S127  1  0.520000  0.248660  0.193700  1.0  1.0277
  S  S128  1  0.672660  0.610830  0.118720  1.0  1.0167
  N  N129  1  0.492900  0.154300  0.544450  1.0  -0.2368
  N  N130  1  0.444700  0.338800  0.602050  1.0  -0.3081
  N  N131  1  0.039700  0.347900  0.730530  1.0  -0.2771
  N  N132  1  0.195700  0.162300  0.705900  1.0  -0.308
  N  N133  1  0.245600  0.907800  0.584000  1.0  -0.17
  N  N134  1  0.340400  0.791100  0.669100  1.0  -0.3064
  N  N135  1  0.620500  0.605900  0.580100  1.0  -0.2888
  N  N136  1  0.764100  0.550000  0.673800  1.0  -0.2551
  N  N137  1  0.492900  0.845700  0.955550  1.0  -0.2364
  N  N138  1  0.444700  0.661200  0.897950  1.0  -0.3076
  N  N139  1  0.039700  0.652100  0.769470  1.0  -0.2786
  N  N140  1  0.195700  0.837700  0.794100  1.0  -0.3093
  N  N141  1  0.245600  0.092200  0.916000  1.0  -0.1708
  N  N142  1  0.340400  0.208900  0.830900  1.0  -0.3058
  N  N143  1  0.620500  0.394100  0.919900  1.0  -0.2884
  N  N144  1  0.764100  0.450000  0.826200  1.0  -0.2548
  N  N145  1  0.507100  0.845700  0.455550  1.0  -0.2357
  N  N146  1  0.555300  0.661200  0.397950  1.0  -0.3075
  N  N147  1  0.960300  0.652100  0.269470  1.0  -0.2771
  N  N148  1  0.804300  0.837700  0.294100  1.0  -0.3094
  N  N149  1  0.754400  0.092200  0.416000  1.0  -0.1685
  N  N150  1  0.659600  0.208900  0.330900  1.0  -0.3059
  N  N151  1  0.379500  0.394100  0.419900  1.0  -0.2878
  N  N152  1  0.235900  0.450000  0.326200  1.0  -0.2555
  N  N153  1  0.507100  0.154300  0.044450  1.0  -0.2367
  N  N154  1  0.555300  0.338800  0.102050  1.0  -0.3083
  N  N155  1  0.960300  0.347900  0.230530  1.0  -0.2776
  N  N156  1  0.804300  0.162300  0.205900  1.0  -0.3095
  N  N157  1  0.754400  0.907800  0.084000  1.0  -0.1702
  N  N158  1  0.659600  0.791100  0.169100  1.0  -0.3065
  N  N159  1  0.379500  0.605900  0.080100  1.0  -0.2882
  N  N160  1  0.235900  0.550000  0.173800  1.0  -0.2556
  O  O161  1  0.543100  0.151100  0.709560  1.0  -0.5466
  O  O162  1  0.548100  0.344000  0.712830  1.0  -0.5412
  O  O163  1  0.258300  0.567400  0.664590  1.0  -0.5429
  O  O164  1  0.273600  0.578400  0.567720  1.0  -0.5381
  O  O165  1  0.543100  0.848900  0.790440  1.0  -0.5453
  O  O166  1  0.548100  0.656000  0.787170  1.0  -0.5424
  O  O167  1  0.258300  0.432600  0.835410  1.0  -0.5427
  O  O168  1  0.273600  0.421600  0.932280  1.0  -0.538
  O  O169  1  0.456900  0.848900  0.290440  1.0  -0.5456
  O  O170  1  0.451900  0.656000  0.287170  1.0  -0.5415
  O  O171  1  0.741700  0.432600  0.335410  1.0  -0.5418
  O  O172  1  0.726400  0.421600  0.432280  1.0  -0.5385
  O  O173  1  0.456900  0.151100  0.209560  1.0  -0.5458
  O  O174  1  0.451900  0.344000  0.212830  1.0  -0.5422
  O  O175  1  0.741700  0.567400  0.164590  1.0  -0.542
  O  O176  1  0.726400  0.578400  0.067720  1.0  -0.5378
