# generated using pymatgen
data_AgH6C8S(N2O)2
_symmetry_space_group_name_H-M   'P 1'
_cell_length_a   8.01000000
_cell_length_b   12.17800000
_cell_length_c   14.62200000
_cell_angle_alpha   90.00000000
_cell_angle_beta   90.00000000
_cell_angle_gamma   90.00000000
_symmetry_Int_Tables_number   1
_chemical_formula_structural   AgH6C8S(N2O)2
_chemical_formula_sum   'Ag4 H24 C32 S4 N16 O8'
_cell_volume   1426.31439516
_cell_formula_units_Z   4
loop_
 _symmetry_equiv_pos_site_id
 _symmetry_equiv_pos_as_xyz
  1  'x, y, z'
loop_
 _atom_site_type_symbol
 _atom_site_label
 _atom_site_symmetry_multiplicity
 _atom_site_fract_x
 _atom_site_fract_y
 _atom_site_fract_z
 _atom_site_occupancy
 _atom_site_charge
  Ag  Ag1  1  0.935630  0.568520  0.681190  1.0  0.3739
  Ag  Ag2  1  0.064370  0.431480  0.181190  1.0  0.3734
  Ag  Ag3  1  0.564370  0.068520  0.681190  1.0  0.3736
  Ag  Ag4  1  0.435630  0.931480  0.181190  1.0  0.3735
  H  H5  1  0.959800  0.312900  0.384900  1.0  0.0734
  H  H6  1  0.922200  0.667900  0.469700  1.0  0.0867
  H  H7  1  0.960000  0.622800  0.322500  1.0  0.0769
  H  H8  1  0.219400  0.163000  0.585300  1.0  0.09
  H  H9  1  0.560300  0.334900  0.711600  1.0  0.0902
  H  H10  1  0.384300  0.483700  0.713800  1.0  0.0829
  H  H11  1  0.040200  0.687100  0.884900  1.0  0.0719
  H  H12  1  0.077800  0.332100  0.969700  1.0  0.0867
  H  H13  1  0.040000  0.377200  0.822500  1.0  0.077
  H  H14  1  0.780600  0.837000  0.085300  1.0  0.0902
  H  H15  1  0.439700  0.665100  0.211600  1.0  0.0908
  H  H16  1  0.615700  0.516300  0.213800  1.0  0.0828
  H  H17  1  0.540200  0.812900  0.384900  1.0  0.0731
  H  H18  1  0.577800  0.167900  0.469700  1.0  0.0869
  H  H19  1  0.540000  0.122800  0.322500  1.0  0.0772
  H  H20  1  0.280600  0.663000  0.585300  1.0  0.0899
  H  H21  1  0.939700  0.834900  0.711600  1.0  0.0904
  H  H22  1  0.115700  0.983700  0.713800  1.0  0.0834
  H  H23  1  0.459800  0.187100  0.884900  1.0  0.0724
  H  H24  1  0.422200  0.832100  0.969700  1.0  0.087
  H  H25  1  0.460000  0.877200  0.822500  1.0  0.0768
  H  H26  1  0.719400  0.337000  0.085300  1.0  0.0902
  H  H27  1  0.060300  0.165100  0.211600  1.0  0.0905
  H  H28  1  0.884300  0.016300  0.213800  1.0  0.0829
  C  C29  1  0.954400  0.386500  0.401600  1.0  0.1385
  C  C30  1  0.939700  0.412400  0.490000  1.0  -0.0787
  C  C31  1  0.931500  0.594100  0.454300  1.0  0.0716
  C  C32  1  0.952200  0.566400  0.365200  1.0  0.0985
  C  C33  1  0.147200  0.317900  0.616100  1.0  -0.0788
  C  C34  1  0.254100  0.227600  0.613500  1.0  0.1245
  C  C35  1  0.453900  0.328200  0.686700  1.0  0.0605
  C  C36  1  0.347600  0.418500  0.687500  1.0  0.0985
  C  C37  1  0.045600  0.613500  0.901600  1.0  0.1379
  C  C38  1  0.060300  0.587600  0.990000  1.0  -0.0791
  C  C39  1  0.068500  0.405900  0.954300  1.0  0.0731
  C  C40  1  0.047800  0.433600  0.865200  1.0  0.0956
  C  C41  1  0.852800  0.682100  0.116100  1.0  -0.0766
  C  C42  1  0.745900  0.772400  0.113500  1.0  0.1249
  C  C43  1  0.546100  0.671800  0.186700  1.0  0.0603
  C  C44  1  0.652400  0.581500  0.187500  1.0  0.0995
  C  C45  1  0.545600  0.886500  0.401600  1.0  0.1397
  C  C46  1  0.560300  0.912400  0.490000  1.0  -0.0786
  C  C47  1  0.568500  0.094100  0.454300  1.0  0.0721
  C  C48  1  0.547800  0.066400  0.365200  1.0  0.0956
  C  C49  1  0.352800  0.817900  0.616100  1.0  -0.0771
  C  C50  1  0.245900  0.727600  0.613500  1.0  0.1254
  C  C51  1  0.046100  0.828200  0.686700  1.0  0.0604
  C  C52  1  0.152400  0.918500  0.687500  1.0  0.0983
  C  C53  1  0.454400  0.113500  0.901600  1.0  0.1372
  C  C54  1  0.439700  0.087600  0.990000  1.0  -0.0791
  C  C55  1  0.431500  0.905900  0.954300  1.0  0.0725
  C  C56  1  0.452200  0.933600  0.865200  1.0  0.0978
  C  C57  1  0.647200  0.182100  0.116100  1.0  -0.078
  C  C58  1  0.754100  0.272400  0.113500  1.0  0.124
  C  C59  1  0.953900  0.171800  0.186700  1.0  0.0608
  C  C60  1  0.847600  0.081500  0.187500  1.0  0.0988
  S  S61  1  0.941900  0.310400  0.576520  1.0  1.0416
  S  S62  1  0.058100  0.689600  0.076520  1.0  1.041
  S  S63  1  0.558100  0.810400  0.576520  1.0  1.0412
  S  S64  1  0.441900  0.189600  0.076520  1.0  1.0414
  N  N65  1  0.961800  0.464400  0.335300  1.0  -0.3358
  N  N66  1  0.923900  0.517500  0.521800  1.0  -0.2912
  N  N67  1  0.407300  0.232700  0.651500  1.0  -0.3011
  N  N68  1  0.194400  0.414500  0.651400  1.0  -0.303
  N  N69  1  0.038200  0.535600  0.835300  1.0  -0.3327
  N  N70  1  0.076100  0.482500  0.021800  1.0  -0.291
  N  N71  1  0.592700  0.767300  0.151500  1.0  -0.3034
  N  N72  1  0.805600  0.585500  0.151400  1.0  -0.3018
  N  N73  1  0.538200  0.964400  0.335300  1.0  -0.3344
  N  N74  1  0.576100  0.017500  0.521800  1.0  -0.2918
  N  N75  1  0.092700  0.732700  0.651500  1.0  -0.3051
  N  N76  1  0.305600  0.914500  0.651400  1.0  -0.3018
  N  N77  1  0.461800  0.035600  0.835300  1.0  -0.3341
  N  N78  1  0.423900  0.982500  0.021800  1.0  -0.2904
  N  N79  1  0.907300  0.267300  0.151500  1.0  -0.302
  N  N80  1  0.694400  0.085500  0.151400  1.0  -0.3042
  O  O81  1  0.837800  0.344300  0.650000  1.0  -0.5639
  O  O82  1  0.916900  0.205700  0.534700  1.0  -0.5558
  O  O83  1  0.162200  0.655700  0.150000  1.0  -0.5623
  O  O84  1  0.083100  0.794300  0.034700  1.0  -0.5562
  O  O85  1  0.662200  0.844300  0.650000  1.0  -0.5618
  O  O86  1  0.583100  0.705700  0.534700  1.0  -0.5552
  O  O87  1  0.337800  0.155700  0.150000  1.0  -0.5642
  O  O88  1  0.416900  0.294300  0.034700  1.0  -0.5567
