# generated using pymatgen
data_Ba2H14C18O11
_symmetry_space_group_name_H-M   'P 1'
_cell_length_a   7.62850000
_cell_length_b   11.92960000
_cell_length_c   14.34200000
_cell_angle_alpha   114.57600000
_cell_angle_beta   99.31280000
_cell_angle_gamma   90.00000000
_symmetry_Int_Tables_number   1
_chemical_formula_structural   Ba2H14C18O11
_chemical_formula_sum   'Ba4 H28 C36 O22'
_cell_volume   1168.01300274
_cell_formula_units_Z   2
loop_
 _symmetry_equiv_pos_site_id
 _symmetry_equiv_pos_as_xyz
  1  'x, y, z'
loop_
 _atom_site_type_symbol
 _atom_site_label
 _atom_site_symmetry_multiplicity
 _atom_site_fract_x
 _atom_site_fract_y
 _atom_site_fract_z
 _atom_site_occupancy
 _atom_site_charge
  Ba  Ba1  1  0.939300  0.725870  0.885320  1.0  1.6431
  Ba  Ba2  1  0.560700  0.840550  0.114680  1.0  1.6442
  Ba  Ba3  1  0.060700  0.274130  0.114680  1.0  1.6452
  Ba  Ba4  1  0.439300  0.159450  0.885320  1.0  1.6488
  H  H5  1  0.230000  0.943000  0.050000  1.0  0.4402
  H  H6  1  0.421400  0.337600  0.625000  1.0  0.0946
  H  H7  1  0.454200  0.234600  0.452800  1.0  0.1104
  H  H8  1  0.190200  0.491200  0.387400  1.0  0.1179
  H  H9  1  0.156800  0.592100  0.559400  1.0  0.0811
  H  H10  1  0.569700  0.230700  0.314800  1.0  0.1093
  H  H11  1  0.408300  0.131800  0.278200  1.0  0.0991
  H  H12  1  0.270000  0.893000  0.950000  1.0  0.4394
  H  H13  1  0.078600  0.712600  0.375000  1.0  0.0943
  H  H14  1  0.045800  0.781800  0.547200  1.0  0.1096
  H  H15  1  0.309800  0.103800  0.612600  1.0  0.1186
  H  H16  1  0.343200  0.032700  0.440600  1.0  0.0804
  H  H17  1  0.930300  0.915900  0.685200  1.0  0.1069
  H  H18  1  0.091700  0.853600  0.721800  1.0  0.0993
  H  H19  1  0.770000  0.057000  0.950000  1.0  0.4397
  H  H20  1  0.578600  0.662400  0.375000  1.0  0.0952
  H  H21  1  0.545800  0.765400  0.547200  1.0  0.1095
  H  H22  1  0.809800  0.508800  0.612600  1.0  0.1176
  H  H23  1  0.843200  0.407900  0.440600  1.0  0.0809
  H  H24  1  0.430300  0.769300  0.685200  1.0  0.1079
  H  H25  1  0.591700  0.868200  0.721800  1.0  0.098
  H  H26  1  0.730000  0.107000  0.050000  1.0  0.4409
  H  H27  1  0.921400  0.287400  0.625000  1.0  0.095
  H  H28  1  0.954200  0.218200  0.452800  1.0  0.1089
  H  H29  1  0.690200  0.896200  0.387400  1.0  0.1184
  H  H30  1  0.656800  0.967300  0.559400  1.0  0.0803
  H  H31  1  0.069700  0.084100  0.314800  1.0  0.1101
  H  H32  1  0.908300  0.146400  0.278200  1.0  0.0986
  C  C33  1  0.285000  0.475040  0.610560  1.0  -0.1772
  C  C34  1  0.374000  0.368430  0.577240  1.0  0.0233
  C  C35  1  0.394200  0.306450  0.474060  1.0  -0.2752
  C  C36  1  0.324000  0.352750  0.402840  1.0  0.2856
  C  C37  1  0.236200  0.459740  0.434880  1.0  -0.2294
  C  C38  1  0.216700  0.520060  0.538120  1.0  -0.0049
  C  C39  1  0.264500  0.541530  0.723260  1.0  0.7226
  C  C40  1  0.454900  0.201700  0.269260  1.0  -0.1085
  C  C41  1  0.479600  0.159920  0.156920  1.0  0.7443
  C  C42  1  0.215000  0.864480  0.389440  1.0  -0.1775
  C  C43  1  0.126000  0.791190  0.422760  1.0  0.0167
  C  C44  1  0.105800  0.832390  0.525940  1.0  -0.2747
  C  C45  1  0.176000  0.949910  0.597160  1.0  0.2831
  C  C46  1  0.263800  0.024860  0.565120  1.0  -0.2327
  C  C47  1  0.283300  0.981940  0.461880  1.0  -0.006
  C  C48  1  0.235500  0.818270  0.276740  1.0  0.7225
  C  C49  1  0.045100  0.932440  0.730740  1.0  -0.1032
  C  C50  1  0.020400  0.003000  0.843080  1.0  0.7395
  C  C51  1  0.715000  0.524960  0.389440  1.0  -0.1788
  C  C52  1  0.626000  0.631570  0.422760  1.0  0.0263
  C  C53  1  0.605800  0.693550  0.525940  1.0  -0.2751
  C  C54  1  0.676000  0.647250  0.597160  1.0  0.2848
  C  C55  1  0.763800  0.540260  0.565120  1.0  -0.2295
  C  C56  1  0.783300  0.479940  0.461880  1.0  -0.0065
  C  C57  1  0.735500  0.458470  0.276740  1.0  0.7203
  C  C58  1  0.545100  0.798300  0.730740  1.0  -0.1075
  C  C59  1  0.520400  0.840080  0.843080  1.0  0.7423
  C  C60  1  0.785000  0.135520  0.610560  1.0  -0.1786
  C  C61  1  0.874000  0.208810  0.577240  1.0  0.0184
  C  C62  1  0.894200  0.167610  0.474060  1.0  -0.2732
  C  C63  1  0.824000  0.050090  0.402840  1.0  0.2836
  C  C64  1  0.736200  0.975140  0.434880  1.0  -0.2321
  C  C65  1  0.716700  0.018060  0.538120  1.0  -0.0062
  C  C66  1  0.764500  0.181730  0.723260  1.0  0.7179
  C  C67  1  0.954900  0.067560  0.269260  1.0  -0.1047
  C  C68  1  0.979600  0.997000  0.156920  1.0  0.7422
  O  O69  1  0.162200  0.625920  0.748220  1.0  -0.7424
  O  O70  1  0.358700  0.505880  0.786280  1.0  -0.6901
  O  O71  1  0.336800  0.297730  0.298460  1.0  -0.3274
  O  O72  1  0.583470  0.074940  0.130160  1.0  -0.703
  O  O73  1  0.402030  0.207840  0.100620  1.0  -0.7423
  O  O74  1  0.337800  0.877700  0.251780  1.0  -0.7408
  O  O75  1  0.141300  0.719600  0.213720  1.0  -0.7084
  O  O76  1  0.163200  0.999270  0.701540  1.0  -0.3245
  O  O77  1  0.916530  0.944780  0.869840  1.0  -0.7023
  O  O78  1  0.097970  0.107220  0.899380  1.0  -0.7361
  O  O79  1  0.837800  0.374080  0.251780  1.0  -0.721
  O  O80  1  0.641300  0.494120  0.213720  1.0  -0.7069
  O  O81  1  0.663200  0.702270  0.701540  1.0  -0.3254
  O  O82  1  0.416530  0.925060  0.869840  1.0  -0.7033
  O  O83  1  0.597970  0.792160  0.899380  1.0  -0.7398
  O  O84  1  0.662200  0.122300  0.748220  1.0  -0.7467
  O  O85  1  0.858700  0.280400  0.786280  1.0  -0.6984
  O  O86  1  0.836800  0.000730  0.298460  1.0  -0.3241
  O  O87  1  0.083470  0.055220  0.130160  1.0  -0.7032
  O  O88  1  0.902030  0.892780  0.100620  1.0  -0.7367
  O  O89  1  0.250000  0.874500  0.000000  1.0  -0.929
  O  O90  1  0.750000  0.125500  0.000000  1.0  -0.9229
