# generated using pymatgen
data_ZnH20C17N8
_symmetry_space_group_name_H-M   'P 1'
_cell_length_a   18.29500000
_cell_length_b   14.54100000
_cell_length_c   18.65500000
_cell_angle_alpha   90.00000000
_cell_angle_beta   90.00000000
_cell_angle_gamma   90.00000000
_symmetry_Int_Tables_number   1
_chemical_formula_structural   ZnH20C17N8
_chemical_formula_sum   'Zn8 H160 C136 N64'
_cell_volume   4962.74478473
_cell_formula_units_Z   8
loop_
 _symmetry_equiv_pos_site_id
 _symmetry_equiv_pos_as_xyz
  1  'x, y, z'
loop_
 _atom_site_type_symbol
 _atom_site_label
 _atom_site_symmetry_multiplicity
 _atom_site_fract_x
 _atom_site_fract_y
 _atom_site_fract_z
 _atom_site_occupancy
 _atom_site_charge
  Zn  Zn1  1  0.726290  0.374300  0.451580  1.0  0.7204
  Zn  Zn2  1  0.773710  0.625700  0.951580  1.0  0.721
  Zn  Zn3  1  0.273710  0.874300  0.048420  1.0  0.7211
  Zn  Zn4  1  0.226290  0.125700  0.548420  1.0  0.7201
  Zn  Zn5  1  0.273710  0.625700  0.548420  1.0  0.721
  Zn  Zn6  1  0.226290  0.374300  0.048420  1.0  0.7203
  Zn  Zn7  1  0.726290  0.125700  0.951580  1.0  0.7202
  Zn  Zn8  1  0.773710  0.874300  0.451580  1.0  0.7212
  H  H9  1  0.831700  0.334900  0.583400  1.0  0.0831
  H  H10  1  0.669500  0.181900  0.513500  1.0  0.0824
  H  H11  1  0.718300  0.108600  0.621400  1.0  0.1204
  H  H12  1  0.834100  0.257500  0.716900  1.0  0.0747
  H  H13  1  0.806500  0.155800  0.718600  1.0  0.0676
  H  H14  1  0.955200  0.220500  0.776500  1.0  0.0682
  H  H15  1  0.991000  0.126000  0.756900  1.0  0.0729
  H  H16  1  0.839800  0.218200  0.852500  1.0  0.0864
  H  H17  1  0.923900  0.974400  0.807900  1.0  0.103
  H  H18  1  0.829200  0.955500  0.899400  1.0  0.0744
  H  H19  1  0.949500  0.299000  0.666200  1.0  0.0727
  H  H20  1  0.942800  0.244000  0.594400  1.0  0.064
  H  H21  1  0.075600  0.293300  0.733900  1.0  0.1095
  H  H22  1  0.197400  0.245700  0.695000  1.0  0.0774
  H  H23  1  0.056600  0.149100  0.555300  1.0  0.0783
  H  H24  1  0.899000  0.025700  0.682200  1.0  0.0804
  H  H25  1  0.970400  0.055700  0.642700  1.0  0.0878
  H  H26  1  0.819700  0.946400  0.601800  1.0  0.0821
  H  H27  1  0.926400  0.148400  0.506100  1.0  0.0989
  H  H28  1  0.852200  0.067600  0.416400  1.0  0.0858
  H  H29  1  0.668300  0.665100  0.083400  1.0  0.0841
  H  H30  1  0.830500  0.818100  0.013500  1.0  0.0826
  H  H31  1  0.781700  0.891400  0.121400  1.0  0.1212
  H  H32  1  0.665900  0.742500  0.216900  1.0  0.077
  H  H33  1  0.693500  0.844200  0.218600  1.0  0.0671
  H  H34  1  0.544800  0.779500  0.276500  1.0  0.0707
  H  H35  1  0.509000  0.874000  0.256900  1.0  0.0747
  H  H36  1  0.660200  0.781800  0.352500  1.0  0.0879
  H  H37  1  0.576100  0.025600  0.307900  1.0  0.1031
  H  H38  1  0.670800  0.044500  0.399400  1.0  0.075
  H  H39  1  0.550500  0.701000  0.166200  1.0  0.0732
  H  H40  1  0.557200  0.756000  0.094400  1.0  0.065
  H  H41  1  0.424400  0.706700  0.233900  1.0  0.1095
  H  H42  1  0.302600  0.754300  0.195000  1.0  0.0779
  H  H43  1  0.443400  0.850900  0.055300  1.0  0.0779
  H  H44  1  0.601000  0.974300  0.182200  1.0  0.0793
  H  H45  1  0.529600  0.944300  0.142700  1.0  0.087
  H  H46  1  0.680300  0.053600  0.101800  1.0  0.0818
  H  H47  1  0.573600  0.851600  0.006100  1.0  0.0983
  H  H48  1  0.647800  0.932400  0.916400  1.0  0.0853
  H  H49  1  0.168300  0.834900  0.916600  1.0  0.0832
  H  H50  1  0.330500  0.681900  0.986500  1.0  0.0829
  H  H51  1  0.281700  0.608600  0.878600  1.0  0.1211
  H  H52  1  0.165900  0.757500  0.783100  1.0  0.0757
  H  H53  1  0.193500  0.655800  0.781400  1.0  0.0674
  H  H54  1  0.044800  0.720500  0.723500  1.0  0.0701
  H  H55  1  0.009000  0.626000  0.743100  1.0  0.072
  H  H56  1  0.160200  0.718200  0.647500  1.0  0.0865
  H  H57  1  0.076100  0.474400  0.692100  1.0  0.1027
  H  H58  1  0.170800  0.455500  0.600600  1.0  0.0745
  H  H59  1  0.050500  0.799000  0.833800  1.0  0.0736
  H  H60  1  0.057200  0.744000  0.905600  1.0  0.0635
  H  H61  1  0.924400  0.793300  0.766100  1.0  0.1092
  H  H62  1  0.802600  0.745700  0.805000  1.0  0.0772
  H  H63  1  0.943400  0.649100  0.944700  1.0  0.0785
  H  H64  1  0.101000  0.525700  0.817800  1.0  0.0803
  H  H65  1  0.029600  0.555700  0.857300  1.0  0.0865
  H  H66  1  0.180300  0.446400  0.898200  1.0  0.0817
  H  H67  1  0.073600  0.648400  0.993900  1.0  0.0977
  H  H68  1  0.147800  0.567600  0.083600  1.0  0.085
  H  H69  1  0.331700  0.165100  0.416600  1.0  0.0838
  H  H70  1  0.169500  0.318100  0.486500  1.0  0.0826
  H  H71  1  0.218300  0.391400  0.378600  1.0  0.1213
  H  H72  1  0.334100  0.242500  0.283100  1.0  0.0754
  H  H73  1  0.306500  0.344200  0.281400  1.0  0.0681
  H  H74  1  0.455200  0.279500  0.223500  1.0  0.0685
  H  H75  1  0.491000  0.374000  0.243100  1.0  0.0752
  H  H76  1  0.339800  0.281800  0.147500  1.0  0.0877
  H  H77  1  0.423900  0.525600  0.192100  1.0  0.1026
  H  H78  1  0.329200  0.544500  0.100600  1.0  0.0745
  H  H79  1  0.449500  0.201000  0.333800  1.0  0.0732
  H  H80  1  0.442800  0.256000  0.405600  1.0  0.0643
  H  H81  1  0.575600  0.206700  0.266100  1.0  0.1092
  H  H82  1  0.697400  0.254300  0.305000  1.0  0.0769
  H  H83  1  0.556600  0.350900  0.444700  1.0  0.0783
  H  H84  1  0.399000  0.474300  0.317800  1.0  0.0808
  H  H85  1  0.470400  0.444300  0.357300  1.0  0.0871
  H  H86  1  0.319700  0.553600  0.398200  1.0  0.0823
  H  H87  1  0.426400  0.351600  0.493900  1.0  0.0981
  H  H88  1  0.352200  0.432400  0.583600  1.0  0.0854
  H  H89  1  0.168300  0.665100  0.416600  1.0  0.0842
  H  H90  1  0.330500  0.818100  0.486500  1.0  0.0827
  H  H91  1  0.281700  0.891400  0.378600  1.0  0.1216
  H  H92  1  0.165900  0.742500  0.283100  1.0  0.0761
  H  H93  1  0.193500  0.844200  0.281400  1.0  0.0673
  H  H94  1  0.044800  0.779500  0.223500  1.0  0.0687
  H  H95  1  0.009000  0.874000  0.243100  1.0  0.0719
  H  H96  1  0.160200  0.781800  0.147500  1.0  0.0876
  H  H97  1  0.076100  0.025600  0.192100  1.0  0.1028
  H  H98  1  0.170800  0.044500  0.100600  1.0  0.0748
  H  H99  1  0.050500  0.701000  0.333800  1.0  0.0729
  H  H100  1  0.057200  0.756000  0.405600  1.0  0.0651
  H  H101  1  0.924400  0.706700  0.266100  1.0  0.109
  H  H102  1  0.802600  0.754300  0.305000  1.0  0.0772
  H  H103  1  0.943400  0.850900  0.444700  1.0  0.0782
  H  H104  1  0.101000  0.974300  0.317800  1.0  0.0805
  H  H105  1  0.029600  0.944300  0.357300  1.0  0.0864
  H  H106  1  0.180300  0.053600  0.398200  1.0  0.0819
  H  H107  1  0.073600  0.851600  0.493900  1.0  0.0984
  H  H108  1  0.147800  0.932400  0.583600  1.0  0.0852
  H  H109  1  0.331700  0.334900  0.916600  1.0  0.0831
  H  H110  1  0.169500  0.181900  0.986500  1.0  0.0824
  H  H111  1  0.218300  0.108600  0.878600  1.0  0.1202
  H  H112  1  0.334100  0.257500  0.783100  1.0  0.0761
  H  H113  1  0.306500  0.155800  0.781400  1.0  0.0678
  H  H114  1  0.455200  0.220500  0.723500  1.0  0.0697
  H  H115  1  0.491000  0.126000  0.743100  1.0  0.074
  H  H116  1  0.339800  0.218200  0.647500  1.0  0.0867
  H  H117  1  0.423900  0.974400  0.692100  1.0  0.1027
  H  H118  1  0.329200  0.955500  0.600600  1.0  0.074
  H  H119  1  0.449500  0.299000  0.833800  1.0  0.0736
  H  H120  1  0.442800  0.244000  0.905600  1.0  0.063
  H  H121  1  0.575600  0.293300  0.766100  1.0  0.1096
  H  H122  1  0.697400  0.245700  0.805000  1.0  0.0769
  H  H123  1  0.556600  0.149100  0.944700  1.0  0.0784
  H  H124  1  0.399000  0.025700  0.817800  1.0  0.0802
  H  H125  1  0.470400  0.055700  0.857300  1.0  0.0877
  H  H126  1  0.319700  0.946400  0.898200  1.0  0.0819
  H  H127  1  0.426400  0.148400  0.993900  1.0  0.0977
  H  H128  1  0.352200  0.067600  0.083600  1.0  0.0852
  H  H129  1  0.831700  0.165100  0.083400  1.0  0.0837
  H  H130  1  0.669500  0.318100  0.013500  1.0  0.0829
  H  H131  1  0.718300  0.391400  0.121400  1.0  0.121
  H  H132  1  0.834100  0.242500  0.216900  1.0  0.076
  H  H133  1  0.806500  0.344200  0.218600  1.0  0.0672
  H  H134  1  0.955200  0.279500  0.276500  1.0  0.0696
  H  H135  1  0.991000  0.374000  0.256900  1.0  0.0728
  H  H136  1  0.839800  0.281800  0.352500  1.0  0.088
  H  H137  1  0.923900  0.525600  0.307900  1.0  0.1027
  H  H138  1  0.829200  0.544500  0.399400  1.0  0.0745
  H  H139  1  0.949500  0.201000  0.166200  1.0  0.0734
  H  H140  1  0.942800  0.256000  0.094400  1.0  0.0637
  H  H141  1  0.075600  0.206700  0.233900  1.0  0.1095
  H  H142  1  0.197400  0.254300  0.195000  1.0  0.0777
  H  H143  1  0.056600  0.350900  0.055300  1.0  0.078
  H  H144  1  0.899000  0.474300  0.182200  1.0  0.0791
  H  H145  1  0.970400  0.444300  0.142700  1.0  0.0874
  H  H146  1  0.819700  0.553600  0.101800  1.0  0.0821
  H  H147  1  0.926400  0.351600  0.006100  1.0  0.0982
  H  H148  1  0.852200  0.432400  0.916400  1.0  0.0857
  H  H149  1  0.668300  0.834900  0.583400  1.0  0.0832
  H  H150  1  0.830500  0.681900  0.513500  1.0  0.0824
  H  H151  1  0.781700  0.608600  0.621400  1.0  0.1212
  H  H152  1  0.665900  0.757500  0.716900  1.0  0.0741
  H  H153  1  0.693500  0.655800  0.718600  1.0  0.0675
  H  H154  1  0.544800  0.720500  0.776500  1.0  0.0693
  H  H155  1  0.509000  0.626000  0.756900  1.0  0.0748
  H  H156  1  0.660200  0.718200  0.852500  1.0  0.0864
  H  H157  1  0.576100  0.474400  0.807900  1.0  0.103
  H  H158  1  0.670800  0.455500  0.899400  1.0  0.075
  H  H159  1  0.550500  0.799000  0.666200  1.0  0.0729
  H  H160  1  0.557200  0.744000  0.594400  1.0  0.0649
  H  H161  1  0.424400  0.793300  0.733900  1.0  0.1093
  H  H162  1  0.302600  0.745700  0.695000  1.0  0.0775
  H  H163  1  0.443400  0.649100  0.555300  1.0  0.0782
  H  H164  1  0.601000  0.525700  0.682200  1.0  0.0808
  H  H165  1  0.529600  0.555700  0.642700  1.0  0.0868
  H  H166  1  0.680300  0.446400  0.601800  1.0  0.0818
  H  H167  1  0.573600  0.648400  0.506100  1.0  0.0987
  H  H168  1  0.647800  0.567600  0.416400  1.0  0.0855
  C  C169  1  0.797610  0.287800  0.578850  1.0  0.1034
  C  C170  1  0.708340  0.203400  0.540950  1.0  -0.0123
  C  C171  1  0.735160  0.162600  0.600340  1.0  -0.196
  C  C172  1  0.833230  0.200300  0.690070  1.0  -0.1715
  C  C173  1  0.912860  0.165960  0.682420  1.0  1e-04
  C  C174  1  0.944910  0.158900  0.759310  1.0  -0.0543
  C  C175  1  0.848350  0.155200  0.852660  1.0  0.1161
  C  C176  1  0.895280  0.020700  0.827760  1.0  -0.1901
  C  C177  1  0.843000  0.010800  0.878290  1.0  -0.0152
  C  C178  1  0.959000  0.239970  0.643770  1.0  -0.1389
  C  C179  1  0.086790  0.258500  0.693620  1.0  -0.1861
  C  C180  1  0.153720  0.231900  0.671830  1.0  0.0012
  C  C181  1  0.076720  0.178500  0.594960  1.0  0.112
  C  C182  1  0.918930  0.069900  0.648550  1.0  -0.1504
  C  C183  1  0.836500  0.986700  0.566770  1.0  0.109
  C  C184  1  0.895700  0.098500  0.514310  1.0  -0.1877
  C  C185  1  0.854800  0.053400  0.464940  1.0  -0.0117
  C  C186  1  0.702390  0.712200  0.078850  1.0  0.1041
  C  C187  1  0.791660  0.796600  0.040950  1.0  -0.0131
  C  C188  1  0.764840  0.837400  0.100340  1.0  -0.1956
  C  C189  1  0.666770  0.799700  0.190070  1.0  -0.173
  C  C190  1  0.587140  0.834040  0.182420  1.0  0.0006
  C  C191  1  0.555090  0.841100  0.259310  1.0  -0.0555
  C  C192  1  0.651650  0.844800  0.352660  1.0  0.1162
  C  C193  1  0.604720  0.979300  0.327760  1.0  -0.1916
  C  C194  1  0.657000  0.989200  0.378290  1.0  -0.0137
  C  C195  1  0.541000  0.760030  0.143770  1.0  -0.1379
  C  C196  1  0.413210  0.741500  0.193620  1.0  -0.1854
  C  C197  1  0.346280  0.768100  0.171830  1.0  -1e-04
  C  C198  1  0.423280  0.821500  0.094960  1.0  0.1115
  C  C199  1  0.581070  0.930100  0.148550  1.0  -0.1501
  C  C200  1  0.663500  0.013300  0.066770  1.0  0.1068
  C  C201  1  0.604300  0.901500  0.014310  1.0  -0.1883
  C  C202  1  0.645200  0.946600  0.964940  1.0  -0.0112
  C  C203  1  0.202390  0.787800  0.921150  1.0  0.1053
  C  C204  1  0.291660  0.703400  0.959050  1.0  -0.0117
  C  C205  1  0.264840  0.662600  0.899660  1.0  -0.1957
  C  C206  1  0.166770  0.700300  0.809930  1.0  -0.1707
  C  C207  1  0.087140  0.665960  0.817580  1.0  -1e-04
  C  C208  1  0.055090  0.658900  0.740690  1.0  -0.0509
  C  C209  1  0.151650  0.655200  0.647340  1.0  0.1146
  C  C210  1  0.104720  0.520700  0.672240  1.0  -0.1916
  C  C211  1  0.157000  0.510800  0.621710  1.0  -0.0141
  C  C212  1  0.041000  0.739970  0.856230  1.0  -0.1384
  C  C213  1  0.913210  0.758500  0.806380  1.0  -0.1876
  C  C214  1  0.846280  0.731900  0.828170  1.0  0.0002
  C  C215  1  0.923280  0.678500  0.905040  1.0  0.1122
  C  C216  1  0.081070  0.569900  0.851450  1.0  -0.1494
  C  C217  1  0.163500  0.486700  0.933230  1.0  0.1071
  C  C218  1  0.104300  0.598500  0.985690  1.0  -0.1878
  C  C219  1  0.145200  0.553400  0.035060  1.0  -0.011
  C  C220  1  0.297610  0.212200  0.421150  1.0  0.1044
  C  C221  1  0.208340  0.296600  0.459050  1.0  -0.0122
  C  C222  1  0.235160  0.337400  0.399660  1.0  -0.1963
  C  C223  1  0.333230  0.299700  0.309930  1.0  -0.1707
  C  C224  1  0.412860  0.334040  0.317580  1.0  -0.0005
  C  C225  1  0.444910  0.341100  0.240690  1.0  -0.0492
  C  C226  1  0.348350  0.344800  0.147340  1.0  0.1152
  C  C227  1  0.395280  0.479300  0.172240  1.0  -0.1915
  C  C228  1  0.343000  0.489200  0.121710  1.0  -0.0139
  C  C229  1  0.459000  0.260030  0.356230  1.0  -0.1374
  C  C230  1  0.586790  0.241500  0.306380  1.0  -0.1882
  C  C231  1  0.653720  0.268100  0.328170  1.0  0.0014
  C  C232  1  0.576720  0.321500  0.405040  1.0  0.1125
  C  C233  1  0.418930  0.430100  0.351450  1.0  -0.1524
  C  C234  1  0.336500  0.513300  0.433230  1.0  0.1076
  C  C235  1  0.395700  0.401500  0.485690  1.0  -0.1875
  C  C236  1  0.354800  0.446600  0.535060  1.0  -0.0111
  C  C237  1  0.202390  0.712200  0.421150  1.0  0.106
  C  C238  1  0.291660  0.796600  0.459050  1.0  -0.0124
  C  C239  1  0.264840  0.837400  0.399660  1.0  -0.1959
  C  C240  1  0.166770  0.799700  0.309930  1.0  -0.1704
  C  C241  1  0.087140  0.834040  0.317580  1.0  -0.0
  C  C242  1  0.055090  0.841100  0.240690  1.0  -0.0507
  C  C243  1  0.151650  0.844800  0.147340  1.0  0.1147
  C  C244  1  0.104720  0.979300  0.172240  1.0  -0.1921
  C  C245  1  0.157000  0.989200  0.121710  1.0  -0.0135
  C  C246  1  0.041000  0.760030  0.356230  1.0  -0.1375
  C  C247  1  0.913210  0.741500  0.306380  1.0  -0.1883
  C  C248  1  0.846280  0.768100  0.328170  1.0  -1e-04
  C  C249  1  0.923280  0.821500  0.405040  1.0  0.1118
  C  C250  1  0.081070  0.930100  0.351450  1.0  -0.1506
  C  C251  1  0.163500  0.013300  0.433230  1.0  0.1064
  C  C252  1  0.104300  0.901500  0.485690  1.0  -0.1886
  C  C253  1  0.145200  0.946600  0.535060  1.0  -0.0108
  C  C254  1  0.297610  0.287800  0.921150  1.0  0.1044
  C  C255  1  0.208340  0.203400  0.959050  1.0  -0.0118
  C  C256  1  0.235160  0.162600  0.899660  1.0  -0.1964
  C  C257  1  0.333230  0.200300  0.809930  1.0  -0.1708
  C  C258  1  0.412860  0.165960  0.817580  1.0  -0.0006
  C  C259  1  0.444910  0.158900  0.740690  1.0  -0.0491
  C  C260  1  0.348350  0.155200  0.647340  1.0  0.1148
  C  C261  1  0.395280  0.020700  0.672240  1.0  -0.1919
  C  C262  1  0.343000  0.010800  0.621710  1.0  -0.0145
  C  C263  1  0.459000  0.239970  0.856230  1.0  -0.1396
  C  C264  1  0.586790  0.258500  0.806380  1.0  -0.1878
  C  C265  1  0.653720  0.231900  0.828170  1.0  0.0016
  C  C266  1  0.576720  0.178500  0.905040  1.0  0.1127
  C  C267  1  0.418930  0.069900  0.851450  1.0  -0.1515
  C  C268  1  0.336500  0.986700  0.933230  1.0  0.1086
  C  C269  1  0.395700  0.098500  0.985690  1.0  -0.1866
  C  C270  1  0.354800  0.053400  0.035060  1.0  -0.0112
  C  C271  1  0.797610  0.212200  0.078850  1.0  0.1029
  C  C272  1  0.708340  0.296600  0.040950  1.0  -0.0125
  C  C273  1  0.735160  0.337400  0.100340  1.0  -0.1963
  C  C274  1  0.833230  0.299700  0.190070  1.0  -0.1726
  C  C275  1  0.912860  0.334040  0.182420  1.0  1e-04
  C  C276  1  0.944910  0.341100  0.259310  1.0  -0.0545
  C  C277  1  0.848350  0.344800  0.352660  1.0  0.1163
  C  C278  1  0.895280  0.479300  0.327760  1.0  -0.191
  C  C279  1  0.843000  0.489200  0.378290  1.0  -0.015
  C  C280  1  0.959000  0.260030  0.143770  1.0  -0.137
  C  C281  1  0.086790  0.241500  0.193620  1.0  -0.186
  C  C282  1  0.153720  0.268100  0.171830  1.0  0.0013
  C  C283  1  0.076720  0.321500  0.094960  1.0  0.1119
  C  C284  1  0.918930  0.430100  0.148550  1.0  -0.1517
  C  C285  1  0.836500  0.513300  0.066770  1.0  0.1077
  C  C286  1  0.895700  0.401500  0.014310  1.0  -0.188
  C  C287  1  0.854800  0.446600  0.964940  1.0  -0.0113
  C  C288  1  0.702390  0.787800  0.578850  1.0  0.1041
  C  C289  1  0.791660  0.703400  0.540950  1.0  -0.0127
  C  C290  1  0.764840  0.662600  0.600340  1.0  -0.1951
  C  C291  1  0.666770  0.700300  0.690070  1.0  -0.172
  C  C292  1  0.587140  0.665960  0.682420  1.0  0.0006
  C  C293  1  0.555090  0.658900  0.759310  1.0  -0.0551
  C  C294  1  0.651650  0.655200  0.852660  1.0  0.1162
  C  C295  1  0.604720  0.520700  0.827760  1.0  -0.1902
  C  C296  1  0.657000  0.510800  0.878290  1.0  -0.0141
  C  C297  1  0.541000  0.739970  0.643770  1.0  -0.1385
  C  C298  1  0.413210  0.758500  0.693620  1.0  -0.1854
  C  C299  1  0.346280  0.731900  0.671830  1.0  -0.0003
  C  C300  1  0.423280  0.678500  0.594960  1.0  0.1117
  C  C301  1  0.581070  0.569900  0.648550  1.0  -0.1484
  C  C302  1  0.663500  0.486700  0.566770  1.0  0.1076
  C  C303  1  0.604300  0.598500  0.514310  1.0  -0.1885
  C  C304  1  0.645200  0.553400  0.464940  1.0  -0.0115
  N  N305  1  0.748150  0.282570  0.527500  1.0  -0.4089
  N  N306  1  0.792150  0.216130  0.623540  1.0  0.0205
  N  N307  1  0.897860  0.112780  0.811380  1.0  -0.0052
  N  N308  1  0.813330  0.095650  0.893620  1.0  -0.3975
  N  N309  1  0.038160  0.223580  0.644210  1.0  0.0265
  N  N310  1  0.147520  0.180910  0.609800  1.0  -0.3906
  N  N311  1  0.882650  0.055820  0.579010  1.0  0.0236
  N  N312  1  0.817750  0.982970  0.498530  1.0  -0.3883
  N  N313  1  0.751850  0.717430  0.027500  1.0  -0.4082
  N  N314  1  0.707850  0.783870  0.123540  1.0  0.0202
  N  N315  1  0.602140  0.887220  0.311380  1.0  -0.0067
  N  N316  1  0.686670  0.904350  0.393620  1.0  -0.3975
  N  N317  1  0.461840  0.776420  0.144210  1.0  0.0262
  N  N318  1  0.352480  0.819090  0.109800  1.0  -0.3897
  N  N319  1  0.617350  0.944180  0.079010  1.0  0.0227
  N  N320  1  0.682250  0.017030  0.998530  1.0  -0.3873
  N  N321  1  0.251850  0.782570  0.972500  1.0  -0.409
  N  N322  1  0.207850  0.716130  0.876460  1.0  0.0194
  N  N323  1  0.102140  0.612780  0.688620  1.0  -0.0095
  N  N324  1  0.186670  0.595650  0.606380  1.0  -0.3969
  N  N325  1  0.961840  0.723580  0.855790  1.0  0.0263
  N  N326  1  0.852480  0.680910  0.890200  1.0  -0.391
  N  N327  1  0.117350  0.555820  0.920990  1.0  0.0241
  N  N328  1  0.182250  0.482970  0.001470  1.0  -0.3857
  N  N329  1  0.248150  0.217430  0.472500  1.0  -0.4074
  N  N330  1  0.292150  0.283870  0.376460  1.0  0.0208
  N  N331  1  0.397860  0.387220  0.188620  1.0  -0.0096
  N  N332  1  0.313330  0.404350  0.106380  1.0  -0.397
  N  N333  1  0.538160  0.276420  0.355790  1.0  0.0264
  N  N334  1  0.647520  0.319090  0.390200  1.0  -0.3915
  N  N335  1  0.382650  0.444180  0.420990  1.0  0.0236
  N  N336  1  0.317750  0.517030  0.501470  1.0  -0.389
  N  N337  1  0.251850  0.717430  0.472500  1.0  -0.4069
  N  N338  1  0.207850  0.783870  0.376460  1.0  0.0204
  N  N339  1  0.102140  0.887220  0.188620  1.0  -0.0095
  N  N340  1  0.186670  0.904350  0.106380  1.0  -0.3974
  N  N341  1  0.961840  0.776420  0.355790  1.0  0.0266
  N  N342  1  0.852480  0.819090  0.390200  1.0  -0.3907
  N  N343  1  0.117350  0.944180  0.420990  1.0  0.0236
  N  N344  1  0.182250  0.017030  0.501470  1.0  -0.3872
  N  N345  1  0.248150  0.282570  0.972500  1.0  -0.4097
  N  N346  1  0.292150  0.216130  0.876460  1.0  0.0201
  N  N347  1  0.397860  0.112780  0.688620  1.0  -0.009
  N  N348  1  0.313330  0.095650  0.606380  1.0  -0.3969
  N  N349  1  0.538160  0.223580  0.855790  1.0  0.0263
  N  N350  1  0.647520  0.180910  0.890200  1.0  -0.3912
  N  N351  1  0.382650  0.055820  0.920990  1.0  0.0243
  N  N352  1  0.317750  0.982970  0.001470  1.0  -0.3876
  N  N353  1  0.748150  0.217430  0.027500  1.0  -0.4081
  N  N354  1  0.792150  0.283870  0.123540  1.0  0.0209
  N  N355  1  0.897860  0.387220  0.311380  1.0  -0.0061
  N  N356  1  0.813330  0.404350  0.393620  1.0  -0.3973
  N  N357  1  0.038160  0.276420  0.144210  1.0  0.0263
  N  N358  1  0.147520  0.319090  0.109800  1.0  -0.3909
  N  N359  1  0.882650  0.444180  0.079010  1.0  0.023
  N  N360  1  0.817750  0.517030  0.998530  1.0  -0.3884
  N  N361  1  0.751850  0.782570  0.527500  1.0  -0.4089
  N  N362  1  0.707850  0.716130  0.623540  1.0  0.0194
  N  N363  1  0.602140  0.612780  0.811380  1.0  -0.0059
  N  N364  1  0.686670  0.595650  0.893620  1.0  -0.3976
  N  N365  1  0.461840  0.723580  0.644210  1.0  0.0264
  N  N366  1  0.352480  0.680910  0.609800  1.0  -0.3901
  N  N367  1  0.617350  0.555820  0.579010  1.0  0.0231
  N  N368  1  0.682250  0.482970  0.498530  1.0  -0.387
