# generated using pymatgen
data_ZnH32C48N3O4
_symmetry_space_group_name_H-M   'P 1'
_cell_length_a   8.95750000
_cell_length_b   19.68500000
_cell_length_c   25.06300000
_cell_angle_alpha   90.00000000
_cell_angle_beta   96.01500000
_cell_angle_gamma   90.00000000
_symmetry_Int_Tables_number   1
_chemical_formula_structural   ZnH32C48N3O4
_chemical_formula_sum   'Zn4 H128 C192 N12 O16'
_cell_volume   4394.98780003
_cell_formula_units_Z   4
loop_
 _symmetry_equiv_pos_site_id
 _symmetry_equiv_pos_as_xyz
  1  'x, y, z'
loop_
 _atom_site_type_symbol
 _atom_site_label
 _atom_site_symmetry_multiplicity
 _atom_site_fract_x
 _atom_site_fract_y
 _atom_site_fract_z
 _atom_site_occupancy
 _atom_site_charge
  Zn  Zn1  1  0.226430  0.371690  0.017770  1.0  0.8372
  Zn  Zn2  1  0.773570  0.871690  0.482230  1.0  0.838
  Zn  Zn3  1  0.773570  0.628310  0.982230  1.0  0.8381
  Zn  Zn4  1  0.226430  0.128310  0.517770  1.0  0.8374
  H  H5  1  0.305700  0.227200  0.993000  1.0  0.0839
  H  H6  1  0.487300  0.163300  0.960400  1.0  0.0997
  H  H7  1  0.715300  0.334500  0.939100  1.0  0.1288
  H  H8  1  0.526000  0.392800  0.973300  1.0  0.0642
  H  H9  1  0.603500  0.124500  0.892500  1.0  0.1078
  H  H10  1  0.785900  0.056300  0.863400  1.0  0.0976
  H  H11  1  0.098200  0.192300  0.912400  1.0  0.1127
  H  H12  1  0.916300  0.260600  0.943100  1.0  0.096
  H  H13  1  0.110200  0.949300  0.833300  1.0  0.0897
  H  H14  1  0.053700  0.905800  0.749000  1.0  0.1102
  H  H15  1  0.907300  0.088400  0.696900  1.0  0.1056
  H  H16  1  0.968700  0.131500  0.781300  1.0  0.1135
  H  H17  1  0.899900  0.866600  0.679800  1.0  0.1118
  H  H18  1  0.823100  0.827500  0.596200  1.0  0.0801
  H  H19  1  0.885800  0.003800  0.533100  1.0  0.0769
  H  H20  1  0.961900  0.048400  0.615900  1.0  0.1061
  H  H21  1  0.088100  0.059100  0.972200  1.0  0.0996
  H  H22  1  0.288700  0.032700  0.032600  1.0  0.1137
  H  H23  1  0.534100  0.995200  0.912700  1.0  0.1104
  H  H24  1  0.339200  0.030400  0.852400  1.0  0.1028
  H  H25  1  0.743900  0.351900  0.082000  1.0  0.0946
  H  H26  1  0.553200  0.292900  0.114900  1.0  0.1059
  H  H27  1  0.769700  0.119500  0.094600  1.0  0.0921
  H  H28  1  0.958200  0.177400  0.060000  1.0  0.1068
  H  H29  1  0.347200  0.187000  0.086100  1.0  0.098
  H  H30  1  0.173100  0.126200  0.128100  1.0  0.0987
  H  H31  1  0.243900  0.064900  0.203400  1.0  0.1006
  H  H32  1  0.668200  0.124300  0.198000  1.0  0.105
  H  H33  1  0.375300  0.976200  0.250500  1.0  0.0791
  H  H34  1  0.452500  0.919900  0.328700  1.0  0.1009
  H  H35  1  0.730700  0.070300  0.371800  1.0  0.0897
  H  H36  1  0.658900  0.125300  0.292800  1.0  0.1202
  H  H37  1  0.694300  0.727200  0.507000  1.0  0.0836
  H  H38  1  0.512700  0.663300  0.539600  1.0  0.1001
  H  H39  1  0.284700  0.834500  0.560900  1.0  0.1285
  H  H40  1  0.474000  0.892800  0.526700  1.0  0.0644
  H  H41  1  0.396500  0.624500  0.607500  1.0  0.1072
  H  H42  1  0.214100  0.556300  0.636600  1.0  0.0978
  H  H43  1  0.901800  0.692300  0.587600  1.0  0.1132
  H  H44  1  0.083700  0.760600  0.556900  1.0  0.0959
  H  H45  1  0.889800  0.449300  0.666667  1.0  0.0897
  H  H46  1  0.946300  0.405800  0.751000  1.0  0.11
  H  H47  1  0.092700  0.588400  0.803100  1.0  0.1054
  H  H48  1  0.031300  0.631500  0.718700  1.0  0.1124
  H  H49  1  0.100100  0.366600  0.820200  1.0  0.112
  H  H50  1  0.176900  0.327500  0.903800  1.0  0.0796
  H  H51  1  0.114200  0.503800  0.966900  1.0  0.0768
  H  H52  1  0.038100  0.548400  0.884100  1.0  0.106
  H  H53  1  0.911900  0.559100  0.527800  1.0  0.0996
  H  H54  1  0.711300  0.532700  0.467400  1.0  0.1141
  H  H55  1  0.465900  0.495200  0.587300  1.0  0.1101
  H  H56  1  0.660800  0.530400  0.647600  1.0  0.1017
  H  H57  1  0.256100  0.851900  0.418000  1.0  0.0947
  H  H58  1  0.446800  0.792900  0.385100  1.0  0.1056
  H  H59  1  0.230300  0.619500  0.405400  1.0  0.0896
  H  H60  1  0.041800  0.677400  0.440000  1.0  0.1075
  H  H61  1  0.652800  0.687000  0.413900  1.0  0.097
  H  H62  1  0.826900  0.626200  0.371900  1.0  0.0977
  H  H63  1  0.756100  0.564900  0.296600  1.0  0.1002
  H  H64  1  0.331800  0.624300  0.302000  1.0  0.106
  H  H65  1  0.624700  0.476200  0.249500  1.0  0.0792
  H  H66  1  0.547500  0.419900  0.171300  1.0  0.1018
  H  H67  1  0.269300  0.570300  0.128200  1.0  0.0899
  H  H68  1  0.341100  0.625300  0.207200  1.0  0.1204
  H  H69  1  0.694300  0.772800  0.007000  1.0  0.0834
  H  H70  1  0.512700  0.836700  0.039600  1.0  0.1004
  H  H71  1  0.284700  0.665500  0.060900  1.0  0.1287
  H  H72  1  0.474000  0.607200  0.026700  1.0  0.0693
  H  H73  1  0.396500  0.875500  0.107500  1.0  0.1078
  H  H74  1  0.214100  0.943700  0.136600  1.0  0.0978
  H  H75  1  0.901800  0.807700  0.087600  1.0  0.1132
  H  H76  1  0.083700  0.739400  0.056900  1.0  0.0956
  H  H77  1  0.889800  0.050700  0.166700  1.0  0.0898
  H  H78  1  0.946300  0.094200  0.251000  1.0  0.1084
  H  H79  1  0.092700  0.911600  0.303100  1.0  0.1058
  H  H80  1  0.031300  0.868500  0.218700  1.0  0.1146
  H  H81  1  0.100100  0.133400  0.320200  1.0  0.1134
  H  H82  1  0.176900  0.172500  0.403800  1.0  0.0796
  H  H83  1  0.114200  0.996200  0.466900  1.0  0.0774
  H  H84  1  0.038100  0.951600  0.384100  1.0  0.1053
  H  H85  1  0.911900  0.940900  0.027800  1.0  0.0996
  H  H86  1  0.711300  0.967300  0.967400  1.0  0.1138
  H  H87  1  0.465900  0.004800  0.087300  1.0  0.11
  H  H88  1  0.660800  0.969600  0.147600  1.0  0.1016
  H  H89  1  0.256100  0.648100  0.918000  1.0  0.0934
  H  H90  1  0.446800  0.707100  0.885100  1.0  0.1057
  H  H91  1  0.230300  0.880500  0.905400  1.0  0.0925
  H  H92  1  0.041800  0.822600  0.940000  1.0  0.107
  H  H93  1  0.652800  0.813000  0.913900  1.0  0.0974
  H  H94  1  0.826900  0.873800  0.871900  1.0  0.0979
  H  H95  1  0.756100  0.935100  0.796600  1.0  0.0998
  H  H96  1  0.331800  0.875700  0.802000  1.0  0.1063
  H  H97  1  0.624700  0.023800  0.749500  1.0  0.0791
  H  H98  1  0.547500  0.080100  0.671300  1.0  0.1015
  H  H99  1  0.269300  0.929700  0.628200  1.0  0.0897
  H  H100  1  0.341100  0.874700  0.707200  1.0  0.1206
  H  H101  1  0.305700  0.272800  0.493000  1.0  0.0839
  H  H102  1  0.487300  0.336700  0.460400  1.0  0.0996
  H  H103  1  0.715300  0.165500  0.439100  1.0  0.1289
  H  H104  1  0.526000  0.107200  0.473300  1.0  0.0696
  H  H105  1  0.603500  0.375500  0.392500  1.0  0.1076
  H  H106  1  0.785900  0.443700  0.363400  1.0  0.0977
  H  H107  1  0.098200  0.307700  0.412400  1.0  0.1124
  H  H108  1  0.916300  0.239400  0.443100  1.0  0.0955
  H  H109  1  0.110200  0.550700  0.333333  1.0  0.089
  H  H110  1  0.053700  0.594200  0.249000  1.0  0.1085
  H  H111  1  0.907300  0.411600  0.196900  1.0  0.1054
  H  H112  1  0.968700  0.368500  0.281300  1.0  0.1152
  H  H113  1  0.899900  0.633400  0.179800  1.0  0.1127
  H  H114  1  0.823100  0.672500  0.096200  1.0  0.0796
  H  H115  1  0.885800  0.496200  0.033100  1.0  0.077
  H  H116  1  0.961900  0.451600  0.115900  1.0  0.1053
  H  H117  1  0.088100  0.440900  0.472200  1.0  0.0996
  H  H118  1  0.288700  0.467300  0.532600  1.0  0.1139
  H  H119  1  0.534100  0.504800  0.412700  1.0  0.1102
  H  H120  1  0.339200  0.469600  0.352400  1.0  0.1029
  H  H121  1  0.743900  0.148100  0.582000  1.0  0.0937
  H  H122  1  0.553200  0.207100  0.614900  1.0  0.1061
  H  H123  1  0.769700  0.380500  0.594600  1.0  0.0929
  H  H124  1  0.958200  0.322600  0.560000  1.0  0.1069
  H  H125  1  0.347200  0.313000  0.586100  1.0  0.0977
  H  H126  1  0.173100  0.373800  0.628100  1.0  0.098
  H  H127  1  0.243900  0.435100  0.703400  1.0  0.1004
  H  H128  1  0.668200  0.375700  0.698000  1.0  0.1058
  H  H129  1  0.375300  0.523800  0.750500  1.0  0.0793
  H  H130  1  0.452500  0.580100  0.828700  1.0  0.1011
  H  H131  1  0.730700  0.429700  0.871800  1.0  0.0902
  H  H132  1  0.658900  0.374700  0.792800  1.0  0.1206
  C  C133  1  0.390000  0.248900  0.982420  1.0  0.1772
  C  C134  1  0.498300  0.210200  0.962400  1.0  -0.1887
  C  C135  1  0.623800  0.240500  0.945140  1.0  0.0889
  C  C136  1  0.633200  0.311200  0.949870  1.0  -0.2189
  C  C137  1  0.518900  0.345700  0.970800  1.0  0.1705
  C  C138  1  0.740600  0.199300  0.923360  1.0  0.0229
  C  C139  1  0.703400  0.138100  0.897800  1.0  -0.1546
  C  C140  1  0.813100  0.097300  0.880100  1.0  -0.1916
  C  C141  1  0.960500  0.115700  0.886460  1.0  0.1386
  C  C142  1  0.998800  0.177900  0.909300  1.0  -0.2135
  C  C143  1  0.889100  0.218800  0.927580  1.0  -0.0943
  C  C144  1  0.045800  0.044900  0.816700  1.0  0.1991
  C  C145  1  0.070100  0.977700  0.805870  1.0  -0.143
  C  C146  1  0.036200  0.951600  0.754970  1.0  -0.126
  C  C147  1  0.977000  0.991800  0.712660  1.0  0.0796
  C  C148  1  0.949900  0.060000  0.724030  1.0  -0.1233
  C  C149  1  0.985600  0.085700  0.774900  1.0  -0.169
  C  C150  1  0.935900  0.964000  0.659020  1.0  0.1113
  C  C151  1  0.896000  0.896200  0.650770  1.0  -0.1826
  C  C152  1  0.851200  0.872800  0.600400  1.0  0.1687
  C  C153  1  0.887200  0.975900  0.563140  1.0  0.1777
  C  C154  1  0.932900  0.003100  0.613170  1.0  -0.2002
  C  C155  1  0.193900  0.050900  0.905380  1.0  0.1837
  C  C156  1  0.179800  0.048500  0.959930  1.0  -0.1883
  C  C157  1  0.299800  0.030900  0.996180  1.0  -0.096
  C  C158  1  0.435600  0.010500  0.980420  1.0  0.0202
  C  C159  1  0.445600  0.009900  0.925290  1.0  -0.1244
  C  C160  1  0.327500  0.030400  0.888820  1.0  -0.1641
  C  C161  1  0.001700  0.309700  0.047410  1.0  0.6356
  C  C162  1  0.874300  0.271000  0.068440  1.0  -0.1444
  C  C163  1  0.749900  0.304800  0.084850  1.0  -0.0377
  C  C164  1  0.636500  0.269600  0.105100  1.0  -0.128
  C  C165  1  0.644400  0.199700  0.111110  1.0  0.053
  C  C166  1  0.765100  0.166600  0.092720  1.0  -0.1353
  C  C167  1  0.878200  0.201200  0.071910  1.0  -0.0619
  C  C168  1  0.527300  0.162100  0.136770  1.0  0.0536
  C  C169  1  0.378100  0.162300  0.116900  1.0  -0.1372
  C  C170  1  0.273300  0.126000  0.142300  1.0  -0.0707
  C  C171  1  0.315000  0.090100  0.187500  1.0  -0.1379
  C  C172  1  0.462300  0.090700  0.210250  1.0  0.0226
  C  C173  1  0.568000  0.125400  0.183950  1.0  -0.1312
  C  C174  1  0.508500  0.055200  0.261660  1.0  0.1182
  C  C175  1  0.449200  0.995700  0.274500  1.0  -0.1203
  C  C176  1  0.493600  0.962100  0.322200  1.0  -0.0904
  C  C177  1  0.658200  0.050800  0.347300  1.0  -0.0521
  C  C178  1  0.615800  0.083700  0.299700  1.0  -0.1446
  C  C179  1  0.596000  0.989900  0.359300  1.0  -0.0555
  C  C180  1  0.650700  0.953900  0.409600  1.0  0.6978
  C  C181  1  0.610000  0.748900  0.517580  1.0  0.1761
  C  C182  1  0.501700  0.710200  0.537600  1.0  -0.1876
  C  C183  1  0.376200  0.740500  0.554860  1.0  0.0911
  C  C184  1  0.366800  0.811200  0.550130  1.0  -0.2188
  C  C185  1  0.481100  0.845700  0.529200  1.0  0.1708
  C  C186  1  0.259400  0.699300  0.576640  1.0  0.0225
  C  C187  1  0.296600  0.638100  0.602200  1.0  -0.1558
  C  C188  1  0.186900  0.597300  0.619900  1.0  -0.1926
  C  C189  1  0.039500  0.615700  0.613540  1.0  0.1381
  C  C190  1  0.001200  0.677900  0.590700  1.0  -0.2119
  C  C191  1  0.110900  0.718800  0.572420  1.0  -0.0941
  C  C192  1  0.954200  0.544900  0.683300  1.0  0.1992
  C  C193  1  0.929900  0.477700  0.694130  1.0  -0.1575
  C  C194  1  0.963800  0.451600  0.745030  1.0  -0.1264
  C  C195  1  0.023000  0.491800  0.787340  1.0  0.0794
  C  C196  1  0.050100  0.560000  0.775970  1.0  -0.1235
  C  C197  1  0.014400  0.585700  0.725100  1.0  -0.1675
  C  C198  1  0.064100  0.464000  0.840980  1.0  0.1119
  C  C199  1  0.104000  0.396200  0.849230  1.0  -0.1832
  C  C200  1  0.148800  0.372800  0.899600  1.0  0.1688
  C  C201  1  0.112800  0.475900  0.936860  1.0  0.1777
  C  C202  1  0.067100  0.503100  0.886830  1.0  -0.2005
  C  C203  1  0.806100  0.550900  0.594620  1.0  0.1841
  C  C204  1  0.820200  0.548500  0.540070  1.0  -0.1916
  C  C205  1  0.700200  0.530900  0.503820  1.0  -0.0951
  C  C206  1  0.564400  0.510500  0.519580  1.0  0.0206
  C  C207  1  0.554400  0.509900  0.574710  1.0  -0.1245
  C  C208  1  0.672500  0.530400  0.611180  1.0  -0.1649
  C  C209  1  0.998300  0.809700  0.452590  1.0  0.6335
  C  C210  1  0.125700  0.771000  0.431560  1.0  -0.1439
  C  C211  1  0.250100  0.804800  0.415150  1.0  -0.0373
  C  C212  1  0.363500  0.769600  0.394900  1.0  -0.1285
  C  C213  1  0.355600  0.699700  0.388890  1.0  0.052
  C  C214  1  0.234900  0.666667  0.407280  1.0  -0.1384
  C  C215  1  0.121800  0.701200  0.428090  1.0  -0.0632
  C  C216  1  0.472700  0.662100  0.363230  1.0  0.054
  C  C217  1  0.621900  0.662300  0.383100  1.0  -0.1367
  C  C218  1  0.726700  0.626000  0.357700  1.0  -0.0694
  C  C219  1  0.685000  0.590100  0.312500  1.0  -0.1349
  C  C220  1  0.537700  0.590700  0.289750  1.0  0.0224
  C  C221  1  0.432000  0.625400  0.316050  1.0  -0.1303
  C  C222  1  0.491500  0.555200  0.238340  1.0  0.1182
  C  C223  1  0.550800  0.495700  0.225500  1.0  -0.1197
  C  C224  1  0.506400  0.462100  0.177800  1.0  -0.0907
  C  C225  1  0.341800  0.550800  0.152700  1.0  -0.0502
  C  C226  1  0.384200  0.583700  0.200300  1.0  -0.144
  C  C227  1  0.404000  0.489900  0.140700  1.0  -0.057
  C  C228  1  0.349300  0.453900  0.090400  1.0  0.6965
  C  C229  1  0.610000  0.751100  0.017580  1.0  0.1757
  C  C230  1  0.501700  0.789800  0.037600  1.0  -0.1871
  C  C231  1  0.376200  0.759500  0.054860  1.0  0.0912
  C  C232  1  0.366800  0.688800  0.050130  1.0  -0.219
  C  C233  1  0.481100  0.654300  0.029200  1.0  0.1709
  C  C234  1  0.259400  0.800700  0.076640  1.0  0.0236
  C  C235  1  0.296600  0.861900  0.102200  1.0  -0.1561
  C  C236  1  0.186900  0.902700  0.119900  1.0  -0.1921
  C  C237  1  0.039500  0.884300  0.113540  1.0  0.1372
  C  C238  1  0.001200  0.822100  0.090700  1.0  -0.2125
  C  C239  1  0.110900  0.781200  0.072420  1.0  -0.0939
  C  C240  1  0.954200  0.955100  0.183300  1.0  0.1984
  C  C241  1  0.929900  0.022300  0.194130  1.0  -0.1434
  C  C242  1  0.963800  0.048400  0.245030  1.0  -0.1271
  C  C243  1  0.023000  0.008200  0.287340  1.0  0.0796
  C  C244  1  0.050100  0.940000  0.275970  1.0  -0.1231
  C  C245  1  0.014400  0.914300  0.225100  1.0  -0.1685
  C  C246  1  0.064100  0.036000  0.340980  1.0  0.112
  C  C247  1  0.104000  0.103800  0.349230  1.0  -0.1834
  C  C248  1  0.148800  0.127200  0.399600  1.0  0.1693
  C  C249  1  0.112800  0.024100  0.436860  1.0  0.1777
  C  C250  1  0.067100  0.996900  0.386830  1.0  -0.1991
  C  C251  1  0.806100  0.949100  0.094620  1.0  0.1838
  C  C252  1  0.820200  0.951500  0.040070  1.0  -0.1918
  C  C253  1  0.700200  0.969100  0.003820  1.0  -0.096
  C  C254  1  0.564400  0.989500  0.019580  1.0  0.0208
  C  C255  1  0.554400  0.990100  0.074710  1.0  -0.1209
  C  C256  1  0.672500  0.969600  0.111180  1.0  -0.1641
  C  C257  1  0.998300  0.690300  0.952590  1.0  0.6333
  C  C258  1  0.125700  0.729000  0.931560  1.0  -0.1453
  C  C259  1  0.250100  0.695200  0.915150  1.0  -0.0357
  C  C260  1  0.363500  0.730400  0.894900  1.0  -0.1285
  C  C261  1  0.355600  0.800300  0.888890  1.0  0.0519
  C  C262  1  0.234900  0.833400  0.907280  1.0  -0.1361
  C  C263  1  0.121800  0.798800  0.928090  1.0  -0.063
  C  C264  1  0.472700  0.837900  0.863230  1.0  0.0533
  C  C265  1  0.621900  0.837700  0.883100  1.0  -0.1375
  C  C266  1  0.726700  0.874000  0.857700  1.0  -0.0689
  C  C267  1  0.685000  0.909900  0.812500  1.0  -0.1353
  C  C268  1  0.537700  0.909300  0.789750  1.0  0.0227
  C  C269  1  0.432000  0.874600  0.816050  1.0  -0.1311
  C  C270  1  0.491500  0.944800  0.738340  1.0  0.1179
  C  C271  1  0.550800  0.004300  0.725500  1.0  -0.1215
  C  C272  1  0.506400  0.037900  0.677800  1.0  -0.0911
  C  C273  1  0.341800  0.949200  0.652700  1.0  -0.0506
  C  C274  1  0.384200  0.916300  0.700300  1.0  -0.1438
  C  C275  1  0.404000  0.010100  0.640700  1.0  -0.0556
  C  C276  1  0.349300  0.046100  0.590400  1.0  0.6963
  C  C277  1  0.390000  0.251100  0.482420  1.0  0.1769
  C  C278  1  0.498300  0.289800  0.462400  1.0  -0.1877
  C  C279  1  0.623800  0.259500  0.445140  1.0  0.089
  C  C280  1  0.633200  0.188800  0.449870  1.0  -0.2198
  C  C281  1  0.518900  0.154300  0.470800  1.0  0.171
  C  C282  1  0.740600  0.300700  0.423360  1.0  0.0222
  C  C283  1  0.703400  0.361900  0.397800  1.0  -0.1549
  C  C284  1  0.813100  0.402700  0.380100  1.0  -0.191
  C  C285  1  0.960500  0.384300  0.386460  1.0  0.1382
  C  C286  1  0.998800  0.322100  0.409300  1.0  -0.2148
  C  C287  1  0.889100  0.281200  0.427580  1.0  -0.0937
  C  C288  1  0.045800  0.455100  0.316700  1.0  0.1988
  C  C289  1  0.070100  0.522300  0.305870  1.0  -0.1585
  C  C290  1  0.036200  0.548400  0.254970  1.0  -0.1269
  C  C291  1  0.977000  0.508200  0.212660  1.0  0.0795
  C  C292  1  0.949900  0.440000  0.224030  1.0  -0.1232
  C  C293  1  0.985600  0.414300  0.274900  1.0  -0.1699
  C  C294  1  0.935900  0.536000  0.159020  1.0  0.1114
  C  C295  1  0.896000  0.603800  0.150770  1.0  -0.1839
  C  C296  1  0.851200  0.627200  0.100400  1.0  0.1689
  C  C297  1  0.887200  0.524100  0.063140  1.0  0.1774
  C  C298  1  0.932900  0.496900  0.113170  1.0  -0.1989
  C  C299  1  0.193900  0.449100  0.405380  1.0  0.1832
  C  C300  1  0.179800  0.451500  0.459930  1.0  -0.1887
  C  C301  1  0.299800  0.469100  0.496180  1.0  -0.0965
  C  C302  1  0.435600  0.489500  0.480420  1.0  0.0205
  C  C303  1  0.445600  0.490100  0.425290  1.0  -0.1209
  C  C304  1  0.327500  0.469600  0.388820  1.0  -0.163
  C  C305  1  0.001700  0.190300  0.547410  1.0  0.6354
  C  C306  1  0.874300  0.229000  0.568440  1.0  -0.1439
  C  C307  1  0.749900  0.195200  0.584850  1.0  -0.0348
  C  C308  1  0.636500  0.230400  0.605100  1.0  -0.1279
  C  C309  1  0.644400  0.300300  0.611110  1.0  0.0526
  C  C310  1  0.765100  0.333400  0.592720  1.0  -0.1363
  C  C311  1  0.878200  0.298800  0.571910  1.0  -0.0621
  C  C312  1  0.527300  0.337900  0.636770  1.0  0.0534
  C  C313  1  0.378100  0.337700  0.616900  1.0  -0.1385
  C  C314  1  0.273300  0.374000  0.642300  1.0  -0.0699
  C  C315  1  0.315000  0.409900  0.687500  1.0  -0.1367
  C  C316  1  0.462300  0.409300  0.710250  1.0  0.0229
  C  C317  1  0.568000  0.374600  0.683950  1.0  -0.1315
  C  C318  1  0.508500  0.444800  0.761660  1.0  0.1181
  C  C319  1  0.449200  0.504300  0.774500  1.0  -0.1217
  C  C320  1  0.493600  0.537900  0.822200  1.0  -0.0906
  C  C321  1  0.658200  0.449200  0.847300  1.0  -0.0521
  C  C322  1  0.615800  0.416300  0.799700  1.0  -0.1438
  C  C323  1  0.596000  0.510100  0.859300  1.0  -0.0548
  C  C324  1  0.650700  0.546100  0.909600  1.0  0.6976
  N  N325  1  0.073600  0.072500  0.868760  1.0  -0.1609
  N  N326  1  0.400300  0.316280  0.987390  1.0  -0.3295
  N  N327  1  0.845800  0.912380  0.556500  1.0  -0.342
  N  N328  1  0.926400  0.572500  0.631240  1.0  -0.1609
  N  N329  1  0.599700  0.816280  0.512610  1.0  -0.3293
  N  N330  1  0.154200  0.412380  0.943500  1.0  -0.3394
  N  N331  1  0.926400  0.927500  0.131240  1.0  -0.1612
  N  N332  1  0.599700  0.683720  0.012610  1.0  -0.3287
  N  N333  1  0.154200  0.087620  0.443500  1.0  -0.3396
  N  N334  1  0.073600  0.427500  0.368760  1.0  -0.1612
  N  N335  1  0.400300  0.183720  0.487390  1.0  -0.3291
  N  N336  1  0.845800  0.587620  0.056500  1.0  -0.3414
  O  O337  1  0.111100  0.280200  0.034630  1.0  -0.5507
  O  O338  1  0.991100  0.371700  0.043000  1.0  -0.5691
  O  O339  1  0.653000  0.891800  0.409300  1.0  -0.5692
  O  O340  1  0.715400  0.980600  0.446700  1.0  -0.6061
  O  O341  1  0.888900  0.780200  0.465370  1.0  -0.5518
  O  O342  1  0.008900  0.871700  0.457000  1.0  -0.5704
  O  O343  1  0.347000  0.391800  0.090700  1.0  -0.5693
  O  O344  1  0.284600  0.480600  0.053300  1.0  -0.6058
  O  O345  1  0.888900  0.719800  0.965370  1.0  -0.5522
  O  O346  1  0.008900  0.628300  0.957000  1.0  -0.571
  O  O347  1  0.347000  0.108200  0.590700  1.0  -0.5696
  O  O348  1  0.284600  0.019400  0.553300  1.0  -0.6052
  O  O349  1  0.111100  0.219800  0.534630  1.0  -0.5509
  O  O350  1  0.991100  0.128300  0.543000  1.0  -0.5698
  O  O351  1  0.653000  0.608200  0.909300  1.0  -0.5692
  O  O352  1  0.715400  0.519400  0.946700  1.0  -0.6057
