# generated using pymatgen
data_Zn5H16C24S2(N9O4)2
_symmetry_space_group_name_H-M   'P 1'
_cell_length_a   18.76000000
_cell_length_b   18.76000000
_cell_length_c   17.99900000
_cell_angle_alpha   90.00000000
_cell_angle_beta   90.00000000
_cell_angle_gamma   90.00000000
_symmetry_Int_Tables_number   1
_chemical_formula_structural   Zn5H16C24S2(N9O4)2
_chemical_formula_sum   'Zn20 H64 C96 S8 N72 O32'
_cell_volume   6334.52486240
_cell_formula_units_Z   4
loop_
 _symmetry_equiv_pos_site_id
 _symmetry_equiv_pos_as_xyz
  1  'x, y, z'
loop_
 _atom_site_type_symbol
 _atom_site_label
 _atom_site_symmetry_multiplicity
 _atom_site_fract_x
 _atom_site_fract_y
 _atom_site_fract_z
 _atom_site_occupancy
 _atom_site_charge
  Zn  Zn1  1  0.915930  0.861500  0.888330  1.0  0.9715
  Zn  Zn2  1  0.415930  0.361500  0.388330  1.0  0.9715
  Zn  Zn3  1  0.084070  0.138500  0.888330  1.0  0.9726
  Zn  Zn4  1  0.584070  0.638500  0.388330  1.0  0.9726
  Zn  Zn5  1  0.861500  0.084070  0.111670  1.0  0.9659
  Zn  Zn6  1  0.361500  0.584070  0.611670  1.0  0.9659
  Zn  Zn7  1  0.138500  0.915930  0.111670  1.0  0.9677
  Zn  Zn8  1  0.638500  0.415930  0.611670  1.0  0.9677
  Zn  Zn9  1  0.584070  0.861500  0.861670  1.0  0.9711
  Zn  Zn10  1  0.084070  0.361500  0.361670  1.0  0.9711
  Zn  Zn11  1  0.415930  0.138500  0.861670  1.0  0.9723
  Zn  Zn12  1  0.915930  0.638500  0.361670  1.0  0.9723
  Zn  Zn13  1  0.638500  0.084070  0.638330  1.0  0.968
  Zn  Zn14  1  0.138500  0.584070  0.138330  1.0  0.968
  Zn  Zn15  1  0.361500  0.915930  0.638330  1.0  0.9669
  Zn  Zn16  1  0.861500  0.415930  0.138330  1.0  0.9669
  Zn  Zn17  1  0.000000  0.000000  0.000000  1.0  0.7014
  Zn  Zn18  1  0.500000  0.500000  0.500000  1.0  0.7014
  Zn  Zn19  1  0.500000  0.000000  0.750000  1.0  0.7014
  Zn  Zn20  1  0.000000  0.500000  0.250000  1.0  0.7014
  H  H21  1  0.772800  0.776600  0.687200  1.0  0.0994
  H  H22  1  0.027800  0.732600  0.941200  1.0  0.1026
  H  H23  1  0.115800  0.754500  0.039300  1.0  0.1026
  H  H24  1  0.959800  0.947300  0.728500  1.0  0.093
  H  H25  1  0.272800  0.276600  0.187200  1.0  0.0994
  H  H26  1  0.527800  0.232600  0.441200  1.0  0.1026
  H  H27  1  0.615800  0.254500  0.539300  1.0  0.1026
  H  H28  1  0.459800  0.447300  0.228500  1.0  0.093
  H  H29  1  0.227200  0.223400  0.687200  1.0  0.0988
  H  H30  1  0.972200  0.267400  0.941200  1.0  0.1043
  H  H31  1  0.884200  0.245500  0.039300  1.0  0.1024
  H  H32  1  0.040200  0.052700  0.728500  1.0  0.0927
  H  H33  1  0.727200  0.723400  0.187200  1.0  0.0988
  H  H34  1  0.472200  0.767400  0.441200  1.0  0.1043
  H  H35  1  0.384200  0.745500  0.539300  1.0  0.1024
  H  H36  1  0.540200  0.552700  0.228500  1.0  0.0927
  H  H37  1  0.776600  0.227200  0.312800  1.0  0.0996
  H  H38  1  0.732600  0.972200  0.058800  1.0  0.1028
  H  H39  1  0.754500  0.884200  0.960700  1.0  0.1026
  H  H40  1  0.947300  0.040200  0.271500  1.0  0.0931
  H  H41  1  0.276600  0.727200  0.812800  1.0  0.0996
  H  H42  1  0.232600  0.472200  0.558800  1.0  0.1028
  H  H43  1  0.254500  0.384200  0.460700  1.0  0.1026
  H  H44  1  0.447300  0.540200  0.771500  1.0  0.0931
  H  H45  1  0.223400  0.772800  0.312800  1.0  0.099
  H  H46  1  0.267400  0.027800  0.058800  1.0  0.1023
  H  H47  1  0.245500  0.115800  0.960700  1.0  0.1019
  H  H48  1  0.052700  0.959800  0.271500  1.0  0.0932
  H  H49  1  0.723400  0.272800  0.812800  1.0  0.099
  H  H50  1  0.767400  0.527800  0.558800  1.0  0.1023
  H  H51  1  0.745500  0.615800  0.460700  1.0  0.1019
  H  H52  1  0.552700  0.459800  0.771500  1.0  0.0932
  H  H53  1  0.727200  0.776600  0.062800  1.0  0.0989
  H  H54  1  0.472200  0.732600  0.808800  1.0  0.103
  H  H55  1  0.384200  0.754500  0.710700  1.0  0.1027
  H  H56  1  0.540200  0.947300  0.021500  1.0  0.0929
  H  H57  1  0.227200  0.276600  0.562800  1.0  0.0989
  H  H58  1  0.972200  0.232600  0.308800  1.0  0.103
  H  H59  1  0.884200  0.254500  0.210700  1.0  0.1027
  H  H60  1  0.040200  0.447300  0.521500  1.0  0.0929
  H  H61  1  0.272800  0.223400  0.062800  1.0  0.0994
  H  H62  1  0.527800  0.267400  0.808800  1.0  0.1042
  H  H63  1  0.615800  0.245500  0.710700  1.0  0.1026
  H  H64  1  0.459800  0.052700  0.021500  1.0  0.0934
  H  H65  1  0.772800  0.723400  0.562800  1.0  0.0994
  H  H66  1  0.027800  0.767400  0.308800  1.0  0.1042
  H  H67  1  0.115800  0.745500  0.210700  1.0  0.1026
  H  H68  1  0.959800  0.552700  0.521500  1.0  0.0934
  H  H69  1  0.723400  0.227200  0.437200  1.0  0.0997
  H  H70  1  0.767400  0.972200  0.691200  1.0  0.1027
  H  H71  1  0.745500  0.884200  0.789300  1.0  0.1023
  H  H72  1  0.552700  0.040200  0.478500  1.0  0.0929
  H  H73  1  0.223400  0.727200  0.937200  1.0  0.0997
  H  H74  1  0.267400  0.472200  0.191200  1.0  0.1027
  H  H75  1  0.245500  0.384200  0.289300  1.0  0.1023
  H  H76  1  0.052700  0.540200  0.978500  1.0  0.0929
  H  H77  1  0.276600  0.772800  0.437200  1.0  0.0993
  H  H78  1  0.232600  0.027800  0.691200  1.0  0.1025
  H  H79  1  0.254500  0.115800  0.789300  1.0  0.1022
  H  H80  1  0.447300  0.959800  0.478500  1.0  0.0933
  H  H81  1  0.776600  0.272800  0.937200  1.0  0.0993
  H  H82  1  0.732600  0.527800  0.191200  1.0  0.1025
  H  H83  1  0.754500  0.615800  0.289300  1.0  0.1022
  H  H84  1  0.947300  0.459800  0.978500  1.0  0.0933
  C  C85  1  0.903400  0.800300  0.762800  1.0  0.6885
  C  C86  1  0.880400  0.774100  0.688000  1.0  -0.2133
  C  C87  1  0.814000  0.764800  0.661200  1.0  -0.0919
  C  C88  1  0.035800  0.775700  0.965400  1.0  -0.0133
  C  C89  1  0.084500  0.787900  0.019500  1.0  0.0028
  C  C90  1  0.977900  0.970100  0.770300  1.0  -0.0523
  C  C91  1  0.403400  0.300300  0.262800  1.0  0.6885
  C  C92  1  0.380400  0.274100  0.188000  1.0  -0.2133
  C  C93  1  0.314000  0.264800  0.161200  1.0  -0.0919
  C  C94  1  0.535800  0.275700  0.465400  1.0  -0.0133
  C  C95  1  0.584500  0.287900  0.519500  1.0  0.0028
  C  C96  1  0.477900  0.470100  0.270300  1.0  -0.0523
  C  C97  1  0.096600  0.199700  0.762800  1.0  0.6872
  C  C98  1  0.119600  0.225900  0.688000  1.0  -0.2131
  C  C99  1  0.186000  0.235200  0.661200  1.0  -0.0919
  C  C100  1  0.964200  0.224300  0.965400  1.0  -0.0119
  C  C101  1  0.915500  0.212100  0.019500  1.0  0.0022
  C  C102  1  0.022100  0.029900  0.770300  1.0  -0.0517
  C  C103  1  0.596600  0.699700  0.262800  1.0  0.6872
  C  C104  1  0.619600  0.725900  0.188000  1.0  -0.2131
  C  C105  1  0.686000  0.735200  0.161200  1.0  -0.0919
  C  C106  1  0.464200  0.724300  0.465400  1.0  -0.0119
  C  C107  1  0.415500  0.712100  0.519500  1.0  0.0022
  C  C108  1  0.522100  0.529900  0.270300  1.0  -0.0517
  C  C109  1  0.800300  0.096600  0.237200  1.0  0.6898
  C  C110  1  0.774100  0.119600  0.312000  1.0  -0.2129
  C  C111  1  0.764800  0.186000  0.338800  1.0  -0.0939
  C  C112  1  0.775700  0.964200  0.034600  1.0  -0.01
  C  C113  1  0.787900  0.915500  0.980500  1.0  0.0025
  C  C114  1  0.970100  0.022100  0.229700  1.0  -0.053
  C  C115  1  0.300300  0.596600  0.737200  1.0  0.6898
  C  C116  1  0.274100  0.619600  0.812000  1.0  -0.2129
  C  C117  1  0.264800  0.686000  0.838800  1.0  -0.0939
  C  C118  1  0.275700  0.464200  0.534600  1.0  -0.01
  C  C119  1  0.287900  0.415500  0.480500  1.0  0.0025
  C  C120  1  0.470100  0.522100  0.729700  1.0  -0.053
  C  C121  1  0.199700  0.903400  0.237200  1.0  0.6888
  C  C122  1  0.225900  0.880400  0.312000  1.0  -0.2125
  C  C123  1  0.235200  0.814000  0.338800  1.0  -0.092
  C  C124  1  0.224300  0.035800  0.034600  1.0  -0.0107
  C  C125  1  0.212100  0.084500  0.980500  1.0  0.0014
  C  C126  1  0.029900  0.977900  0.229700  1.0  -0.0515
  C  C127  1  0.699700  0.403400  0.737200  1.0  0.6888
  C  C128  1  0.725900  0.380400  0.812000  1.0  -0.2125
  C  C129  1  0.735200  0.314000  0.838800  1.0  -0.092
  C  C130  1  0.724300  0.535800  0.534600  1.0  -0.0107
  C  C131  1  0.712100  0.584500  0.480500  1.0  0.0014
  C  C132  1  0.529900  0.477900  0.729700  1.0  -0.0515
  C  C133  1  0.596600  0.800300  0.987200  1.0  0.6875
  C  C134  1  0.619600  0.774100  0.062000  1.0  -0.2127
  C  C135  1  0.686000  0.764800  0.088800  1.0  -0.0918
  C  C136  1  0.464200  0.775700  0.784600  1.0  -0.0135
  C  C137  1  0.415500  0.787900  0.730500  1.0  0.0037
  C  C138  1  0.522100  0.970100  0.979700  1.0  -0.0524
  C  C139  1  0.096600  0.300300  0.487200  1.0  0.6875
  C  C140  1  0.119600  0.274100  0.562000  1.0  -0.2127
  C  C141  1  0.186000  0.264800  0.588800  1.0  -0.0918
  C  C142  1  0.964200  0.275700  0.284600  1.0  -0.0135
  C  C143  1  0.915500  0.287900  0.230500  1.0  0.0037
  C  C144  1  0.022100  0.470100  0.479700  1.0  -0.0524
  C  C145  1  0.403400  0.199700  0.987200  1.0  0.6875
  C  C146  1  0.380400  0.225900  0.062000  1.0  -0.2134
  C  C147  1  0.314000  0.235200  0.088800  1.0  -0.0917
  C  C148  1  0.535800  0.224300  0.784600  1.0  -0.0115
  C  C149  1  0.584500  0.212100  0.730500  1.0  0.0028
  C  C150  1  0.477900  0.029900  0.979700  1.0  -0.0532
  C  C151  1  0.903400  0.699700  0.487200  1.0  0.6875
  C  C152  1  0.880400  0.725900  0.562000  1.0  -0.2134
  C  C153  1  0.814000  0.735200  0.588800  1.0  -0.0917
  C  C154  1  0.035800  0.724300  0.284600  1.0  -0.0115
  C  C155  1  0.084500  0.712100  0.230500  1.0  0.0028
  C  C156  1  0.977900  0.529900  0.479700  1.0  -0.0532
  C  C157  1  0.699700  0.096600  0.512800  1.0  0.6905
  C  C158  1  0.725900  0.119600  0.438000  1.0  -0.2123
  C  C159  1  0.735200  0.186000  0.411200  1.0  -0.0946
  C  C160  1  0.724300  0.964200  0.715400  1.0  -0.0105
  C  C161  1  0.712100  0.915500  0.769500  1.0  0.0015
  C  C162  1  0.529900  0.022100  0.520300  1.0  -0.0512
  C  C163  1  0.199700  0.596600  0.012800  1.0  0.6905
  C  C164  1  0.225900  0.619600  0.938000  1.0  -0.2123
  C  C165  1  0.235200  0.686000  0.911200  1.0  -0.0946
  C  C166  1  0.224300  0.464200  0.215400  1.0  -0.0105
  C  C167  1  0.212100  0.415500  0.269500  1.0  0.0015
  C  C168  1  0.029900  0.522100  0.020300  1.0  -0.0512
  C  C169  1  0.300300  0.903400  0.512800  1.0  0.6898
  C  C170  1  0.274100  0.880400  0.438000  1.0  -0.2124
  C  C171  1  0.264800  0.814000  0.411200  1.0  -0.0912
  C  C172  1  0.275700  0.035800  0.715400  1.0  -0.0105
  C  C173  1  0.287900  0.084500  0.769500  1.0  0.0016
  C  C174  1  0.470100  0.977900  0.520300  1.0  -0.0516
  C  C175  1  0.800300  0.403400  0.012800  1.0  0.6898
  C  C176  1  0.774100  0.380400  0.938000  1.0  -0.2124
  C  C177  1  0.764800  0.314000  0.911200  1.0  -0.0912
  C  C178  1  0.775700  0.535800  0.215400  1.0  -0.0105
  C  C179  1  0.787900  0.584500  0.269500  1.0  0.0016
  C  C180  1  0.970100  0.477900  0.020300  1.0  -0.0516
  S  S181  1  0.942740  0.750000  0.625000  1.0  0.1583
  S  S182  1  0.057260  0.250000  0.625000  1.0  0.1624
  S  S183  1  0.750000  0.057260  0.375000  1.0  0.1705
  S  S184  1  0.250000  0.557260  0.875000  1.0  0.1705
  S  S185  1  0.250000  0.942740  0.375000  1.0  0.1696
  S  S186  1  0.750000  0.442740  0.875000  1.0  0.1696
  S  S187  1  0.557260  0.750000  0.125000  1.0  0.1624
  S  S188  1  0.442740  0.250000  0.125000  1.0  0.1583
  N  N189  1  0.029300  0.886400  0.999000  1.0  -0.05
  N  N190  1  0.001000  0.838000  0.953000  1.0  -0.2375
  N  N191  1  0.079700  0.855600  0.039200  1.0  -0.2034
  N  N192  1  0.966400  0.951600  0.839800  1.0  -0.2517
  N  N193  1  0.529300  0.386400  0.499000  1.0  -0.05
  N  N194  1  0.501000  0.338000  0.453000  1.0  -0.2375
  N  N195  1  0.579700  0.355600  0.539200  1.0  -0.2034
  N  N196  1  0.466400  0.451600  0.339800  1.0  -0.2517
  N  N197  1  0.970700  0.113600  0.999000  1.0  -0.05
  N  N198  1  0.999000  0.162000  0.953000  1.0  -0.2378
  N  N199  1  0.920300  0.144400  0.039200  1.0  -0.2041
  N  N200  1  0.033600  0.048400  0.839800  1.0  -0.252
  N  N201  1  0.470700  0.613600  0.499000  1.0  -0.05
  N  N202  1  0.499000  0.662000  0.453000  1.0  -0.2378
  N  N203  1  0.420300  0.644400  0.539200  1.0  -0.2041
  N  N204  1  0.533600  0.548400  0.339800  1.0  -0.252
  N  N205  1  0.886400  0.970700  0.001000  1.0  -0.0494
  N  N206  1  0.838000  0.999000  0.047000  1.0  -0.2363
  N  N207  1  0.855600  0.920300  0.960800  1.0  -0.2033
  N  N208  1  0.951600  0.033600  0.160200  1.0  -0.2526
  N  N209  1  0.386400  0.470700  0.501000  1.0  -0.0494
  N  N210  1  0.338000  0.499000  0.547000  1.0  -0.2363
  N  N211  1  0.355600  0.420300  0.460800  1.0  -0.2033
  N  N212  1  0.451600  0.533600  0.660200  1.0  -0.2526
  N  N213  1  0.113600  0.029300  0.001000  1.0  -0.0492
  N  N214  1  0.162000  0.001000  0.047000  1.0  -0.2378
  N  N215  1  0.144400  0.079700  0.960800  1.0  -0.203
  N  N216  1  0.048400  0.966400  0.160200  1.0  -0.2514
  N  N217  1  0.613600  0.529300  0.501000  1.0  -0.0492
  N  N218  1  0.662000  0.501000  0.547000  1.0  -0.2378
  N  N219  1  0.644400  0.579700  0.460800  1.0  -0.203
  N  N220  1  0.548400  0.466400  0.660200  1.0  -0.2514
  N  N221  1  0.470700  0.886400  0.751000  1.0  -0.0504
  N  N222  1  0.499000  0.838000  0.797000  1.0  -0.2371
  N  N223  1  0.420300  0.855600  0.710800  1.0  -0.2032
  N  N224  1  0.533600  0.951600  0.910200  1.0  -0.2507
  N  N225  1  0.970700  0.386400  0.251000  1.0  -0.0504
  N  N226  1  0.999000  0.338000  0.297000  1.0  -0.2371
  N  N227  1  0.920300  0.355600  0.210800  1.0  -0.2032
  N  N228  1  0.033600  0.451600  0.410200  1.0  -0.2507
  N  N229  1  0.529300  0.113600  0.751000  1.0  -0.0495
  N  N230  1  0.501000  0.162000  0.797000  1.0  -0.2385
  N  N231  1  0.579700  0.144400  0.710800  1.0  -0.204
  N  N232  1  0.466400  0.048400  0.910200  1.0  -0.2511
  N  N233  1  0.029300  0.613600  0.251000  1.0  -0.0495
  N  N234  1  0.001000  0.662000  0.297000  1.0  -0.2385
  N  N235  1  0.079700  0.644400  0.210800  1.0  -0.204
  N  N236  1  0.966400  0.548400  0.410200  1.0  -0.2511
  N  N237  1  0.613600  0.970700  0.749000  1.0  -0.0493
  N  N238  1  0.662000  0.999000  0.703000  1.0  -0.237
  N  N239  1  0.644400  0.920300  0.789200  1.0  -0.2042
  N  N240  1  0.548400  0.033600  0.589800  1.0  -0.2526
  N  N241  1  0.113600  0.470700  0.249000  1.0  -0.0493
  N  N242  1  0.162000  0.499000  0.203000  1.0  -0.237
  N  N243  1  0.144400  0.420300  0.289200  1.0  -0.2042
  N  N244  1  0.048400  0.533600  0.089800  1.0  -0.2526
  N  N245  1  0.386400  0.029300  0.749000  1.0  -0.0492
  N  N246  1  0.338000  0.001000  0.703000  1.0  -0.236
  N  N247  1  0.355600  0.079700  0.789200  1.0  -0.2034
  N  N248  1  0.451600  0.966400  0.589800  1.0  -0.2533
  N  N249  1  0.886400  0.529300  0.249000  1.0  -0.0492
  N  N250  1  0.838000  0.501000  0.203000  1.0  -0.236
  N  N251  1  0.855600  0.579700  0.289200  1.0  -0.2034
  N  N252  1  0.951600  0.466400  0.089800  1.0  -0.2533
  N  N253  1  0.000000  0.000000  0.881500  1.0  -0.0994
  N  N254  1  0.500000  0.500000  0.381500  1.0  -0.0994
  N  N255  1  0.000000  0.000000  0.118500  1.0  -0.0987
  N  N256  1  0.500000  0.500000  0.618500  1.0  -0.0987
  N  N257  1  0.500000  0.000000  0.868500  1.0  -0.0987
  N  N258  1  0.000000  0.500000  0.368500  1.0  -0.0987
  N  N259  1  0.500000  0.000000  0.631500  1.0  -0.0994
  N  N260  1  0.000000  0.500000  0.131500  1.0  -0.0994
  O  O261  1  0.962200  0.790800  0.784600  1.0  -0.5575
  O  O262  1  0.857000  0.833000  0.800500  1.0  -0.5962
  O  O263  1  0.462200  0.290800  0.284600  1.0  -0.5575
  O  O264  1  0.357000  0.333000  0.300500  1.0  -0.5962
  O  O265  1  0.037800  0.209200  0.784600  1.0  -0.5631
  O  O266  1  0.143000  0.167000  0.800500  1.0  -0.598
  O  O267  1  0.537800  0.709200  0.284600  1.0  -0.5631
  O  O268  1  0.643000  0.667000  0.300500  1.0  -0.598
  O  O269  1  0.790800  0.037800  0.215400  1.0  -0.5561
  O  O270  1  0.833000  0.143000  0.199500  1.0  -0.5991
  O  O271  1  0.290800  0.537800  0.715400  1.0  -0.5561
  O  O272  1  0.333000  0.643000  0.699500  1.0  -0.5991
  O  O273  1  0.209200  0.962200  0.215400  1.0  -0.5556
  O  O274  1  0.167000  0.857000  0.199500  1.0  -0.5966
  O  O275  1  0.709200  0.462200  0.715400  1.0  -0.5556
  O  O276  1  0.667000  0.357000  0.699500  1.0  -0.5966
  O  O277  1  0.537800  0.790800  0.965400  1.0  -0.5602
  O  O278  1  0.643000  0.833000  0.949500  1.0  -0.5973
  O  O279  1  0.037800  0.290800  0.465400  1.0  -0.5602
  O  O280  1  0.143000  0.333000  0.449500  1.0  -0.5973
  O  O281  1  0.462200  0.209200  0.965400  1.0  -0.5579
  O  O282  1  0.357000  0.167000  0.949500  1.0  -0.5963
  O  O283  1  0.962200  0.709200  0.465400  1.0  -0.5579
  O  O284  1  0.857000  0.667000  0.449500  1.0  -0.5963
  O  O285  1  0.709200  0.037800  0.534600  1.0  -0.5565
  O  O286  1  0.667000  0.143000  0.550500  1.0  -0.5981
  O  O287  1  0.209200  0.537800  0.034600  1.0  -0.5565
  O  O288  1  0.167000  0.643000  0.050500  1.0  -0.5981
  O  O289  1  0.290800  0.962200  0.534600  1.0  -0.5582
  O  O290  1  0.333000  0.857000  0.550500  1.0  -0.5973
  O  O291  1  0.790800  0.462200  0.034600  1.0  -0.5582
  O  O292  1  0.833000  0.357000  0.050500  1.0  -0.5973
