# generated using pymatgen
data_Zn4C60O7
_symmetry_space_group_name_H-M   'P 1'
_cell_length_a   35.75500000
_cell_length_b   35.75500000
_cell_length_c   35.75500000
_cell_angle_alpha   90.00000000
_cell_angle_beta   90.00000000
_cell_angle_gamma   90.00000000
_symmetry_Int_Tables_number   1
_chemical_formula_structural   Zn4C60O7
_chemical_formula_sum   'Zn32 C480 O56'
_cell_volume   45709.90799388
_cell_formula_units_Z   8
loop_
 _symmetry_equiv_pos_site_id
 _symmetry_equiv_pos_as_xyz
  1  'x, y, z'
loop_
 _atom_site_type_symbol
 _atom_site_label
 _atom_site_symmetry_multiplicity
 _atom_site_fract_x
 _atom_site_fract_y
 _atom_site_fract_z
 _atom_site_occupancy
 _atom_site_charge
  Zn  Zn1  1  0.236020  0.803920  0.751770  1.0  0.8971
  Zn  Zn2  1  0.263980  0.196080  0.251770  1.0  0.9019
  Zn  Zn3  1  0.763980  0.303920  0.748230  1.0  0.9009
  Zn  Zn4  1  0.736020  0.696080  0.248230  1.0  0.8949
  Zn  Zn5  1  0.751770  0.236020  0.803920  1.0  0.901
  Zn  Zn6  1  0.251770  0.263980  0.196080  1.0  0.9066
  Zn  Zn7  1  0.748230  0.763980  0.303920  1.0  0.903
  Zn  Zn8  1  0.248230  0.736020  0.696080  1.0  0.9002
  Zn  Zn9  1  0.803920  0.751770  0.236020  1.0  0.8951
  Zn  Zn10  1  0.196080  0.251770  0.263980  1.0  0.9019
  Zn  Zn11  1  0.303920  0.748230  0.763980  1.0  0.8975
  Zn  Zn12  1  0.696080  0.248230  0.736020  1.0  0.8969
  Zn  Zn13  1  0.221490  0.721490  0.778510  1.0  1.029
  Zn  Zn14  1  0.278510  0.278510  0.278510  1.0  1.0292
  Zn  Zn15  1  0.778510  0.221490  0.721490  1.0  1.0293
  Zn  Zn16  1  0.721490  0.778510  0.221490  1.0  1.0294
  Zn  Zn17  1  0.736020  0.303920  0.251770  1.0  0.8992
  Zn  Zn18  1  0.763980  0.696080  0.751770  1.0  0.8948
  Zn  Zn19  1  0.263980  0.803920  0.248230  1.0  0.9002
  Zn  Zn20  1  0.236020  0.196080  0.748230  1.0  0.8954
  Zn  Zn21  1  0.251770  0.736020  0.303920  1.0  0.903
  Zn  Zn22  1  0.751770  0.763980  0.696080  1.0  0.9006
  Zn  Zn23  1  0.248230  0.263980  0.803920  1.0  0.9022
  Zn  Zn24  1  0.748230  0.236020  0.196080  1.0  0.9
  Zn  Zn25  1  0.303920  0.251770  0.736020  1.0  0.8974
  Zn  Zn26  1  0.696080  0.751770  0.763980  1.0  0.8962
  Zn  Zn27  1  0.803920  0.248230  0.263980  1.0  0.8983
  Zn  Zn28  1  0.196080  0.748230  0.236020  1.0  0.8959
  Zn  Zn29  1  0.721490  0.221490  0.278510  1.0  1.029
  Zn  Zn30  1  0.778510  0.778510  0.778510  1.0  1.0292
  Zn  Zn31  1  0.278510  0.721490  0.221490  1.0  1.0293
  Zn  Zn32  1  0.221490  0.278510  0.721490  1.0  1.0294
  C  C33  1  0.313600  0.658700  0.977800  1.0  0.0556
  C  C34  1  0.344900  0.674100  0.995000  1.0  -0.0301
  C  C35  1  0.358400  0.658700  0.028100  1.0  -0.0644
  C  C36  1  0.340600  0.628000  0.043920  1.0  -0.0827
  C  C37  1  0.309300  0.612670  0.026700  1.0  -0.0338
  C  C38  1  0.295800  0.628000  0.993700  1.0  -0.0222
  C  C39  1  0.368300  0.615300  0.082300  1.0  0.0412
  C  C40  1  0.383000  0.712900  0.070600  1.0  -0.084
  C  C41  1  0.360800  0.585300  0.103400  1.0  0.0443
  C  C42  1  0.431900  0.666667  0.029300  1.0  -0.0668
  C  C43  1  0.394300  0.672200  0.052700  1.0  0.0462
  C  C44  1  0.440200  0.628700  0.014900  1.0  -0.0297
  C  C45  1  0.350000  0.716300  0.092600  1.0  -0.0285
  C  C46  1  0.287700  0.697810  0.870980  1.0  -0.1048
  C  C47  1  0.260610  0.684000  0.895300  1.0  -0.0466
  C  C48  1  0.270900  0.670630  0.930300  1.0  0.0094
  C  C49  1  0.308300  0.671000  0.940990  1.0  0.1473
  C  C50  1  0.335340  0.684700  0.916700  1.0  -0.0522
  C  C51  1  0.325000  0.698200  0.881700  1.0  -0.0615
  C  C52  1  0.276700  0.712200  0.831800  1.0  0.61
  C  C53  1  0.186400  0.341300  0.477800  1.0  0.0549
  C  C54  1  0.155100  0.325900  0.495000  1.0  -0.0293
  C  C55  1  0.141600  0.341300  0.528100  1.0  -0.0656
  C  C56  1  0.159400  0.372000  0.543920  1.0  -0.0838
  C  C57  1  0.190700  0.387330  0.526700  1.0  -0.0353
  C  C58  1  0.204200  0.372000  0.493700  1.0  -0.0243
  C  C59  1  0.131700  0.384700  0.582300  1.0  0.0395
  C  C60  1  0.117000  0.287100  0.570600  1.0  -0.0865
  C  C61  1  0.139200  0.414700  0.603400  1.0  0.0433
  C  C62  1  0.068100  0.333333  0.529300  1.0  -0.0608
  C  C63  1  0.105700  0.327800  0.552700  1.0  0.0449
  C  C64  1  0.059800  0.371300  0.514900  1.0  -0.0318
  C  C65  1  0.150000  0.283700  0.592600  1.0  -0.0298
  C  C66  1  0.212300  0.302190  0.370980  1.0  -0.1046
  C  C67  1  0.239390  0.316000  0.395300  1.0  -0.0469
  C  C68  1  0.229100  0.329370  0.430300  1.0  0.0118
  C  C69  1  0.191700  0.329000  0.440990  1.0  0.147
  C  C70  1  0.164660  0.315300  0.416700  1.0  -0.05
  C  C71  1  0.175000  0.301800  0.381700  1.0  -0.0683
  C  C72  1  0.223300  0.287800  0.331800  1.0  0.6108
  C  C73  1  0.686400  0.158700  0.522200  1.0  0.0549
  C  C74  1  0.655100  0.174100  0.505000  1.0  -0.0292
  C  C75  1  0.641600  0.158700  0.471900  1.0  -0.0646
  C  C76  1  0.659400  0.128000  0.456080  1.0  -0.0829
  C  C77  1  0.690700  0.112670  0.473300  1.0  -0.0347
  C  C78  1  0.704200  0.128000  0.506300  1.0  -0.0229
  C  C79  1  0.631700  0.115300  0.417700  1.0  0.0401
  C  C80  1  0.617000  0.212900  0.429400  1.0  -0.0834
  C  C81  1  0.639200  0.085300  0.396600  1.0  0.0442
  C  C82  1  0.568100  0.166700  0.470700  1.0  -0.0689
  C  C83  1  0.605700  0.172200  0.447300  1.0  0.0474
  C  C84  1  0.559800  0.128700  0.485100  1.0  -0.0325
  C  C85  1  0.650000  0.216300  0.407400  1.0  -0.0291
  C  C86  1  0.712300  0.197810  0.629020  1.0  -0.104
  C  C87  1  0.739390  0.184000  0.604700  1.0  -0.0461
  C  C88  1  0.729100  0.170630  0.569700  1.0  0.0112
  C  C89  1  0.691700  0.171000  0.559010  1.0  0.1472
  C  C90  1  0.664660  0.184700  0.583300  1.0  -0.0497
  C  C91  1  0.675000  0.198200  0.618300  1.0  -0.0631
  C  C92  1  0.723300  0.212200  0.668200  1.0  0.6104
  C  C93  1  0.813600  0.841300  0.022200  1.0  0.0545
  C  C94  1  0.844900  0.825900  0.005000  1.0  -0.0299
  C  C95  1  0.858400  0.841300  0.971900  1.0  -0.0654
  C  C96  1  0.840600  0.872000  0.956080  1.0  -0.083
  C  C97  1  0.809300  0.887330  0.973300  1.0  -0.0335
  C  C98  1  0.795800  0.872000  0.006300  1.0  -0.0225
  C  C99  1  0.868300  0.884700  0.917700  1.0  0.0412
  C  C100  1  0.883000  0.787100  0.929400  1.0  -0.0854
  C  C101  1  0.860800  0.914700  0.896600  1.0  0.0446
  C  C102  1  0.931900  0.833300  0.970700  1.0  -0.06
  C  C103  1  0.894300  0.827800  0.947300  1.0  0.0462
  C  C104  1  0.940200  0.871300  0.985100  1.0  -0.0303
  C  C105  1  0.850000  0.783700  0.907400  1.0  -0.0274
  C  C106  1  0.787700  0.802190  0.129020  1.0  -0.1047
  C  C107  1  0.760610  0.816000  0.104700  1.0  -0.0468
  C  C108  1  0.770900  0.829370  0.069700  1.0  0.0094
  C  C109  1  0.808300  0.829000  0.059010  1.0  0.1465
  C  C110  1  0.835340  0.815300  0.083300  1.0  -0.0515
  C  C111  1  0.825000  0.801800  0.118300  1.0  -0.0718
  C  C112  1  0.776700  0.787800  0.168200  1.0  0.6098
  C  C113  1  0.977800  0.313600  0.658700  1.0  0.0543
  C  C114  1  0.995000  0.344900  0.674100  1.0  -0.0325
  C  C115  1  0.028100  0.358400  0.658700  1.0  -0.0641
  C  C116  1  0.043920  0.340600  0.628000  1.0  -0.0812
  C  C117  1  0.026700  0.309300  0.612670  1.0  -0.0308
  C  C118  1  0.993700  0.295800  0.628000  1.0  -0.0204
  C  C119  1  0.082300  0.368300  0.615300  1.0  0.0518
  C  C120  1  0.070600  0.383000  0.712900  1.0  -0.087
  C  C121  1  0.103400  0.360800  0.585300  1.0  0.0462
  C  C122  1  0.029300  0.431900  0.666667  1.0  -0.0682
  C  C123  1  0.052700  0.394300  0.672200  1.0  0.0456
  C  C124  1  0.014900  0.440200  0.628700  1.0  -0.0309
  C  C125  1  0.092600  0.350000  0.716300  1.0  -0.032
  C  C126  1  0.870980  0.287700  0.697810  1.0  -0.1046
  C  C127  1  0.895300  0.260610  0.684000  1.0  -0.0452
  C  C128  1  0.930300  0.270900  0.670630  1.0  0.0131
  C  C129  1  0.940990  0.308300  0.671000  1.0  0.1472
  C  C130  1  0.916700  0.335340  0.684700  1.0  -0.0511
  C  C131  1  0.881700  0.325000  0.698200  1.0  -0.0608
  C  C132  1  0.831800  0.276700  0.712200  1.0  0.6098
  C  C133  1  0.477800  0.186400  0.341300  1.0  0.0553
  C  C134  1  0.495000  0.155100  0.325900  1.0  -0.0341
  C  C135  1  0.528100  0.141600  0.341300  1.0  -0.0644
  C  C136  1  0.543920  0.159400  0.372000  1.0  -0.0826
  C  C137  1  0.526700  0.190700  0.387330  1.0  -0.0335
  C  C138  1  0.493700  0.204200  0.372000  1.0  -0.0225
  C  C139  1  0.582300  0.131700  0.384700  1.0  0.0489
  C  C140  1  0.570600  0.117000  0.287100  1.0  -0.0861
  C  C141  1  0.603400  0.139200  0.414700  1.0  0.047
  C  C142  1  0.529300  0.068100  0.333333  1.0  -0.0608
  C  C143  1  0.552700  0.105700  0.327800  1.0  0.0457
  C  C144  1  0.514900  0.059800  0.371300  1.0  -0.031
  C  C145  1  0.592600  0.150000  0.283700  1.0  -0.033
  C  C146  1  0.370980  0.212300  0.302190  1.0  -0.1053
  C  C147  1  0.395300  0.239390  0.316000  1.0  -0.047
  C  C148  1  0.430300  0.229100  0.329370  1.0  0.0101
  C  C149  1  0.440990  0.191700  0.329000  1.0  0.1476
  C  C150  1  0.416700  0.164660  0.315300  1.0  -0.0517
  C  C151  1  0.381700  0.175000  0.301800  1.0  -0.0662
  C  C152  1  0.331800  0.223300  0.287800  1.0  0.6095
  C  C153  1  0.522200  0.686400  0.158700  1.0  0.0557
  C  C154  1  0.505000  0.655100  0.174100  1.0  -0.0324
  C  C155  1  0.471900  0.641600  0.158700  1.0  -0.0651
  C  C156  1  0.456080  0.659400  0.128000  1.0  -0.0822
  C  C157  1  0.473300  0.690700  0.112670  1.0  -0.0304
  C  C158  1  0.506300  0.704200  0.128000  1.0  -0.0231
  C  C159  1  0.417700  0.631700  0.115300  1.0  0.0485
  C  C160  1  0.429400  0.617000  0.212900  1.0  -0.0876
  C  C161  1  0.396600  0.639200  0.085300  1.0  0.0458
  C  C162  1  0.470700  0.568100  0.166700  1.0  -0.0663
  C  C163  1  0.447300  0.605700  0.172200  1.0  0.0463
  C  C164  1  0.485100  0.559800  0.128700  1.0  -0.0321
  C  C165  1  0.407400  0.650000  0.216300  1.0  -0.0317
  C  C166  1  0.629020  0.712300  0.197810  1.0  -0.1045
  C  C167  1  0.604700  0.739390  0.184000  1.0  -0.0464
  C  C168  1  0.569700  0.729100  0.170630  1.0  0.0094
  C  C169  1  0.559010  0.691700  0.171000  1.0  0.1472
  C  C170  1  0.583300  0.664660  0.184700  1.0  -0.0514
  C  C171  1  0.618300  0.675000  0.198200  1.0  -0.0606
  C  C172  1  0.668200  0.723300  0.212200  1.0  0.6108
  C  C173  1  0.022200  0.813600  0.841300  1.0  0.0552
  C  C174  1  0.005000  0.844900  0.825900  1.0  -0.0347
  C  C175  1  0.971900  0.858400  0.841300  1.0  -0.0644
  C  C176  1  0.956080  0.840600  0.872000  1.0  -0.0829
  C  C177  1  0.973300  0.809300  0.887330  1.0  -0.0314
  C  C178  1  0.006300  0.795800  0.872000  1.0  -0.0225
  C  C179  1  0.917700  0.868300  0.884700  1.0  0.0511
  C  C180  1  0.929400  0.883000  0.787100  1.0  -0.084
  C  C181  1  0.896600  0.860800  0.914700  1.0  0.0463
  C  C182  1  0.970700  0.931900  0.833300  1.0  -0.0605
  C  C183  1  0.947300  0.894300  0.827800  1.0  0.0453
  C  C184  1  0.985100  0.940200  0.871300  1.0  -0.0312
  C  C185  1  0.907400  0.850000  0.783700  1.0  -0.0315
  C  C186  1  0.129020  0.787700  0.802190  1.0  -0.1042
  C  C187  1  0.104700  0.760610  0.816000  1.0  -0.0446
  C  C188  1  0.069700  0.770900  0.829370  1.0  0.0113
  C  C189  1  0.059010  0.808300  0.829000  1.0  0.1473
  C  C190  1  0.083300  0.835340  0.815300  1.0  -0.0511
  C  C191  1  0.118300  0.825000  0.801800  1.0  -0.0727
  C  C192  1  0.168200  0.776700  0.787800  1.0  0.6115
  C  C193  1  0.658700  0.977800  0.313600  1.0  0.0564
  C  C194  1  0.674100  0.995000  0.344900  1.0  -0.0313
  C  C195  1  0.658700  0.028100  0.358400  1.0  -0.065
  C  C196  1  0.628000  0.043920  0.340600  1.0  -0.0824
  C  C197  1  0.612670  0.026700  0.309300  1.0  -0.0262
  C  C198  1  0.628000  0.993700  0.295800  1.0  -0.0265
  C  C199  1  0.615300  0.082300  0.368300  1.0  0.0409
  C  C200  1  0.712900  0.070600  0.383000  1.0  -0.0862
  C  C201  1  0.585300  0.103400  0.360800  1.0  0.0448
  C  C202  1  0.666667  0.029300  0.431900  1.0  -0.0706
  C  C203  1  0.672200  0.052700  0.394300  1.0  0.0457
  C  C204  1  0.628700  0.014900  0.440200  1.0  -0.0271
  C  C205  1  0.716300  0.092600  0.350000  1.0  -0.0328
  C  C206  1  0.697810  0.870980  0.287700  1.0  -0.1062
  C  C207  1  0.684000  0.895300  0.260610  1.0  -0.0476
  C  C208  1  0.670630  0.930300  0.270900  1.0  0.0056
  C  C209  1  0.671000  0.940990  0.308300  1.0  0.1469
  C  C210  1  0.684700  0.916700  0.335340  1.0  -0.0555
  C  C211  1  0.698200  0.881700  0.325000  1.0  -0.0563
  C  C212  1  0.712200  0.831800  0.276700  1.0  0.6084
  C  C213  1  0.341300  0.477800  0.186400  1.0  0.0566
  C  C214  1  0.325900  0.495000  0.155100  1.0  -0.0316
  C  C215  1  0.341300  0.528100  0.141600  1.0  -0.0652
  C  C216  1  0.372000  0.543920  0.159400  1.0  -0.0834
  C  C217  1  0.387330  0.526700  0.190700  1.0  -0.0296
  C  C218  1  0.372000  0.493700  0.204200  1.0  -0.0254
  C  C219  1  0.384700  0.582300  0.131700  1.0  0.0411
  C  C220  1  0.287100  0.570600  0.117000  1.0  -0.0829
  C  C221  1  0.414700  0.603400  0.139200  1.0  0.0447
  C  C222  1  0.333333  0.529300  0.068100  1.0  -0.0607
  C  C223  1  0.327800  0.552700  0.105700  1.0  0.0449
  C  C224  1  0.371300  0.514900  0.059800  1.0  -0.0281
  C  C225  1  0.283700  0.592600  0.150000  1.0  -0.0322
  C  C226  1  0.302190  0.370980  0.212300  1.0  -0.1067
  C  C227  1  0.316000  0.395300  0.239390  1.0  -0.049
  C  C228  1  0.329370  0.430300  0.229100  1.0  0.0052
  C  C229  1  0.329000  0.440990  0.191700  1.0  0.1477
  C  C230  1  0.315300  0.416700  0.164660  1.0  -0.0567
  C  C231  1  0.301800  0.381700  0.175000  1.0  -0.0664
  C  C232  1  0.287800  0.331800  0.223300  1.0  0.6099
  C  C233  1  0.158700  0.522200  0.686400  1.0  0.0562
  C  C234  1  0.174100  0.505000  0.655100  1.0  -0.0306
  C  C235  1  0.158700  0.471900  0.641600  1.0  -0.065
  C  C236  1  0.128000  0.456080  0.659400  1.0  -0.0822
  C  C237  1  0.112670  0.473300  0.690700  1.0  -0.0273
  C  C238  1  0.128000  0.506300  0.704200  1.0  -0.0247
  C  C239  1  0.115300  0.417700  0.631700  1.0  0.0395
  C  C240  1  0.212900  0.429400  0.617000  1.0  -0.0851
  C  C241  1  0.085300  0.396600  0.639200  1.0  0.045
  C  C242  1  0.166700  0.470700  0.568100  1.0  -0.0704
  C  C243  1  0.172200  0.447300  0.605700  1.0  0.0463
  C  C244  1  0.128700  0.485100  0.559800  1.0  -0.0308
  C  C245  1  0.216300  0.407400  0.650000  1.0  -0.0322
  C  C246  1  0.197810  0.629020  0.712300  1.0  -0.106
  C  C247  1  0.184000  0.604700  0.739390  1.0  -0.0484
  C  C248  1  0.170630  0.569700  0.729100  1.0  0.0059
  C  C249  1  0.171000  0.559010  0.691700  1.0  0.147
  C  C250  1  0.184700  0.583300  0.664660  1.0  -0.0575
  C  C251  1  0.198200  0.618300  0.675000  1.0  -0.0627
  C  C252  1  0.212200  0.668200  0.723300  1.0  0.6094
  C  C253  1  0.841300  0.022200  0.813600  1.0  0.0558
  C  C254  1  0.825900  0.005000  0.844900  1.0  -0.0311
  C  C255  1  0.841300  0.971900  0.858400  1.0  -0.0633
  C  C256  1  0.872000  0.956080  0.840600  1.0  -0.0829
  C  C257  1  0.887330  0.973300  0.809300  1.0  -0.0298
  C  C258  1  0.872000  0.006300  0.795800  1.0  -0.0264
  C  C259  1  0.884700  0.917700  0.868300  1.0  0.0415
  C  C260  1  0.787100  0.929400  0.883000  1.0  -0.0848
  C  C261  1  0.914700  0.896600  0.860800  1.0  0.0461
  C  C262  1  0.833300  0.970700  0.931900  1.0  -0.0631
  C  C263  1  0.827800  0.947300  0.894300  1.0  0.0461
  C  C264  1  0.871300  0.985100  0.940200  1.0  -0.0274
  C  C265  1  0.783700  0.907400  0.850000  1.0  -0.0319
  C  C266  1  0.802190  0.129020  0.787700  1.0  -0.1053
  C  C267  1  0.816000  0.104700  0.760610  1.0  -0.0471
  C  C268  1  0.829370  0.069700  0.770900  1.0  0.0057
  C  C269  1  0.829000  0.059010  0.808300  1.0  0.1469
  C  C270  1  0.815300  0.083300  0.835340  1.0  -0.0549
  C  C271  1  0.801800  0.118300  0.825000  1.0  -0.0722
  C  C272  1  0.787800  0.168200  0.776700  1.0  0.61
  C  C273  1  0.813600  0.158700  0.477800  1.0  0.0556
  C  C274  1  0.844900  0.174100  0.495000  1.0  -0.0301
  C  C275  1  0.858400  0.158700  0.528100  1.0  -0.0644
  C  C276  1  0.840600  0.128000  0.543920  1.0  -0.0826
  C  C277  1  0.809300  0.112670  0.526700  1.0  -0.0338
  C  C278  1  0.795800  0.128000  0.493700  1.0  -0.0222
  C  C279  1  0.868300  0.115300  0.582300  1.0  0.0409
  C  C280  1  0.883000  0.212900  0.570600  1.0  -0.084
  C  C281  1  0.860800  0.085300  0.603400  1.0  0.0443
  C  C282  1  0.931900  0.166700  0.529300  1.0  -0.0595
  C  C283  1  0.894300  0.172200  0.552700  1.0  0.0462
  C  C284  1  0.940200  0.128700  0.514900  1.0  -0.0309
  C  C285  1  0.850000  0.216300  0.592600  1.0  -0.0285
  C  C286  1  0.787700  0.197810  0.370980  1.0  -0.1048
  C  C287  1  0.760610  0.184000  0.395300  1.0  -0.0466
  C  C288  1  0.770900  0.170630  0.430300  1.0  0.0094
  C  C289  1  0.808300  0.171000  0.440990  1.0  0.1473
  C  C290  1  0.835340  0.184700  0.416700  1.0  -0.0526
  C  C291  1  0.825000  0.198200  0.381700  1.0  -0.0675
  C  C292  1  0.776700  0.212200  0.331800  1.0  0.61
  C  C293  1  0.686400  0.841300  0.977800  1.0  0.0549
  C  C294  1  0.655100  0.825900  0.995000  1.0  -0.0293
  C  C295  1  0.641600  0.841300  0.028100  1.0  -0.0656
  C  C296  1  0.659400  0.872000  0.043920  1.0  -0.0839
  C  C297  1  0.690700  0.887330  0.026700  1.0  -0.0353
  C  C298  1  0.704200  0.872000  0.993700  1.0  -0.0243
  C  C299  1  0.631700  0.884700  0.082300  1.0  0.0398
  C  C300  1  0.617000  0.787100  0.070600  1.0  -0.0865
  C  C301  1  0.639200  0.914700  0.103400  1.0  0.0432
  C  C302  1  0.568100  0.833300  0.029300  1.0  -0.0677
  C  C303  1  0.605700  0.827800  0.052700  1.0  0.0449
  C  C304  1  0.559800  0.871300  0.014900  1.0  -0.0345
  C  C305  1  0.650000  0.783700  0.092600  1.0  -0.0298
  C  C306  1  0.712300  0.802190  0.870980  1.0  -0.1046
  C  C307  1  0.739390  0.816000  0.895300  1.0  -0.0469
  C  C308  1  0.729100  0.829370  0.930300  1.0  0.0118
  C  C309  1  0.691700  0.829000  0.940990  1.0  0.147
  C  C310  1  0.664660  0.815300  0.916700  1.0  -0.049
  C  C311  1  0.675000  0.801800  0.881700  1.0  -0.0636
  C  C312  1  0.723300  0.787800  0.831800  1.0  0.6108
  C  C313  1  0.186400  0.658700  0.022200  1.0  0.0549
  C  C314  1  0.155100  0.674100  0.005000  1.0  -0.0292
  C  C315  1  0.141600  0.658700  0.971900  1.0  -0.0646
  C  C316  1  0.159400  0.628000  0.956080  1.0  -0.0828
  C  C317  1  0.190700  0.612670  0.973300  1.0  -0.0347
  C  C318  1  0.204200  0.628000  0.006300  1.0  -0.0229
  C  C319  1  0.131700  0.615300  0.917700  1.0  0.0398
  C  C320  1  0.117000  0.712900  0.929400  1.0  -0.0834
  C  C321  1  0.139200  0.585300  0.896600  1.0  0.0443
  C  C322  1  0.068100  0.666667  0.970700  1.0  -0.0617
  C  C323  1  0.105700  0.672200  0.947300  1.0  0.0474
  C  C324  1  0.059800  0.628700  0.985100  1.0  -0.0291
  C  C325  1  0.150000  0.716300  0.907400  1.0  -0.0291
  C  C326  1  0.212300  0.697810  0.129020  1.0  -0.104
  C  C327  1  0.239390  0.684000  0.104700  1.0  -0.0461
  C  C328  1  0.229100  0.670630  0.069700  1.0  0.0112
  C  C329  1  0.191700  0.671000  0.059010  1.0  0.1472
  C  C330  1  0.164660  0.684700  0.083300  1.0  -0.0499
  C  C331  1  0.175000  0.698200  0.118300  1.0  -0.072
  C  C332  1  0.223300  0.712200  0.168200  1.0  0.6104
  C  C333  1  0.313600  0.341300  0.522200  1.0  0.0545
  C  C334  1  0.344900  0.325900  0.505000  1.0  -0.0299
  C  C335  1  0.358400  0.341300  0.471900  1.0  -0.0654
  C  C336  1  0.340600  0.372000  0.456080  1.0  -0.0831
  C  C337  1  0.309300  0.387330  0.473300  1.0  -0.0335
  C  C338  1  0.295800  0.372000  0.506300  1.0  -0.0225
  C  C339  1  0.368300  0.384700  0.417700  1.0  0.0415
  C  C340  1  0.383000  0.287100  0.429400  1.0  -0.0854
  C  C341  1  0.360800  0.414700  0.396600  1.0  0.0446
  C  C342  1  0.431900  0.333333  0.470700  1.0  -0.0678
  C  C343  1  0.394300  0.327800  0.447300  1.0  0.0462
  C  C344  1  0.440200  0.371300  0.485100  1.0  -0.0401
  C  C345  1  0.350000  0.283700  0.407400  1.0  -0.0274
  C  C346  1  0.287700  0.302190  0.629020  1.0  -0.1047
  C  C347  1  0.260610  0.316000  0.604700  1.0  -0.0468
  C  C348  1  0.270900  0.329370  0.569700  1.0  0.0094
  C  C349  1  0.308300  0.329000  0.559010  1.0  0.1465
  C  C350  1  0.335340  0.315300  0.583300  1.0  -0.0514
  C  C351  1  0.325000  0.301800  0.618300  1.0  -0.06
  C  C352  1  0.276700  0.287800  0.668200  1.0  0.6098
  C  C353  1  0.477800  0.813600  0.158700  1.0  0.0543
  C  C354  1  0.495000  0.844900  0.174100  1.0  -0.0325
  C  C355  1  0.528100  0.858400  0.158700  1.0  -0.064
  C  C356  1  0.543920  0.840600  0.128000  1.0  -0.0811
  C  C357  1  0.526700  0.809300  0.112670  1.0  -0.0308
  C  C358  1  0.493700  0.795800  0.128000  1.0  -0.0204
  C  C359  1  0.582300  0.868300  0.115300  1.0  0.0516
  C  C360  1  0.570600  0.883000  0.212900  1.0  -0.087
  C  C361  1  0.603400  0.860800  0.085300  1.0  0.0462
  C  C362  1  0.529300  0.931900  0.166700  1.0  -0.0613
  C  C363  1  0.552700  0.894300  0.172200  1.0  0.0456
  C  C364  1  0.514900  0.940200  0.128700  1.0  -0.0324
  C  C365  1  0.592600  0.850000  0.216300  1.0  -0.032
  C  C366  1  0.370980  0.787700  0.197810  1.0  -0.1046
  C  C367  1  0.395300  0.760610  0.184000  1.0  -0.0452
  C  C368  1  0.430300  0.770900  0.170630  1.0  0.0131
  C  C369  1  0.440990  0.808300  0.171000  1.0  0.1472
  C  C370  1  0.416700  0.835340  0.184700  1.0  -0.0517
  C  C371  1  0.381700  0.825000  0.198200  1.0  -0.0666
  C  C372  1  0.331800  0.776700  0.212200  1.0  0.6098
  C  C373  1  0.977800  0.686400  0.841300  1.0  0.0553
  C  C374  1  0.995000  0.655100  0.825900  1.0  -0.0341
  C  C375  1  0.028100  0.641600  0.841300  1.0  -0.0644
  C  C376  1  0.043920  0.659400  0.872000  1.0  -0.0827
  C  C377  1  0.026700  0.690700  0.887330  1.0  -0.0335
  C  C378  1  0.993700  0.704200  0.872000  1.0  -0.0225
  C  C379  1  0.082300  0.631700  0.884700  1.0  0.0491
  C  C380  1  0.070600  0.617000  0.787100  1.0  -0.0861
  C  C381  1  0.103400  0.639200  0.914700  1.0  0.047
  C  C382  1  0.029300  0.568100  0.833300  1.0  -0.0665
  C  C383  1  0.052700  0.605700  0.827800  1.0  0.0457
  C  C384  1  0.014900  0.559800  0.871300  1.0  -0.0341
  C  C385  1  0.092600  0.650000  0.783700  1.0  -0.033
  C  C386  1  0.870980  0.712300  0.802190  1.0  -0.1053
  C  C387  1  0.895300  0.739390  0.816000  1.0  -0.047
  C  C388  1  0.930300  0.729100  0.829370  1.0  0.0101
  C  C389  1  0.940990  0.691700  0.829000  1.0  0.1476
  C  C390  1  0.916700  0.664660  0.815300  1.0  -0.0508
  C  C391  1  0.881700  0.675000  0.801800  1.0  -0.0611
  C  C392  1  0.831800  0.723300  0.787800  1.0  0.6095
  C  C393  1  0.022200  0.186400  0.658700  1.0  0.0557
  C  C394  1  0.005000  0.155100  0.674100  1.0  -0.0324
  C  C395  1  0.971900  0.141600  0.658700  1.0  -0.0651
  C  C396  1  0.956080  0.159400  0.628000  1.0  -0.0821
  C  C397  1  0.973300  0.190700  0.612670  1.0  -0.0304
  C  C398  1  0.006300  0.204200  0.628000  1.0  -0.0231
  C  C399  1  0.917700  0.131700  0.615300  1.0  0.0483
  C  C400  1  0.929400  0.117000  0.712900  1.0  -0.0876
  C  C401  1  0.896600  0.139200  0.585300  1.0  0.0459
  C  C402  1  0.970700  0.068100  0.666667  1.0  -0.0595
  C  C403  1  0.947300  0.105700  0.672200  1.0  0.0463
  C  C404  1  0.985100  0.059800  0.628700  1.0  -0.0292
  C  C405  1  0.907400  0.150000  0.716300  1.0  -0.0317
  C  C406  1  0.129020  0.212300  0.697810  1.0  -0.1045
  C  C407  1  0.104700  0.239390  0.684000  1.0  -0.0464
  C  C408  1  0.069700  0.229100  0.670630  1.0  0.0094
  C  C409  1  0.059010  0.191700  0.671000  1.0  0.1472
  C  C410  1  0.083300  0.164660  0.684700  1.0  -0.0514
  C  C411  1  0.118300  0.175000  0.698200  1.0  -0.0705
  C  C412  1  0.168200  0.223300  0.712200  1.0  0.6108
  C  C413  1  0.522200  0.313600  0.341300  1.0  0.0552
  C  C414  1  0.505000  0.344900  0.325900  1.0  -0.0347
  C  C415  1  0.471900  0.358400  0.341300  1.0  -0.0644
  C  C416  1  0.456080  0.340600  0.372000  1.0  -0.083
  C  C417  1  0.473300  0.309300  0.387330  1.0  -0.0314
  C  C418  1  0.506300  0.295800  0.372000  1.0  -0.0225
  C  C419  1  0.417700  0.368300  0.384700  1.0  0.0512
  C  C420  1  0.429400  0.383000  0.287100  1.0  -0.084
  C  C421  1  0.396600  0.360800  0.414700  1.0  0.0462
  C  C422  1  0.470700  0.431900  0.333333  1.0  -0.0682
  C  C423  1  0.447300  0.394300  0.327800  1.0  0.0453
  C  C424  1  0.485100  0.440200  0.371300  1.0  -0.04
  C  C425  1  0.407400  0.350000  0.283700  1.0  -0.0315
  C  C426  1  0.629020  0.287700  0.302190  1.0  -0.1042
  C  C427  1  0.604700  0.260610  0.316000  1.0  -0.0446
  C  C428  1  0.569700  0.270900  0.329370  1.0  0.0113
  C  C429  1  0.559010  0.308300  0.329000  1.0  0.1473
  C  C430  1  0.583300  0.335340  0.315300  1.0  -0.0513
  C  C431  1  0.618300  0.325000  0.301800  1.0  -0.0613
  C  C432  1  0.668200  0.276700  0.287800  1.0  0.6115
  C  C433  1  0.158700  0.477800  0.813600  1.0  0.0564
  C  C434  1  0.174100  0.495000  0.844900  1.0  -0.0313
  C  C435  1  0.158700  0.528100  0.858400  1.0  -0.065
  C  C436  1  0.128000  0.543920  0.840600  1.0  -0.0823
  C  C437  1  0.112670  0.526700  0.809300  1.0  -0.0262
  C  C438  1  0.128000  0.493700  0.795800  1.0  -0.0265
  C  C439  1  0.115300  0.582300  0.868300  1.0  0.0407
  C  C440  1  0.212900  0.570600  0.883000  1.0  -0.0862
  C  C441  1  0.085300  0.603400  0.860800  1.0  0.0447
  C  C442  1  0.166700  0.529300  0.931900  1.0  -0.0622
  C  C443  1  0.172200  0.552700  0.894300  1.0  0.0457
  C  C444  1  0.128700  0.514900  0.940200  1.0  -0.0285
  C  C445  1  0.216300  0.592600  0.850000  1.0  -0.0328
  C  C446  1  0.197810  0.370980  0.787700  1.0  -0.1062
  C  C447  1  0.184000  0.395300  0.760610  1.0  -0.0476
  C  C448  1  0.170630  0.430300  0.770900  1.0  0.0056
  C  C449  1  0.171000  0.440990  0.808300  1.0  0.1469
  C  C450  1  0.184700  0.416700  0.835340  1.0  -0.0554
  C  C451  1  0.198200  0.381700  0.825000  1.0  -0.0629
  C  C452  1  0.212200  0.331800  0.776700  1.0  0.6084
  C  C453  1  0.841300  0.977800  0.686400  1.0  0.0566
  C  C454  1  0.825900  0.995000  0.655100  1.0  -0.0316
  C  C455  1  0.841300  0.028100  0.641600  1.0  -0.0652
  C  C456  1  0.872000  0.043920  0.659400  1.0  -0.0835
  C  C457  1  0.887330  0.026700  0.690700  1.0  -0.0296
  C  C458  1  0.872000  0.993700  0.704200  1.0  -0.0254
  C  C459  1  0.884700  0.082300  0.631700  1.0  0.0413
  C  C460  1  0.787100  0.070600  0.617000  1.0  -0.0829
  C  C461  1  0.914700  0.103400  0.639200  1.0  0.0446
  C  C462  1  0.833300  0.029300  0.568100  1.0  -0.0675
  C  C463  1  0.827800  0.052700  0.605700  1.0  0.0449
  C  C464  1  0.871300  0.014900  0.559800  1.0  -0.0304
  C  C465  1  0.783700  0.092600  0.650000  1.0  -0.0322
  C  C466  1  0.802190  0.870980  0.712300  1.0  -0.1067
  C  C467  1  0.816000  0.895300  0.739390  1.0  -0.049
  C  C468  1  0.829370  0.930300  0.729100  1.0  0.0052
  C  C469  1  0.829000  0.940990  0.691700  1.0  0.1477
  C  C470  1  0.815300  0.916700  0.664660  1.0  -0.0564
  C  C471  1  0.801800  0.881700  0.675000  1.0  -0.0602
  C  C472  1  0.787800  0.831800  0.723300  1.0  0.6099
  C  C473  1  0.658700  0.022200  0.186400  1.0  0.0562
  C  C474  1  0.674100  0.005000  0.155100  1.0  -0.0306
  C  C475  1  0.658700  0.971900  0.141600  1.0  -0.065
  C  C476  1  0.628000  0.956080  0.159400  1.0  -0.0821
  C  C477  1  0.612670  0.973300  0.190700  1.0  -0.0273
  C  C478  1  0.628000  0.006300  0.204200  1.0  -0.0247
  C  C479  1  0.615300  0.917700  0.131700  1.0  0.0394
  C  C480  1  0.712900  0.929400  0.117000  1.0  -0.0851
  C  C481  1  0.585300  0.896600  0.139200  1.0  0.045
  C  C482  1  0.666667  0.970700  0.068100  1.0  -0.0633
  C  C483  1  0.672200  0.947300  0.105700  1.0  0.0463
  C  C484  1  0.628700  0.985100  0.059800  1.0  -0.0277
  C  C485  1  0.716300  0.907400  0.150000  1.0  -0.0322
  C  C486  1  0.697810  0.129020  0.212300  1.0  -0.106
  C  C487  1  0.684000  0.104700  0.239390  1.0  -0.0484
  C  C488  1  0.670630  0.069700  0.229100  1.0  0.0059
  C  C489  1  0.671000  0.059010  0.191700  1.0  0.147
  C  C490  1  0.684700  0.083300  0.164660  1.0  -0.057
  C  C491  1  0.698200  0.118300  0.175000  1.0  -0.072
  C  C492  1  0.712200  0.168200  0.223300  1.0  0.6094
  C  C493  1  0.341300  0.522200  0.313600  1.0  0.0558
  C  C494  1  0.325900  0.505000  0.344900  1.0  -0.0311
  C  C495  1  0.341300  0.471900  0.358400  1.0  -0.0633
  C  C496  1  0.372000  0.456080  0.340600  1.0  -0.0829
  C  C497  1  0.387330  0.473300  0.309300  1.0  -0.0298
  C  C498  1  0.372000  0.506300  0.295800  1.0  -0.0264
  C  C499  1  0.384700  0.417700  0.368300  1.0  0.0417
  C  C500  1  0.287100  0.429400  0.383000  1.0  -0.0848
  C  C501  1  0.414700  0.396600  0.360800  1.0  0.046
  C  C502  1  0.333333  0.470700  0.431900  1.0  -0.0694
  C  C503  1  0.327800  0.447300  0.394300  1.0  0.0461
  C  C504  1  0.371300  0.485100  0.440200  1.0  -0.0368
  C  C505  1  0.283700  0.407400  0.350000  1.0  -0.0319
  C  C506  1  0.302190  0.629020  0.287700  1.0  -0.1053
  C  C507  1  0.316000  0.604700  0.260610  1.0  -0.0471
  C  C508  1  0.329370  0.569700  0.270900  1.0  0.0057
  C  C509  1  0.329000  0.559010  0.308300  1.0  0.1469
  C  C510  1  0.315300  0.583300  0.335340  1.0  -0.0554
  C  C511  1  0.301800  0.618300  0.325000  1.0  -0.0593
  C  C512  1  0.287800  0.668200  0.276700  1.0  0.61
  O  O513  1  0.243900  0.708100  0.825960  1.0  -0.5513
  O  O514  1  0.303400  0.722300  0.812400  1.0  -0.5898
  O  O515  1  0.256100  0.291900  0.325960  1.0  -0.5527
  O  O516  1  0.196600  0.277700  0.312400  1.0  -0.5911
  O  O517  1  0.756100  0.208100  0.674040  1.0  -0.5537
  O  O518  1  0.696600  0.222300  0.687600  1.0  -0.5881
  O  O519  1  0.743900  0.791900  0.174040  1.0  -0.5515
  O  O520  1  0.803400  0.777700  0.187600  1.0  -0.5861
  O  O521  1  0.825960  0.243900  0.708100  1.0  -0.5504
  O  O522  1  0.812400  0.303400  0.722300  1.0  -0.5878
  O  O523  1  0.325960  0.256100  0.291900  1.0  -0.5518
  O  O524  1  0.312400  0.196600  0.277700  1.0  -0.591
  O  O525  1  0.674040  0.756100  0.208100  1.0  -0.553
  O  O526  1  0.687600  0.696600  0.222300  1.0  -0.5862
  O  O527  1  0.174040  0.743900  0.791900  1.0  -0.5497
  O  O528  1  0.187600  0.803400  0.777700  1.0  -0.5839
  O  O529  1  0.708100  0.825960  0.243900  1.0  -0.5495
  O  O530  1  0.722300  0.812400  0.303400  1.0  -0.591
  O  O531  1  0.291900  0.325960  0.256100  1.0  -0.549
  O  O532  1  0.277700  0.312400  0.196600  1.0  -0.5925
  O  O533  1  0.208100  0.674040  0.756100  1.0  -0.5488
  O  O534  1  0.222300  0.687600  0.696600  1.0  -0.5893
  O  O535  1  0.791900  0.174040  0.743900  1.0  -0.5492
  O  O536  1  0.777700  0.187600  0.803400  1.0  -0.5871
  O  O537  1  0.252990  0.752990  0.747010  1.0  -1.0309
  O  O538  1  0.247010  0.247010  0.247010  1.0  -1.0304
  O  O539  1  0.747010  0.252990  0.752990  1.0  -1.0297
  O  O540  1  0.752990  0.747010  0.252990  1.0  -1.0299
  O  O541  1  0.743900  0.208100  0.325960  1.0  -0.5513
  O  O542  1  0.803400  0.222300  0.312400  1.0  -0.5878
  O  O543  1  0.756100  0.791900  0.825960  1.0  -0.5527
  O  O544  1  0.696600  0.777700  0.812400  1.0  -0.5898
  O  O545  1  0.256100  0.708100  0.174040  1.0  -0.5537
  O  O546  1  0.196600  0.722300  0.187600  1.0  -0.5864
  O  O547  1  0.243900  0.291900  0.674040  1.0  -0.5515
  O  O548  1  0.303400  0.277700  0.687600  1.0  -0.5889
  O  O549  1  0.325960  0.743900  0.208100  1.0  -0.5504
  O  O550  1  0.312400  0.803400  0.222300  1.0  -0.5858
  O  O551  1  0.825960  0.756100  0.791900  1.0  -0.5518
  O  O552  1  0.812400  0.696600  0.777700  1.0  -0.5904
  O  O553  1  0.174040  0.256100  0.708100  1.0  -0.553
  O  O554  1  0.187600  0.196600  0.722300  1.0  -0.585
  O  O555  1  0.674040  0.243900  0.291900  1.0  -0.5497
  O  O556  1  0.687600  0.303400  0.277700  1.0  -0.5875
  O  O557  1  0.208100  0.325960  0.743900  1.0  -0.5495
  O  O558  1  0.222300  0.312400  0.803400  1.0  -0.5888
  O  O559  1  0.791900  0.825960  0.756100  1.0  -0.549
  O  O560  1  0.777700  0.812400  0.696600  1.0  -0.5918
  O  O561  1  0.708100  0.174040  0.256100  1.0  -0.5488
  O  O562  1  0.722300  0.187600  0.196600  1.0  -0.5886
  O  O563  1  0.291900  0.674040  0.243900  1.0  -0.5492
  O  O564  1  0.277700  0.687600  0.303400  1.0  -0.5925
  O  O565  1  0.752990  0.252990  0.247010  1.0  -1.0309
  O  O566  1  0.747010  0.747010  0.747010  1.0  -1.0304
  O  O567  1  0.247010  0.752990  0.252990  1.0  -1.0297
  O  O568  1  0.252990  0.247010  0.752990  1.0  -1.0299
