# generated using pymatgen
data_Mn3Zn3P6(HO12)2
_symmetry_space_group_name_H-M   'P 1'
_cell_length_a   12.64100000
_cell_length_b   5.19530000
_cell_length_c   21.15000000
_cell_angle_alpha   90.00000000
_cell_angle_beta   95.11000000
_cell_angle_gamma   90.00000000
_symmetry_Int_Tables_number   1
_chemical_formula_structural   Mn3Zn3P6(HO12)2
_chemical_formula_sum   'Mn6 Zn6 P12 H4 O48'
_cell_volume   1383.48006748
_cell_formula_units_Z   2
loop_
 _symmetry_equiv_pos_site_id
 _symmetry_equiv_pos_as_xyz
  1  'x, y, z'
loop_
 _atom_site_type_symbol
 _atom_site_label
 _atom_site_symmetry_multiplicity
 _atom_site_fract_x
 _atom_site_fract_y
 _atom_site_fract_z
 _atom_site_occupancy
 _atom_site_charge
  Mn  Mn1  1  0.493930  0.214960  0.429700  1.0  1.1016
  Mn  Mn2  1  0.501160  0.733410  0.327200  1.0  1.1391
  Mn  Mn3  1  0.100380  0.777920  0.445320  1.0  1.1716
  Mn  Mn4  1  0.506070  0.714960  0.070300  1.0  1.1002
  Mn  Mn5  1  0.498840  0.233410  0.172800  1.0  1.1373
  Mn  Mn6  1  0.899620  0.277920  0.054680  1.0  1.173
  Zn  Zn7  1  0.506070  0.785040  0.570300  1.0  1.0051
  Zn  Zn8  1  0.498840  0.266590  0.672800  1.0  1.161
  Zn  Zn9  1  0.899620  0.222080  0.554680  1.0  1.2016
  Zn  Zn10  1  0.493930  0.285040  0.929700  1.0  1.0062
  Zn  Zn11  1  0.501160  0.766590  0.827200  1.0  1.1618
  Zn  Zn12  1  0.100380  0.722080  0.945320  1.0  1.1984
  P  P13  1  0.359720  0.733160  0.447300  1.0  1.7846
  P  P14  1  0.626540  0.242530  0.313630  1.0  1.7763
  P  P15  1  0.027930  0.701400  0.583110  1.0  1.8579
  P  P16  1  0.640280  0.233160  0.052700  1.0  1.7863
  P  P17  1  0.373460  0.742530  0.186370  1.0  1.7739
  P  P18  1  0.972070  0.201400  0.916890  1.0  1.8473
  P  P19  1  0.640280  0.266840  0.552700  1.0  1.7818
  P  P20  1  0.373460  0.757470  0.686370  1.0  1.7746
  P  P21  1  0.972070  0.298600  0.416890  1.0  1.8477
  P  P22  1  0.359720  0.766840  0.947300  1.0  1.7831
  P  P23  1  0.626540  0.257470  0.813630  1.0  1.7768
  P  P24  1  0.027930  0.798600  0.083110  1.0  1.8556
  H  H25  1  0.156000  0.773000  0.653000  1.0  0.4058
  H  H26  1  0.844000  0.273000  0.847000  1.0  0.4044
  H  H27  1  0.844000  0.227000  0.347000  1.0  0.4042
  H  H28  1  0.156000  0.727000  0.153000  1.0  0.4055
  O  O29  1  0.537660  0.376700  0.349530  1.0  -0.9149
  O  O30  1  0.601230  0.296100  0.242810  1.0  -0.8218
  O  O31  1  0.245980  0.780400  0.420170  1.0  -0.7874
  O  O32  1  0.433470  0.870900  0.401860  1.0  -0.9275
  O  O33  1  0.105650  0.669300  0.532740  1.0  -0.7908
  O  O34  1  0.732670  0.361900  0.334050  1.0  -0.6244
  O  O35  1  0.382400  0.859200  0.512600  1.0  -0.778
  O  O36  1  0.931550  0.861100  0.561080  1.0  -0.7749
  O  O37  1  0.623220  0.956100  0.329470  1.0  -0.7436
  O  O38  1  0.384350  0.446900  0.450570  1.0  -0.8081
  O  O39  1  0.089570  0.850500  0.639860  1.0  -0.517
  O  O40  1  0.994690  0.439800  0.607160  1.0  -0.7308
  O  O41  1  0.462340  0.876700  0.150470  1.0  -0.9141
  O  O42  1  0.398770  0.796100  0.257190  1.0  -0.823
  O  O43  1  0.754020  0.280400  0.079830  1.0  -0.7858
  O  O44  1  0.566530  0.370900  0.098140  1.0  -0.9276
  O  O45  1  0.894350  0.169300  0.967260  1.0  -0.7891
  O  O46  1  0.267330  0.861900  0.165950  1.0  -0.6245
  O  O47  1  0.617600  0.359200  0.987400  1.0  -0.7775
  O  O48  1  0.068450  0.361100  0.938920  1.0  -0.7764
  O  O49  1  0.376780  0.456100  0.170530  1.0  -0.743
  O  O50  1  0.615650  0.946900  0.049430  1.0  -0.8081
  O  O51  1  0.910430  0.350500  0.860140  1.0  -0.5166
  O  O52  1  0.005310  0.939800  0.892840  1.0  -0.732
  O  O53  1  0.462340  0.623300  0.650470  1.0  -0.9129
  O  O54  1  0.398770  0.703900  0.757190  1.0  -0.8202
  O  O55  1  0.754020  0.219600  0.579830  1.0  -0.7857
  O  O56  1  0.566530  0.129100  0.598140  1.0  -0.9241
  O  O57  1  0.894350  0.330700  0.467260  1.0  -0.7899
  O  O58  1  0.267330  0.638100  0.665950  1.0  -0.625
  O  O59  1  0.617600  0.140800  0.487400  1.0  -0.7657
  O  O60  1  0.068450  0.138900  0.438920  1.0  -0.7757
  O  O61  1  0.376780  0.043900  0.670530  1.0  -0.7396
  O  O62  1  0.615650  0.553100  0.549430  1.0  -0.8057
  O  O63  1  0.910430  0.149500  0.360140  1.0  -0.5163
  O  O64  1  0.005310  0.560200  0.392840  1.0  -0.7311
  O  O65  1  0.537660  0.123300  0.849530  1.0  -0.9134
  O  O66  1  0.601230  0.203900  0.742810  1.0  -0.8184
  O  O67  1  0.245980  0.719600  0.920170  1.0  -0.7884
  O  O68  1  0.433470  0.629100  0.901860  1.0  -0.9243
  O  O69  1  0.105650  0.830700  0.032740  1.0  -0.7913
  O  O70  1  0.732670  0.138100  0.834050  1.0  -0.6251
  O  O71  1  0.382400  0.640800  0.012600  1.0  -0.7667
  O  O72  1  0.931550  0.638900  0.061080  1.0  -0.7742
  O  O73  1  0.623220  0.543900  0.829470  1.0  -0.7404
  O  O74  1  0.384350  0.053100  0.950570  1.0  -0.8054
  O  O75  1  0.089570  0.649500  0.139860  1.0  -0.5169
  O  O76  1  0.994690  0.060200  0.107160  1.0  -0.7295
