# generated using pymatgen
data_CuH24(C4N3)4
_symmetry_space_group_name_H-M   'P 1'
_cell_length_a   12.88700000
_cell_length_b   17.04300000
_cell_length_c   24.79900000
_cell_angle_alpha   90.00000000
_cell_angle_beta   90.00000000
_cell_angle_gamma   90.00000000
_symmetry_Int_Tables_number   1
_chemical_formula_structural   CuH24(C4N3)4
_chemical_formula_sum   'Cu8 H192 C128 N96'
_cell_volume   5446.68226366
_cell_formula_units_Z   8
loop_
 _symmetry_equiv_pos_site_id
 _symmetry_equiv_pos_as_xyz
  1  'x, y, z'
loop_
 _atom_site_type_symbol
 _atom_site_label
 _atom_site_symmetry_multiplicity
 _atom_site_fract_x
 _atom_site_fract_y
 _atom_site_fract_z
 _atom_site_occupancy
 _atom_site_charge
  Cu  Cu1  1  0.875000  0.375000  0.875000  1.0  0.4211
  Cu  Cu2  1  0.875000  0.875000  0.375000  1.0  0.4211
  Cu  Cu3  1  0.375000  0.375000  0.375000  1.0  0.4211
  Cu  Cu4  1  0.375000  0.875000  0.875000  1.0  0.4211
  Cu  Cu5  1  0.125000  0.625000  0.125000  1.0  0.4211
  Cu  Cu6  1  0.125000  0.125000  0.625000  1.0  0.4211
  Cu  Cu7  1  0.625000  0.625000  0.625000  1.0  0.4211
  Cu  Cu8  1  0.625000  0.125000  0.125000  1.0  0.4211
  H  H9  1  0.239400  0.204000  0.047300  1.0  0.0673
  H  H10  1  0.166600  0.196100  0.995600  1.0  0.0642
  H  H11  1  0.173500  0.327500  0.064900  1.0  0.0821
  H  H12  1  0.082100  0.264000  0.062800  1.0  0.0768
  H  H13  1  0.068200  0.474900  0.922800  1.0  0.0487
  H  H14  1  0.961700  0.272900  0.972900  1.0  0.0714
  H  H15  1  0.239400  0.704000  0.547300  1.0  0.0673
  H  H16  1  0.166600  0.696100  0.495600  1.0  0.0642
  H  H17  1  0.173500  0.827500  0.564900  1.0  0.0821
  H  H18  1  0.082100  0.764000  0.562800  1.0  0.0768
  H  H19  1  0.068200  0.974900  0.422800  1.0  0.0487
  H  H20  1  0.961700  0.772900  0.472900  1.0  0.0714
  H  H21  1  0.739400  0.204000  0.547300  1.0  0.0672
  H  H22  1  0.666667  0.196100  0.495600  1.0  0.0644
  H  H23  1  0.673500  0.327500  0.564900  1.0  0.0821
  H  H24  1  0.582100  0.264000  0.562800  1.0  0.0768
  H  H25  1  0.568200  0.474900  0.422800  1.0  0.0487
  H  H26  1  0.461700  0.272900  0.472900  1.0  0.0713
  H  H27  1  0.739400  0.704000  0.047300  1.0  0.0672
  H  H28  1  0.666667  0.696100  0.995600  1.0  0.0644
  H  H29  1  0.673500  0.827500  0.064900  1.0  0.0821
  H  H30  1  0.582100  0.764000  0.062800  1.0  0.0768
  H  H31  1  0.568200  0.974900  0.922800  1.0  0.0487
  H  H32  1  0.461700  0.772900  0.972900  1.0  0.0713
  H  H33  1  0.510600  0.546000  0.047300  1.0  0.0654
  H  H34  1  0.583400  0.553900  0.995600  1.0  0.0649
  H  H35  1  0.576500  0.422500  0.064900  1.0  0.0825
  H  H36  1  0.667900  0.486000  0.062800  1.0  0.0767
  H  H37  1  0.681800  0.275100  0.922800  1.0  0.0481
  H  H38  1  0.788300  0.477100  0.972900  1.0  0.072
  H  H39  1  0.510600  0.046000  0.547300  1.0  0.0654
  H  H40  1  0.583400  0.053900  0.495600  1.0  0.0649
  H  H41  1  0.576500  0.922500  0.564900  1.0  0.0825
  H  H42  1  0.667900  0.986000  0.562800  1.0  0.0767
  H  H43  1  0.681800  0.775100  0.422800  1.0  0.0481
  H  H44  1  0.788300  0.977100  0.472900  1.0  0.072
  H  H45  1  0.010600  0.546000  0.547300  1.0  0.0656
  H  H46  1  0.083400  0.553900  0.495600  1.0  0.0648
  H  H47  1  0.076500  0.422500  0.564900  1.0  0.0825
  H  H48  1  0.167900  0.486000  0.562800  1.0  0.0767
  H  H49  1  0.181800  0.275100  0.422800  1.0  0.0481
  H  H50  1  0.288300  0.477100  0.472900  1.0  0.072
  H  H51  1  0.010600  0.046000  0.047300  1.0  0.0656
  H  H52  1  0.083400  0.053900  0.995600  1.0  0.0648
  H  H53  1  0.076500  0.922500  0.064900  1.0  0.0825
  H  H54  1  0.167900  0.986000  0.062800  1.0  0.0767
  H  H55  1  0.181800  0.775100  0.922800  1.0  0.0481
  H  H56  1  0.288300  0.977100  0.972900  1.0  0.072
  H  H57  1  0.510600  0.204000  0.702700  1.0  0.0658
  H  H58  1  0.583400  0.196100  0.754400  1.0  0.0646
  H  H59  1  0.576500  0.327500  0.685100  1.0  0.0838
  H  H60  1  0.667900  0.264000  0.687200  1.0  0.0779
  H  H61  1  0.681800  0.474900  0.827200  1.0  0.0486
  H  H62  1  0.788300  0.272900  0.777100  1.0  0.0717
  H  H63  1  0.510600  0.704000  0.202700  1.0  0.0658
  H  H64  1  0.583400  0.696100  0.254400  1.0  0.0646
  H  H65  1  0.576500  0.827500  0.185100  1.0  0.0838
  H  H66  1  0.667900  0.764000  0.187200  1.0  0.0779
  H  H67  1  0.681800  0.974900  0.327200  1.0  0.0486
  H  H68  1  0.788300  0.772900  0.277100  1.0  0.0717
  H  H69  1  0.010600  0.204000  0.202700  1.0  0.066
  H  H70  1  0.083400  0.196100  0.254400  1.0  0.0646
  H  H71  1  0.076500  0.327500  0.185100  1.0  0.0838
  H  H72  1  0.167900  0.264000  0.187200  1.0  0.0779
  H  H73  1  0.181800  0.474900  0.327200  1.0  0.0486
  H  H74  1  0.288300  0.272900  0.277100  1.0  0.0717
  H  H75  1  0.010600  0.704000  0.702700  1.0  0.066
  H  H76  1  0.083400  0.696100  0.754400  1.0  0.0646
  H  H77  1  0.076500  0.827500  0.685100  1.0  0.0838
  H  H78  1  0.167900  0.764000  0.687200  1.0  0.0779
  H  H79  1  0.181800  0.974900  0.827200  1.0  0.0486
  H  H80  1  0.288300  0.772900  0.777100  1.0  0.0717
  H  H81  1  0.239400  0.546000  0.702700  1.0  0.0667
  H  H82  1  0.166600  0.553900  0.754400  1.0  0.0645
  H  H83  1  0.173500  0.422500  0.685100  1.0  0.0825
  H  H84  1  0.082100  0.486000  0.687200  1.0  0.0769
  H  H85  1  0.068200  0.275100  0.827200  1.0  0.0481
  H  H86  1  0.961700  0.477100  0.777100  1.0  0.0714
  H  H87  1  0.239400  0.046000  0.202700  1.0  0.0667
  H  H88  1  0.166600  0.053900  0.254400  1.0  0.0645
  H  H89  1  0.173500  0.922500  0.185100  1.0  0.0825
  H  H90  1  0.082100  0.986000  0.187200  1.0  0.0769
  H  H91  1  0.068200  0.775100  0.327200  1.0  0.0481
  H  H92  1  0.961700  0.977100  0.277100  1.0  0.0714
  H  H93  1  0.739400  0.546000  0.202700  1.0  0.0666
  H  H94  1  0.666667  0.553900  0.254400  1.0  0.0646
  H  H95  1  0.673500  0.422500  0.185100  1.0  0.0825
  H  H96  1  0.582100  0.486000  0.187200  1.0  0.0769
  H  H97  1  0.568200  0.275100  0.327200  1.0  0.0481
  H  H98  1  0.461700  0.477100  0.277100  1.0  0.0714
  H  H99  1  0.739400  0.046000  0.702700  1.0  0.0666
  H  H100  1  0.666667  0.053900  0.754400  1.0  0.0646
  H  H101  1  0.673500  0.922500  0.685100  1.0  0.0825
  H  H102  1  0.582100  0.986000  0.687200  1.0  0.0769
  H  H103  1  0.568200  0.775100  0.827200  1.0  0.0481
  H  H104  1  0.461700  0.977100  0.777100  1.0  0.0714
  H  H105  1  0.760600  0.796000  0.952700  1.0  0.0655
  H  H106  1  0.833400  0.803900  0.004400  1.0  0.0646
  H  H107  1  0.826500  0.672500  0.935100  1.0  0.0828
  H  H108  1  0.917900  0.736000  0.937200  1.0  0.0772
  H  H109  1  0.931800  0.525100  0.077200  1.0  0.0481
  H  H110  1  0.038300  0.727100  0.027100  1.0  0.0719
  H  H111  1  0.760600  0.296000  0.452700  1.0  0.0655
  H  H112  1  0.833400  0.303900  0.504400  1.0  0.0646
  H  H113  1  0.826500  0.172500  0.435100  1.0  0.0828
  H  H114  1  0.917900  0.236000  0.437200  1.0  0.0772
  H  H115  1  0.931800  0.025100  0.577200  1.0  0.0481
  H  H116  1  0.038300  0.227100  0.527100  1.0  0.0719
  H  H117  1  0.260600  0.796000  0.452700  1.0  0.0656
  H  H118  1  0.333400  0.803900  0.504400  1.0  0.0646
  H  H119  1  0.326500  0.672500  0.435100  1.0  0.0828
  H  H120  1  0.417900  0.736000  0.437200  1.0  0.0772
  H  H121  1  0.431800  0.525100  0.577200  1.0  0.0481
  H  H122  1  0.538300  0.727100  0.527100  1.0  0.0719
  H  H123  1  0.260600  0.296000  0.952700  1.0  0.0656
  H  H124  1  0.333400  0.303900  0.004400  1.0  0.0646
  H  H125  1  0.326500  0.172500  0.935100  1.0  0.0828
  H  H126  1  0.417900  0.236000  0.937200  1.0  0.0772
  H  H127  1  0.431800  0.025100  0.077200  1.0  0.0481
  H  H128  1  0.538300  0.227100  0.027100  1.0  0.0719
  H  H129  1  0.489400  0.454000  0.952700  1.0  0.0657
  H  H130  1  0.416600  0.446100  0.004400  1.0  0.0644
  H  H131  1  0.423500  0.577500  0.935100  1.0  0.0831
  H  H132  1  0.332100  0.514000  0.937200  1.0  0.0773
  H  H133  1  0.318200  0.724900  0.077200  1.0  0.0481
  H  H134  1  0.211700  0.522900  0.027100  1.0  0.0718
  H  H135  1  0.489400  0.954000  0.452700  1.0  0.0657
  H  H136  1  0.416600  0.946100  0.504400  1.0  0.0644
  H  H137  1  0.423500  0.077500  0.435100  1.0  0.0831
  H  H138  1  0.332100  0.014000  0.437200  1.0  0.0773
  H  H139  1  0.318200  0.224900  0.577200  1.0  0.0481
  H  H140  1  0.211700  0.022900  0.527100  1.0  0.0718
  H  H141  1  0.989400  0.454000  0.452700  1.0  0.0657
  H  H142  1  0.916600  0.446100  0.504400  1.0  0.0644
  H  H143  1  0.923500  0.577500  0.435100  1.0  0.0832
  H  H144  1  0.832100  0.514000  0.437200  1.0  0.0773
  H  H145  1  0.818200  0.724900  0.577200  1.0  0.0481
  H  H146  1  0.711700  0.522900  0.527100  1.0  0.0718
  H  H147  1  0.989400  0.954000  0.952700  1.0  0.0657
  H  H148  1  0.916600  0.946100  0.004400  1.0  0.0644
  H  H149  1  0.923500  0.077500  0.935100  1.0  0.0832
  H  H150  1  0.832100  0.014000  0.937200  1.0  0.0773
  H  H151  1  0.818200  0.224900  0.077200  1.0  0.0481
  H  H152  1  0.711700  0.022900  0.027100  1.0  0.0718
  H  H153  1  0.489400  0.796000  0.297300  1.0  0.0653
  H  H154  1  0.416600  0.803900  0.245600  1.0  0.0652
  H  H155  1  0.423500  0.672500  0.314900  1.0  0.0824
  H  H156  1  0.332100  0.736000  0.312800  1.0  0.0767
  H  H157  1  0.318200  0.525100  0.172800  1.0  0.0482
  H  H158  1  0.211700  0.727100  0.222900  1.0  0.0719
  H  H159  1  0.489400  0.296000  0.797300  1.0  0.0653
  H  H160  1  0.416600  0.303900  0.745600  1.0  0.0652
  H  H161  1  0.423500  0.172500  0.814900  1.0  0.0824
  H  H162  1  0.332100  0.236000  0.812800  1.0  0.0767
  H  H163  1  0.318200  0.025100  0.672800  1.0  0.0482
  H  H164  1  0.211700  0.227100  0.722900  1.0  0.0719
  H  H165  1  0.989400  0.796000  0.797300  1.0  0.0653
  H  H166  1  0.916600  0.803900  0.745600  1.0  0.0652
  H  H167  1  0.923500  0.672500  0.814900  1.0  0.0825
  H  H168  1  0.832100  0.736000  0.812800  1.0  0.0767
  H  H169  1  0.818200  0.525100  0.672800  1.0  0.0482
  H  H170  1  0.711700  0.727100  0.722900  1.0  0.0719
  H  H171  1  0.989400  0.296000  0.297300  1.0  0.0653
  H  H172  1  0.916600  0.303900  0.245600  1.0  0.0652
  H  H173  1  0.923500  0.172500  0.314900  1.0  0.0825
  H  H174  1  0.832100  0.236000  0.312800  1.0  0.0767
  H  H175  1  0.818200  0.025100  0.172800  1.0  0.0482
  H  H176  1  0.711700  0.227100  0.222900  1.0  0.0719
  H  H177  1  0.760600  0.454000  0.297300  1.0  0.0663
  H  H178  1  0.833400  0.446100  0.245600  1.0  0.0641
  H  H179  1  0.826500  0.577500  0.314900  1.0  0.0824
  H  H180  1  0.917900  0.514000  0.312800  1.0  0.0771
  H  H181  1  0.931800  0.724900  0.172800  1.0  0.0493
  H  H182  1  0.038300  0.522900  0.222900  1.0  0.072
  H  H183  1  0.760600  0.954000  0.797300  1.0  0.0663
  H  H184  1  0.833400  0.946100  0.745600  1.0  0.0641
  H  H185  1  0.826500  0.077500  0.814900  1.0  0.0824
  H  H186  1  0.917900  0.014000  0.812800  1.0  0.0771
  H  H187  1  0.931800  0.224900  0.672800  1.0  0.0493
  H  H188  1  0.038300  0.022900  0.722900  1.0  0.072
  H  H189  1  0.260600  0.454000  0.797300  1.0  0.0664
  H  H190  1  0.333400  0.446100  0.745600  1.0  0.0641
  H  H191  1  0.326500  0.577500  0.814900  1.0  0.0824
  H  H192  1  0.417900  0.514000  0.812800  1.0  0.0771
  H  H193  1  0.431800  0.724900  0.672800  1.0  0.0493
  H  H194  1  0.538300  0.522900  0.722900  1.0  0.072
  H  H195  1  0.260600  0.954000  0.297300  1.0  0.0664
  H  H196  1  0.333400  0.946100  0.245600  1.0  0.0641
  H  H197  1  0.326500  0.077500  0.314900  1.0  0.0824
  H  H198  1  0.417900  0.014000  0.312800  1.0  0.0771
  H  H199  1  0.431800  0.224900  0.172800  1.0  0.0493
  H  H200  1  0.538300  0.022900  0.222900  1.0  0.072
  C  C201  1  0.207300  0.233800  0.017400  1.0  -0.1215
  C  C202  1  0.134700  0.291800  0.040800  1.0  -0.0518
  C  C203  1  0.060500  0.427700  0.942700  1.0  0.2172
  C  C204  1  0.001800  0.319300  0.969000  1.0  0.1057
  C  C205  1  0.207300  0.733800  0.517400  1.0  -0.1215
  C  C206  1  0.134700  0.791800  0.540800  1.0  -0.0518
  C  C207  1  0.060500  0.927700  0.442700  1.0  0.2172
  C  C208  1  0.001800  0.819300  0.469000  1.0  0.1057
  C  C209  1  0.707300  0.233800  0.517400  1.0  -0.1204
  C  C210  1  0.634700  0.291800  0.540800  1.0  -0.0518
  C  C211  1  0.560500  0.427700  0.442700  1.0  0.2172
  C  C212  1  0.501800  0.319300  0.469000  1.0  0.1056
  C  C213  1  0.707300  0.733800  0.017400  1.0  -0.1204
  C  C214  1  0.634700  0.791800  0.040800  1.0  -0.0518
  C  C215  1  0.560500  0.927700  0.942700  1.0  0.2172
  C  C216  1  0.501800  0.819300  0.969000  1.0  0.1056
  C  C217  1  0.542700  0.516200  0.017400  1.0  -0.1208
  C  C218  1  0.615300  0.458200  0.040800  1.0  -0.0517
  C  C219  1  0.689500  0.322300  0.942700  1.0  0.2169
  C  C220  1  0.748200  0.430700  0.969000  1.0  0.1053
  C  C221  1  0.542700  0.016200  0.517400  1.0  -0.1208
  C  C222  1  0.615300  0.958200  0.540800  1.0  -0.0517
  C  C223  1  0.689500  0.822300  0.442700  1.0  0.2169
  C  C224  1  0.748200  0.930700  0.469000  1.0  0.1053
  C  C225  1  0.042700  0.516200  0.517400  1.0  -0.1208
  C  C226  1  0.115300  0.458200  0.540800  1.0  -0.0517
  C  C227  1  0.189500  0.322300  0.442700  1.0  0.2169
  C  C228  1  0.248200  0.430700  0.469000  1.0  0.1053
  C  C229  1  0.042700  0.016200  0.017400  1.0  -0.1208
  C  C230  1  0.115300  0.958200  0.040800  1.0  -0.0517
  C  C231  1  0.189500  0.822300  0.942700  1.0  0.2169
  C  C232  1  0.248200  0.930700  0.969000  1.0  0.1053
  C  C233  1  0.542700  0.233800  0.732600  1.0  -0.1199
  C  C234  1  0.615300  0.291800  0.709200  1.0  -0.0507
  C  C235  1  0.689500  0.427700  0.807300  1.0  0.2172
  C  C236  1  0.748200  0.319300  0.781000  1.0  0.1055
  C  C237  1  0.542700  0.733800  0.232600  1.0  -0.1199
  C  C238  1  0.615300  0.791800  0.209200  1.0  -0.0507
  C  C239  1  0.689500  0.927700  0.307300  1.0  0.2172
  C  C240  1  0.748200  0.819300  0.281000  1.0  0.1055
  C  C241  1  0.042700  0.233800  0.232600  1.0  -0.1199
  C  C242  1  0.115300  0.291800  0.209200  1.0  -0.0507
  C  C243  1  0.189500  0.427700  0.307300  1.0  0.2172
  C  C244  1  0.248200  0.319300  0.281000  1.0  0.1055
  C  C245  1  0.042700  0.733800  0.732600  1.0  -0.1199
  C  C246  1  0.115300  0.791800  0.709200  1.0  -0.0507
  C  C247  1  0.189500  0.927700  0.807300  1.0  0.2172
  C  C248  1  0.248200  0.819300  0.781000  1.0  0.1055
  C  C249  1  0.207300  0.516200  0.732600  1.0  -0.1191
  C  C250  1  0.134700  0.458200  0.709200  1.0  -0.0491
  C  C251  1  0.060500  0.322300  0.807300  1.0  0.2175
  C  C252  1  0.001800  0.430700  0.781000  1.0  0.1054
  C  C253  1  0.207300  0.016200  0.232600  1.0  -0.1191
  C  C254  1  0.134700  0.958200  0.209200  1.0  -0.0491
  C  C255  1  0.060500  0.822300  0.307300  1.0  0.2175
  C  C256  1  0.001800  0.930700  0.281000  1.0  0.1054
  C  C257  1  0.707300  0.516200  0.232600  1.0  -0.1179
  C  C258  1  0.634700  0.458200  0.209200  1.0  -0.0491
  C  C259  1  0.560500  0.322300  0.307300  1.0  0.2175
  C  C260  1  0.501800  0.430700  0.281000  1.0  0.1054
  C  C261  1  0.707300  0.016200  0.732600  1.0  -0.1179
  C  C262  1  0.634700  0.958200  0.709200  1.0  -0.0491
  C  C263  1  0.560500  0.822300  0.807300  1.0  0.2175
  C  C264  1  0.501800  0.930700  0.781000  1.0  0.1054
  C  C265  1  0.792700  0.766200  0.982600  1.0  -0.1189
  C  C266  1  0.865300  0.708200  0.959200  1.0  -0.0508
  C  C267  1  0.939500  0.572300  0.057300  1.0  0.2176
  C  C268  1  0.998200  0.680700  0.031000  1.0  0.1053
  C  C269  1  0.792700  0.266200  0.482600  1.0  -0.1189
  C  C270  1  0.865300  0.208200  0.459200  1.0  -0.0508
  C  C271  1  0.939500  0.072300  0.557300  1.0  0.2176
  C  C272  1  0.998200  0.180700  0.531000  1.0  0.1053
  C  C273  1  0.292700  0.766200  0.482600  1.0  -0.1188
  C  C274  1  0.365300  0.708200  0.459200  1.0  -0.0508
  C  C275  1  0.439500  0.572300  0.557300  1.0  0.2176
  C  C276  1  0.498200  0.680700  0.531000  1.0  0.1053
  C  C277  1  0.292700  0.266200  0.982600  1.0  -0.1188
  C  C278  1  0.365300  0.208200  0.959200  1.0  -0.0508
  C  C279  1  0.439500  0.072300  0.057300  1.0  0.2176
  C  C280  1  0.498200  0.180700  0.031000  1.0  0.1053
  C  C281  1  0.457300  0.483800  0.982600  1.0  -0.1193
  C  C282  1  0.384700  0.541800  0.959200  1.0  -0.0487
  C  C283  1  0.310500  0.677700  0.057300  1.0  0.2173
  C  C284  1  0.251800  0.569300  0.031000  1.0  0.1057
  C  C285  1  0.457300  0.983800  0.482600  1.0  -0.1193
  C  C286  1  0.384700  0.041800  0.459200  1.0  -0.0487
  C  C287  1  0.310500  0.177700  0.557300  1.0  0.2173
  C  C288  1  0.251800  0.069300  0.531000  1.0  0.1057
  C  C289  1  0.957300  0.483800  0.482600  1.0  -0.1193
  C  C290  1  0.884700  0.541800  0.459200  1.0  -0.0487
  C  C291  1  0.810500  0.677700  0.557300  1.0  0.2173
  C  C292  1  0.751800  0.569300  0.531000  1.0  0.1057
  C  C293  1  0.957300  0.983800  0.982600  1.0  -0.1193
  C  C294  1  0.884700  0.041800  0.959200  1.0  -0.0487
  C  C295  1  0.810500  0.177700  0.057300  1.0  0.2173
  C  C296  1  0.751800  0.069300  0.031000  1.0  0.1057
  C  C297  1  0.457300  0.766200  0.267400  1.0  -0.1207
  C  C298  1  0.384700  0.708200  0.290800  1.0  -0.0515
  C  C299  1  0.310500  0.572300  0.192700  1.0  0.2166
  C  C300  1  0.251800  0.680700  0.219000  1.0  0.1056
  C  C301  1  0.457300  0.266200  0.767400  1.0  -0.1207
  C  C302  1  0.384700  0.208200  0.790800  1.0  -0.0515
  C  C303  1  0.310500  0.072300  0.692700  1.0  0.2166
  C  C304  1  0.251800  0.180700  0.719000  1.0  0.1056
  C  C305  1  0.957300  0.766200  0.767400  1.0  -0.1207
  C  C306  1  0.884700  0.708200  0.790800  1.0  -0.0515
  C  C307  1  0.810500  0.572300  0.692700  1.0  0.2166
  C  C308  1  0.751800  0.680700  0.719000  1.0  0.1056
  C  C309  1  0.957300  0.266200  0.267400  1.0  -0.1207
  C  C310  1  0.884700  0.208200  0.290800  1.0  -0.0515
  C  C311  1  0.810500  0.072300  0.192700  1.0  0.2166
  C  C312  1  0.751800  0.180700  0.219000  1.0  0.1056
  C  C313  1  0.792700  0.483800  0.267400  1.0  -0.1203
  C  C314  1  0.865300  0.541800  0.290800  1.0  -0.052
  C  C315  1  0.939500  0.677700  0.192700  1.0  0.2173
  C  C316  1  0.998200  0.569300  0.219000  1.0  0.1054
  C  C317  1  0.792700  0.983800  0.767400  1.0  -0.1203
  C  C318  1  0.865300  0.041800  0.790800  1.0  -0.052
  C  C319  1  0.939500  0.177700  0.692700  1.0  0.2173
  C  C320  1  0.998200  0.069300  0.719000  1.0  0.1054
  C  C321  1  0.292700  0.483800  0.767400  1.0  -0.1202
  C  C322  1  0.365300  0.541800  0.790800  1.0  -0.052
  C  C323  1  0.439500  0.677700  0.692700  1.0  0.2173
  C  C324  1  0.498200  0.569300  0.719000  1.0  0.1054
  C  C325  1  0.292700  0.983800  0.267400  1.0  -0.1202
  C  C326  1  0.365300  0.041800  0.290800  1.0  -0.052
  C  C327  1  0.439500  0.177700  0.192700  1.0  0.2173
  C  C328  1  0.498200  0.069300  0.219000  1.0  0.1054
  N  N329  1  0.081800  0.338200  0.999030  1.0  0.1421
  N  N330  1  0.120800  0.408600  0.982400  1.0  -0.4012
  N  N331  1  0.985400  0.374320  0.932470  1.0  -0.4095
  N  N332  1  0.081800  0.838200  0.499030  1.0  0.1421
  N  N333  1  0.120800  0.908600  0.482400  1.0  -0.4012
  N  N334  1  0.985400  0.874320  0.432470  1.0  -0.4095
  N  N335  1  0.581800  0.338200  0.499030  1.0  0.1421
  N  N336  1  0.620800  0.408600  0.482400  1.0  -0.4012
  N  N337  1  0.485400  0.374320  0.432470  1.0  -0.4095
  N  N338  1  0.581800  0.838200  0.999030  1.0  0.1421
  N  N339  1  0.620800  0.908600  0.982400  1.0  -0.4012
  N  N340  1  0.485400  0.874320  0.932470  1.0  -0.4095
  N  N341  1  0.668200  0.411800  0.999030  1.0  0.1419
  N  N342  1  0.629200  0.341400  0.982400  1.0  -0.4005
  N  N343  1  0.764600  0.375680  0.932470  1.0  -0.4089
  N  N344  1  0.668200  0.911800  0.499030  1.0  0.1419
  N  N345  1  0.629200  0.841400  0.482400  1.0  -0.4005
  N  N346  1  0.764600  0.875680  0.432470  1.0  -0.4089
  N  N347  1  0.168200  0.411800  0.499030  1.0  0.1419
  N  N348  1  0.129200  0.341400  0.482400  1.0  -0.4005
  N  N349  1  0.264600  0.375680  0.432470  1.0  -0.4089
  N  N350  1  0.168200  0.911800  0.999030  1.0  0.1419
  N  N351  1  0.129200  0.841400  0.982400  1.0  -0.4005
  N  N352  1  0.264600  0.875680  0.932470  1.0  -0.4089
  N  N353  1  0.668200  0.338200  0.750970  1.0  0.1413
  N  N354  1  0.629200  0.408600  0.767600  1.0  -0.4002
  N  N355  1  0.764600  0.374320  0.817530  1.0  -0.4077
  N  N356  1  0.668200  0.838200  0.250970  1.0  0.1413
  N  N357  1  0.629200  0.908600  0.267600  1.0  -0.4002
  N  N358  1  0.764600  0.874320  0.317530  1.0  -0.4077
  N  N359  1  0.168200  0.338200  0.250970  1.0  0.1413
  N  N360  1  0.129200  0.408600  0.267600  1.0  -0.4002
  N  N361  1  0.264600  0.374320  0.317530  1.0  -0.4077
  N  N362  1  0.168200  0.838200  0.750970  1.0  0.1413
  N  N363  1  0.129200  0.908600  0.767600  1.0  -0.4002
  N  N364  1  0.264600  0.874320  0.817530  1.0  -0.4077
  N  N365  1  0.081800  0.411800  0.750970  1.0  0.1409
  N  N366  1  0.120800  0.341400  0.767600  1.0  -0.4003
  N  N367  1  0.985400  0.375680  0.817530  1.0  -0.4093
  N  N368  1  0.081800  0.911800  0.250970  1.0  0.1409
  N  N369  1  0.120800  0.841400  0.267600  1.0  -0.4003
  N  N370  1  0.985400  0.875680  0.317530  1.0  -0.4093
  N  N371  1  0.581800  0.411800  0.250970  1.0  0.1409
  N  N372  1  0.620800  0.341400  0.267600  1.0  -0.4003
  N  N373  1  0.485400  0.375680  0.317530  1.0  -0.4093
  N  N374  1  0.581800  0.911800  0.750970  1.0  0.1409
  N  N375  1  0.620800  0.841400  0.767600  1.0  -0.4003
  N  N376  1  0.485400  0.875680  0.817530  1.0  -0.4093
  N  N377  1  0.918200  0.661800  0.000970  1.0  0.1405
  N  N378  1  0.879200  0.591400  0.017600  1.0  -0.4002
  N  N379  1  0.014600  0.625680  0.067530  1.0  -0.4078
  N  N380  1  0.918200  0.161800  0.500970  1.0  0.1405
  N  N381  1  0.879200  0.091400  0.517600  1.0  -0.4002
  N  N382  1  0.014600  0.125680  0.567530  1.0  -0.4078
  N  N383  1  0.418200  0.661800  0.500970  1.0  0.1405
  N  N384  1  0.379200  0.591400  0.517600  1.0  -0.4002
  N  N385  1  0.514600  0.625680  0.567530  1.0  -0.4078
  N  N386  1  0.418200  0.161800  0.000970  1.0  0.1405
  N  N387  1  0.379200  0.091400  0.017600  1.0  -0.4002
  N  N388  1  0.514600  0.125680  0.067530  1.0  -0.4078
  N  N389  1  0.331800  0.588200  0.000970  1.0  0.1419
  N  N390  1  0.370800  0.658600  0.017600  1.0  -0.4016
  N  N391  1  0.235400  0.624320  0.067530  1.0  -0.4091
  N  N392  1  0.331800  0.088200  0.500970  1.0  0.1419
  N  N393  1  0.370800  0.158600  0.517600  1.0  -0.4016
  N  N394  1  0.235400  0.124320  0.567530  1.0  -0.4091
  N  N395  1  0.831800  0.588200  0.500970  1.0  0.1419
  N  N396  1  0.870800  0.658600  0.517600  1.0  -0.4016
  N  N397  1  0.735400  0.624320  0.567530  1.0  -0.4091
  N  N398  1  0.831800  0.088200  0.000970  1.0  0.1419
  N  N399  1  0.870800  0.158600  0.017600  1.0  -0.4016
  N  N400  1  0.735400  0.124320  0.067530  1.0  -0.4091
  N  N401  1  0.331800  0.661800  0.249030  1.0  0.1422
  N  N402  1  0.370800  0.591400  0.232400  1.0  -0.4003
  N  N403  1  0.235400  0.625680  0.182470  1.0  -0.4098
  N  N404  1  0.331800  0.161800  0.749030  1.0  0.1422
  N  N405  1  0.370800  0.091400  0.732400  1.0  -0.4003
  N  N406  1  0.235400  0.125680  0.682470  1.0  -0.4098
  N  N407  1  0.831800  0.661800  0.749030  1.0  0.1422
  N  N408  1  0.870800  0.591400  0.732400  1.0  -0.4003
  N  N409  1  0.735400  0.625680  0.682470  1.0  -0.4098
  N  N410  1  0.831800  0.161800  0.249030  1.0  0.1422
  N  N411  1  0.870800  0.091400  0.232400  1.0  -0.4003
  N  N412  1  0.735400  0.125680  0.182470  1.0  -0.4098
  N  N413  1  0.918200  0.588200  0.249030  1.0  0.1417
  N  N414  1  0.879200  0.658600  0.232400  1.0  -0.4
  N  N415  1  0.014600  0.624320  0.182470  1.0  -0.4086
  N  N416  1  0.918200  0.088200  0.749030  1.0  0.1417
  N  N417  1  0.879200  0.158600  0.732400  1.0  -0.4
  N  N418  1  0.014600  0.124320  0.682470  1.0  -0.4086
  N  N419  1  0.418200  0.588200  0.749030  1.0  0.1417
  N  N420  1  0.379200  0.658600  0.732400  1.0  -0.4
  N  N421  1  0.514600  0.624320  0.682470  1.0  -0.4086
  N  N422  1  0.418200  0.088200  0.249030  1.0  0.1417
  N  N423  1  0.379200  0.158600  0.232400  1.0  -0.4
  N  N424  1  0.514600  0.124320  0.182470  1.0  -0.4086
