# generated using pymatgen
data_CuH24(C4N3)4
_symmetry_space_group_name_H-M   'P 1'
_cell_length_a   16.99820000
_cell_length_b   12.89240000
_cell_length_c   24.71430000
_cell_angle_alpha   90.00000000
_cell_angle_beta   90.00000000
_cell_angle_gamma   90.00000000
_symmetry_Int_Tables_number   1
_chemical_formula_structural   CuH24(C4N3)4
_chemical_formula_sum   'Cu8 H192 C128 N96'
_cell_volume   5416.07937449
_cell_formula_units_Z   8
loop_
 _symmetry_equiv_pos_site_id
 _symmetry_equiv_pos_as_xyz
  1  'x, y, z'
loop_
 _atom_site_type_symbol
 _atom_site_label
 _atom_site_symmetry_multiplicity
 _atom_site_fract_x
 _atom_site_fract_y
 _atom_site_fract_z
 _atom_site_occupancy
 _atom_site_charge
  Cu  Cu1  1  0.875000  0.375000  0.875000  1.0  0.4266
  Cu  Cu2  1  0.875000  0.875000  0.375000  1.0  0.4266
  Cu  Cu3  1  0.375000  0.375000  0.375000  1.0  0.4266
  Cu  Cu4  1  0.375000  0.875000  0.875000  1.0  0.4266
  Cu  Cu5  1  0.125000  0.625000  0.125000  1.0  0.4266
  Cu  Cu6  1  0.125000  0.125000  0.625000  1.0  0.4266
  Cu  Cu7  1  0.625000  0.625000  0.625000  1.0  0.4266
  Cu  Cu8  1  0.625000  0.125000  0.125000  1.0  0.4266
  H  H9  1  0.775900  0.182000  0.923000  1.0  0.0518
  H  H10  1  0.976500  0.287800  0.973600  1.0  0.0765
  H  H11  1  0.923400  0.078700  0.065300  1.0  0.077
  H  H12  1  0.986200  0.167700  0.062500  1.0  0.0648
  H  H13  1  0.054300  0.080700  0.995900  1.0  0.0625
  H  H14  1  0.045700  0.009000  0.046600  1.0  0.0568
  H  H15  1  0.775900  0.682000  0.423000  1.0  0.0518
  H  H16  1  0.976500  0.787800  0.473600  1.0  0.0765
  H  H17  1  0.923400  0.578700  0.565300  1.0  0.077
  H  H18  1  0.986200  0.667700  0.562500  1.0  0.0648
  H  H19  1  0.054300  0.580700  0.495900  1.0  0.0625
  H  H20  1  0.045700  0.509000  0.546600  1.0  0.0568
  H  H21  1  0.275900  0.182000  0.423000  1.0  0.0518
  H  H22  1  0.476500  0.287800  0.473600  1.0  0.0765
  H  H23  1  0.423400  0.078700  0.565300  1.0  0.077
  H  H24  1  0.486200  0.167700  0.562500  1.0  0.0648
  H  H25  1  0.554300  0.080700  0.495900  1.0  0.0625
  H  H26  1  0.545700  0.009000  0.546600  1.0  0.0568
  H  H27  1  0.275900  0.682000  0.923000  1.0  0.0518
  H  H28  1  0.476500  0.787800  0.973600  1.0  0.0765
  H  H29  1  0.423400  0.578700  0.065300  1.0  0.077
  H  H30  1  0.486200  0.667700  0.062500  1.0  0.0648
  H  H31  1  0.554300  0.580700  0.995900  1.0  0.0625
  H  H32  1  0.545700  0.509000  0.046600  1.0  0.0568
  H  H33  1  0.974100  0.568000  0.923000  1.0  0.0519
  H  H34  1  0.773500  0.462200  0.973600  1.0  0.0768
  H  H35  1  0.826600  0.671300  0.065300  1.0  0.0759
  H  H36  1  0.763800  0.582300  0.062500  1.0  0.0662
  H  H37  1  0.695700  0.669300  0.995900  1.0  0.0616
  H  H38  1  0.704300  0.741000  0.046600  1.0  0.0564
  H  H39  1  0.974100  0.068000  0.423000  1.0  0.0519
  H  H40  1  0.773500  0.962200  0.473600  1.0  0.0768
  H  H41  1  0.826600  0.171300  0.565300  1.0  0.0759
  H  H42  1  0.763800  0.082300  0.562500  1.0  0.0662
  H  H43  1  0.695700  0.169300  0.495900  1.0  0.0616
  H  H44  1  0.704300  0.241000  0.546600  1.0  0.0564
  H  H45  1  0.474100  0.568000  0.423000  1.0  0.0519
  H  H46  1  0.273500  0.462200  0.473600  1.0  0.0768
  H  H47  1  0.326600  0.671300  0.565300  1.0  0.0759
  H  H48  1  0.263800  0.582300  0.562500  1.0  0.0662
  H  H49  1  0.195700  0.669300  0.495900  1.0  0.0616
  H  H50  1  0.204300  0.741000  0.546600  1.0  0.0564
  H  H51  1  0.474100  0.068000  0.923000  1.0  0.0519
  H  H52  1  0.273500  0.962200  0.973600  1.0  0.0768
  H  H53  1  0.326600  0.171300  0.065300  1.0  0.0759
  H  H54  1  0.263800  0.082300  0.062500  1.0  0.0662
  H  H55  1  0.195700  0.169300  0.995900  1.0  0.0616
  H  H56  1  0.204300  0.241000  0.046600  1.0  0.0564
  H  H57  1  0.974100  0.182000  0.827000  1.0  0.0514
  H  H58  1  0.773500  0.287800  0.776400  1.0  0.0762
  H  H59  1  0.826600  0.078700  0.684700  1.0  0.0761
  H  H60  1  0.763800  0.167700  0.687500  1.0  0.0655
  H  H61  1  0.695700  0.080700  0.754100  1.0  0.0625
  H  H62  1  0.704300  0.009000  0.703400  1.0  0.0564
  H  H63  1  0.974100  0.682000  0.327000  1.0  0.0514
  H  H64  1  0.773500  0.787800  0.276400  1.0  0.0762
  H  H65  1  0.826600  0.578700  0.184700  1.0  0.0761
  H  H66  1  0.763800  0.667700  0.187500  1.0  0.0655
  H  H67  1  0.695700  0.580700  0.254100  1.0  0.0625
  H  H68  1  0.704300  0.509000  0.203400  1.0  0.0564
  H  H69  1  0.474100  0.182000  0.327000  1.0  0.0514
  H  H70  1  0.273500  0.287800  0.276400  1.0  0.0762
  H  H71  1  0.326600  0.078700  0.184700  1.0  0.0761
  H  H72  1  0.263800  0.167700  0.187500  1.0  0.0655
  H  H73  1  0.195700  0.080700  0.254100  1.0  0.0625
  H  H74  1  0.204300  0.009000  0.203400  1.0  0.0564
  H  H75  1  0.474100  0.682000  0.827000  1.0  0.0514
  H  H76  1  0.273500  0.787800  0.776400  1.0  0.0762
  H  H77  1  0.326600  0.578700  0.684700  1.0  0.0761
  H  H78  1  0.263800  0.667700  0.687500  1.0  0.0655
  H  H79  1  0.195700  0.580700  0.754100  1.0  0.0625
  H  H80  1  0.204300  0.509000  0.703400  1.0  0.0564
  H  H81  1  0.775900  0.568000  0.827000  1.0  0.0516
  H  H82  1  0.976500  0.462200  0.776400  1.0  0.0765
  H  H83  1  0.923400  0.671300  0.684700  1.0  0.0765
  H  H84  1  0.986200  0.582300  0.687500  1.0  0.0658
  H  H85  1  0.054300  0.669300  0.754100  1.0  0.0628
  H  H86  1  0.045700  0.741000  0.703400  1.0  0.0554
  H  H87  1  0.775900  0.068000  0.327000  1.0  0.0516
  H  H88  1  0.976500  0.962200  0.276400  1.0  0.0765
  H  H89  1  0.923400  0.171300  0.184700  1.0  0.0765
  H  H90  1  0.986200  0.082300  0.187500  1.0  0.0658
  H  H91  1  0.054300  0.169300  0.254100  1.0  0.0628
  H  H92  1  0.045700  0.241000  0.203400  1.0  0.0554
  H  H93  1  0.275900  0.568000  0.327000  1.0  0.0516
  H  H94  1  0.476500  0.462200  0.276400  1.0  0.0765
  H  H95  1  0.423400  0.671300  0.184700  1.0  0.0765
  H  H96  1  0.486200  0.582300  0.187500  1.0  0.0658
  H  H97  1  0.554300  0.669300  0.254100  1.0  0.0628
  H  H98  1  0.545700  0.741000  0.203400  1.0  0.0554
  H  H99  1  0.275900  0.068000  0.827000  1.0  0.0516
  H  H100  1  0.476500  0.962200  0.776400  1.0  0.0765
  H  H101  1  0.423400  0.171300  0.684700  1.0  0.0765
  H  H102  1  0.486200  0.082300  0.687500  1.0  0.0658
  H  H103  1  0.554300  0.169300  0.754100  1.0  0.0628
  H  H104  1  0.545700  0.241000  0.703400  1.0  0.0554
  H  H105  1  0.224100  0.818000  0.077000  1.0  0.0514
  H  H106  1  0.023500  0.712200  0.026400  1.0  0.0768
  H  H107  1  0.076600  0.921300  0.934700  1.0  0.076
  H  H108  1  0.013800  0.832300  0.937500  1.0  0.0658
  H  H109  1  0.945700  0.919300  0.004100  1.0  0.0624
  H  H110  1  0.954300  0.991000  0.953400  1.0  0.0558
  H  H111  1  0.224100  0.318000  0.577000  1.0  0.0514
  H  H112  1  0.023500  0.212200  0.526400  1.0  0.0768
  H  H113  1  0.076600  0.421300  0.434700  1.0  0.076
  H  H114  1  0.013800  0.332300  0.437500  1.0  0.0658
  H  H115  1  0.945700  0.419300  0.504100  1.0  0.0624
  H  H116  1  0.954300  0.491000  0.453400  1.0  0.0558
  H  H117  1  0.724100  0.818000  0.577000  1.0  0.0514
  H  H118  1  0.523500  0.712200  0.526400  1.0  0.0768
  H  H119  1  0.576600  0.921300  0.434700  1.0  0.076
  H  H120  1  0.513800  0.832300  0.437500  1.0  0.0658
  H  H121  1  0.445700  0.919300  0.504100  1.0  0.0624
  H  H122  1  0.454300  0.991000  0.453400  1.0  0.0558
  H  H123  1  0.724100  0.318000  0.077000  1.0  0.0514
  H  H124  1  0.523500  0.212200  0.026400  1.0  0.0768
  H  H125  1  0.576600  0.421300  0.934700  1.0  0.076
  H  H126  1  0.513800  0.332300  0.937500  1.0  0.0658
  H  H127  1  0.445700  0.419300  0.004100  1.0  0.0624
  H  H128  1  0.454300  0.491000  0.953400  1.0  0.0558
  H  H129  1  0.025900  0.432000  0.077000  1.0  0.0516
  H  H130  1  0.226500  0.537800  0.026400  1.0  0.0764
  H  H131  1  0.173400  0.328700  0.934700  1.0  0.0763
  H  H132  1  0.236200  0.417700  0.937500  1.0  0.0651
  H  H133  1  0.304300  0.330700  0.004100  1.0  0.063
  H  H134  1  0.295700  0.259000  0.953400  1.0  0.0559
  H  H135  1  0.025900  0.932000  0.577000  1.0  0.0516
  H  H136  1  0.226500  0.037800  0.526400  1.0  0.0764
  H  H137  1  0.173400  0.828700  0.434700  1.0  0.0763
  H  H138  1  0.236200  0.917700  0.437500  1.0  0.0651
  H  H139  1  0.304300  0.830700  0.504100  1.0  0.063
  H  H140  1  0.295700  0.759000  0.453400  1.0  0.0559
  H  H141  1  0.525900  0.432000  0.577000  1.0  0.0516
  H  H142  1  0.726500  0.537800  0.526400  1.0  0.0764
  H  H143  1  0.673400  0.328700  0.434700  1.0  0.0763
  H  H144  1  0.736200  0.417700  0.437500  1.0  0.0651
  H  H145  1  0.804300  0.330700  0.504100  1.0  0.063
  H  H146  1  0.795700  0.259000  0.453400  1.0  0.0559
  H  H147  1  0.525900  0.932000  0.077000  1.0  0.0516
  H  H148  1  0.726500  0.037800  0.026400  1.0  0.0764
  H  H149  1  0.673400  0.828700  0.934700  1.0  0.0763
  H  H150  1  0.736200  0.917700  0.937500  1.0  0.0651
  H  H151  1  0.804300  0.830700  0.004100  1.0  0.063
  H  H152  1  0.795700  0.759000  0.953400  1.0  0.0559
  H  H153  1  0.025900  0.818000  0.173000  1.0  0.0517
  H  H154  1  0.226500  0.712200  0.223600  1.0  0.0765
  H  H155  1  0.173400  0.921300  0.315300  1.0  0.0768
  H  H156  1  0.236200  0.832300  0.312500  1.0  0.0663
  H  H157  1  0.304300  0.919300  0.245900  1.0  0.0617
  H  H158  1  0.295700  0.991000  0.296600  1.0  0.0565
  H  H159  1  0.025900  0.318000  0.673000  1.0  0.0517
  H  H160  1  0.226500  0.212200  0.723600  1.0  0.0765
  H  H161  1  0.173400  0.421300  0.815300  1.0  0.0768
  H  H162  1  0.236200  0.332300  0.812500  1.0  0.0663
  H  H163  1  0.304300  0.419300  0.745900  1.0  0.0617
  H  H164  1  0.295700  0.491000  0.796600  1.0  0.0565
  H  H165  1  0.525900  0.818000  0.673000  1.0  0.0517
  H  H166  1  0.726500  0.712200  0.723600  1.0  0.0765
  H  H167  1  0.673400  0.921300  0.815300  1.0  0.0768
  H  H168  1  0.736200  0.832300  0.812500  1.0  0.0663
  H  H169  1  0.804300  0.919300  0.745900  1.0  0.0617
  H  H170  1  0.795700  0.991000  0.796600  1.0  0.0565
  H  H171  1  0.525900  0.318000  0.173000  1.0  0.0517
  H  H172  1  0.726500  0.212200  0.223600  1.0  0.0765
  H  H173  1  0.673400  0.421300  0.315300  1.0  0.0768
  H  H174  1  0.736200  0.332300  0.312500  1.0  0.0663
  H  H175  1  0.804300  0.419300  0.245900  1.0  0.0617
  H  H176  1  0.795700  0.491000  0.296600  1.0  0.0565
  H  H177  1  0.224100  0.432000  0.173000  1.0  0.052
  H  H178  1  0.023500  0.537800  0.223600  1.0  0.0763
  H  H179  1  0.076600  0.328700  0.315300  1.0  0.0764
  H  H180  1  0.013800  0.417700  0.312500  1.0  0.0651
  H  H181  1  0.945700  0.330700  0.245900  1.0  0.0626
  H  H182  1  0.954300  0.259000  0.296600  1.0  0.0567
  H  H183  1  0.224100  0.932000  0.673000  1.0  0.052
  H  H184  1  0.023500  0.037800  0.723600  1.0  0.0763
  H  H185  1  0.076600  0.828700  0.815300  1.0  0.0764
  H  H186  1  0.013800  0.917700  0.812500  1.0  0.0651
  H  H187  1  0.945700  0.830700  0.745900  1.0  0.0626
  H  H188  1  0.954300  0.759000  0.796600  1.0  0.0567
  H  H189  1  0.724100  0.432000  0.673000  1.0  0.052
  H  H190  1  0.523500  0.537800  0.723600  1.0  0.0763
  H  H191  1  0.576600  0.328700  0.815300  1.0  0.0764
  H  H192  1  0.513800  0.417700  0.812500  1.0  0.0651
  H  H193  1  0.445700  0.330700  0.745900  1.0  0.0626
  H  H194  1  0.454300  0.259000  0.796600  1.0  0.0567
  H  H195  1  0.724100  0.932000  0.173000  1.0  0.052
  H  H196  1  0.523500  0.037800  0.223600  1.0  0.0763
  H  H197  1  0.576600  0.828700  0.315300  1.0  0.0764
  H  H198  1  0.513800  0.917700  0.312500  1.0  0.0651
  H  H199  1  0.445700  0.830700  0.245900  1.0  0.0626
  H  H200  1  0.454300  0.759000  0.296600  1.0  0.0567
  C  C201  1  0.822000  0.189500  0.942800  1.0  0.238
  C  C202  1  0.931000  0.248400  0.969560  1.0  0.1072
  C  C203  1  0.958400  0.116100  0.041260  1.0  -0.0353
  C  C204  1  0.016900  0.041500  0.017300  1.0  -0.1461
  C  C205  1  0.822000  0.689500  0.442800  1.0  0.238
  C  C206  1  0.931000  0.748400  0.469560  1.0  0.1072
  C  C207  1  0.958400  0.616100  0.541260  1.0  -0.0353
  C  C208  1  0.016900  0.541500  0.517300  1.0  -0.1461
  C  C209  1  0.322000  0.189500  0.442800  1.0  0.238
  C  C210  1  0.431000  0.248400  0.469560  1.0  0.1072
  C  C211  1  0.458400  0.116100  0.541260  1.0  -0.0353
  C  C212  1  0.516900  0.041500  0.517300  1.0  -0.1461
  C  C213  1  0.322000  0.689500  0.942800  1.0  0.238
  C  C214  1  0.431000  0.748400  0.969560  1.0  0.1072
  C  C215  1  0.458400  0.616100  0.041260  1.0  -0.0353
  C  C216  1  0.516900  0.541500  0.017300  1.0  -0.1461
  C  C217  1  0.928000  0.560500  0.942800  1.0  0.2382
  C  C218  1  0.819000  0.501600  0.969560  1.0  0.1078
  C  C219  1  0.791600  0.633900  0.041260  1.0  -0.0351
  C  C220  1  0.733100  0.708500  0.017300  1.0  -0.1491
  C  C221  1  0.928000  0.060500  0.442800  1.0  0.2382
  C  C222  1  0.819000  0.001600  0.469560  1.0  0.1078
  C  C223  1  0.791600  0.133900  0.541260  1.0  -0.0351
  C  C224  1  0.733100  0.208500  0.517300  1.0  -0.1491
  C  C225  1  0.428000  0.560500  0.442800  1.0  0.2382
  C  C226  1  0.319000  0.501600  0.469560  1.0  0.1078
  C  C227  1  0.291600  0.633900  0.541260  1.0  -0.0351
  C  C228  1  0.233100  0.708500  0.517300  1.0  -0.1491
  C  C229  1  0.428000  0.060500  0.942800  1.0  0.2382
  C  C230  1  0.319000  0.001600  0.969560  1.0  0.1078
  C  C231  1  0.291600  0.133900  0.041260  1.0  -0.0351
  C  C232  1  0.233100  0.208500  0.017300  1.0  -0.1491
  C  C233  1  0.928000  0.189500  0.807200  1.0  0.2382
  C  C234  1  0.819000  0.248400  0.780440  1.0  0.1072
  C  C235  1  0.791600  0.116100  0.708740  1.0  -0.0341
  C  C236  1  0.733100  0.041500  0.732700  1.0  -0.1476
  C  C237  1  0.928000  0.689500  0.307200  1.0  0.2382
  C  C238  1  0.819000  0.748400  0.280440  1.0  0.1072
  C  C239  1  0.791600  0.616100  0.208740  1.0  -0.0341
  C  C240  1  0.733100  0.541500  0.232700  1.0  -0.1476
  C  C241  1  0.428000  0.189500  0.307200  1.0  0.2382
  C  C242  1  0.319000  0.248400  0.280440  1.0  0.1072
  C  C243  1  0.291600  0.116100  0.208740  1.0  -0.0341
  C  C244  1  0.233100  0.041500  0.232700  1.0  -0.1476
  C  C245  1  0.428000  0.689500  0.807200  1.0  0.2382
  C  C246  1  0.319000  0.748400  0.780440  1.0  0.1072
  C  C247  1  0.291600  0.616100  0.708740  1.0  -0.0341
  C  C248  1  0.233100  0.541500  0.732700  1.0  -0.1476
  C  C249  1  0.822000  0.560500  0.807200  1.0  0.2383
  C  C250  1  0.931000  0.501600  0.780440  1.0  0.1072
  C  C251  1  0.958400  0.633900  0.708740  1.0  -0.0325
  C  C252  1  0.016900  0.708500  0.732700  1.0  -0.1448
  C  C253  1  0.822000  0.060500  0.307200  1.0  0.2383
  C  C254  1  0.931000  0.001600  0.280440  1.0  0.1072
  C  C255  1  0.958400  0.133900  0.208740  1.0  -0.0325
  C  C256  1  0.016900  0.208500  0.232700  1.0  -0.1448
  C  C257  1  0.322000  0.560500  0.307200  1.0  0.2383
  C  C258  1  0.431000  0.501600  0.280440  1.0  0.1072
  C  C259  1  0.458400  0.633900  0.208740  1.0  -0.0325
  C  C260  1  0.516900  0.708500  0.232700  1.0  -0.1448
  C  C261  1  0.322000  0.060500  0.807200  1.0  0.2383
  C  C262  1  0.431000  0.001600  0.780440  1.0  0.1072
  C  C263  1  0.458400  0.133900  0.708740  1.0  -0.0325
  C  C264  1  0.516900  0.208500  0.732700  1.0  -0.1448
  C  C265  1  0.178000  0.810500  0.057200  1.0  0.2389
  C  C266  1  0.069000  0.751600  0.030440  1.0  0.1079
  C  C267  1  0.041600  0.883900  0.958740  1.0  -0.0336
  C  C268  1  0.983100  0.958500  0.982700  1.0  -0.1476
  C  C269  1  0.178000  0.310500  0.557200  1.0  0.2389
  C  C270  1  0.069000  0.251600  0.530440  1.0  0.1079
  C  C271  1  0.041600  0.383900  0.458740  1.0  -0.0336
  C  C272  1  0.983100  0.458500  0.482700  1.0  -0.1476
  C  C273  1  0.678000  0.810500  0.557200  1.0  0.2389
  C  C274  1  0.569000  0.751600  0.530440  1.0  0.1079
  C  C275  1  0.541600  0.883900  0.458740  1.0  -0.0336
  C  C276  1  0.483100  0.958500  0.482700  1.0  -0.1476
  C  C277  1  0.678000  0.310500  0.057200  1.0  0.2389
  C  C278  1  0.569000  0.251600  0.030440  1.0  0.1079
  C  C279  1  0.541600  0.383900  0.958740  1.0  -0.0336
  C  C280  1  0.483100  0.458500  0.982700  1.0  -0.1476
  C  C281  1  0.072000  0.439500  0.057200  1.0  0.2388
  C  C282  1  0.181000  0.498400  0.030440  1.0  0.1072
  C  C283  1  0.208400  0.366100  0.958740  1.0  -0.0325
  C  C284  1  0.266900  0.291500  0.982700  1.0  -0.1445
  C  C285  1  0.072000  0.939500  0.557200  1.0  0.2388
  C  C286  1  0.181000  0.998400  0.530440  1.0  0.1072
  C  C287  1  0.208400  0.866100  0.458740  1.0  -0.0325
  C  C288  1  0.266900  0.791500  0.482700  1.0  -0.1445
  C  C289  1  0.572000  0.439500  0.557200  1.0  0.2388
  C  C290  1  0.681000  0.498400  0.530440  1.0  0.1072
  C  C291  1  0.708400  0.366100  0.458740  1.0  -0.0325
  C  C292  1  0.766900  0.291500  0.482700  1.0  -0.1445
  C  C293  1  0.572000  0.939500  0.057200  1.0  0.2388
  C  C294  1  0.681000  0.998400  0.030440  1.0  0.1072
  C  C295  1  0.708400  0.866100  0.958740  1.0  -0.0325
  C  C296  1  0.766900  0.791500  0.982700  1.0  -0.1445
  C  C297  1  0.072000  0.810500  0.192800  1.0  0.2389
  C  C298  1  0.181000  0.751600  0.219560  1.0  0.1072
  C  C299  1  0.208400  0.883900  0.291260  1.0  -0.0358
  C  C300  1  0.266900  0.958500  0.267300  1.0  -0.1458
  C  C301  1  0.072000  0.310500  0.692800  1.0  0.2389
  C  C302  1  0.181000  0.251600  0.719560  1.0  0.1072
  C  C303  1  0.208400  0.383900  0.791260  1.0  -0.0358
  C  C304  1  0.266900  0.458500  0.767300  1.0  -0.1458
  C  C305  1  0.572000  0.810500  0.692800  1.0  0.2389
  C  C306  1  0.681000  0.751600  0.719560  1.0  0.1072
  C  C307  1  0.708400  0.883900  0.791260  1.0  -0.0358
  C  C308  1  0.766900  0.958500  0.767300  1.0  -0.1458
  C  C309  1  0.572000  0.310500  0.192800  1.0  0.2389
  C  C310  1  0.681000  0.251600  0.219560  1.0  0.1072
  C  C311  1  0.708400  0.383900  0.291260  1.0  -0.0358
  C  C312  1  0.766900  0.458500  0.267300  1.0  -0.1458
  C  C313  1  0.178000  0.439500  0.192800  1.0  0.2385
  C  C314  1  0.069000  0.498400  0.219560  1.0  0.1072
  C  C315  1  0.041600  0.366100  0.291260  1.0  -0.0347
  C  C316  1  0.983100  0.291500  0.267300  1.0  -0.1487
  C  C317  1  0.178000  0.939500  0.692800  1.0  0.2385
  C  C318  1  0.069000  0.998400  0.719560  1.0  0.1072
  C  C319  1  0.041600  0.866100  0.791260  1.0  -0.0347
  C  C320  1  0.983100  0.791500  0.767300  1.0  -0.1487
  C  C321  1  0.678000  0.439500  0.692800  1.0  0.2385
  C  C322  1  0.569000  0.498400  0.719560  1.0  0.1072
  C  C323  1  0.541600  0.366100  0.791260  1.0  -0.0347
  C  C324  1  0.483100  0.291500  0.767300  1.0  -0.1487
  C  C325  1  0.678000  0.939500  0.192800  1.0  0.2385
  C  C326  1  0.569000  0.998400  0.219560  1.0  0.1072
  C  C327  1  0.541600  0.866100  0.291260  1.0  -0.0347
  C  C328  1  0.483100  0.791500  0.267300  1.0  -0.1487
  N  N329  1  0.875800  0.265000  0.932870  1.0  -0.4062
  N  N330  1  0.912000  0.168000  0.999450  1.0  0.1501
  N  N331  1  0.841300  0.128400  0.982840  1.0  -0.4033
  N  N332  1  0.875800  0.765000  0.432870  1.0  -0.4062
  N  N333  1  0.912000  0.668000  0.499450  1.0  0.1501
  N  N334  1  0.841300  0.628400  0.482840  1.0  -0.4033
  N  N335  1  0.375800  0.265000  0.432870  1.0  -0.4062
  N  N336  1  0.412000  0.168000  0.499450  1.0  0.1501
  N  N337  1  0.341300  0.128400  0.482840  1.0  -0.4033
  N  N338  1  0.375800  0.765000  0.932870  1.0  -0.4062
  N  N339  1  0.412000  0.668000  0.999450  1.0  0.1501
  N  N340  1  0.341300  0.628400  0.982840  1.0  -0.4033
  N  N341  1  0.874200  0.485000  0.932870  1.0  -0.4068
  N  N342  1  0.838000  0.582000  0.999450  1.0  0.1503
  N  N343  1  0.908700  0.621600  0.982840  1.0  -0.4037
  N  N344  1  0.874200  0.985000  0.432870  1.0  -0.4068
  N  N345  1  0.838000  0.082000  0.499450  1.0  0.1503
  N  N346  1  0.908700  0.121600  0.482840  1.0  -0.4037
  N  N347  1  0.374200  0.485000  0.432870  1.0  -0.4068
  N  N348  1  0.338000  0.582000  0.499450  1.0  0.1503
  N  N349  1  0.408700  0.621600  0.482840  1.0  -0.4037
  N  N350  1  0.374200  0.985000  0.932870  1.0  -0.4068
  N  N351  1  0.338000  0.082000  0.999450  1.0  0.1503
  N  N352  1  0.408700  0.121600  0.982840  1.0  -0.4037
  N  N353  1  0.874200  0.265000  0.817130  1.0  -0.4056
  N  N354  1  0.838000  0.168000  0.750550  1.0  0.15
  N  N355  1  0.908700  0.128400  0.767160  1.0  -0.4039
  N  N356  1  0.874200  0.765000  0.317130  1.0  -0.4056
  N  N357  1  0.838000  0.668000  0.250550  1.0  0.15
  N  N358  1  0.908700  0.628400  0.267160  1.0  -0.4039
  N  N359  1  0.374200  0.265000  0.317130  1.0  -0.4056
  N  N360  1  0.338000  0.168000  0.250550  1.0  0.15
  N  N361  1  0.408700  0.128400  0.267160  1.0  -0.4039
  N  N362  1  0.374200  0.765000  0.817130  1.0  -0.4056
  N  N363  1  0.338000  0.668000  0.750550  1.0  0.15
  N  N364  1  0.408700  0.628400  0.767160  1.0  -0.4039
  N  N365  1  0.875800  0.485000  0.817130  1.0  -0.406
  N  N366  1  0.912000  0.582000  0.750550  1.0  0.1482
  N  N367  1  0.841300  0.621600  0.767160  1.0  -0.4039
  N  N368  1  0.875800  0.985000  0.317130  1.0  -0.406
  N  N369  1  0.912000  0.082000  0.250550  1.0  0.1482
  N  N370  1  0.841300  0.121600  0.267160  1.0  -0.4039
  N  N371  1  0.375800  0.485000  0.317130  1.0  -0.406
  N  N372  1  0.412000  0.582000  0.250550  1.0  0.1482
  N  N373  1  0.341300  0.621600  0.267160  1.0  -0.4039
  N  N374  1  0.375800  0.985000  0.817130  1.0  -0.406
  N  N375  1  0.412000  0.082000  0.750550  1.0  0.1482
  N  N376  1  0.341300  0.121600  0.767160  1.0  -0.4039
  N  N377  1  0.124200  0.735000  0.067130  1.0  -0.4059
  N  N378  1  0.088000  0.832000  0.000550  1.0  0.149
  N  N379  1  0.158700  0.871600  0.017160  1.0  -0.4035
  N  N380  1  0.124200  0.235000  0.567130  1.0  -0.4059
  N  N381  1  0.088000  0.332000  0.500550  1.0  0.149
  N  N382  1  0.158700  0.371600  0.517160  1.0  -0.4035
  N  N383  1  0.624200  0.735000  0.567130  1.0  -0.4059
  N  N384  1  0.588000  0.832000  0.500550  1.0  0.149
  N  N385  1  0.658700  0.871600  0.517160  1.0  -0.4035
  N  N386  1  0.624200  0.235000  0.067130  1.0  -0.4059
  N  N387  1  0.588000  0.332000  0.000550  1.0  0.149
  N  N388  1  0.658700  0.371600  0.017160  1.0  -0.4035
  N  N389  1  0.125800  0.515000  0.067130  1.0  -0.4058
  N  N390  1  0.162000  0.418000  0.000550  1.0  0.1495
  N  N391  1  0.091300  0.378400  0.017160  1.0  -0.4039
  N  N392  1  0.125800  0.015000  0.567130  1.0  -0.4058
  N  N393  1  0.162000  0.918000  0.500550  1.0  0.1495
  N  N394  1  0.091300  0.878400  0.517160  1.0  -0.4039
  N  N395  1  0.625800  0.515000  0.567130  1.0  -0.4058
  N  N396  1  0.662000  0.418000  0.500550  1.0  0.1495
  N  N397  1  0.591300  0.378400  0.517160  1.0  -0.4039
  N  N398  1  0.625800  0.015000  0.067130  1.0  -0.4058
  N  N399  1  0.662000  0.918000  0.000550  1.0  0.1495
  N  N400  1  0.591300  0.878400  0.017160  1.0  -0.4039
  N  N401  1  0.125800  0.735000  0.182870  1.0  -0.4069
  N  N402  1  0.162000  0.832000  0.249450  1.0  0.1495
  N  N403  1  0.091300  0.871600  0.232840  1.0  -0.4038
  N  N404  1  0.125800  0.235000  0.682870  1.0  -0.4069
  N  N405  1  0.162000  0.332000  0.749450  1.0  0.1495
  N  N406  1  0.091300  0.371600  0.732840  1.0  -0.4038
  N  N407  1  0.625800  0.735000  0.682870  1.0  -0.4069
  N  N408  1  0.662000  0.832000  0.749450  1.0  0.1495
  N  N409  1  0.591300  0.871600  0.732840  1.0  -0.4038
  N  N410  1  0.625800  0.235000  0.182870  1.0  -0.4069
  N  N411  1  0.662000  0.332000  0.249450  1.0  0.1495
  N  N412  1  0.591300  0.371600  0.232840  1.0  -0.4038
  N  N413  1  0.124200  0.515000  0.182870  1.0  -0.4061
  N  N414  1  0.088000  0.418000  0.249450  1.0  0.1503
  N  N415  1  0.158700  0.378400  0.232840  1.0  -0.4036
  N  N416  1  0.124200  0.015000  0.682870  1.0  -0.4061
  N  N417  1  0.088000  0.918000  0.749450  1.0  0.1503
  N  N418  1  0.158700  0.878400  0.732840  1.0  -0.4036
  N  N419  1  0.624200  0.515000  0.682870  1.0  -0.4061
  N  N420  1  0.588000  0.418000  0.749450  1.0  0.1503
  N  N421  1  0.658700  0.378400  0.732840  1.0  -0.4036
  N  N422  1  0.624200  0.015000  0.182870  1.0  -0.4061
  N  N423  1  0.588000  0.918000  0.249450  1.0  0.1503
  N  N424  1  0.658700  0.878400  0.232840  1.0  -0.4036
