# generated using pymatgen
data_Cu3P2H12W18C12N6O47
_symmetry_space_group_name_H-M   'P 1'
_cell_length_a   21.45510000
_cell_length_b   21.45510000
_cell_length_c   34.17080000
_cell_angle_alpha   90.00000000
_cell_angle_beta   90.00000000
_cell_angle_gamma   120.00000000
_symmetry_Int_Tables_number   1
_chemical_formula_structural   Cu3P2H12W18C12N6O47
_chemical_formula_sum   'Cu18 P12 H72 W108 C72 N36 O282'
_cell_volume   13622.18783339
_cell_formula_units_Z   6
loop_
 _symmetry_equiv_pos_site_id
 _symmetry_equiv_pos_as_xyz
  1  'x, y, z'
loop_
 _atom_site_type_symbol
 _atom_site_label
 _atom_site_symmetry_multiplicity
 _atom_site_fract_x
 _atom_site_fract_y
 _atom_site_fract_z
 _atom_site_occupancy
 _atom_site_charge
  Cu  Cu1  1  0.333333  0.941620  0.666667  1.0  0.525
  Cu  Cu2  1  0.000000  0.274950  0.000000  1.0  0.5251
  Cu  Cu3  1  0.058380  0.391720  0.666667  1.0  0.5247
  Cu  Cu4  1  0.725050  0.725050  0.000000  1.0  0.5246
  Cu  Cu5  1  0.608280  0.666667  0.666667  1.0  0.5267
  Cu  Cu6  1  0.274950  0.000000  0.000000  1.0  0.5267
  Cu  Cu7  1  0.941620  0.333333  0.333333  1.0  0.5268
  Cu  Cu8  1  0.391720  0.058380  0.333333  1.0  0.5246
  Cu  Cu9  1  0.666667  0.608280  0.333333  1.0  0.5251
  Cu  Cu10  1  0.150190  0.816860  0.833330  1.0  0.4047
  Cu  Cu11  1  0.183140  0.333333  0.833330  1.0  0.4067
  Cu  Cu12  1  0.666667  0.849810  0.833330  1.0  0.402
  Cu  Cu13  1  0.816860  0.150190  0.166670  1.0  0.4046
  Cu  Cu14  1  0.483530  0.483530  0.500000  1.0  0.4046
  Cu  Cu15  1  0.333333  0.183140  0.166670  1.0  0.4021
  Cu  Cu16  1  0.000000  0.516470  0.500000  1.0  0.402
  Cu  Cu17  1  0.849810  0.666667  0.166670  1.0  0.4067
  Cu  Cu18  1  0.516470  0.000000  0.500000  1.0  0.4067
  P  P19  1  0.333333  0.666667  0.982280  1.0  1.6844
  P  P20  1  0.333333  0.666667  0.865520  1.0  1.6158
  P  P21  1  0.000000  0.000000  0.315610  1.0  1.6844
  P  P22  1  0.000000  0.000000  0.198850  1.0  1.6159
  P  P23  1  0.666667  0.333333  0.648950  1.0  1.6843
  P  P24  1  0.666667  0.333333  0.532190  1.0  1.6158
  P  P25  1  0.666667  0.333333  0.017720  1.0  1.683
  P  P26  1  0.666667  0.333333  0.134480  1.0  1.6158
  P  P27  1  0.333333  0.666667  0.351050  1.0  1.6828
  P  P28  1  0.333333  0.666667  0.467810  1.0  1.616
  P  P29  1  0.000000  0.000000  0.684390  1.0  1.6829
  P  P30  1  0.000000  0.000000  0.801150  1.0  1.6159
  H  H31  1  0.357500  0.957400  0.750000  1.0  0.0875
  H  H32  1  0.184700  0.850000  0.689100  1.0  0.0994
  H  H33  1  0.295500  0.916500  0.805900  1.0  0.0924
  H  H34  1  0.122600  0.801200  0.745300  1.0  0.0865
  H  H35  1  0.024170  0.290730  0.083330  1.0  0.0875
  H  H36  1  0.851370  0.183330  0.022430  1.0  0.0994
  H  H37  1  0.962170  0.249830  0.139230  1.0  0.0924
  H  H38  1  0.789270  0.134530  0.078630  1.0  0.0865
  H  H39  1  0.690830  0.624070  0.416670  1.0  0.0875
  H  H40  1  0.518030  0.516670  0.355770  1.0  0.1014
  H  H41  1  0.628830  0.583170  0.472570  1.0  0.0924
  H  H42  1  0.455930  0.467870  0.411970  1.0  0.0865
  H  H43  1  0.042600  0.400100  0.750000  1.0  0.0867
  H  H44  1  0.150000  0.334700  0.689100  1.0  0.101
  H  H45  1  0.083500  0.379000  0.805900  1.0  0.0933
  H  H46  1  0.198800  0.321400  0.745300  1.0  0.0856
  H  H47  1  0.709270  0.733430  0.083330  1.0  0.0867
  H  H48  1  0.816670  0.668030  0.022430  1.0  0.101
  H  H49  1  0.750170  0.712330  0.139230  1.0  0.0933
  H  H50  1  0.865470  0.654730  0.078630  1.0  0.0856
  H  H51  1  0.375930  0.066770  0.416670  1.0  0.0867
  H  H52  1  0.483330  0.001370  0.355770  1.0  0.0988
  H  H53  1  0.416830  0.045670  0.472570  1.0  0.0933
  H  H54  1  0.532130  0.988070  0.411970  1.0  0.0856
  H  H55  1  0.599900  0.642500  0.750000  1.0  0.0859
  H  H56  1  0.665300  0.815300  0.689100  1.0  0.1006
  H  H57  1  0.621000  0.704500  0.805900  1.0  0.0926
  H  H58  1  0.678600  0.877400  0.745300  1.0  0.0861
  H  H59  1  0.266570  0.975830  0.083330  1.0  0.0859
  H  H60  1  0.331970  0.148630  0.022430  1.0  0.1006
  H  H61  1  0.287670  0.037830  0.139230  1.0  0.0926
  H  H62  1  0.345270  0.210730  0.078630  1.0  0.0861
  H  H63  1  0.933230  0.309170  0.416670  1.0  0.0859
  H  H64  1  0.998630  0.481970  0.355770  1.0  0.0982
  H  H65  1  0.954330  0.371170  0.472570  1.0  0.0926
  H  H66  1  0.011930  0.544070  0.411970  1.0  0.0861
  H  H67  1  0.957400  0.357500  0.250000  1.0  0.0848
  H  H68  1  0.850000  0.184700  0.310900  1.0  0.0988
  H  H69  1  0.916500  0.295500  0.194100  1.0  0.0928
  H  H70  1  0.801200  0.122600  0.254700  1.0  0.086
  H  H71  1  0.624070  0.690830  0.583330  1.0  0.0848
  H  H72  1  0.516670  0.518030  0.644230  1.0  0.1007
  H  H73  1  0.583170  0.628830  0.527430  1.0  0.0929
  H  H74  1  0.467870  0.455930  0.588030  1.0  0.086
  H  H75  1  0.290730  0.024170  0.916670  1.0  0.0848
  H  H76  1  0.183330  0.851370  0.977570  1.0  0.0988
  H  H77  1  0.249830  0.962170  0.860770  1.0  0.0928
  H  H78  1  0.134530  0.789270  0.921370  1.0  0.086
  H  H79  1  0.400100  0.042600  0.250000  1.0  0.0877
  H  H80  1  0.334700  0.150000  0.310900  1.0  0.1013
  H  H81  1  0.379000  0.083500  0.194100  1.0  0.0922
  H  H82  1  0.321400  0.198800  0.254700  1.0  0.0868
  H  H83  1  0.066770  0.375930  0.583330  1.0  0.0877
  H  H84  1  0.001370  0.483330  0.644230  1.0  0.0996
  H  H85  1  0.045670  0.416830  0.527430  1.0  0.0922
  H  H86  1  0.988070  0.532130  0.588030  1.0  0.0868
  H  H87  1  0.733430  0.709270  0.916670  1.0  0.0877
  H  H88  1  0.668030  0.816670  0.977570  1.0  0.1013
  H  H89  1  0.712330  0.750170  0.860770  1.0  0.0922
  H  H90  1  0.654730  0.865470  0.921370  1.0  0.0868
  H  H91  1  0.642500  0.599900  0.250000  1.0  0.0871
  H  H92  1  0.815300  0.665300  0.310900  1.0  0.1006
  H  H93  1  0.704500  0.621000  0.194100  1.0  0.0926
  H  H94  1  0.877400  0.678600  0.254700  1.0  0.0855
  H  H95  1  0.309170  0.933230  0.583330  1.0  0.0871
  H  H96  1  0.481970  0.998630  0.644230  1.0  0.0989
  H  H97  1  0.371170  0.954330  0.527430  1.0  0.0926
  H  H98  1  0.544070  0.011930  0.588030  1.0  0.0855
  H  H99  1  0.975830  0.266570  0.916670  1.0  0.0871
  H  H100  1  0.148630  0.331970  0.977570  1.0  0.1006
  H  H101  1  0.037830  0.287670  0.860770  1.0  0.0926
  H  H102  1  0.210730  0.345270  0.921370  1.0  0.0855
  W  W103  1  0.293370  0.731130  0.067960  1.0  1.336
  W  W104  1  0.157740  0.518200  0.978250  1.0  1.3968
  W  W105  1  0.291220  0.728780  0.779590  1.0  1.359
  W  W106  1  0.157210  0.518710  0.868330  1.0  1.3136
  W  W107  1  0.178530  0.683620  0.979690  1.0  1.3956
  W  W108  1  0.179390  0.684470  0.869340  1.0  2.3947
  W  W109  1  0.960040  0.064460  0.401290  1.0  1.336
  W  W110  1  0.824410  0.851530  0.311580  1.0  1.3968
  W  W111  1  0.957890  0.062110  0.112920  1.0  1.3591
  W  W112  1  0.823880  0.852040  0.201660  1.0  1.3136
  W  W113  1  0.845200  0.016950  0.313020  1.0  1.3956
  W  W114  1  0.846060  0.017800  0.202670  1.0  2.3947
  W  W115  1  0.626700  0.397800  0.734630  1.0  1.336
  W  W116  1  0.491070  0.184870  0.644920  1.0  1.3968
  W  W117  1  0.624550  0.395450  0.446260  1.0  1.3587
  W  W118  1  0.490540  0.185380  0.535000  1.0  1.3133
  W  W119  1  0.511860  0.350290  0.646360  1.0  1.3957
  W  W120  1  0.512720  0.351140  0.536010  1.0  2.3947
  W  W121  1  0.268870  0.562240  0.067960  1.0  1.3355
  W  W122  1  0.481800  0.639540  0.978250  1.0  1.393
  W  W123  1  0.271220  0.562440  0.779590  1.0  1.3577
  W  W124  1  0.481290  0.638500  0.868330  1.0  1.311
  W  W125  1  0.316380  0.494910  0.979690  1.0  1.3993
  W  W126  1  0.315530  0.494920  0.869340  1.0  2.3938
  W  W127  1  0.935540  0.895570  0.401290  1.0  1.3359
  W  W128  1  0.148470  0.972870  0.311580  1.0  1.393
  W  W129  1  0.937890  0.895770  0.112920  1.0  1.3578
  W  W130  1  0.147960  0.971830  0.201660  1.0  1.311
  W  W131  1  0.983050  0.828240  0.313020  1.0  1.3993
  W  W132  1  0.982200  0.828250  0.202670  1.0  2.3938
  W  W133  1  0.602200  0.228910  0.734630  1.0  1.3355
  W  W134  1  0.815130  0.306210  0.644920  1.0  1.393
  W  W135  1  0.604550  0.229110  0.446260  1.0  1.3577
  W  W136  1  0.814620  0.305170  0.535000  1.0  1.3113
  W  W137  1  0.649710  0.161580  0.646360  1.0  1.3992
  W  W138  1  0.648860  0.161590  0.536010  1.0  2.3938
  W  W139  1  0.437760  0.706630  0.067960  1.0  1.3334
  W  W140  1  0.360460  0.842260  0.978250  1.0  1.4005
  W  W141  1  0.437560  0.708780  0.779590  1.0  1.3572
  W  W142  1  0.361500  0.842790  0.868330  1.0  1.3179
  W  W143  1  0.505090  0.821470  0.979690  1.0  1.4033
  W  W144  1  0.505080  0.820610  0.869340  1.0  2.3944
  W  W145  1  0.104430  0.039960  0.401290  1.0  1.3333
  W  W146  1  0.027130  0.175590  0.311580  1.0  1.4005
  W  W147  1  0.104230  0.042110  0.112920  1.0  1.3572
  W  W148  1  0.028170  0.176120  0.201660  1.0  1.3179
  W  W149  1  0.171760  0.154800  0.313020  1.0  1.4033
  W  W150  1  0.171750  0.153940  0.202670  1.0  2.3944
  W  W151  1  0.771090  0.373300  0.734630  1.0  1.3334
  W  W152  1  0.693790  0.508930  0.644920  1.0  1.4005
  W  W153  1  0.770890  0.375450  0.446260  1.0  1.3572
  W  W154  1  0.694830  0.509460  0.535000  1.0  1.3183
  W  W155  1  0.838420  0.488140  0.646360  1.0  1.4043
  W  W156  1  0.838410  0.487280  0.536010  1.0  2.3944
  W  W157  1  0.731130  0.293370  0.932040  1.0  1.3327
  W  W158  1  0.518200  0.157740  0.021750  1.0  1.3962
  W  W159  1  0.728780  0.291220  0.220410  1.0  1.3584
  W  W160  1  0.518710  0.157210  0.131670  1.0  1.3122
  W  W161  1  0.683620  0.178530  0.020310  1.0  1.4011
  W  W162  1  0.684470  0.179390  0.130660  1.0  2.3929
  W  W163  1  0.397800  0.626700  0.265370  1.0  1.3327
  W  W164  1  0.184870  0.491070  0.355080  1.0  1.3962
  W  W165  1  0.395450  0.624550  0.553740  1.0  1.3582
  W  W166  1  0.185380  0.490540  0.465000  1.0  1.3118
  W  W167  1  0.350290  0.511860  0.353640  1.0  1.4012
  W  W168  1  0.351140  0.512720  0.463990  1.0  2.3929
  W  W169  1  0.064460  0.960040  0.598710  1.0  1.3327
  W  W170  1  0.851530  0.824410  0.688420  1.0  1.3962
  W  W171  1  0.062110  0.957890  0.887080  1.0  1.3586
  W  W172  1  0.852040  0.823880  0.798340  1.0  1.3122
  W  W173  1  0.016950  0.845200  0.686980  1.0  1.4011
  W  W174  1  0.017800  0.846060  0.797330  1.0  2.3929
  W  W175  1  0.562240  0.268870  0.932040  1.0  1.336
  W  W176  1  0.639540  0.481800  0.021750  1.0  1.4006
  W  W177  1  0.562440  0.271220  0.220410  1.0  1.3565
  W  W178  1  0.638500  0.481290  0.131670  1.0  1.3136
  W  W179  1  0.494910  0.316380  0.020310  1.0  1.3942
  W  W180  1  0.494920  0.315530  0.130660  1.0  2.3928
  W  W181  1  0.228910  0.602200  0.265370  1.0  1.336
  W  W182  1  0.306210  0.815130  0.355080  1.0  1.4006
  W  W183  1  0.229110  0.604550  0.553740  1.0  1.3565
  W  W184  1  0.305170  0.814620  0.465000  1.0  1.3139
  W  W185  1  0.161580  0.649710  0.353640  1.0  1.3941
  W  W186  1  0.161590  0.648860  0.463990  1.0  2.3928
  W  W187  1  0.895570  0.935540  0.598710  1.0  1.3364
  W  W188  1  0.972870  0.148470  0.688420  1.0  1.4006
  W  W189  1  0.895770  0.937890  0.887080  1.0  1.3566
  W  W190  1  0.971830  0.147960  0.798340  1.0  1.3136
  W  W191  1  0.828240  0.983050  0.686980  1.0  1.3942
  W  W192  1  0.828250  0.982200  0.797330  1.0  2.3928
  W  W193  1  0.706630  0.437760  0.932040  1.0  1.3429
  W  W194  1  0.842260  0.360460  0.021750  1.0  1.395
  W  W195  1  0.708780  0.437560  0.220410  1.0  1.3597
  W  W196  1  0.842790  0.361500  0.131670  1.0  1.3128
  W  W197  1  0.821470  0.505090  0.020310  1.0  1.4044
  W  W198  1  0.820610  0.505080  0.130660  1.0  2.393
  W  W199  1  0.373300  0.771090  0.265370  1.0  1.3429
  W  W200  1  0.508930  0.693790  0.355080  1.0  1.395
  W  W201  1  0.375450  0.770890  0.553740  1.0  1.3597
  W  W202  1  0.509460  0.694830  0.465000  1.0  1.3132
  W  W203  1  0.488140  0.838420  0.353640  1.0  1.4053
  W  W204  1  0.487280  0.838410  0.463990  1.0  2.393
  W  W205  1  0.039960  0.104430  0.598710  1.0  1.3428
  W  W206  1  0.175590  0.027130  0.688420  1.0  1.395
  W  W207  1  0.042110  0.104230  0.887080  1.0  1.3597
  W  W208  1  0.176120  0.028170  0.798340  1.0  1.3128
  W  W209  1  0.154800  0.171760  0.686980  1.0  1.4044
  W  W210  1  0.153940  0.171750  0.797330  1.0  2.393
  C  C211  1  0.308200  0.925600  0.748600  1.0  0.1404
  C  C212  1  0.208900  0.862900  0.712900  1.0  0.1071
  C  C213  1  0.271500  0.899800  0.782200  1.0  0.1221
  C  C214  1  0.171600  0.834300  0.747000  1.0  0.1442
  C  C215  1  0.974870  0.258930  0.081930  1.0  0.1404
  C  C216  1  0.875570  0.196230  0.046230  1.0  0.1071
  C  C217  1  0.938170  0.233130  0.115530  1.0  0.1221
  C  C218  1  0.838270  0.167630  0.080330  1.0  0.1442
  C  C219  1  0.641530  0.592270  0.415270  1.0  0.1404
  C  C220  1  0.542230  0.529570  0.379570  1.0  0.1071
  C  C221  1  0.604830  0.566470  0.448870  1.0  0.122
  C  C222  1  0.504930  0.500970  0.413670  1.0  0.1442
  C  C223  1  0.074400  0.382600  0.748600  1.0  0.1438
  C  C224  1  0.137100  0.346000  0.712900  1.0  0.1073
  C  C225  1  0.100200  0.371700  0.782200  1.0  0.125
  C  C226  1  0.165700  0.337300  0.747000  1.0  0.1464
  C  C227  1  0.741070  0.715930  0.081930  1.0  0.1438
  C  C228  1  0.803770  0.679330  0.046230  1.0  0.1073
  C  C229  1  0.766870  0.705030  0.115530  1.0  0.125
  C  C230  1  0.832370  0.670630  0.080330  1.0  0.1463
  C  C231  1  0.407730  0.049270  0.415270  1.0  0.1438
  C  C232  1  0.470430  0.012670  0.379570  1.0  0.1073
  C  C233  1  0.433530  0.038370  0.448870  1.0  0.125
  C  C234  1  0.499030  0.003970  0.413670  1.0  0.1464
  C  C235  1  0.617400  0.691800  0.748600  1.0  0.1422
  C  C236  1  0.654000  0.791100  0.712900  1.0  0.1085
  C  C237  1  0.628300  0.728500  0.782200  1.0  0.1236
  C  C238  1  0.662700  0.828400  0.747000  1.0  0.1468
  C  C239  1  0.284070  0.025130  0.081930  1.0  0.1422
  C  C240  1  0.320670  0.124430  0.046230  1.0  0.1085
  C  C241  1  0.294970  0.061830  0.115530  1.0  0.1235
  C  C242  1  0.329370  0.161730  0.080330  1.0  0.1467
  C  C243  1  0.950730  0.358470  0.415270  1.0  0.1422
  C  C244  1  0.987330  0.457770  0.379570  1.0  0.1085
  C  C245  1  0.961630  0.395170  0.448870  1.0  0.1236
  C  C246  1  0.996030  0.495070  0.413670  1.0  0.1468
  C  C247  1  0.925600  0.308200  0.251400  1.0  0.1432
  C  C248  1  0.862900  0.208900  0.287100  1.0  0.1078
  C  C249  1  0.899800  0.271500  0.217800  1.0  0.1229
  C  C250  1  0.834300  0.171600  0.253000  1.0  0.1457
  C  C251  1  0.592270  0.641530  0.584730  1.0  0.1433
  C  C252  1  0.529570  0.542230  0.620430  1.0  0.1077
  C  C253  1  0.566470  0.604830  0.551130  1.0  0.1227
  C  C254  1  0.500970  0.504930  0.586330  1.0  0.1458
  C  C255  1  0.258930  0.974870  0.918070  1.0  0.1432
  C  C256  1  0.196230  0.875570  0.953770  1.0  0.1078
  C  C257  1  0.233130  0.938170  0.884470  1.0  0.1229
  C  C258  1  0.167630  0.838270  0.919670  1.0  0.1457
  C  C259  1  0.382600  0.074400  0.251400  1.0  0.141
  C  C260  1  0.346000  0.137100  0.287100  1.0  0.1061
  C  C261  1  0.371700  0.100200  0.217800  1.0  0.1209
  C  C262  1  0.337300  0.165700  0.253000  1.0  0.1421
  C  C263  1  0.049270  0.407730  0.584730  1.0  0.141
  C  C264  1  0.012670  0.470430  0.620430  1.0  0.1061
  C  C265  1  0.038370  0.433530  0.551130  1.0  0.1209
  C  C266  1  0.003970  0.499030  0.586330  1.0  0.1421
  C  C267  1  0.715930  0.741070  0.918070  1.0  0.141
  C  C268  1  0.679330  0.803770  0.953770  1.0  0.1061
  C  C269  1  0.705030  0.766870  0.884470  1.0  0.1209
  C  C270  1  0.670630  0.832370  0.919670  1.0  0.1421
  C  C271  1  0.691800  0.617400  0.251400  1.0  0.146
  C  C272  1  0.791100  0.654000  0.287100  1.0  0.1071
  C  C273  1  0.728500  0.628300  0.217800  1.0  0.124
  C  C274  1  0.828400  0.662700  0.253000  1.0  0.1456
  C  C275  1  0.358470  0.950730  0.584730  1.0  0.146
  C  C276  1  0.457770  0.987330  0.620430  1.0  0.1071
  C  C277  1  0.395170  0.961630  0.551130  1.0  0.1241
  C  C278  1  0.495070  0.996030  0.586330  1.0  0.1456
  C  C279  1  0.025130  0.284070  0.918070  1.0  0.146
  C  C280  1  0.124430  0.320670  0.953770  1.0  0.1071
  C  C281  1  0.061830  0.294970  0.884470  1.0  0.124
  C  C282  1  0.161730  0.329370  0.919670  1.0  0.1456
  N  N283  1  0.277700  0.907800  0.713500  1.0  -0.0534
  N  N284  1  0.201800  0.851200  0.782400  1.0  -0.3373
  N  N285  1  0.944370  0.241130  0.046830  1.0  -0.0536
  N  N286  1  0.868470  0.184530  0.115730  1.0  -0.3373
  N  N287  1  0.611030  0.574470  0.380170  1.0  -0.0534
  N  N288  1  0.535130  0.517870  0.449070  1.0  -0.3374
  N  N289  1  0.092200  0.369900  0.713500  1.0  -0.0545
  N  N290  1  0.148800  0.350600  0.782400  1.0  -0.3326
  N  N291  1  0.758870  0.703230  0.046830  1.0  -0.0547
  N  N292  1  0.815470  0.683930  0.115730  1.0  -0.3327
  N  N293  1  0.425530  0.036570  0.380170  1.0  -0.0545
  N  N294  1  0.482130  0.017270  0.449070  1.0  -0.3326
  N  N295  1  0.630100  0.722300  0.713500  1.0  -0.0549
  N  N296  1  0.649400  0.798200  0.782400  1.0  -0.3364
  N  N297  1  0.296770  0.055630  0.046830  1.0  -0.0549
  N  N298  1  0.316070  0.131530  0.115730  1.0  -0.3365
  N  N299  1  0.963430  0.388970  0.380170  1.0  -0.0551
  N  N300  1  0.982730  0.464870  0.449070  1.0  -0.3361
  N  N301  1  0.907800  0.277700  0.286500  1.0  -0.0536
  N  N302  1  0.851200  0.201800  0.217600  1.0  -0.3382
  N  N303  1  0.574470  0.611030  0.619830  1.0  -0.0536
  N  N304  1  0.517870  0.535130  0.550930  1.0  -0.3383
  N  N305  1  0.241130  0.944370  0.953170  1.0  -0.0539
  N  N306  1  0.184530  0.868470  0.884270  1.0  -0.3382
  N  N307  1  0.369900  0.092200  0.286500  1.0  -0.0502
  N  N308  1  0.350600  0.148800  0.217600  1.0  -0.3381
  N  N309  1  0.036570  0.425530  0.619830  1.0  -0.0502
  N  N310  1  0.017270  0.482130  0.550930  1.0  -0.3381
  N  N311  1  0.703230  0.758870  0.953170  1.0  -0.0504
  N  N312  1  0.683930  0.815470  0.884270  1.0  -0.3382
  N  N313  1  0.722300  0.630100  0.286500  1.0  -0.0526
  N  N314  1  0.798200  0.649400  0.217600  1.0  -0.3346
  N  N315  1  0.388970  0.963430  0.619830  1.0  -0.0528
  N  N316  1  0.464870  0.982730  0.550930  1.0  -0.3343
  N  N317  1  0.055630  0.296770  0.953170  1.0  -0.0526
  N  N318  1  0.131530  0.316070  0.884270  1.0  -0.3347
  O  O319  1  0.146800  0.522700  0.923900  1.0  -0.6867
  O  O320  1  0.120400  0.581300  0.986900  1.0  -0.6618
  O  O321  1  0.121500  0.583400  0.861300  1.0  -0.7548
  O  O322  1  0.226100  0.489500  0.878700  1.0  -0.7681
  O  O323  1  0.254200  0.635700  0.878700  1.0  -0.7881
  O  O324  1  0.165200  0.671900  0.924000  1.0  -0.7491
  O  O325  1  0.254900  0.635300  0.969000  1.0  -0.7996
  O  O326  1  0.214400  0.693200  0.031600  1.0  -0.7068
  O  O327  1  0.250400  0.632600  0.758200  1.0  -0.6852
  O  O328  1  0.227000  0.488800  0.969300  1.0  -0.677
  O  O329  1  0.215400  0.693800  0.815800  1.0  -0.6975
  O  O330  1  0.342900  0.805400  0.031200  1.0  -0.7088
  O  O331  1  0.251700  0.634900  0.090500  1.0  -0.6986
  O  O332  1  0.117100  0.711500  0.858500  1.0  -0.6987
  O  O333  1  0.193700  0.537300  0.815500  1.0  -0.6771
  O  O334  1  0.813470  0.856030  0.257230  1.0  -0.6867
  O  O335  1  0.787070  0.914630  0.320230  1.0  -0.6617
  O  O336  1  0.788170  0.916730  0.194630  1.0  -0.7548
  O  O337  1  0.892770  0.822830  0.212030  1.0  -0.7681
  O  O338  1  0.920870  0.969030  0.212030  1.0  -0.7881
  O  O339  1  0.831870  0.005230  0.257330  1.0  -0.7491
  O  O340  1  0.921570  0.968630  0.302330  1.0  -0.7996
  O  O341  1  0.881070  0.026530  0.364930  1.0  -0.7068
  O  O342  1  0.917070  0.965930  0.091530  1.0  -0.6603
  O  O343  1  0.893670  0.822130  0.302630  1.0  -0.677
  O  O344  1  0.882070  0.027130  0.149130  1.0  -0.6973
  O  O345  1  0.009570  0.138730  0.364530  1.0  -0.7088
  O  O346  1  0.918370  0.968230  0.423830  1.0  -0.6846
  O  O347  1  0.783770  0.044830  0.191830  1.0  -0.6987
  O  O348  1  0.860370  0.870630  0.148830  1.0  -0.6771
  O  O349  1  0.480130  0.189370  0.590570  1.0  -0.686
  O  O350  1  0.453730  0.247970  0.653570  1.0  -0.6618
  O  O351  1  0.454830  0.250070  0.527970  1.0  -0.7548
  O  O352  1  0.559430  0.156170  0.545370  1.0  -0.7681
  O  O353  1  0.587530  0.302370  0.545370  1.0  -0.7881
  O  O354  1  0.498530  0.338570  0.590670  1.0  -0.7491
  O  O355  1  0.588230  0.301970  0.635670  1.0  -0.7996
  O  O356  1  0.547730  0.359870  0.698270  1.0  -0.7068
  O  O357  1  0.583730  0.299270  0.424870  1.0  -0.6852
  O  O358  1  0.560330  0.155470  0.635970  1.0  -0.677
  O  O359  1  0.548730  0.360470  0.482470  1.0  -0.6975
  O  O360  1  0.676230  0.472070  0.697870  1.0  -0.7088
  O  O361  1  0.585030  0.301570  0.757170  1.0  -0.6986
  O  O362  1  0.450430  0.378170  0.525170  1.0  -0.6987
  O  O363  1  0.527030  0.203970  0.482170  1.0  -0.6771
  O  O364  1  0.477300  0.624100  0.923900  1.0  -0.6888
  O  O365  1  0.418700  0.539100  0.986900  1.0  -0.6686
  O  O366  1  0.416600  0.538100  0.861300  1.0  -0.7537
  O  O367  1  0.510500  0.736600  0.878700  1.0  -0.7668
  O  O368  1  0.364300  0.618500  0.878700  1.0  -0.7883
  O  O369  1  0.328100  0.493300  0.924000  1.0  -0.7472
  O  O370  1  0.364700  0.619600  0.969000  1.0  -0.8002
  O  O371  1  0.306800  0.521200  0.031600  1.0  -0.7123
  O  O372  1  0.367400  0.617800  0.758200  1.0  -0.6713
  O  O373  1  0.511200  0.738200  0.969300  1.0  -0.6729
  O  O374  1  0.306200  0.521600  0.815800  1.0  -0.6972
  O  O375  1  0.194600  0.537500  0.031200  1.0  -0.7115
  O  O376  1  0.365100  0.616800  0.090500  1.0  -0.6919
  O  O377  1  0.288500  0.405600  0.858500  1.0  -0.6942
  O  O378  1  0.462700  0.656400  0.815500  1.0  -0.6747
  O  O379  1  0.143970  0.957430  0.257230  1.0  -0.6888
  O  O380  1  0.085370  0.872430  0.320230  1.0  -0.6686
  O  O381  1  0.083270  0.871430  0.194630  1.0  -0.7537
  O  O382  1  0.177170  0.069930  0.212030  1.0  -0.7668
  O  O383  1  0.030970  0.951830  0.212030  1.0  -0.7883
  O  O384  1  0.994770  0.826630  0.257330  1.0  -0.7472
  O  O385  1  0.031370  0.952930  0.302330  1.0  -0.802
  O  O386  1  0.973470  0.854530  0.364930  1.0  -0.7123
  O  O387  1  0.034070  0.951130  0.091530  1.0  -0.6852
  O  O388  1  0.177870  0.071530  0.302630  1.0  -0.6729
  O  O389  1  0.972870  0.854930  0.149130  1.0  -0.6972
  O  O390  1  0.861270  0.870830  0.364530  1.0  -0.7115
  O  O391  1  0.031770  0.950130  0.423830  1.0  -0.6982
  O  O392  1  0.955170  0.738930  0.191830  1.0  -0.6942
  O  O393  1  0.129370  0.989730  0.148830  1.0  -0.6746
  O  O394  1  0.810630  0.290770  0.590570  1.0  -0.6888
  O  O395  1  0.752030  0.205770  0.653570  1.0  -0.6686
  O  O396  1  0.749930  0.204770  0.527970  1.0  -0.7537
  O  O397  1  0.843830  0.403270  0.545370  1.0  -0.7668
  O  O398  1  0.697630  0.285170  0.545370  1.0  -0.7883
  O  O399  1  0.661430  0.159970  0.590670  1.0  -0.7471
  O  O400  1  0.698030  0.286270  0.635670  1.0  -0.8002
  O  O401  1  0.640130  0.187870  0.698270  1.0  -0.7123
  O  O402  1  0.700730  0.284470  0.424870  1.0  -0.6713
  O  O403  1  0.844530  0.404870  0.635970  1.0  -0.6729
  O  O404  1  0.639530  0.188270  0.482470  1.0  -0.6972
  O  O405  1  0.527930  0.204170  0.697870  1.0  -0.7115
  O  O406  1  0.698430  0.283470  0.757170  1.0  -0.6919
  O  O407  1  0.621830  0.072270  0.525170  1.0  -0.6942
  O  O408  1  0.796030  0.323070  0.482170  1.0  -0.6747
  O  O409  1  0.375900  0.853200  0.923900  1.0  -0.6863
  O  O410  1  0.460900  0.879600  0.986900  1.0  -0.6471
  O  O411  1  0.461900  0.878500  0.861300  1.0  -0.7496
  O  O412  1  0.263400  0.773900  0.878700  1.0  -0.7683
  O  O413  1  0.381500  0.745800  0.878700  1.0  -0.7884
  O  O414  1  0.506700  0.834800  0.924000  1.0  -0.7525
  O  O415  1  0.380400  0.745100  0.969000  1.0  -0.8008
  O  O416  1  0.478800  0.785600  0.031600  1.0  -0.712
  O  O417  1  0.382200  0.749600  0.758200  1.0  -0.6833
  O  O418  1  0.261800  0.773000  0.969300  1.0  -0.6747
  O  O419  1  0.478400  0.784600  0.815800  1.0  -0.7019
  O  O420  1  0.462500  0.657100  0.031200  1.0  -0.7053
  O  O421  1  0.383200  0.748300  0.090500  1.0  -0.6949
  O  O422  1  0.594400  0.882900  0.858500  1.0  -0.7012
  O  O423  1  0.343600  0.806300  0.815500  1.0  -0.6793
  O  O424  1  0.042570  0.186530  0.257230  1.0  -0.6863
  O  O425  1  0.127570  0.212930  0.320230  1.0  -0.647
  O  O426  1  0.128570  0.211830  0.194630  1.0  -0.7496
  O  O427  1  0.930070  0.107230  0.212030  1.0  -0.7683
  O  O428  1  0.048170  0.079130  0.212030  1.0  -0.7884
  O  O429  1  0.173370  0.168130  0.257330  1.0  -0.7525
  O  O430  1  0.047070  0.078430  0.302330  1.0  -0.8008
  O  O431  1  0.145470  0.118930  0.364930  1.0  -0.712
  O  O432  1  0.048870  0.082930  0.091530  1.0  -0.6631
  O  O433  1  0.928470  0.106330  0.302630  1.0  -0.6747
  O  O434  1  0.145070  0.117930  0.149130  1.0  -0.7019
  O  O435  1  0.129170  0.990430  0.364530  1.0  -0.7053
  O  O436  1  0.049870  0.081630  0.423830  1.0  -0.6848
  O  O437  1  0.261070  0.216230  0.191830  1.0  -0.7012
  O  O438  1  0.010270  0.139630  0.148830  1.0  -0.6793
  O  O439  1  0.709230  0.519870  0.590570  1.0  -0.6863
  O  O440  1  0.794230  0.546270  0.653570  1.0  -0.6471
  O  O441  1  0.795230  0.545170  0.527970  1.0  -0.7496
  O  O442  1  0.596730  0.440570  0.545370  1.0  -0.7683
  O  O443  1  0.714830  0.412470  0.545370  1.0  -0.7884
  O  O444  1  0.840030  0.501470  0.590670  1.0  -0.7525
  O  O445  1  0.713730  0.411770  0.635670  1.0  -0.8008
  O  O446  1  0.812130  0.452270  0.698270  1.0  -0.712
  O  O447  1  0.715530  0.416270  0.424870  1.0  -0.6833
  O  O448  1  0.595130  0.439670  0.635970  1.0  -0.6747
  O  O449  1  0.811730  0.451270  0.482470  1.0  -0.7019
  O  O450  1  0.795830  0.323770  0.697870  1.0  -0.7054
  O  O451  1  0.716530  0.414970  0.757170  1.0  -0.6949
  O  O452  1  0.927730  0.549570  0.525170  1.0  -0.7012
  O  O453  1  0.676930  0.472970  0.482170  1.0  -0.6793
  O  O454  1  0.522700  0.146800  0.076100  1.0  -0.6912
  O  O455  1  0.581300  0.120400  0.013100  1.0  -0.6575
  O  O456  1  0.583400  0.121500  0.138700  1.0  -0.7546
  O  O457  1  0.489500  0.226100  0.121300  1.0  -0.7683
  O  O458  1  0.635700  0.254200  0.121300  1.0  -0.7904
  O  O459  1  0.671900  0.165200  0.076000  1.0  -0.7525
  O  O460  1  0.635300  0.254900  0.031000  1.0  -0.801
  O  O461  1  0.693200  0.214400  0.968400  1.0  -0.7059
  O  O462  1  0.632600  0.250400  0.241800  1.0  -0.6856
  O  O463  1  0.488800  0.227000  0.030700  1.0  -0.6754
  O  O464  1  0.693800  0.215400  0.184200  1.0  -0.7016
  O  O465  1  0.805400  0.342900  0.968800  1.0  -0.7035
  O  O466  1  0.634900  0.251700  0.909500  1.0  -0.6969
  O  O467  1  0.711500  0.117100  0.141500  1.0  -0.699
  O  O468  1  0.537300  0.193700  0.184500  1.0  -0.6773
  O  O469  1  0.189370  0.480130  0.409430  1.0  -0.6904
  O  O470  1  0.247970  0.453730  0.346430  1.0  -0.6575
  O  O471  1  0.250070  0.454830  0.472030  1.0  -0.7546
  O  O472  1  0.156170  0.559430  0.454630  1.0  -0.7683
  O  O473  1  0.302370  0.587530  0.454630  1.0  -0.7904
  O  O474  1  0.338570  0.498530  0.409330  1.0  -0.7525
  O  O475  1  0.301970  0.588230  0.364330  1.0  -0.801
  O  O476  1  0.359870  0.547730  0.301730  1.0  -0.7059
  O  O477  1  0.299270  0.583730  0.575130  1.0  -0.6856
  O  O478  1  0.155470  0.560330  0.364030  1.0  -0.6754
  O  O479  1  0.360470  0.548730  0.517530  1.0  -0.7016
  O  O480  1  0.472070  0.676230  0.302130  1.0  -0.7035
  O  O481  1  0.301570  0.585030  0.242830  1.0  -0.6969
  O  O482  1  0.378170  0.450430  0.474830  1.0  -0.699
  O  O483  1  0.203970  0.527030  0.517830  1.0  -0.6773
  O  O484  1  0.856030  0.813470  0.742770  1.0  -0.6911
  O  O485  1  0.914630  0.787070  0.679770  1.0  -0.6574
  O  O486  1  0.916730  0.788170  0.805370  1.0  -0.7546
  O  O487  1  0.822830  0.892770  0.787970  1.0  -0.7683
  O  O488  1  0.969030  0.920870  0.787970  1.0  -0.7904
  O  O489  1  0.005230  0.831870  0.742670  1.0  -0.7525
  O  O490  1  0.968630  0.921570  0.697670  1.0  -0.801
  O  O491  1  0.026530  0.881070  0.635070  1.0  -0.7059
  O  O492  1  0.965930  0.917070  0.908470  1.0  -0.6615
  O  O493  1  0.822130  0.893670  0.697370  1.0  -0.6754
  O  O494  1  0.027130  0.882070  0.850870  1.0  -0.7015
  O  O495  1  0.138730  0.009570  0.635470  1.0  -0.7033
  O  O496  1  0.968230  0.918370  0.576170  1.0  -0.6832
  O  O497  1  0.044830  0.783770  0.808170  1.0  -0.699
  O  O498  1  0.870630  0.860370  0.851170  1.0  -0.6773
  O  O499  1  0.624100  0.477300  0.076100  1.0  -0.6851
  O  O500  1  0.539100  0.418700  0.013100  1.0  -0.6627
  O  O501  1  0.538100  0.416600  0.138700  1.0  -0.7551
  O  O502  1  0.736600  0.510500  0.121300  1.0  -0.7686
  O  O503  1  0.618500  0.364300  0.121300  1.0  -0.7887
  O  O504  1  0.493300  0.328100  0.076000  1.0  -0.7499
  O  O505  1  0.619600  0.364700  0.031000  1.0  -0.7999
  O  O506  1  0.521200  0.306800  0.968400  1.0  -0.7056
  O  O507  1  0.617800  0.367400  0.241800  1.0  -0.673
  O  O508  1  0.738200  0.511200  0.030700  1.0  -0.6793
  O  O509  1  0.521600  0.306200  0.184200  1.0  -0.7001
  O  O510  1  0.537500  0.194600  0.968800  1.0  -0.7106
  O  O511  1  0.616800  0.365100  0.909500  1.0  -0.6908
  O  O512  1  0.405600  0.288500  0.141500  1.0  -0.6982
  O  O513  1  0.656400  0.462700  0.184500  1.0  -0.6774
  O  O514  1  0.290770  0.810630  0.409430  1.0  -0.6851
  O  O515  1  0.205770  0.752030  0.346430  1.0  -0.6627
  O  O516  1  0.204770  0.749930  0.472030  1.0  -0.7551
  O  O517  1  0.403270  0.843830  0.454630  1.0  -0.7686
  O  O518  1  0.285170  0.697630  0.454630  1.0  -0.7887
  O  O519  1  0.159970  0.661430  0.409330  1.0  -0.7497
  O  O520  1  0.286270  0.698030  0.364330  1.0  -0.7999
  O  O521  1  0.187870  0.640130  0.301730  1.0  -0.7056
  O  O522  1  0.284470  0.700730  0.575130  1.0  -0.673
  O  O523  1  0.404870  0.844530  0.364030  1.0  -0.6794
  O  O524  1  0.188270  0.639530  0.517530  1.0  -0.7001
  O  O525  1  0.204170  0.527930  0.302130  1.0  -0.7106
  O  O526  1  0.283470  0.698430  0.242830  1.0  -0.6908
  O  O527  1  0.072270  0.621830  0.474830  1.0  -0.6982
  O  O528  1  0.323070  0.796030  0.517830  1.0  -0.6774
  O  O529  1  0.957430  0.143970  0.742770  1.0  -0.6851
  O  O530  1  0.872430  0.085370  0.679770  1.0  -0.6628
  O  O531  1  0.871430  0.083270  0.805370  1.0  -0.7551
  O  O532  1  0.069930  0.177170  0.787970  1.0  -0.7686
  O  O533  1  0.951830  0.030970  0.787970  1.0  -0.7887
  O  O534  1  0.826630  0.994770  0.742670  1.0  -0.7499
  O  O535  1  0.952930  0.031370  0.697670  1.0  -0.8016
  O  O536  1  0.854530  0.973470  0.635070  1.0  -0.7056
  O  O537  1  0.951130  0.034070  0.908470  1.0  -0.6871
  O  O538  1  0.071530  0.177870  0.697370  1.0  -0.6793
  O  O539  1  0.854930  0.972870  0.850870  1.0  -0.7002
  O  O540  1  0.870830  0.861270  0.635470  1.0  -0.7106
  O  O541  1  0.950130  0.031770  0.576170  1.0  -0.6985
  O  O542  1  0.738930  0.955170  0.808170  1.0  -0.6982
  O  O543  1  0.989730  0.129370  0.851170  1.0  -0.6774
  O  O544  1  0.853200  0.375900  0.076100  1.0  -0.6879
  O  O545  1  0.879600  0.460900  0.013100  1.0  -0.6674
  O  O546  1  0.878500  0.461900  0.138700  1.0  -0.755
  O  O547  1  0.773900  0.263400  0.121300  1.0  -0.7671
  O  O548  1  0.745800  0.381500  0.121300  1.0  -0.7893
  O  O549  1  0.834800  0.506700  0.076000  1.0  -0.7468
  O  O550  1  0.745100  0.380400  0.031000  1.0  -0.7997
  O  O551  1  0.785600  0.478800  0.968400  1.0  -0.7108
  O  O552  1  0.749600  0.382200  0.241800  1.0  -0.6816
  O  O553  1  0.773000  0.261800  0.030700  1.0  -0.6736
  O  O554  1  0.784600  0.478400  0.184200  1.0  -0.6995
  O  O555  1  0.657100  0.462500  0.968800  1.0  -0.7117
  O  O556  1  0.748300  0.383200  0.909500  1.0  -0.7002
  O  O557  1  0.882900  0.594400  0.141500  1.0  -0.6929
  O  O558  1  0.806300  0.343600  0.184500  1.0  -0.6759
  O  O559  1  0.519870  0.709230  0.409430  1.0  -0.6879
  O  O560  1  0.546270  0.794230  0.346430  1.0  -0.6674
  O  O561  1  0.545170  0.795230  0.472030  1.0  -0.755
  O  O562  1  0.440570  0.596730  0.454630  1.0  -0.7671
  O  O563  1  0.412470  0.714830  0.454630  1.0  -0.7893
  O  O564  1  0.501470  0.840030  0.409330  1.0  -0.7468
  O  O565  1  0.411770  0.713730  0.364330  1.0  -0.7997
  O  O566  1  0.452270  0.812130  0.301730  1.0  -0.7108
  O  O567  1  0.416270  0.715530  0.575130  1.0  -0.6816
  O  O568  1  0.439670  0.595130  0.364030  1.0  -0.6736
  O  O569  1  0.451270  0.811730  0.517530  1.0  -0.6995
  O  O570  1  0.323770  0.795830  0.302130  1.0  -0.7118
  O  O571  1  0.414970  0.716530  0.242830  1.0  -0.7002
  O  O572  1  0.549570  0.927730  0.474830  1.0  -0.6929
  O  O573  1  0.472970  0.676930  0.517830  1.0  -0.676
  O  O574  1  0.186530  0.042570  0.742770  1.0  -0.6879
  O  O575  1  0.212930  0.127570  0.679770  1.0  -0.6674
  O  O576  1  0.211830  0.128570  0.805370  1.0  -0.755
  O  O577  1  0.107230  0.930070  0.787970  1.0  -0.7671
  O  O578  1  0.079130  0.048170  0.787970  1.0  -0.7893
  O  O579  1  0.168130  0.173370  0.742670  1.0  -0.7468
  O  O580  1  0.078430  0.047070  0.697670  1.0  -0.7997
  O  O581  1  0.118930  0.145470  0.635070  1.0  -0.7108
  O  O582  1  0.082930  0.048870  0.908470  1.0  -0.6625
  O  O583  1  0.106330  0.928470  0.697370  1.0  -0.6736
  O  O584  1  0.117930  0.145070  0.850870  1.0  -0.6995
  O  O585  1  0.990430  0.129170  0.635470  1.0  -0.7117
  O  O586  1  0.081630  0.049870  0.576170  1.0  -0.6895
  O  O587  1  0.216230  0.261070  0.808170  1.0  -0.6929
  O  O588  1  0.139630  0.010270  0.851170  1.0  -0.6759
  O  O589  1  0.333333  0.666667  0.028200  1.0  -0.7775
  O  O590  1  0.333333  0.666667  0.819700  1.0  -0.7555
  O  O591  1  0.000000  0.000000  0.361530  1.0  -0.7766
  O  O592  1  0.000000  0.000000  0.153030  1.0  -0.7553
  O  O593  1  0.666667  0.333333  0.694870  1.0  -0.7786
  O  O594  1  0.666667  0.333333  0.486370  1.0  -0.7556
  O  O595  1  0.666667  0.333333  0.971800  1.0  -0.7744
  O  O596  1  0.666667  0.333333  0.180300  1.0  -0.7582
  O  O597  1  0.333333  0.666667  0.305130  1.0  -0.7757
  O  O598  1  0.333333  0.666667  0.513630  1.0  -0.7581
  O  O599  1  0.000000  0.000000  0.638470  1.0  -0.7736
  O  O600  1  0.000000  0.000000  0.846970  1.0  -0.7584
