# generated using pymatgen
data_CuH4(C5O2)2
_symmetry_space_group_name_H-M   'P 1'
_cell_length_a   12.81640000
_cell_length_b   22.28660000
_cell_length_c   22.28660000
_cell_angle_alpha   120.00000000
_cell_angle_beta   90.00000000
_cell_angle_gamma   90.00000000
_symmetry_Int_Tables_number   1
_chemical_formula_structural   CuH4(C5O2)2
_chemical_formula_sum   'Cu12 H48 C120 O48'
_cell_volume   5512.95340431
_cell_formula_units_Z   12
loop_
 _symmetry_equiv_pos_site_id
 _symmetry_equiv_pos_as_xyz
  1  'x, y, z'
loop_
 _atom_site_type_symbol
 _atom_site_label
 _atom_site_symmetry_multiplicity
 _atom_site_fract_x
 _atom_site_fract_y
 _atom_site_fract_z
 _atom_site_occupancy
 _atom_site_charge
  Cu  Cu1  1  0.250000  0.000000  0.379100  1.0  0.8949
  Cu  Cu2  1  0.250000  0.000000  0.268700  1.0  0.8404
  Cu  Cu3  1  0.250000  0.379100  0.000000  1.0  0.896
  Cu  Cu4  1  0.250000  0.268700  0.000000  1.0  0.8416
  Cu  Cu5  1  0.250000  0.620900  0.620900  1.0  0.896
  Cu  Cu6  1  0.250000  0.731300  0.731300  1.0  0.8375
  Cu  Cu7  1  0.750000  0.000000  0.620900  1.0  0.8946
  Cu  Cu8  1  0.750000  0.000000  0.731300  1.0  0.8411
  Cu  Cu9  1  0.750000  0.620900  0.000000  1.0  0.8959
  Cu  Cu10  1  0.750000  0.731300  0.000000  1.0  0.8416
  Cu  Cu11  1  0.750000  0.379100  0.379100  1.0  0.8954
  Cu  Cu12  1  0.750000  0.268700  0.268700  1.0  0.8392
  H  H13  1  0.096000  0.825900  0.333100  1.0  0.1239
  H  H14  1  0.096000  0.507200  0.174100  1.0  0.1243
  H  H15  1  0.096000  0.666900  0.492800  1.0  0.1239
  H  H16  1  0.596000  0.174100  0.666900  1.0  0.124
  H  H17  1  0.596000  0.492800  0.825900  1.0  0.1242
  H  H18  1  0.596000  0.333100  0.507200  1.0  0.1244
  H  H19  1  0.404000  0.492800  0.666900  1.0  0.1248
  H  H20  1  0.404000  0.333100  0.825900  1.0  0.1247
  H  H21  1  0.404000  0.174100  0.507200  1.0  0.1242
  H  H22  1  0.904000  0.507200  0.333100  1.0  0.1243
  H  H23  1  0.904000  0.666900  0.174100  1.0  0.124
  H  H24  1  0.904000  0.825900  0.492800  1.0  0.1239
  H  H25  1  0.904000  0.174100  0.666900  1.0  0.1241
  H  H26  1  0.904000  0.492800  0.825900  1.0  0.1243
  H  H27  1  0.904000  0.333100  0.507200  1.0  0.1247
  H  H28  1  0.404000  0.825900  0.333100  1.0  0.1242
  H  H29  1  0.404000  0.507200  0.174100  1.0  0.1246
  H  H30  1  0.404000  0.666900  0.492800  1.0  0.1241
  H  H31  1  0.596000  0.507200  0.333100  1.0  0.124
  H  H32  1  0.596000  0.666900  0.174100  1.0  0.1239
  H  H33  1  0.596000  0.825900  0.492800  1.0  0.1238
  H  H34  1  0.096000  0.492800  0.666900  1.0  0.1246
  H  H35  1  0.096000  0.333100  0.825900  1.0  0.1242
  H  H36  1  0.096000  0.174100  0.507200  1.0  0.124
  H  H37  1  0.000000  0.842850  0.157150  1.0  0.1369
  H  H38  1  0.000000  0.314300  0.157150  1.0  0.138
  H  H39  1  0.000000  0.842850  0.685700  1.0  0.1377
  H  H40  1  0.500000  0.157150  0.842850  1.0  0.1378
  H  H41  1  0.500000  0.685700  0.842850  1.0  0.1385
  H  H42  1  0.500000  0.157150  0.314300  1.0  0.1371
  H  H43  1  0.000000  0.157150  0.842850  1.0  0.1378
  H  H44  1  0.000000  0.685700  0.842850  1.0  0.1385
  H  H45  1  0.000000  0.157150  0.314300  1.0  0.1371
  H  H46  1  0.500000  0.842850  0.157150  1.0  0.1369
  H  H47  1  0.500000  0.314300  0.157150  1.0  0.138
  H  H48  1  0.500000  0.842850  0.685700  1.0  0.1377
  H  H49  1  0.000000  0.602300  0.204600  1.0  0.1173
  H  H50  1  0.000000  0.602300  0.397700  1.0  0.1176
  H  H51  1  0.000000  0.795400  0.397700  1.0  0.1183
  H  H52  1  0.500000  0.397700  0.795400  1.0  0.1177
  H  H53  1  0.500000  0.397700  0.602300  1.0  0.1174
  H  H54  1  0.500000  0.204600  0.602300  1.0  0.1183
  H  H55  1  0.000000  0.397700  0.795400  1.0  0.1177
  H  H56  1  0.000000  0.397700  0.602300  1.0  0.1174
  H  H57  1  0.000000  0.204600  0.602300  1.0  0.1183
  H  H58  1  0.500000  0.602300  0.204600  1.0  0.1173
  H  H59  1  0.500000  0.602300  0.397700  1.0  0.1176
  H  H60  1  0.500000  0.795400  0.397700  1.0  0.1183
  C  C61  1  0.052400  0.804400  0.284700  1.0  -0.0911
  C  C62  1  0.117500  0.904300  0.276300  1.0  0.6426
  C  C63  1  0.053200  0.840400  0.248100  1.0  -0.0901
  C  C64  1  0.052400  0.480300  0.195600  1.0  -0.0915
  C  C65  1  0.117500  0.372000  0.095700  1.0  0.6424
  C  C66  1  0.053200  0.407700  0.159600  1.0  -0.091
  C  C67  1  0.052400  0.715300  0.519700  1.0  -0.0905
  C  C68  1  0.117500  0.723700  0.628000  1.0  0.6431
  C  C69  1  0.053200  0.751900  0.592300  1.0  -0.0905
  C  C70  1  0.552400  0.195600  0.715300  1.0  -0.0902
  C  C71  1  0.617500  0.095700  0.723700  1.0  0.6425
  C  C72  1  0.553200  0.159600  0.751900  1.0  -0.0908
  C  C73  1  0.552400  0.519700  0.804400  1.0  -0.0913
  C  C74  1  0.617500  0.628000  0.904300  1.0  0.6432
  C  C75  1  0.553200  0.592300  0.840400  1.0  -0.0901
  C  C76  1  0.552400  0.284700  0.480300  1.0  -0.091
  C  C77  1  0.617500  0.276300  0.372000  1.0  0.6434
  C  C78  1  0.553200  0.248100  0.407700  1.0  -0.0912
  C  C79  1  0.447600  0.519700  0.715300  1.0  -0.0916
  C  C80  1  0.382500  0.628000  0.723700  1.0  0.6434
  C  C81  1  0.446800  0.592300  0.751900  1.0  -0.0904
  C  C82  1  0.447600  0.284700  0.804400  1.0  -0.0915
  C  C83  1  0.382500  0.276300  0.904300  1.0  0.6436
  C  C84  1  0.446800  0.248100  0.840400  1.0  -0.0902
  C  C85  1  0.447600  0.195600  0.480300  1.0  -0.0909
  C  C86  1  0.382500  0.095700  0.372000  1.0  0.6425
  C  C87  1  0.446800  0.159600  0.407700  1.0  -0.0902
  C  C88  1  0.947600  0.480300  0.284700  1.0  -0.0921
  C  C89  1  0.882500  0.372000  0.276300  1.0  0.643
  C  C90  1  0.946800  0.407700  0.248100  1.0  -0.0905
  C  C91  1  0.947600  0.715300  0.195600  1.0  -0.091
  C  C92  1  0.882500  0.723700  0.095700  1.0  0.6436
  C  C93  1  0.946800  0.751900  0.159600  1.0  -0.0908
  C  C94  1  0.947600  0.804400  0.519700  1.0  -0.0912
  C  C95  1  0.882500  0.904300  0.628000  1.0  0.6431
  C  C96  1  0.946800  0.840400  0.592300  1.0  -0.0904
  C  C97  1  0.947600  0.195600  0.715300  1.0  -0.0907
  C  C98  1  0.882500  0.095700  0.723700  1.0  0.6428
  C  C99  1  0.946800  0.159600  0.751900  1.0  -0.0905
  C  C100  1  0.947600  0.519700  0.804400  1.0  -0.0919
  C  C101  1  0.882500  0.628000  0.904300  1.0  0.6434
  C  C102  1  0.946800  0.592300  0.840400  1.0  -0.0902
  C  C103  1  0.947600  0.284700  0.480300  1.0  -0.0913
  C  C104  1  0.882500  0.276300  0.372000  1.0  0.6436
  C  C105  1  0.946800  0.248100  0.407700  1.0  -0.0908
  C  C106  1  0.447600  0.804400  0.284700  1.0  -0.0917
  C  C107  1  0.382500  0.904300  0.276300  1.0  0.6429
  C  C108  1  0.446800  0.840400  0.248100  1.0  -0.0901
  C  C109  1  0.447600  0.480300  0.195600  1.0  -0.0919
  C  C110  1  0.382500  0.372000  0.095700  1.0  0.6428
  C  C111  1  0.446800  0.407700  0.159600  1.0  -0.0906
  C  C112  1  0.447600  0.715300  0.519700  1.0  -0.0912
  C  C113  1  0.382500  0.723700  0.628000  1.0  0.6435
  C  C114  1  0.446800  0.751900  0.592300  1.0  -0.0902
  C  C115  1  0.552400  0.480300  0.284700  1.0  -0.0916
  C  C116  1  0.617500  0.372000  0.276300  1.0  0.6425
  C  C117  1  0.553200  0.407700  0.248100  1.0  -0.0906
  C  C118  1  0.552400  0.715300  0.195600  1.0  -0.0905
  C  C119  1  0.617500  0.723700  0.095700  1.0  0.6433
  C  C120  1  0.553200  0.751900  0.159600  1.0  -0.0913
  C  C121  1  0.552400  0.804400  0.519700  1.0  -0.0908
  C  C122  1  0.617500  0.904300  0.628000  1.0  0.6429
  C  C123  1  0.553200  0.840400  0.592300  1.0  -0.0904
  C  C124  1  0.052400  0.519700  0.715300  1.0  -0.0911
  C  C125  1  0.117500  0.628000  0.723700  1.0  0.6432
  C  C126  1  0.053200  0.592300  0.751900  1.0  -0.0905
  C  C127  1  0.052400  0.284700  0.804400  1.0  -0.0911
  C  C128  1  0.117500  0.276300  0.904300  1.0  0.6431
  C  C129  1  0.053200  0.248100  0.840400  1.0  -0.0905
  C  C130  1  0.052400  0.195600  0.480300  1.0  -0.0904
  C  C131  1  0.117500  0.095700  0.372000  1.0  0.6422
  C  C132  1  0.053200  0.159600  0.407700  1.0  -0.0905
  C  C133  1  0.000000  0.703100  0.296900  1.0  0.088
  C  C134  1  0.000000  0.741250  0.258750  1.0  0.0431
  C  C135  1  0.000000  0.814650  0.185350  1.0  -0.051
  C  C136  1  0.000000  0.593800  0.296900  1.0  0.0879
  C  C137  1  0.000000  0.517500  0.258750  1.0  0.0432
  C  C138  1  0.000000  0.370700  0.185350  1.0  -0.0523
  C  C139  1  0.000000  0.703100  0.406200  1.0  0.088
  C  C140  1  0.000000  0.741250  0.482500  1.0  0.0431
  C  C141  1  0.000000  0.814650  0.629300  1.0  -0.0506
  C  C142  1  0.500000  0.296900  0.703100  1.0  0.0878
  C  C143  1  0.500000  0.258750  0.741250  1.0  0.043
  C  C144  1  0.500000  0.185350  0.814650  1.0  -0.0506
  C  C145  1  0.500000  0.406200  0.703100  1.0  0.0881
  C  C146  1  0.500000  0.482500  0.741250  1.0  0.0434
  C  C147  1  0.500000  0.629300  0.814650  1.0  -0.0537
  C  C148  1  0.500000  0.296900  0.593800  1.0  0.0878
  C  C149  1  0.500000  0.258750  0.517500  1.0  0.043
  C  C150  1  0.500000  0.185350  0.370700  1.0  -0.0512
  C  C151  1  0.000000  0.296900  0.703100  1.0  0.0878
  C  C152  1  0.000000  0.258750  0.741250  1.0  0.043
  C  C153  1  0.000000  0.185350  0.814650  1.0  -0.0506
  C  C154  1  0.000000  0.406200  0.703100  1.0  0.0881
  C  C155  1  0.000000  0.482500  0.741250  1.0  0.0434
  C  C156  1  0.000000  0.629300  0.814650  1.0  -0.0537
  C  C157  1  0.000000  0.296900  0.593800  1.0  0.0878
  C  C158  1  0.000000  0.258750  0.517500  1.0  0.043
  C  C159  1  0.000000  0.185350  0.370700  1.0  -0.0512
  C  C160  1  0.500000  0.703100  0.296900  1.0  0.088
  C  C161  1  0.500000  0.741250  0.258750  1.0  0.0431
  C  C162  1  0.500000  0.814650  0.185350  1.0  -0.051
  C  C163  1  0.500000  0.593800  0.296900  1.0  0.0879
  C  C164  1  0.500000  0.517500  0.258750  1.0  0.0432
  C  C165  1  0.500000  0.370700  0.185350  1.0  -0.0523
  C  C166  1  0.500000  0.703100  0.406200  1.0  0.088
  C  C167  1  0.500000  0.741250  0.482500  1.0  0.0431
  C  C168  1  0.500000  0.814650  0.629300  1.0  -0.0506
  C  C169  1  0.000000  0.630600  0.261200  1.0  -0.1827
  C  C170  1  0.000000  0.630600  0.369400  1.0  -0.1837
  C  C171  1  0.000000  0.738800  0.369400  1.0  -0.1826
  C  C172  1  0.500000  0.369400  0.738800  1.0  -0.1847
  C  C173  1  0.500000  0.369400  0.630600  1.0  -0.1837
  C  C174  1  0.500000  0.261200  0.630600  1.0  -0.1815
  C  C175  1  0.000000  0.369400  0.738800  1.0  -0.1847
  C  C176  1  0.000000  0.369400  0.630600  1.0  -0.1837
  C  C177  1  0.000000  0.261200  0.630600  1.0  -0.1815
  C  C178  1  0.500000  0.630600  0.261200  1.0  -0.1827
  C  C179  1  0.500000  0.630600  0.369400  1.0  -0.1837
  C  C180  1  0.500000  0.738800  0.369400  1.0  -0.1826
  O  O181  1  0.142300  0.926600  0.235600  1.0  -0.5375
  O  O182  1  0.145000  0.929200  0.339700  1.0  -0.5562
  O  O183  1  0.142300  0.309000  0.073400  1.0  -0.5404
  O  O184  1  0.145000  0.410500  0.070800  1.0  -0.5578
  O  O185  1  0.142300  0.764400  0.691000  1.0  -0.54
  O  O186  1  0.145000  0.660300  0.589500  1.0  -0.5563
  O  O187  1  0.642300  0.073400  0.764400  1.0  -0.5385
  O  O188  1  0.645000  0.070800  0.660300  1.0  -0.5556
  O  O189  1  0.642300  0.691000  0.926600  1.0  -0.5401
  O  O190  1  0.645000  0.589500  0.929200  1.0  -0.5563
  O  O191  1  0.642300  0.235600  0.309000  1.0  -0.5403
  O  O192  1  0.645000  0.339700  0.410500  1.0  -0.5567
  O  O193  1  0.357700  0.691000  0.764400  1.0  -0.5397
  O  O194  1  0.355000  0.589500  0.660300  1.0  -0.5574
  O  O195  1  0.357700  0.235600  0.926600  1.0  -0.54
  O  O196  1  0.355000  0.339700  0.929200  1.0  -0.5557
  O  O197  1  0.357700  0.073400  0.309000  1.0  -0.5369
  O  O198  1  0.355000  0.070800  0.410500  1.0  -0.5559
  O  O199  1  0.857700  0.309000  0.235600  1.0  -0.5395
  O  O200  1  0.855000  0.410500  0.339700  1.0  -0.5564
  O  O201  1  0.857700  0.764400  0.073400  1.0  -0.5396
  O  O202  1  0.855000  0.660300  0.070800  1.0  -0.556
  O  O203  1  0.857700  0.926600  0.691000  1.0  -0.5375
  O  O204  1  0.855000  0.929200  0.589500  1.0  -0.5549
  O  O205  1  0.857700  0.073400  0.764400  1.0  -0.5377
  O  O206  1  0.855000  0.070800  0.660300  1.0  -0.555
  O  O207  1  0.857700  0.691000  0.926600  1.0  -0.5391
  O  O208  1  0.855000  0.589500  0.929200  1.0  -0.5559
  O  O209  1  0.857700  0.235600  0.309000  1.0  -0.5397
  O  O210  1  0.855000  0.339700  0.410500  1.0  -0.5556
  O  O211  1  0.357700  0.926600  0.235600  1.0  -0.5366
  O  O212  1  0.355000  0.929200  0.339700  1.0  -0.5558
  O  O213  1  0.357700  0.309000  0.073400  1.0  -0.5401
  O  O214  1  0.355000  0.410500  0.070800  1.0  -0.557
  O  O215  1  0.357700  0.764400  0.691000  1.0  -0.5395
  O  O216  1  0.355000  0.660300  0.589500  1.0  -0.5557
  O  O217  1  0.642300  0.309000  0.235600  1.0  -0.5399
  O  O218  1  0.645000  0.410500  0.339700  1.0  -0.5571
  O  O219  1  0.642300  0.764400  0.073400  1.0  -0.5405
  O  O220  1  0.645000  0.660300  0.070800  1.0  -0.5558
  O  O221  1  0.642300  0.926600  0.691000  1.0  -0.5383
  O  O222  1  0.645000  0.929200  0.589500  1.0  -0.5555
  O  O223  1  0.142300  0.691000  0.764400  1.0  -0.5404
  O  O224  1  0.145000  0.589500  0.660300  1.0  -0.5577
  O  O225  1  0.142300  0.235600  0.926600  1.0  -0.5406
  O  O226  1  0.145000  0.339700  0.929200  1.0  -0.5566
  O  O227  1  0.142300  0.073400  0.309000  1.0  -0.5379
  O  O228  1  0.145000  0.070800  0.410500  1.0  -0.5563
