# generated using pymatgen
data_Fe3H12C24O25
_symmetry_space_group_name_H-M   'P 1'
_cell_length_a   11.09100000
_cell_length_b   11.09100000
_cell_length_c   19.36400000
_cell_angle_alpha   90.00000000
_cell_angle_beta   90.00000000
_cell_angle_gamma   120.00000000
_symmetry_Int_Tables_number   1
_chemical_formula_structural   Fe3H12C24O25
_chemical_formula_sum   'Fe6 H24 C48 O50'
_cell_volume   2062.84746747
_cell_formula_units_Z   2
loop_
 _symmetry_equiv_pos_site_id
 _symmetry_equiv_pos_as_xyz
  1  'x, y, z'
loop_
 _atom_site_type_symbol
 _atom_site_label
 _atom_site_symmetry_multiplicity
 _atom_site_fract_x
 _atom_site_fract_y
 _atom_site_fract_z
 _atom_site_occupancy
 _atom_site_charge
  Fe  Fe1  1  0.766550  0.533100  0.250000  1.0  1.0943
  Fe  Fe2  1  0.466900  0.233450  0.250000  1.0  1.0929
  Fe  Fe3  1  0.766550  0.233450  0.250000  1.0  1.0913
  Fe  Fe4  1  0.233450  0.466900  0.750000  1.0  1.0922
  Fe  Fe5  1  0.533100  0.766550  0.750000  1.0  1.093
  Fe  Fe6  1  0.233450  0.766550  0.750000  1.0  1.093
  H  H7  1  0.717000  0.702900  0.111100  1.0  0.416
  H  H8  1  0.297100  0.014100  0.111100  1.0  0.4181
  H  H9  1  0.985900  0.283000  0.111100  1.0  0.4171
  H  H10  1  0.283000  0.297100  0.611100  1.0  0.4177
  H  H11  1  0.702900  0.985900  0.611100  1.0  0.4172
  H  H12  1  0.014100  0.717000  0.611100  1.0  0.4185
  H  H13  1  0.702900  0.717000  0.888900  1.0  0.4175
  H  H14  1  0.014100  0.297100  0.888900  1.0  0.417
  H  H15  1  0.283000  0.985900  0.888900  1.0  0.4181
  H  H16  1  0.297100  0.283000  0.388900  1.0  0.4175
  H  H17  1  0.985900  0.702900  0.388900  1.0  0.4166
  H  H18  1  0.717000  0.014100  0.388900  1.0  0.4175
  H  H19  1  0.283000  0.297100  0.888900  1.0  0.4182
  H  H20  1  0.702900  0.985900  0.888900  1.0  0.4179
  H  H21  1  0.014100  0.717000  0.888900  1.0  0.418
  H  H22  1  0.717000  0.702900  0.388900  1.0  0.4158
  H  H23  1  0.297100  0.014100  0.388900  1.0  0.4175
  H  H24  1  0.985900  0.283000  0.388900  1.0  0.4172
  H  H25  1  0.297100  0.283000  0.111100  1.0  0.4183
  H  H26  1  0.985900  0.702900  0.111100  1.0  0.4165
  H  H27  1  0.717000  0.014100  0.111100  1.0  0.4173
  H  H28  1  0.702900  0.717000  0.611100  1.0  0.417
  H  H29  1  0.014100  0.297100  0.611100  1.0  0.4171
  H  H30  1  0.283000  0.985900  0.611100  1.0  0.4182
  C  C31  1  0.614000  0.597000  0.035500  1.0  0.2014
  C  C32  1  0.403000  0.017000  0.035500  1.0  0.2005
  C  C33  1  0.983000  0.386000  0.035500  1.0  0.2019
  C  C34  1  0.386000  0.403000  0.535500  1.0  0.2018
  C  C35  1  0.597000  0.983000  0.535500  1.0  0.2013
  C  C36  1  0.017000  0.614000  0.535500  1.0  0.2008
  C  C37  1  0.597000  0.614000  0.964500  1.0  0.202
  C  C38  1  0.017000  0.403000  0.964500  1.0  0.2022
  C  C39  1  0.386000  0.983000  0.964500  1.0  0.2012
  C  C40  1  0.403000  0.386000  0.464500  1.0  0.2015
  C  C41  1  0.983000  0.597000  0.464500  1.0  0.202
  C  C42  1  0.614000  0.017000  0.464500  1.0  0.2021
  C  C43  1  0.386000  0.403000  0.964500  1.0  0.1972
  C  C44  1  0.597000  0.983000  0.964500  1.0  0.1968
  C  C45  1  0.017000  0.614000  0.964500  1.0  0.1963
  C  C46  1  0.614000  0.597000  0.464500  1.0  0.1969
  C  C47  1  0.403000  0.017000  0.464500  1.0  0.1959
  C  C48  1  0.983000  0.386000  0.464500  1.0  0.1973
  C  C49  1  0.403000  0.386000  0.035500  1.0  0.201
  C  C50  1  0.983000  0.597000  0.035500  1.0  0.2016
  C  C51  1  0.614000  0.017000  0.035500  1.0  0.2016
  C  C52  1  0.597000  0.614000  0.535500  1.0  0.2016
  C  C53  1  0.017000  0.403000  0.535500  1.0  0.2017
  C  C54  1  0.386000  0.983000  0.535500  1.0  0.2008
  C  C55  1  0.542800  0.457200  0.143700  1.0  0.7197
  C  C56  1  0.521600  0.478400  0.069700  1.0  -0.0017
  C  C57  1  0.542800  0.085600  0.143700  1.0  0.7182
  C  C58  1  0.521600  0.043200  0.069700  1.0  -0.0025
  C  C59  1  0.914400  0.457200  0.143700  1.0  0.7202
  C  C60  1  0.956800  0.478400  0.069700  1.0  -0.002
  C  C61  1  0.457200  0.542800  0.643700  1.0  0.7202
  C  C62  1  0.478400  0.521600  0.569700  1.0  -0.0021
  C  C63  1  0.457200  0.914400  0.643700  1.0  0.719
  C  C64  1  0.478400  0.956800  0.569700  1.0  -0.0025
  C  C65  1  0.085600  0.542800  0.643700  1.0  0.7199
  C  C66  1  0.043200  0.521600  0.569700  1.0  -0.0017
  C  C67  1  0.457200  0.542800  0.856300  1.0  0.7211
  C  C68  1  0.478400  0.521600  0.930300  1.0  -0.0025
  C  C69  1  0.085600  0.542800  0.856300  1.0  0.7211
  C  C70  1  0.043200  0.521600  0.930300  1.0  -0.0019
  C  C71  1  0.457200  0.914400  0.856300  1.0  0.7202
  C  C72  1  0.478400  0.956800  0.930300  1.0  -0.0029
  C  C73  1  0.542800  0.457200  0.356300  1.0  0.7211
  C  C74  1  0.521600  0.478400  0.430300  1.0  -0.0019
  C  C75  1  0.914400  0.457200  0.356300  1.0  0.7213
  C  C76  1  0.956800  0.478400  0.430300  1.0  -0.0023
  C  C77  1  0.542800  0.085600  0.356300  1.0  0.7185
  C  C78  1  0.521600  0.043200  0.430300  1.0  -0.0026
  O  O79  1  0.651800  0.550400  0.172800  1.0  -0.6481
  O  O80  1  0.723000  0.716000  0.069200  1.0  -0.5236
  O  O81  1  0.449600  0.101400  0.172800  1.0  -0.6481
  O  O82  1  0.284000  0.007000  0.069200  1.0  -0.5261
  O  O83  1  0.898600  0.348200  0.172800  1.0  -0.647
  O  O84  1  0.993000  0.277000  0.069200  1.0  -0.5265
  O  O85  1  0.348200  0.449600  0.672800  1.0  -0.6478
  O  O86  1  0.277000  0.284000  0.569200  1.0  -0.5251
  O  O87  1  0.550400  0.898600  0.672800  1.0  -0.6482
  O  O88  1  0.716000  0.993000  0.569200  1.0  -0.527
  O  O89  1  0.101400  0.651800  0.672800  1.0  -0.6479
  O  O90  1  0.007000  0.723000  0.569200  1.0  -0.5249
  O  O91  1  0.550400  0.651800  0.827200  1.0  -0.6482
  O  O92  1  0.716000  0.723000  0.930800  1.0  -0.5266
  O  O93  1  0.101400  0.449600  0.827200  1.0  -0.6477
  O  O94  1  0.007000  0.284000  0.930800  1.0  -0.5253
  O  O95  1  0.348200  0.898600  0.827200  1.0  -0.6495
  O  O96  1  0.277000  0.993000  0.930800  1.0  -0.5281
  O  O97  1  0.449600  0.348200  0.327200  1.0  -0.6485
  O  O98  1  0.284000  0.277000  0.430800  1.0  -0.5268
  O  O99  1  0.898600  0.550400  0.327200  1.0  -0.6492
  O  O100  1  0.993000  0.716000  0.430800  1.0  -0.5255
  O  O101  1  0.651800  0.101400  0.327200  1.0  -0.6485
  O  O102  1  0.723000  0.007000  0.430800  1.0  -0.527
  O  O103  1  0.348200  0.449600  0.827200  1.0  -0.6483
  O  O104  1  0.277000  0.284000  0.930800  1.0  -0.5263
  O  O105  1  0.550400  0.898600  0.827200  1.0  -0.6498
  O  O106  1  0.716000  0.993000  0.930800  1.0  -0.5275
  O  O107  1  0.101400  0.651800  0.827200  1.0  -0.6482
  O  O108  1  0.007000  0.723000  0.930800  1.0  -0.5269
  O  O109  1  0.651800  0.550400  0.327200  1.0  -0.6489
  O  O110  1  0.723000  0.716000  0.430800  1.0  -0.5247
  O  O111  1  0.449600  0.101400  0.327200  1.0  -0.6482
  O  O112  1  0.284000  0.007000  0.430800  1.0  -0.5279
  O  O113  1  0.898600  0.348200  0.327200  1.0  -0.6483
  O  O114  1  0.993000  0.277000  0.430800  1.0  -0.527
  O  O115  1  0.449600  0.348200  0.172800  1.0  -0.6477
  O  O116  1  0.284000  0.277000  0.069200  1.0  -0.5252
  O  O117  1  0.898600  0.550400  0.172800  1.0  -0.6484
  O  O118  1  0.993000  0.716000  0.069200  1.0  -0.5241
  O  O119  1  0.651800  0.101400  0.172800  1.0  -0.6474
  O  O120  1  0.723000  0.007000  0.069200  1.0  -0.5266
  O  O121  1  0.550400  0.651800  0.672800  1.0  -0.6472
  O  O122  1  0.716000  0.723000  0.569200  1.0  -0.5257
  O  O123  1  0.101400  0.449600  0.672800  1.0  -0.6471
  O  O124  1  0.007000  0.284000  0.569200  1.0  -0.5246
  O  O125  1  0.348200  0.898600  0.672800  1.0  -0.6485
  O  O126  1  0.277000  0.993000  0.569200  1.0  -0.5263
  O  O127  1  0.666667  0.333333  0.250000  1.0  -0.9069
  O  O128  1  0.333333  0.666667  0.750000  1.0  -0.9069
