# generated using pymatgen
data_Cd3H32C56(SO2)8
_symmetry_space_group_name_H-M   'P 1'
_cell_length_a   12.23600000
_cell_length_b   27.17900000
_cell_length_c   12.46700000
_cell_angle_alpha   90.00000000
_cell_angle_beta   109.75400000
_cell_angle_gamma   90.00000000
_symmetry_Int_Tables_number   1
_chemical_formula_structural   Cd3H32C56(SO2)8
_chemical_formula_sum   'Cd6 H64 C112 S16 O32'
_cell_volume   3902.06828914
_cell_formula_units_Z   2
loop_
 _symmetry_equiv_pos_site_id
 _symmetry_equiv_pos_as_xyz
  1  'x, y, z'
loop_
 _atom_site_type_symbol
 _atom_site_label
 _atom_site_symmetry_multiplicity
 _atom_site_fract_x
 _atom_site_fract_y
 _atom_site_fract_z
 _atom_site_occupancy
 _atom_site_charge
  Cd  Cd1  1  0.904070  0.108730  0.099170  1.0  1.0815
  Cd  Cd2  1  0.595930  0.608730  0.400830  1.0  1.081
  Cd  Cd3  1  0.095930  0.891270  0.900830  1.0  1.0811
  Cd  Cd4  1  0.404070  0.391270  0.599170  1.0  1.0808
  Cd  Cd5  1  0.500000  0.500000  0.500000  1.0  1.1785
  Cd  Cd6  1  0.000000  0.000000  0.000000  1.0  1.1785
  H  H7  1  0.042000  0.258800  0.278900  1.0  0.1211
  H  H8  1  0.098700  0.341300  0.299800  1.0  0.1357
  H  H9  1  0.038500  0.391500  0.141700  1.0  0.1163
  H  H10  1  0.917200  0.361700  0.971400  1.0  0.1052
  H  H11  1  0.962700  0.308300  0.802500  1.0  0.1229
  H  H12  1  0.082500  0.338200  0.710700  1.0  0.1336
  H  H13  1  0.015200  0.400000  0.575100  1.0  0.1387
  H  H14  1  0.830900  0.430000  0.535800  1.0  0.113
  H  H15  1  0.677900  0.521000  0.744700  1.0  0.1107
  H  H16  1  0.768100  0.472800  0.899100  1.0  0.1369
  H  H17  1  0.962500  0.453800  0.939900  1.0  0.114
  H  H18  1  0.062200  0.483000  0.828700  1.0  0.1314
  H  H19  1  0.157200  0.573100  0.844800  1.0  0.0979
  H  H20  1  0.303200  0.609800  0.989400  1.0  0.1226
  H  H21  1  0.493400  0.590500  0.016400  1.0  0.1256
  H  H22  1  0.538600  0.535700  0.899900  1.0  0.1294
  H  H23  1  0.458000  0.758800  0.221100  1.0  0.1207
  H  H24  1  0.401300  0.841300  0.200200  1.0  0.1348
  H  H25  1  0.461500  0.891500  0.358300  1.0  0.1162
  H  H26  1  0.582800  0.861700  0.528600  1.0  0.1051
  H  H27  1  0.537300  0.808300  0.697500  1.0  0.1224
  H  H28  1  0.417500  0.838200  0.789300  1.0  0.1352
  H  H29  1  0.484800  0.900000  0.924900  1.0  0.1392
  H  H30  1  0.669100  0.930000  0.964200  1.0  0.1132
  H  H31  1  0.822100  0.021000  0.755300  1.0  0.1092
  H  H32  1  0.731900  0.972800  0.600900  1.0  0.1367
  H  H33  1  0.537500  0.953800  0.560100  1.0  0.1138
  H  H34  1  0.437800  0.983000  0.671300  1.0  0.1312
  H  H35  1  0.342800  0.073100  0.655200  1.0  0.0967
  H  H36  1  0.196800  0.109800  0.510600  1.0  0.1223
  H  H37  1  0.006600  0.090500  0.483600  1.0  0.1266
  H  H38  1  0.961400  0.035700  0.600100  1.0  0.1307
  H  H39  1  0.958000  0.741200  0.721100  1.0  0.1208
  H  H40  1  0.901300  0.658700  0.700200  1.0  0.135
  H  H41  1  0.961500  0.608500  0.858300  1.0  0.1155
  H  H42  1  0.082800  0.638300  0.028600  1.0  0.105
  H  H43  1  0.037300  0.691700  0.197500  1.0  0.1227
  H  H44  1  0.917500  0.661800  0.289300  1.0  0.1345
  H  H45  1  0.984800  0.600000  0.424900  1.0  0.1393
  H  H46  1  0.169100  0.570000  0.464200  1.0  0.113
  H  H47  1  0.322100  0.479000  0.255300  1.0  0.1089
  H  H48  1  0.231900  0.527200  0.100900  1.0  0.1365
  H  H49  1  0.037500  0.546200  0.060100  1.0  0.1142
  H  H50  1  0.937800  0.517000  0.171300  1.0  0.1308
  H  H51  1  0.842800  0.426900  0.155200  1.0  0.0979
  H  H52  1  0.696800  0.390200  0.010600  1.0  0.1226
  H  H53  1  0.506600  0.409500  0.983600  1.0  0.1261
  H  H54  1  0.461400  0.464300  0.100100  1.0  0.1305
  H  H55  1  0.542000  0.241200  0.778900  1.0  0.121
  H  H56  1  0.598700  0.158700  0.799800  1.0  0.1355
  H  H57  1  0.538500  0.108500  0.641700  1.0  0.1159
  H  H58  1  0.417200  0.138300  0.471400  1.0  0.1056
  H  H59  1  0.462700  0.191700  0.302500  1.0  0.1226
  H  H60  1  0.582500  0.161800  0.210700  1.0  0.1341
  H  H61  1  0.515200  0.100000  0.075100  1.0  0.1383
  H  H62  1  0.330900  0.070000  0.035800  1.0  0.1127
  H  H63  1  0.177900  0.979000  0.244700  1.0  0.1107
  H  H64  1  0.268100  0.027200  0.399100  1.0  0.1368
  H  H65  1  0.462500  0.046200  0.439900  1.0  0.1138
  H  H66  1  0.562200  0.017000  0.328700  1.0  0.1312
  H  H67  1  0.657200  0.926900  0.344800  1.0  0.0984
  H  H68  1  0.803200  0.890200  0.489400  1.0  0.1226
  H  H69  1  0.993400  0.909500  0.516400  1.0  0.1256
  H  H70  1  0.038600  0.964300  0.399900  1.0  0.1294
  C  C71  1  0.917500  0.206400  0.103800  1.0  0.7502
  C  C72  1  0.945600  0.260500  0.113900  1.0  -0.1051
  C  C73  1  0.016400  0.279600  0.216100  1.0  -0.0583
  C  C74  1  0.051800  0.329200  0.229500  1.0  -0.1228
  C  C75  1  0.014900  0.358800  0.136200  1.0  -0.0932
  C  C76  1  0.943000  0.340600  0.033700  1.0  -0.0382
  C  C77  1  0.907400  0.291500  0.020200  1.0  -0.0256
  C  C78  1  0.662400  0.409600  0.611200  1.0  0.7194
  C  C79  1  0.780600  0.387900  0.641700  1.0  -0.0989
  C  C80  1  0.821700  0.351400  0.725300  1.0  -0.066
  C  C81  1  0.935900  0.333000  0.748500  1.0  -0.0218
  C  C82  1  0.007800  0.350700  0.693800  1.0  -0.1277
  C  C83  1  0.967700  0.387400  0.613100  1.0  -0.135
  C  C84  1  0.856300  0.405100  0.589700  1.0  -0.0133
  C  C85  1  0.745200  0.563200  0.592400  1.0  0.7197
  C  C86  1  0.813500  0.533100  0.694300  1.0  -0.1049
  C  C87  1  0.756400  0.513800  0.762200  1.0  -0.0633
  C  C88  1  0.808900  0.484800  0.853800  1.0  -0.1411
  C  C89  1  0.924700  0.473600  0.877500  1.0  -0.0484
  C  C90  1  0.984200  0.491100  0.811300  1.0  -0.0518
  C  C91  1  0.929100  0.521100  0.716900  1.0  -0.0322
  C  C92  1  0.257900  0.530900  0.782500  1.0  -0.0404
  C  C93  1  0.234100  0.565100  0.855300  1.0  -0.0288
  C  C94  1  0.321100  0.587200  0.941800  1.0  -0.0792
  C  C95  1  0.434200  0.575700  0.957600  1.0  -0.0912
  C  C96  1  0.461200  0.543000  0.888400  1.0  -0.0749
  C  C97  1  0.374100  0.520200  0.800300  1.0  -0.0719
  C  C98  1  0.406500  0.483800  0.724900  1.0  0.7551
  C  C99  1  0.582500  0.706400  0.396200  1.0  0.7505
  C  C100  1  0.554400  0.760500  0.386100  1.0  -0.1054
  C  C101  1  0.483600  0.779600  0.283900  1.0  -0.0595
  C  C102  1  0.448200  0.829200  0.270500  1.0  -0.1218
  C  C103  1  0.485100  0.858800  0.363800  1.0  -0.0945
  C  C104  1  0.557000  0.840600  0.466300  1.0  -0.0379
  C  C105  1  0.592600  0.791500  0.479800  1.0  -0.0244
  C  C106  1  0.837600  0.909600  0.888800  1.0  0.721
  C  C107  1  0.719400  0.887900  0.858300  1.0  -0.097
  C  C108  1  0.678300  0.851400  0.774700  1.0  -0.0658
  C  C109  1  0.564100  0.833000  0.751500  1.0  -0.021
  C  C110  1  0.492200  0.850700  0.806200  1.0  -0.1304
  C  C111  1  0.532300  0.887400  0.886900  1.0  -0.1351
  C  C112  1  0.643700  0.905100  0.910300  1.0  -0.0118
  C  C113  1  0.754800  0.063200  0.907600  1.0  0.7205
  C  C114  1  0.686500  0.033100  0.805700  1.0  -0.1064
  C  C115  1  0.743600  0.013800  0.737800  1.0  -0.0632
  C  C116  1  0.691100  0.984800  0.646200  1.0  -0.1414
  C  C117  1  0.575300  0.973600  0.622500  1.0  -0.0468
  C  C118  1  0.515800  0.991100  0.688700  1.0  -0.0508
  C  C119  1  0.570900  0.021100  0.783100  1.0  -0.0306
  C  C120  1  0.242100  0.030900  0.717500  1.0  -0.0375
  C  C121  1  0.265900  0.065100  0.644700  1.0  -0.0269
  C  C122  1  0.178900  0.087200  0.558200  1.0  -0.0772
  C  C123  1  0.065800  0.075700  0.542400  1.0  -0.0921
  C  C124  1  0.038800  0.043000  0.611600  1.0  -0.0776
  C  C125  1  0.125900  0.020200  0.699700  1.0  -0.0726
  C  C126  1  0.093500  0.983800  0.775100  1.0  0.7551
  C  C127  1  0.082500  0.793600  0.896200  1.0  0.7505
  C  C128  1  0.054400  0.739500  0.886100  1.0  -0.106
  C  C129  1  0.983600  0.720400  0.783900  1.0  -0.0595
  C  C130  1  0.948200  0.670800  0.770500  1.0  -0.1219
  C  C131  1  0.985100  0.641200  0.863800  1.0  -0.0942
  C  C132  1  0.057000  0.659400  0.966300  1.0  -0.0373
  C  C133  1  0.092600  0.708500  0.979800  1.0  -0.0248
  C  C134  1  0.337600  0.590400  0.388800  1.0  0.7213
  C  C135  1  0.219400  0.612100  0.358300  1.0  -0.0979
  C  C136  1  0.178300  0.648600  0.274700  1.0  -0.066
  C  C137  1  0.064100  0.667000  0.251500  1.0  -0.0218
  C  C138  1  0.992200  0.649300  0.306200  1.0  -0.131
  C  C139  1  0.032300  0.612600  0.386900  1.0  -0.1354
  C  C140  1  0.143700  0.594900  0.410300  1.0  -0.0113
  C  C141  1  0.254800  0.436800  0.407600  1.0  0.72
  C  C142  1  0.186500  0.466900  0.305700  1.0  -0.1068
  C  C143  1  0.243600  0.486200  0.237800  1.0  -0.0628
  C  C144  1  0.191100  0.515200  0.146200  1.0  -0.1407
  C  C145  1  0.075300  0.526400  0.122500  1.0  -0.0473
  C  C146  1  0.015800  0.508900  0.188700  1.0  -0.0504
  C  C147  1  0.070900  0.478900  0.283100  1.0  -0.0299
  C  C148  1  0.742100  0.469100  0.217500  1.0  -0.0375
  C  C149  1  0.765900  0.434900  0.144700  1.0  -0.0265
  C  C150  1  0.678900  0.412800  0.058200  1.0  -0.0782
  C  C151  1  0.565800  0.424300  0.042400  1.0  -0.0931
  C  C152  1  0.538800  0.457000  0.111600  1.0  -0.0771
  C  C153  1  0.625900  0.479800  0.199700  1.0  -0.0728
  C  C154  1  0.593500  0.516200  0.275100  1.0  0.7548
  C  C155  1  0.417500  0.293600  0.603800  1.0  0.7501
  C  C156  1  0.445600  0.239500  0.613900  1.0  -0.1049
  C  C157  1  0.516400  0.220400  0.716100  1.0  -0.0579
  C  C158  1  0.551800  0.170800  0.729500  1.0  -0.1227
  C  C159  1  0.514900  0.141200  0.636200  1.0  -0.0935
  C  C160  1  0.443000  0.159400  0.533700  1.0  -0.0368
  C  C161  1  0.407400  0.208500  0.520200  1.0  -0.0255
  C  C162  1  0.162400  0.090400  0.111200  1.0  0.72
  C  C163  1  0.280600  0.112100  0.141700  1.0  -0.0996
  C  C164  1  0.321700  0.148600  0.225300  1.0  -0.0651
  C  C165  1  0.435900  0.167000  0.248500  1.0  -0.0228
  C  C166  1  0.507800  0.149300  0.193800  1.0  -0.1282
  C  C167  1  0.467700  0.112600  0.113100  1.0  -0.1355
  C  C168  1  0.356300  0.094900  0.089700  1.0  -0.0128
  C  C169  1  0.245200  0.936800  0.092400  1.0  0.7192
  C  C170  1  0.313500  0.966900  0.194300  1.0  -0.1066
  C  C171  1  0.256400  0.986200  0.262200  1.0  -0.0616
  C  C172  1  0.308900  0.015200  0.353800  1.0  -0.1407
  C  C173  1  0.424700  0.026400  0.377500  1.0  -0.0491
  C  C174  1  0.484200  0.008900  0.311300  1.0  -0.0512
  C  C175  1  0.429100  0.978900  0.216900  1.0  -0.0321
  C  C176  1  0.757900  0.969100  0.282500  1.0  -0.0397
  C  C177  1  0.734100  0.934900  0.355300  1.0  -0.0283
  C  C178  1  0.821100  0.912800  0.441800  1.0  -0.0791
  C  C179  1  0.934200  0.924300  0.457600  1.0  -0.093
  C  C180  1  0.961200  0.957000  0.388400  1.0  -0.0749
  C  C181  1  0.874100  0.979800  0.300300  1.0  -0.0717
  C  C182  1  0.906500  0.016200  0.224900  1.0  0.7551
  S  S183  1  0.151400  0.501550  0.667000  1.0  -0.0013
  S  S184  1  0.006700  0.544360  0.629900  1.0  -0.0348
  S  S185  1  0.728400  0.327990  0.797000  1.0  0.0034
  S  S186  1  0.815000  0.268290  0.886500  1.0  -0.0055
  S  S187  1  0.348600  0.001550  0.833000  1.0  -0.0008
  S  S188  1  0.493300  0.044360  0.870100  1.0  -0.0346
  S  S189  1  0.771600  0.827990  0.703000  1.0  0.0048
  S  S190  1  0.685000  0.768290  0.613500  1.0  -0.0045
  S  S191  1  0.848600  0.498450  0.333000  1.0  -0.0017
  S  S192  1  0.993300  0.455640  0.370100  1.0  -0.0354
  S  S193  1  0.271600  0.672010  0.203000  1.0  0.004
  S  S194  1  0.185000  0.731710  0.113500  1.0  -0.007
  S  S195  1  0.651400  0.998450  0.167000  1.0  -0.0015
  S  S196  1  0.506700  0.955640  0.129900  1.0  -0.0359
  S  S197  1  0.228400  0.172010  0.297000  1.0  0.0029
  S  S198  1  0.315000  0.231710  0.386500  1.0  -0.0087
  O  O199  1  0.910500  0.184400  0.189500  1.0  -0.5729
  O  O200  1  0.911100  0.185600  0.014300  1.0  -0.5469
  O  O201  1  0.796800  0.589600  0.544000  1.0  -0.5796
  O  O202  1  0.634700  0.560900  0.559200  1.0  -0.6818
  O  O203  1  0.474700  0.497100  0.676500  1.0  -0.6575
  O  O204  1  0.363200  0.441600  0.717600  1.0  -0.55
  O  O205  1  0.597700  0.392200  0.661000  1.0  -0.5849
  O  O206  1  0.636100  0.443100  0.536200  1.0  -0.6298
  O  O207  1  0.589500  0.684400  0.310500  1.0  -0.5693
  O  O208  1  0.588900  0.685600  0.485700  1.0  -0.547
  O  O209  1  0.703200  0.089600  0.956000  1.0  -0.578
  O  O210  1  0.865300  0.060900  0.940800  1.0  -0.679
  O  O211  1  0.025300  0.997100  0.823500  1.0  -0.6568
  O  O212  1  0.136800  0.941600  0.782400  1.0  -0.552
  O  O213  1  0.902300  0.892200  0.839000  1.0  -0.5859
  O  O214  1  0.863900  0.943100  0.963800  1.0  -0.6284
  O  O215  1  0.089500  0.815600  0.810500  1.0  -0.5695
  O  O216  1  0.088900  0.814400  0.985700  1.0  -0.5467
  O  O217  1  0.203200  0.410400  0.456000  1.0  -0.5771
  O  O218  1  0.365300  0.439100  0.440800  1.0  -0.6794
  O  O219  1  0.525300  0.502900  0.323500  1.0  -0.6562
  O  O220  1  0.636800  0.558400  0.282400  1.0  -0.5539
  O  O221  1  0.402300  0.607800  0.339000  1.0  -0.5848
  O  O222  1  0.363900  0.556900  0.463800  1.0  -0.6273
  O  O223  1  0.410500  0.315600  0.689500  1.0  -0.5731
  O  O224  1  0.411100  0.314400  0.514300  1.0  -0.5463
  O  O225  1  0.296800  0.910400  0.044000  1.0  -0.5793
  O  O226  1  0.134700  0.939100  0.059200  1.0  -0.6814
  O  O227  1  0.974700  0.002900  0.176500  1.0  -0.6573
  O  O228  1  0.863200  0.058400  0.217600  1.0  -0.5535
  O  O229  1  0.097700  0.107800  0.161000  1.0  -0.5847
  O  O230  1  0.136100  0.056900  0.036200  1.0  -0.6283
