# generated using pymatgen
data_MgHC4O3
_symmetry_space_group_name_H-M   'P 1'
_cell_length_a   25.86500000
_cell_length_b   25.86500000
_cell_length_c   6.91100000
_cell_angle_alpha   90.00000000
_cell_angle_beta   90.00000000
_cell_angle_gamma   120.00000000
_symmetry_Int_Tables_number   1
_chemical_formula_structural   MgHC4O3
_chemical_formula_sum   'Mg18 H18 C72 O54'
_cell_volume   4004.02232380
_cell_formula_units_Z   18
loop_
 _symmetry_equiv_pos_site_id
 _symmetry_equiv_pos_as_xyz
  1  'x, y, z'
loop_
 _atom_site_type_symbol
 _atom_site_label
 _atom_site_symmetry_multiplicity
 _atom_site_fract_x
 _atom_site_fract_y
 _atom_site_fract_z
 _atom_site_occupancy
 _atom_site_charge
  Mg  Mg1  1  0.367530  0.051630  0.024310  1.0  1.4638
  Mg  Mg2  1  0.034200  0.384960  0.357640  1.0  1.4638
  Mg  Mg3  1  0.700860  0.718300  0.690980  1.0  1.4642
  Mg  Mg4  1  0.948370  0.315900  0.024310  1.0  1.4621
  Mg  Mg5  1  0.615040  0.649230  0.357640  1.0  1.4627
  Mg  Mg6  1  0.281700  0.982570  0.690980  1.0  1.4621
  Mg  Mg7  1  0.684100  0.632470  0.024310  1.0  1.4639
  Mg  Mg8  1  0.350770  0.965800  0.357640  1.0  1.4635
  Mg  Mg9  1  0.017430  0.299140  0.690980  1.0  1.4636
  Mg  Mg10  1  0.632470  0.948370  0.975690  1.0  1.4638
  Mg  Mg11  1  0.299140  0.281700  0.309020  1.0  1.4642
  Mg  Mg12  1  0.965800  0.615040  0.642360  1.0  1.4639
  Mg  Mg13  1  0.051630  0.684100  0.975690  1.0  1.4618
  Mg  Mg14  1  0.718300  0.017430  0.309020  1.0  1.4619
  Mg  Mg15  1  0.384960  0.350770  0.642360  1.0  1.4624
  Mg  Mg16  1  0.315900  0.367530  0.975690  1.0  1.4636
  Mg  Mg17  1  0.982570  0.700860  0.309020  1.0  1.4634
  Mg  Mg18  1  0.649230  0.034200  0.642360  1.0  1.4632
  H  H19  1  0.495400  0.975100  0.676500  1.0  0.0812
  H  H20  1  0.162070  0.308430  0.009830  1.0  0.0807
  H  H21  1  0.828730  0.641770  0.343170  1.0  0.0812
  H  H22  1  0.024900  0.520300  0.676500  1.0  0.0809
  H  H23  1  0.691570  0.853630  0.009830  1.0  0.08
  H  H24  1  0.358230  0.186970  0.343170  1.0  0.0809
  H  H25  1  0.479700  0.504600  0.676500  1.0  0.0813
  H  H26  1  0.146370  0.837930  0.009830  1.0  0.0823
  H  H27  1  0.813030  0.171270  0.343170  1.0  0.0813
  H  H28  1  0.504600  0.024900  0.323500  1.0  0.0799
  H  H29  1  0.171270  0.358230  0.656830  1.0  0.0799
  H  H30  1  0.837930  0.691570  0.990170  1.0  0.0793
  H  H31  1  0.975100  0.479700  0.323500  1.0  0.08
  H  H32  1  0.641770  0.813030  0.656830  1.0  0.08
  H  H33  1  0.308430  0.146370  0.990170  1.0  0.079
  H  H34  1  0.520300  0.495400  0.323500  1.0  0.0799
  H  H35  1  0.186970  0.828730  0.656830  1.0  0.0799
  H  H36  1  0.853630  0.162070  0.990170  1.0  0.0807
  C  C37  1  0.402710  0.983710  0.750000  1.0  0.695
  C  C38  1  0.452710  0.993990  0.884600  1.0  -0.2495
  C  C39  1  0.497440  0.985010  0.809700  1.0  -0.1497
  C  C40  1  0.545030  0.989530  0.917300  1.0  0.2918
  C  C41  1  0.069380  0.317040  0.083330  1.0  0.695
  C  C42  1  0.119380  0.327320  0.217930  1.0  -0.2495
  C  C43  1  0.164110  0.318340  0.143030  1.0  -0.1502
  C  C44  1  0.211700  0.322860  0.250630  1.0  0.2918
  C  C45  1  0.736040  0.650380  0.416670  1.0  0.6951
  C  C46  1  0.786040  0.660660  0.551270  1.0  -0.2494
  C  C47  1  0.830770  0.651680  0.476370  1.0  -0.1502
  C  C48  1  0.878360  0.656200  0.583970  1.0  0.2918
  C  C49  1  0.016290  0.419000  0.750000  1.0  0.6962
  C  C50  1  0.006010  0.458720  0.884600  1.0  -0.2512
  C  C51  1  0.014990  0.512430  0.809700  1.0  -0.151
  C  C52  1  0.010470  0.555500  0.917300  1.0  0.2881
  C  C53  1  0.682960  0.752330  0.083330  1.0  0.6963
  C  C54  1  0.672680  0.792050  0.217930  1.0  -0.251
  C  C55  1  0.681660  0.845760  0.143030  1.0  -0.1538
  C  C56  1  0.677140  0.888830  0.250630  1.0  0.2917
  C  C57  1  0.349620  0.085670  0.416670  1.0  0.6962
  C  C58  1  0.339340  0.125390  0.551270  1.0  -0.2512
  C  C59  1  0.348320  0.179100  0.476370  1.0  -0.1503
  C  C60  1  0.343800  0.222170  0.583970  1.0  0.2893
  C  C61  1  0.581000  0.597290  0.750000  1.0  0.6962
  C  C62  1  0.541280  0.547290  0.884600  1.0  -0.2508
  C  C63  1  0.487570  0.502560  0.809700  1.0  -0.1521
  C  C64  1  0.444500  0.454970  0.917300  1.0  0.2891
  C  C65  1  0.247670  0.930620  0.083330  1.0  0.6961
  C  C66  1  0.207950  0.880620  0.217930  1.0  -0.2508
  C  C67  1  0.154240  0.835890  0.143030  1.0  -0.1541
  C  C68  1  0.111170  0.788300  0.250630  1.0  0.2934
  C  C69  1  0.914330  0.263960  0.416670  1.0  0.6961
  C  C70  1  0.874610  0.213960  0.551270  1.0  -0.2508
  C  C71  1  0.820900  0.169230  0.476370  1.0  -0.1521
  C  C72  1  0.777830  0.121640  0.583970  1.0  0.2891
  C  C73  1  0.597290  0.016290  0.250000  1.0  0.6956
  C  C74  1  0.547290  0.006010  0.115400  1.0  -0.2504
  C  C75  1  0.502560  0.014990  0.190300  1.0  -0.1495
  C  C76  1  0.454970  0.010470  0.082700  1.0  0.2935
  C  C77  1  0.263960  0.349620  0.583330  1.0  0.6957
  C  C78  1  0.213960  0.339340  0.448730  1.0  -0.2502
  C  C79  1  0.169230  0.348320  0.523630  1.0  -0.1497
  C  C80  1  0.121640  0.343800  0.416030  1.0  0.2935
  C  C81  1  0.930620  0.682960  0.916670  1.0  0.6956
  C  C82  1  0.880620  0.672680  0.782070  1.0  -0.2504
  C  C83  1  0.835890  0.681660  0.856970  1.0  -0.1502
  C  C84  1  0.788300  0.677140  0.749370  1.0  0.2935
  C  C85  1  0.983710  0.581000  0.250000  1.0  0.6963
  C  C86  1  0.993990  0.541280  0.115400  1.0  -0.2509
  C  C87  1  0.985010  0.487570  0.190300  1.0  -0.1497
  C  C88  1  0.989530  0.444500  0.082700  1.0  0.2922
  C  C89  1  0.650380  0.914330  0.583330  1.0  0.6963
  C  C90  1  0.660660  0.874610  0.448730  1.0  -0.2509
  C  C91  1  0.651680  0.820900  0.523630  1.0  -0.1488
  C  C92  1  0.656200  0.777830  0.416030  1.0  0.2934
  C  C93  1  0.317040  0.247670  0.916670  1.0  0.6964
  C  C94  1  0.327320  0.207950  0.782070  1.0  -0.2508
  C  C95  1  0.318340  0.154240  0.856970  1.0  -0.1529
  C  C96  1  0.322860  0.111170  0.749370  1.0  0.294
  C  C97  1  0.419000  0.402710  0.250000  1.0  0.6966
  C  C98  1  0.458720  0.452710  0.115400  1.0  -0.2498
  C  C99  1  0.512430  0.497440  0.190300  1.0  -0.1502
  C  C100  1  0.555500  0.545030  0.082700  1.0  0.293
  C  C101  1  0.085670  0.736040  0.583330  1.0  0.6964
  C  C102  1  0.125390  0.786040  0.448730  1.0  -0.2498
  C  C103  1  0.179100  0.830770  0.523630  1.0  -0.1502
  C  C104  1  0.222170  0.878360  0.416030  1.0  0.293
  C  C105  1  0.752330  0.069380  0.916670  1.0  0.6964
  C  C106  1  0.792050  0.119380  0.782070  1.0  -0.2498
  C  C107  1  0.845760  0.164110  0.856970  1.0  -0.1531
  C  C108  1  0.888830  0.211700  0.749370  1.0  0.2955
  O  O109  1  0.360140  0.989940  0.815300  1.0  -0.7226
  O  O110  1  0.584460  0.978000  0.829500  1.0  -0.7406
  O  O111  1  0.404220  0.968860  0.578200  1.0  -0.6678
  O  O112  1  0.026810  0.323270  0.148630  1.0  -0.7226
  O  O113  1  0.251130  0.311330  0.162830  1.0  -0.7406
  O  O114  1  0.070890  0.302190  0.911530  1.0  -0.6675
  O  O115  1  0.693470  0.656610  0.481970  1.0  -0.7237
  O  O116  1  0.917790  0.644670  0.496170  1.0  -0.7406
  O  O117  1  0.737550  0.635530  0.244870  1.0  -0.6678
  O  O118  1  0.010060  0.370200  0.815300  1.0  -0.7223
  O  O119  1  0.022000  0.606460  0.829500  1.0  -0.7411
  O  O120  1  0.031140  0.435360  0.578200  1.0  -0.667
  O  O121  1  0.676730  0.703530  0.148630  1.0  -0.7231
  O  O122  1  0.688670  0.939790  0.162830  1.0  -0.7411
  O  O123  1  0.697810  0.768690  0.911530  1.0  -0.6672
  O  O124  1  0.343390  0.036870  0.481970  1.0  -0.7223
  O  O125  1  0.355330  0.273130  0.496170  1.0  -0.7414
  O  O126  1  0.364470  0.102030  0.244870  1.0  -0.667
  O  O127  1  0.629800  0.639860  0.815300  1.0  -0.7243
  O  O128  1  0.393540  0.415540  0.829500  1.0  -0.7419
  O  O129  1  0.564640  0.595780  0.578200  1.0  -0.6656
  O  O130  1  0.296470  0.973190  0.148630  1.0  -0.7243
  O  O131  1  0.060210  0.748870  0.162830  1.0  -0.7419
  O  O132  1  0.231310  0.929110  0.911530  1.0  -0.6656
  O  O133  1  0.963130  0.306530  0.481970  1.0  -0.7243
  O  O134  1  0.726870  0.082210  0.496170  1.0  -0.7421
  O  O135  1  0.897970  0.262450  0.244870  1.0  -0.6656
  O  O136  1  0.639860  0.010060  0.184700  1.0  -0.7228
  O  O137  1  0.415540  0.022000  0.170500  1.0  -0.7406
  O  O138  1  0.595780  0.031140  0.421800  1.0  -0.6658
  O  O139  1  0.306530  0.343390  0.518030  1.0  -0.7236
  O  O140  1  0.082210  0.355330  0.503830  1.0  -0.7405
  O  O141  1  0.262450  0.364470  0.755130  1.0  -0.6659
  O  O142  1  0.973190  0.676730  0.851370  1.0  -0.7228
  O  O143  1  0.748870  0.688670  0.837170  1.0  -0.7406
  O  O144  1  0.929110  0.697810  0.088470  1.0  -0.6657
  O  O145  1  0.989940  0.629800  0.184700  1.0  -0.7214
  O  O146  1  0.978000  0.393540  0.170500  1.0  -0.7418
  O  O147  1  0.968860  0.564640  0.421800  1.0  -0.6665
  O  O148  1  0.656610  0.963130  0.518030  1.0  -0.7214
  O  O149  1  0.644670  0.726870  0.503830  1.0  -0.742
  O  O150  1  0.635530  0.897970  0.755130  1.0  -0.6665
  O  O151  1  0.323270  0.296470  0.851370  1.0  -0.7223
  O  O152  1  0.311330  0.060210  0.837170  1.0  -0.7418
  O  O153  1  0.302190  0.231310  0.088470  1.0  -0.6667
  O  O154  1  0.370200  0.360140  0.184700  1.0  -0.7242
  O  O155  1  0.606460  0.584460  0.170500  1.0  -0.7389
  O  O156  1  0.435360  0.404220  0.421800  1.0  -0.6657
  O  O157  1  0.036870  0.693470  0.518030  1.0  -0.7241
  O  O158  1  0.273130  0.917790  0.503830  1.0  -0.7391
  O  O159  1  0.102030  0.737550  0.755130  1.0  -0.6657
  O  O160  1  0.703530  0.026810  0.851370  1.0  -0.7241
  O  O161  1  0.939790  0.251130  0.837170  1.0  -0.7389
  O  O162  1  0.768690  0.070890  0.088470  1.0  -0.6657
