# generated using pymatgen
data_V4Co(PO5)4
_symmetry_space_group_name_H-M   'P 1'
_cell_length_a   7.06610000
_cell_length_b   9.67780000
_cell_length_c   11.62170000
_cell_angle_alpha   106.32600000
_cell_angle_beta   97.84300000
_cell_angle_gamma   107.70700000
_symmetry_Int_Tables_number   1
_chemical_formula_structural   V4Co(PO5)4
_chemical_formula_sum   'V4 Co1 P4 O20'
_cell_volume   704.82439941
_cell_formula_units_Z   1
loop_
 _symmetry_equiv_pos_site_id
 _symmetry_equiv_pos_as_xyz
  1  'x, y, z'
loop_
 _atom_site_type_symbol
 _atom_site_label
 _atom_site_symmetry_multiplicity
 _atom_site_fract_x
 _atom_site_fract_y
 _atom_site_fract_z
 _atom_site_occupancy
 _atom_site_charge
  V  V1  1  0.170950  0.130460  0.277220  1.0  1.2761
  V  V2  1  0.829050  0.869540  0.722780  1.0  1.2795
  V  V3  1  0.000000  0.500000  0.000000  1.0  1.9658
  V  V4  1  0.500000  0.500000  0.000000  1.0  1.9433
  Co  Co5  1  0.000000  0.000000  0.500000  1.0  0.9709
  P  P6  1  0.224470  0.327690  0.151940  1.0  1.7295
  P  P7  1  0.081360  0.230300  0.797260  1.0  1.8071
  P  P8  1  0.775530  0.672310  0.848060  1.0  1.7288
  P  P9  1  0.918640  0.769700  0.202740  1.0  1.8069
  O  O10  1  0.304800  0.307700  0.871100  1.0  -0.7802
  O  O11  1  0.428500  0.417000  0.133540  1.0  -0.7089
  O  O12  1  0.227500  0.351700  0.290900  1.0  -0.6768
  O  O13  1  0.061700  0.196900  0.658810  1.0  -0.7477
  O  O14  1  0.170900  0.150500  0.105700  1.0  -0.7214
  O  O15  1  0.049000  0.367800  0.094600  1.0  -0.7656
  O  O16  1  0.961900  0.336900  0.841430  1.0  -0.718
  O  O17  1  0.043100  0.135700  0.386900  1.0  -0.7051
  O  O18  1  0.985000  0.078800  0.823620  1.0  -0.7525
  O  O19  1  0.286500  0.582800  0.008550  1.0  -0.6773
  O  O20  1  0.695200  0.692300  0.128900  1.0  -0.7809
  O  O21  1  0.571500  0.583000  0.866460  1.0  -0.7096
  O  O22  1  0.772500  0.648300  0.709100  1.0  -0.6766
  O  O23  1  0.938300  0.803100  0.341190  1.0  -0.7505
  O  O24  1  0.829100  0.849500  0.894300  1.0  -0.7219
  O  O25  1  0.951000  0.632200  0.905400  1.0  -0.7643
  O  O26  1  0.038100  0.663100  0.158570  1.0  -0.7175
  O  O27  1  0.956900  0.864300  0.613100  1.0  -0.7053
  O  O28  1  0.015000  0.921200  0.176380  1.0  -0.7514
  O  O29  1  0.713500  0.417200  0.991450  1.0  -0.6765
