# generated using pymatgen
data_TbH18C15S3(N2O)6
_symmetry_space_group_name_H-M   'P 1'
_cell_length_a   9.46420000
_cell_length_b   11.47400000
_cell_length_c   14.57500000
_cell_angle_alpha   69.77000000
_cell_angle_beta   85.43000000
_cell_angle_gamma   86.44000000
_symmetry_Int_Tables_number   1
_chemical_formula_structural   TbH18C15S3(N2O)6
_chemical_formula_sum   'Tb2 H36 C30 S6 N24 O12'
_cell_volume   1479.36497863
_cell_formula_units_Z   2
loop_
 _symmetry_equiv_pos_site_id
 _symmetry_equiv_pos_as_xyz
  1  'x, y, z'
loop_
 _atom_site_type_symbol
 _atom_site_label
 _atom_site_symmetry_multiplicity
 _atom_site_fract_x
 _atom_site_fract_y
 _atom_site_fract_z
 _atom_site_occupancy
 _atom_site_charge
  Tb  Tb1  1  0.797010  0.954650  0.002520  1.0  2.2732
  Tb  Tb2  1  0.202990  0.045350  0.997480  1.0  2.2722
  H  H3  1  0.866000  0.368900  0.841000  1.0  0.1585
  H  H4  1  0.971700  0.371800  0.752000  1.0  0.1515
  H  H5  1  0.329000  0.388000  0.888000  1.0  0.348
  H  H6  1  0.263000  0.480000  0.809000  1.0  0.2489
  H  H7  1  0.878000  0.942600  0.556600  1.0  0.0844
  H  H8  1  0.871700  0.064500  0.464600  1.0  0.1018
  H  H9  1  0.275900  0.348100  0.392200  1.0  0.3672
  H  H10  1  0.260200  0.285000  0.320000  1.0  0.3135
  H  H11  1  0.852700  0.099500  0.281700  1.0  0.1333
  H  H12  1  0.814100  0.224600  0.197800  1.0  0.1338
  H  H13  1  0.118700  0.534100  0.433400  1.0  0.0867
  H  H14  1  0.112400  0.411000  0.524500  1.0  0.101
  H  H15  1  0.669700  0.045100  0.607400  1.0  0.3522
  H  H16  1  0.626400  0.118500  0.672300  1.0  0.3565
  H  H17  1  0.483700  0.836400  0.808000  1.0  0.1705
  H  H18  1  0.634600  0.831400  0.757500  1.0  0.1324
  H  H19  1  0.029300  0.482300  0.908100  1.0  0.0994
  H  H20  1  0.079400  0.387500  0.007700  1.0  0.1094
  H  H21  1  0.134000  0.631100  0.159000  1.0  0.1581
  H  H22  1  0.028300  0.628200  0.248000  1.0  0.1511
  H  H23  1  0.671000  0.612000  0.112000  1.0  0.3489
  H  H24  1  0.737000  0.520000  0.191000  1.0  0.2494
  H  H25  1  0.122000  0.057400  0.443400  1.0  0.0834
  H  H26  1  0.128300  0.935500  0.535400  1.0  0.1018
  H  H27  1  0.724100  0.651900  0.607800  1.0  0.3669
  H  H28  1  0.739800  0.715000  0.680000  1.0  0.3147
  H  H29  1  0.147300  0.900500  0.718300  1.0  0.1325
  H  H30  1  0.185900  0.775400  0.802200  1.0  0.1309
  H  H31  1  0.881300  0.465900  0.566600  1.0  0.0862
  H  H32  1  0.887600  0.589000  0.475500  1.0  0.1028
  H  H33  1  0.330300  0.954900  0.392600  1.0  0.3519
  H  H34  1  0.373600  0.881500  0.327700  1.0  0.3554
  H  H35  1  0.516300  0.163600  0.192000  1.0  0.171
  H  H36  1  0.365400  0.168600  0.242500  1.0  0.1306
  H  H37  1  0.970700  0.517700  0.091900  1.0  0.0982
  H  H38  1  0.920600  0.612500  0.992300  1.0  0.108
  C  C39  1  0.924900  0.098000  0.144100  1.0  0.8117
  C  C40  1  0.886600  0.196300  0.680400  1.0  0.1992
  C  C41  1  0.002600  0.218000  0.872200  1.0  0.7992
  C  C42  1  0.911200  0.318500  0.804800  1.0  -0.308
  C  C43  1  0.927600  0.017500  0.519300  1.0  -0.1779
  C  C44  1  0.983200  0.303400  0.315300  1.0  0.1566
  C  C45  1  0.887200  0.160000  0.220300  1.0  -0.306
  C  C46  1  0.942200  0.093400  0.582900  1.0  0.2282
  C  C47  1  0.995400  0.406100  0.415100  1.0  0.2533
  C  C48  1  0.056200  0.470600  0.475300  1.0  -0.1562
  C  C49  1  0.578900  0.800000  0.819200  1.0  -0.3073
  C  C50  1  0.640700  0.846900  0.891800  1.0  0.7426
  C  C51  1  0.401900  0.614900  0.912100  1.0  0.2125
  C  C52  1  0.189800  0.546000  0.960300  1.0  0.2802
  C  C53  1  0.059500  0.474800  0.972000  1.0  -0.2051
  C  C54  1  0.075100  0.902000  0.855900  1.0  0.8115
  C  C55  1  0.113400  0.803700  0.319600  1.0  0.1992
  C  C56  1  0.997400  0.782000  0.127800  1.0  0.7998
  C  C57  1  0.088800  0.681500  0.195200  1.0  -0.3095
  C  C58  1  0.072400  0.982500  0.480700  1.0  -0.1771
  C  C59  1  0.016800  0.696600  0.684700  1.0  0.1577
  C  C60  1  0.112800  0.840000  0.779700  1.0  -0.3079
  C  C61  1  0.057800  0.906600  0.417100  1.0  0.2288
  C  C62  1  0.004600  0.593900  0.584900  1.0  0.253
  C  C63  1  0.943800  0.529400  0.524700  1.0  -0.1558
  C  C64  1  0.421100  0.200000  0.180800  1.0  -0.3091
  C  C65  1  0.359300  0.153100  0.108200  1.0  0.7359
  C  C66  1  0.598100  0.385100  0.087900  1.0  0.213
  C  C67  1  0.810200  0.454000  0.039700  1.0  0.282
  C  C68  1  0.940500  0.525200  0.028000  1.0  -0.2062
  S  S69  1  0.048050  0.225990  0.236660  1.0  0.0184
  S  S70  1  0.568740  0.634450  0.850380  1.0  -0.0177
  S  S71  1  0.776340  0.262250  0.752510  1.0  -0.0306
  S  S72  1  0.951950  0.774010  0.763340  1.0  0.0179
  S  S73  1  0.431260  0.365550  0.149620  1.0  -0.0187
  S  S74  1  0.223660  0.737750  0.247490  1.0  -0.0301
  N  N75  1  0.309600  0.532500  0.905000  1.0  0.0735
  N  N76  1  0.207100  0.632200  0.996900  1.0  -0.2966
  N  N77  1  0.075700  0.347600  0.362100  1.0  0.1231
  N  N78  1  0.022500  0.204600  0.661600  1.0  -0.2912
  N  N79  1  0.343700  0.674700  0.967300  1.0  -0.3369
  N  N80  1  0.831000  0.127600  0.633500  1.0  0.1371
  N  N81  1  0.337700  0.453000  0.850200  1.0  -0.618
  N  N82  1  0.223000  0.323900  0.357500  1.0  -0.6689
  N  N83  1  0.058100  0.137200  0.597700  1.0  -0.3339
  N  N84  1  0.863300  0.397800  0.404000  1.0  -0.3134
  N  N85  1  0.854000  0.331100  0.339600  1.0  -0.3153
  N  N86  1  0.691100  0.092600  0.638400  1.0  -0.6604
  N  N87  1  0.690400  0.467500  0.095000  1.0  0.0746
  N  N88  1  0.792900  0.367800  0.003100  1.0  -0.2971
  N  N89  1  0.924300  0.652400  0.637900  1.0  0.1233
  N  N90  1  0.977500  0.795400  0.338400  1.0  -0.2898
  N  N91  1  0.656300  0.325300  0.032700  1.0  -0.3376
  N  N92  1  0.169000  0.872400  0.366500  1.0  0.1356
  N  N93  1  0.662300  0.547000  0.149800  1.0  -0.6182
  N  N94  1  0.777000  0.676100  0.642500  1.0  -0.6685
  N  N95  1  0.941900  0.862800  0.402300  1.0  -0.3348
  N  N96  1  0.136700  0.602200  0.596000  1.0  -0.3133
  N  N97  1  0.146000  0.668900  0.660400  1.0  -0.3153
  N  N98  1  0.308900  0.907400  0.361600  1.0  -0.6617
  O  O99  1  0.827400  0.042300  0.125350  1.0  -0.7339
  O  O100  1  0.950500  0.115800  0.925370  1.0  -0.8607
  O  O101  1  0.129100  0.239800  0.875600  1.0  -0.656
  O  O102  1  0.050000  0.106900  0.108300  1.0  -0.6983
  O  O103  1  0.686900  0.777900  0.970200  1.0  -0.6903
  O  O104  1  0.646400  0.965100  0.866300  1.0  -0.7681
  O  O105  1  0.172600  0.957700  0.874650  1.0  -0.7271
  O  O106  1  0.049500  0.884200  0.074630  1.0  -0.8605
  O  O107  1  0.870900  0.760200  0.124400  1.0  -0.6553
  O  O108  1  0.950000  0.893100  0.891700  1.0  -0.6982
  O  O109  1  0.313100  0.222100  0.029800  1.0  -0.6897
  O  O110  1  0.353600  0.034900  0.133700  1.0  -0.7715
