# generated using pymatgen
data_EuH18C15S3(N2O)6
_symmetry_space_group_name_H-M   'P 1'
_cell_length_a   9.48290000
_cell_length_b   11.50500000
_cell_length_c   14.58200000
_cell_angle_alpha   69.48000000
_cell_angle_beta   85.36000000
_cell_angle_gamma   86.32000000
_symmetry_Int_Tables_number   1
_chemical_formula_structural   EuH18C15S3(N2O)6
_chemical_formula_sum   'Eu2 H36 C30 S6 N24 O12'
_cell_volume   1483.98673783
_cell_formula_units_Z   2
loop_
 _symmetry_equiv_pos_site_id
 _symmetry_equiv_pos_as_xyz
  1  'x, y, z'
loop_
 _atom_site_type_symbol
 _atom_site_label
 _atom_site_symmetry_multiplicity
 _atom_site_fract_x
 _atom_site_fract_y
 _atom_site_fract_z
 _atom_site_occupancy
 _atom_site_charge
  Eu  Eu1  1  0.796620  0.955060  0.002390  1.0  2.1614
  Eu  Eu2  1  0.203380  0.044940  0.997610  1.0  2.1622
  H  H3  1  0.865000  0.368500  0.839900  1.0  0.1602
  H  H4  1  0.970000  0.371700  0.750600  1.0  0.1545
  H  H5  1  0.332000  0.386000  0.890000  1.0  0.324
  H  H6  1  0.264000  0.482000  0.802000  1.0  0.2196
  H  H7  1  0.878100  0.943400  0.556100  1.0  0.0855
  H  H8  1  0.873300  0.065700  0.464000  1.0  0.1019
  H  H9  1  0.274900  0.345900  0.394500  1.0  0.3692
  H  H10  1  0.260400  0.282400  0.322700  1.0  0.3182
  H  H11  1  0.851900  0.102100  0.282200  1.0  0.1388
  H  H12  1  0.815700  0.227200  0.197300  1.0  0.1363
  H  H13  1  0.120700  0.531500  0.435000  1.0  0.0961
  H  H14  1  0.110000  0.408900  0.526600  1.0  0.1039
  H  H15  1  0.669600  0.048100  0.605900  1.0  0.3525
  H  H16  1  0.627500  0.120200  0.671600  1.0  0.3602
  H  H17  1  0.482700  0.836600  0.806500  1.0  0.172
  H  H18  1  0.633500  0.831400  0.756200  1.0  0.1434
  H  H19  1  0.030400  0.480800  0.908800  1.0  0.1049
  H  H20  1  0.079500  0.387300  0.009500  1.0  0.1159
  H  H21  1  0.135000  0.631500  0.160100  1.0  0.1598
  H  H22  1  0.030000  0.628300  0.249400  1.0  0.1546
  H  H23  1  0.668000  0.614000  0.110000  1.0  0.3252
  H  H24  1  0.736000  0.518000  0.198000  1.0  0.2194
  H  H25  1  0.121900  0.056600  0.443900  1.0  0.0851
  H  H26  1  0.126700  0.934300  0.536000  1.0  0.1011
  H  H27  1  0.725100  0.654100  0.605500  1.0  0.3686
  H  H28  1  0.739600  0.717600  0.677300  1.0  0.3183
  H  H29  1  0.148100  0.897900  0.717800  1.0  0.139
  H  H30  1  0.184300  0.772800  0.802700  1.0  0.1337
  H  H31  1  0.879300  0.468500  0.565000  1.0  0.0972
  H  H32  1  0.890000  0.591100  0.473400  1.0  0.1037
  H  H33  1  0.330400  0.951900  0.394100  1.0  0.3522
  H  H34  1  0.372500  0.879800  0.328400  1.0  0.3591
  H  H35  1  0.517300  0.163400  0.193500  1.0  0.172
  H  H36  1  0.366500  0.168600  0.243800  1.0  0.1441
  H  H37  1  0.969600  0.519200  0.091200  1.0  0.1045
  H  H38  1  0.920500  0.612700  0.990500  1.0  0.1146
  C  C39  1  0.923600  0.098600  0.145600  1.0  0.8029
  C  C40  1  0.886400  0.194700  0.681200  1.0  0.2007
  C  C41  1  0.003800  0.218600  0.871900  1.0  0.7851
  C  C42  1  0.910500  0.318100  0.803900  1.0  -0.2994
  C  C43  1  0.928400  0.017900  0.519000  1.0  -0.1736
  C  C44  1  0.984000  0.303600  0.315900  1.0  0.1565
  C  C45  1  0.887600  0.161700  0.220600  1.0  -0.3118
  C  C46  1  0.942900  0.092900  0.582900  1.0  0.2354
  C  C47  1  0.996700  0.406000  0.415200  1.0  0.2532
  C  C48  1  0.056200  0.469400  0.476200  1.0  -0.1891
  C  C49  1  0.577600  0.800200  0.818000  1.0  -0.2933
  C  C50  1  0.639500  0.847700  0.890900  1.0  0.7431
  C  C51  1  0.401000  0.615500  0.911400  1.0  0.1953
  C  C52  1  0.189700  0.545800  0.960600  1.0  0.3012
  C  C53  1  0.059700  0.474300  0.972700  1.0  -0.2131
  C  C54  1  0.076400  0.901400  0.854400  1.0  0.8021
  C  C55  1  0.113600  0.805300  0.318800  1.0  0.2009
  C  C56  1  0.996200  0.781400  0.128100  1.0  0.7861
  C  C57  1  0.089500  0.681900  0.196100  1.0  -0.3013
  C  C58  1  0.071600  0.982100  0.481000  1.0  -0.1735
  C  C59  1  0.016000  0.696400  0.684100  1.0  0.1576
  C  C60  1  0.112400  0.838300  0.779400  1.0  -0.312
  C  C61  1  0.057100  0.907100  0.417100  1.0  0.2363
  C  C62  1  0.003300  0.594000  0.584800  1.0  0.2531
  C  C63  1  0.943800  0.530600  0.523800  1.0  -0.1851
  C  C64  1  0.422400  0.199800  0.182000  1.0  -0.2943
  C  C65  1  0.360500  0.152300  0.109100  1.0  0.7426
  C  C66  1  0.599000  0.384500  0.088600  1.0  0.1963
  C  C67  1  0.810300  0.454200  0.039400  1.0  0.3029
  C  C68  1  0.940300  0.525700  0.027300  1.0  -0.2104
  S  S69  1  0.048130  0.225560  0.237590  1.0  0.0086
  S  S70  1  0.567670  0.634230  0.850200  1.0  -0.0174
  S  S71  1  0.776550  0.260680  0.752830  1.0  -0.022
  S  S72  1  0.951870  0.774440  0.762410  1.0  0.0089
  S  S73  1  0.432330  0.365770  0.149800  1.0  -0.0174
  S  S74  1  0.223450  0.739320  0.247170  1.0  -0.0228
  N  N75  1  0.309000  0.532000  0.905700  1.0  0.0766
  N  N76  1  0.206900  0.630000  0.998800  1.0  -0.3028
  N  N77  1  0.075500  0.346400  0.362800  1.0  0.1708
  N  N78  1  0.022500  0.203200  0.661600  1.0  -0.2918
  N  N79  1  0.343000  0.674100  0.967500  1.0  -0.3303
  N  N80  1  0.831600  0.127000  0.633500  1.0  0.1363
  N  N81  1  0.337000  0.453500  0.849900  1.0  -0.605
  N  N82  1  0.222700  0.321700  0.359600  1.0  -0.6648
  N  N83  1  0.058700  0.136300  0.597900  1.0  -0.3234
  N  N84  1  0.864000  0.400600  0.402900  1.0  -0.3233
  N  N85  1  0.854500  0.333500  0.337900  1.0  -0.3287
  N  N86  1  0.691700  0.094200  0.637500  1.0  -0.6572
  N  N87  1  0.691000  0.468000  0.094300  1.0  0.0784
  N  N88  1  0.793100  0.370000  0.001200  1.0  -0.3041
  N  N89  1  0.924500  0.653600  0.637200  1.0  0.1708
  N  N90  1  0.977500  0.796800  0.338400  1.0  -0.2923
  N  N91  1  0.657000  0.325900  0.032500  1.0  -0.3296
  N  N92  1  0.168400  0.873000  0.366500  1.0  0.1352
  N  N93  1  0.663000  0.546500  0.150100  1.0  -0.605
  N  N94  1  0.777300  0.678300  0.640400  1.0  -0.6645
  N  N95  1  0.941300  0.863700  0.402100  1.0  -0.3243
  N  N96  1  0.136000  0.599400  0.597100  1.0  -0.3234
  N  N97  1  0.145500  0.666500  0.662100  1.0  -0.3299
  N  N98  1  0.308300  0.905800  0.362500  1.0  -0.6582
  O  O99  1  0.826500  0.043700  0.126700  1.0  -0.7183
  O  O100  1  0.953300  0.117200  0.925400  1.0  -0.8045
  O  O101  1  0.129600  0.242900  0.873500  1.0  -0.6555
  O  O102  1  0.050200  0.104400  0.111200  1.0  -0.7112
  O  O103  1  0.685900  0.777500  0.969100  1.0  -0.6768
  O  O104  1  0.644100  0.965200  0.865000  1.0  -0.7741
  O  O105  1  0.173500  0.956300  0.873300  1.0  -0.7112
  O  O106  1  0.046700  0.882800  0.074600  1.0  -0.8058
  O  O107  1  0.870400  0.757100  0.126500  1.0  -0.657
  O  O108  1  0.949800  0.895600  0.888800  1.0  -0.7092
  O  O109  1  0.314100  0.222500  0.030900  1.0  -0.6766
  O  O110  1  0.355900  0.034800  0.135000  1.0  -0.7744
