# generated using pymatgen
data_DyH18C15S3(N2O)6
_symmetry_space_group_name_H-M   'P 1'
_cell_length_a   9.45040000
_cell_length_b   11.45800000
_cell_length_c   14.57900000
_cell_angle_alpha   69.86000000
_cell_angle_beta   85.46000000
_cell_angle_gamma   86.30000000
_symmetry_Int_Tables_number   1
_chemical_formula_structural   DyH18C15S3(N2O)6
_chemical_formula_sum   'Dy2 H36 C30 S6 N24 O12'
_cell_volume   1476.30216163
_cell_formula_units_Z   2
loop_
 _symmetry_equiv_pos_site_id
 _symmetry_equiv_pos_as_xyz
  1  'x, y, z'
loop_
 _atom_site_type_symbol
 _atom_site_label
 _atom_site_symmetry_multiplicity
 _atom_site_fract_x
 _atom_site_fract_y
 _atom_site_fract_z
 _atom_site_occupancy
 _atom_site_charge
  Dy  Dy1  1  0.797220  0.954680  0.002600  1.0  2.2875
  Dy  Dy2  1  0.202780  0.045320  0.997400  1.0  2.2869
  H  H3  1  0.864600  0.368900  0.841100  1.0  0.1537
  H  H4  1  0.970600  0.371500  0.752300  1.0  0.1477
  H  H5  1  0.334000  0.384000  0.889000  1.0  0.3318
  H  H6  1  0.274000  0.472000  0.806000  1.0  0.3309
  H  H7  1  0.877500  0.943300  0.556300  1.0  0.0804
  H  H8  1  0.871700  0.065400  0.464400  1.0  0.1014
  H  H9  1  0.275900  0.345400  0.394100  1.0  0.3652
  H  H10  1  0.261000  0.282700  0.321400  1.0  0.3103
  H  H11  1  0.853700  0.099400  0.280900  1.0  0.1331
  H  H12  1  0.814800  0.224800  0.197300  1.0  0.1351
  H  H13  1  0.120500  0.533000  0.434300  1.0  0.0871
  H  H14  1  0.112300  0.409700  0.525000  1.0  0.1008
  H  H15  1  0.668500  0.044800  0.607700  1.0  0.3457
  H  H16  1  0.625000  0.119000  0.672200  1.0  0.3574
  H  H17  1  0.482800  0.837700  0.808600  1.0  0.1636
  H  H18  1  0.633600  0.833100  0.757500  1.0  0.1321
  H  H19  1  0.029300  0.481500  0.908800  1.0  0.0994
  H  H20  1  0.079400  0.387500  0.008600  1.0  0.1077
  H  H21  1  0.135400  0.631100  0.158900  1.0  0.1536
  H  H22  1  0.029400  0.628500  0.247700  1.0  0.1475
  H  H23  1  0.666000  0.616000  0.111000  1.0  0.3353
  H  H24  1  0.726000  0.528000  0.194000  1.0  0.3317
  H  H25  1  0.122500  0.056700  0.443700  1.0  0.0791
  H  H26  1  0.128300  0.934600  0.535600  1.0  0.1016
  H  H27  1  0.724100  0.654600  0.605900  1.0  0.3646
  H  H28  1  0.739000  0.717300  0.678600  1.0  0.3111
  H  H29  1  0.146300  0.900600  0.719100  1.0  0.1324
  H  H30  1  0.185200  0.775200  0.802700  1.0  0.1315
  H  H31  1  0.879500  0.467000  0.565700  1.0  0.0867
  H  H32  1  0.887700  0.590300  0.475000  1.0  0.102
  H  H33  1  0.331500  0.955200  0.392300  1.0  0.3457
  H  H34  1  0.375000  0.881000  0.327800  1.0  0.3566
  H  H35  1  0.517200  0.162300  0.191400  1.0  0.164
  H  H36  1  0.366400  0.166900  0.242500  1.0  0.1301
  H  H37  1  0.970700  0.518500  0.091200  1.0  0.099
  H  H38  1  0.920600  0.612500  0.991400  1.0  0.107
  C  C39  1  0.925200  0.097800  0.143200  1.0  0.8483
  C  C40  1  0.885600  0.197200  0.680600  1.0  0.1887
  C  C41  1  0.001400  0.217300  0.872400  1.0  0.8036
  C  C42  1  0.909800  0.318300  0.804800  1.0  -0.3114
  C  C43  1  0.927500  0.018000  0.519200  1.0  -0.1802
  C  C44  1  0.983700  0.303600  0.315200  1.0  0.1681
  C  C45  1  0.888100  0.160000  0.219700  1.0  -0.3131
  C  C46  1  0.942200  0.093700  0.582800  1.0  0.2327
  C  C47  1  0.995400  0.406600  0.414500  1.0  0.253
  C  C48  1  0.057000  0.470000  0.475500  1.0  -0.1803
  C  C49  1  0.578300  0.801400  0.819300  1.0  -0.2989
  C  C50  1  0.641100  0.848200  0.892200  1.0  0.7425
  C  C51  1  0.402100  0.614800  0.911800  1.0  0.2129
  C  C52  1  0.190300  0.545500  0.960400  1.0  0.2489
  C  C53  1  0.059400  0.474700  0.972600  1.0  -0.208
  C  C54  1  0.074800  0.902200  0.856800  1.0  0.8492
  C  C55  1  0.114400  0.802800  0.319400  1.0  0.1884
  C  C56  1  0.998600  0.782700  0.127600  1.0  0.804
  C  C57  1  0.090200  0.681700  0.195200  1.0  -0.3126
  C  C58  1  0.072500  0.982000  0.480800  1.0  -0.1794
  C  C59  1  0.016300  0.696400  0.684800  1.0  0.1646
  C  C60  1  0.111900  0.840000  0.780300  1.0  -0.315
  C  C61  1  0.057800  0.906300  0.417200  1.0  0.2322
  C  C62  1  0.004600  0.593400  0.585500  1.0  0.2547
  C  C63  1  0.943000  0.530000  0.524500  1.0  -0.1807
  C  C64  1  0.421700  0.198600  0.180700  1.0  -0.2997
  C  C65  1  0.358900  0.151800  0.107800  1.0  0.7389
  C  C66  1  0.597900  0.385200  0.088200  1.0  0.2146
  C  C67  1  0.809700  0.454500  0.039600  1.0  0.2512
  C  C68  1  0.940600  0.525300  0.027400  1.0  -0.2092
  S  S69  1  0.048830  0.225630  0.236460  1.0  0.0014
  S  S70  1  0.568740  0.635210  0.849930  1.0  -0.0247
  S  S71  1  0.775050  0.263500  0.751910  1.0  -0.0212
  S  S72  1  0.951170  0.774370  0.763540  1.0  0.0016
  S  S73  1  0.431260  0.364790  0.150070  1.0  -0.0248
  S  S74  1  0.224950  0.736500  0.248090  1.0  -0.0207
  N  N75  1  0.309700  0.532400  0.905420  1.0  0.0876
  N  N76  1  0.207400  0.631900  0.997700  1.0  -0.2901
  N  N77  1  0.076000  0.347200  0.361840  1.0  0.1223
  N  N78  1  0.022000  0.204600  0.661600  1.0  -0.2835
  N  N79  1  0.343800  0.674800  0.967500  1.0  -0.344
  N  N80  1  0.830100  0.128100  0.633170  1.0  0.1326
  N  N81  1  0.338100  0.452600  0.850300  1.0  -0.6173
  N  N82  1  0.223300  0.321800  0.358700  1.0  -0.6721
  N  N83  1  0.058300  0.137200  0.598200  1.0  -0.3379
  N  N84  1  0.862800  0.399400  0.402700  1.0  -0.32
  N  N85  1  0.854300  0.333400  0.337300  1.0  -0.3291
  N  N86  1  0.689800  0.092800  0.638400  1.0  -0.6582
  N  N87  1  0.690300  0.467600  0.094580  1.0  0.0893
  N  N88  1  0.792600  0.368100  0.002300  1.0  -0.2897
  N  N89  1  0.924000  0.652800  0.638160  1.0  0.1229
  N  N90  1  0.978000  0.795400  0.338400  1.0  -0.2814
  N  N91  1  0.656200  0.325200  0.032500  1.0  -0.3437
  N  N92  1  0.169900  0.871900  0.366830  1.0  0.1307
  N  N93  1  0.661900  0.547400  0.149700  1.0  -0.6168
  N  N94  1  0.776700  0.678200  0.641300  1.0  -0.6721
  N  N95  1  0.941700  0.862800  0.401800  1.0  -0.3396
  N  N96  1  0.137200  0.600600  0.597300  1.0  -0.3264
  N  N97  1  0.145700  0.666667  0.662700  1.0  -0.3348
  N  N98  1  0.310200  0.907200  0.361600  1.0  -0.6585
  O  O99  1  0.828000  0.042400  0.124700  1.0  -0.7412
  O  O100  1  0.948900  0.115490  0.924670  1.0  -0.8727
  O  O101  1  0.127600  0.238560  0.876720  1.0  -0.6624
  O  O102  1  0.050600  0.107700  0.106900  1.0  -0.6984
  O  O103  1  0.686700  0.777900  0.970490  1.0  -0.6726
  O  O104  1  0.647300  0.965670  0.866530  1.0  -0.77
  O  O105  1  0.172000  0.957600  0.875300  1.0  -0.7316
  O  O106  1  0.051100  0.884510  0.075330  1.0  -0.8726
  O  O107  1  0.872400  0.761440  0.123280  1.0  -0.6641
  O  O108  1  0.949400  0.892300  0.893100  1.0  -0.6977
  O  O109  1  0.313300  0.222100  0.029510  1.0  -0.6717
  O  O110  1  0.352700  0.034330  0.133470  1.0  -0.7723
