# generated using pymatgen
data_SmH18C15S3(N2O)6
_symmetry_space_group_name_H-M   'P 1'
_cell_length_a   9.51040000
_cell_length_b   11.51500000
_cell_length_c   14.57500000
_cell_angle_alpha   69.47000000
_cell_angle_beta   85.29000000
_cell_angle_gamma   86.39000000
_symmetry_Int_Tables_number   1
_chemical_formula_structural   SmH18C15S3(N2O)6
_chemical_formula_sum   'Sm2 H36 C30 S6 N24 O12'
_cell_volume   1488.72178975
_cell_formula_units_Z   2
loop_
 _symmetry_equiv_pos_site_id
 _symmetry_equiv_pos_as_xyz
  1  'x, y, z'
loop_
 _atom_site_type_symbol
 _atom_site_label
 _atom_site_symmetry_multiplicity
 _atom_site_fract_x
 _atom_site_fract_y
 _atom_site_fract_z
 _atom_site_occupancy
 _atom_site_charge
  Sm  Sm1  1  0.796180  0.955250  0.002240  1.0  2.2857
  Sm  Sm2  1  0.203820  0.044750  0.997760  1.0  2.2861
  H  H3  1  0.866600  0.369700  0.839200  1.0  0.1589
  H  H4  1  0.970900  0.372700  0.749600  1.0  0.1519
  H  H5  1  0.336000  0.393000  0.883000  1.0  0.3128
  H  H6  1  0.271000  0.475000  0.802000  1.0  0.3193
  H  H7  1  0.877300  0.943600  0.556600  1.0  0.0846
  H  H8  1  0.872500  0.065100  0.463700  1.0  0.1066
  H  H9  1  0.274800  0.350300  0.391300  1.0  0.3679
  H  H10  1  0.259700  0.286200  0.320100  1.0  0.3146
  H  H11  1  0.852100  0.101600  0.283400  1.0  0.135
  H  H12  1  0.815300  0.226200  0.198100  1.0  0.1396
  H  H13  1  0.118900  0.533400  0.433700  1.0  0.0873
  H  H14  1  0.111200  0.410500  0.525200  1.0  0.1027
  H  H15  1  0.670200  0.048100  0.605700  1.0  0.3494
  H  H16  1  0.628400  0.117800  0.673200  1.0  0.3592
  H  H17  1  0.484200  0.836600  0.806300  1.0  0.1646
  H  H18  1  0.634900  0.830700  0.756600  1.0  0.1358
  H  H19  1  0.028700  0.484600  0.907700  1.0  0.103
  H  H20  1  0.077800  0.388100  0.007100  1.0  0.1124
  H  H21  1  0.133400  0.630300  0.160800  1.0  0.1588
  H  H22  1  0.029100  0.627300  0.250400  1.0  0.1522
  H  H23  1  0.664000  0.607000  0.117000  1.0  0.3125
  H  H24  1  0.729000  0.525000  0.198000  1.0  0.3203
  H  H25  1  0.122700  0.056400  0.443400  1.0  0.0841
  H  H26  1  0.127500  0.934900  0.536300  1.0  0.1062
  H  H27  1  0.725200  0.649700  0.608700  1.0  0.3676
  H  H28  1  0.740300  0.713800  0.679900  1.0  0.315
  H  H29  1  0.147900  0.898400  0.716600  1.0  0.1356
  H  H30  1  0.184700  0.773800  0.801900  1.0  0.1377
  H  H31  1  0.881100  0.466600  0.566300  1.0  0.0877
  H  H32  1  0.888800  0.589500  0.474800  1.0  0.1017
  H  H33  1  0.329800  0.951900  0.394300  1.0  0.3488
  H  H34  1  0.371600  0.882200  0.326800  1.0  0.3579
  H  H35  1  0.515800  0.163400  0.193700  1.0  0.1648
  H  H36  1  0.365100  0.169300  0.243400  1.0  0.1365
  H  H37  1  0.971300  0.515400  0.092300  1.0  0.1018
  H  H38  1  0.922200  0.611900  0.992900  1.0  0.1113
  C  C39  1  0.923800  0.098100  0.147100  1.0  0.8188
  C  C40  1  0.886600  0.195800  0.680100  1.0  0.1847
  C  C41  1  0.004500  0.221100  0.870600  1.0  0.8137
  C  C42  1  0.912000  0.319200  0.803400  1.0  -0.2975
  C  C43  1  0.927400  0.018000  0.518900  1.0  -0.1821
  C  C44  1  0.982500  0.303700  0.316000  1.0  0.1641
  C  C45  1  0.887300  0.161100  0.221500  1.0  -0.3097
  C  C46  1  0.942900  0.094500  0.582100  1.0  0.2393
  C  C47  1  0.996300  0.406600  0.415300  1.0  0.2445
  C  C48  1  0.056000  0.470300  0.475500  1.0  -0.1631
  C  C49  1  0.578500  0.799800  0.818200  1.0  -0.3033
  C  C50  1  0.639100  0.846900  0.890500  1.0  0.7472
  C  C51  1  0.401300  0.614000  0.912000  1.0  0.2104
  C  C52  1  0.189200  0.544600  0.960400  1.0  0.2593
  C  C53  1  0.058800  0.475600  0.971900  1.0  -0.2219
  C  C54  1  0.076200  0.901900  0.852900  1.0  0.8187
  C  C55  1  0.113400  0.804200  0.319900  1.0  0.186
  C  C56  1  0.995500  0.778900  0.129400  1.0  0.8142
  C  C57  1  0.088000  0.680800  0.196600  1.0  -0.2982
  C  C58  1  0.072600  0.982000  0.481100  1.0  -0.1811
  C  C59  1  0.017500  0.696300  0.684000  1.0  0.1648
  C  C60  1  0.112700  0.838900  0.778500  1.0  -0.3115
  C  C61  1  0.057100  0.905500  0.417900  1.0  0.2394
  C  C62  1  0.003700  0.593400  0.584700  1.0  0.2449
  C  C63  1  0.944000  0.529700  0.524500  1.0  -0.1631
  C  C64  1  0.421500  0.200200  0.181800  1.0  -0.3041
  C  C65  1  0.360900  0.153100  0.109500  1.0  0.7466
  C  C66  1  0.598700  0.386000  0.088000  1.0  0.2115
  C  C67  1  0.810800  0.455400  0.039600  1.0  0.2609
  C  C68  1  0.941200  0.524400  0.028100  1.0  -0.218
  S  S69  1  0.048040  0.226200  0.237410  1.0  0.0062
  S  S70  1  0.567260  0.633700  0.850440  1.0  -0.0165
  S  S71  1  0.778070  0.259570  0.753410  1.0  -0.0306
  S  S72  1  0.951960  0.773800  0.762590  1.0  0.0068
  S  S73  1  0.432740  0.366300  0.149560  1.0  -0.0175
  S  S74  1  0.221930  0.740430  0.246590  1.0  -0.0304
  N  N75  1  0.307700  0.533100  0.905100  1.0  0.0805
  N  N76  1  0.206500  0.630400  0.998200  1.0  -0.2958
  N  N77  1  0.075700  0.347700  0.362200  1.0  0.1242
  N  N78  1  0.023400  0.203500  0.662000  1.0  -0.2985
  N  N79  1  0.343300  0.673800  0.967800  1.0  -0.3396
  N  N80  1  0.831500  0.126300  0.633900  1.0  0.1431
  N  N81  1  0.336500  0.454300  0.849100  1.0  -0.6061
  N  N82  1  0.222300  0.325200  0.357200  1.0  -0.6688
  N  N83  1  0.058200  0.136700  0.597100  1.0  -0.3268
  N  N84  1  0.863800  0.399500  0.403000  1.0  -0.3213
  N  N85  1  0.854800  0.332000  0.339600  1.0  -0.3176
  N  N86  1  0.692300  0.093200  0.638100  1.0  -0.6526
  N  N87  1  0.692300  0.466900  0.094900  1.0  0.0797
  N  N88  1  0.793500  0.369600  0.001800  1.0  -0.2964
  N  N89  1  0.924300  0.652300  0.637800  1.0  0.1238
  N  N90  1  0.976600  0.796500  0.338000  1.0  -0.2992
  N  N91  1  0.656700  0.326200  0.032200  1.0  -0.3393
  N  N92  1  0.168500  0.873700  0.366100  1.0  0.142
  N  N93  1  0.663500  0.545700  0.150900  1.0  -0.6062
  N  N94  1  0.777700  0.674800  0.642800  1.0  -0.6683
  N  N95  1  0.941800  0.863300  0.402900  1.0  -0.3277
  N  N96  1  0.136200  0.600500  0.597000  1.0  -0.3209
  N  N97  1  0.145200  0.668000  0.660400  1.0  -0.3186
  N  N98  1  0.307700  0.906800  0.361900  1.0  -0.6536
  O  O99  1  0.827000  0.044400  0.127000  1.0  -0.7569
  O  O100  1  0.955700  0.118000  0.925500  1.0  -0.882
  O  O101  1  0.130700  0.243800  0.872800  1.0  -0.6584
  O  O102  1  0.050400  0.103200  0.112100  1.0  -0.7135
  O  O103  1  0.685900  0.777100  0.969100  1.0  -0.6863
  O  O104  1  0.643400  0.963800  0.865000  1.0  -0.7769
  O  O105  1  0.173000  0.955600  0.873000  1.0  -0.7541
  O  O106  1  0.044300  0.882000  0.074500  1.0  -0.8828
  O  O107  1  0.869300  0.756200  0.127200  1.0  -0.6587
  O  O108  1  0.949600  0.896800  0.887900  1.0  -0.7136
  O  O109  1  0.314100  0.222900  0.030900  1.0  -0.6834
  O  O110  1  0.356600  0.036200  0.135000  1.0  -0.7803
