# generated using pymatgen
data_In6P14H19O43
_symmetry_space_group_name_H-M   'P 1'
_cell_length_a   26.79740000
_cell_length_b   9.84590000
_cell_length_c   18.54410000
_cell_angle_alpha   90.00000000
_cell_angle_beta   90.00000000
_cell_angle_gamma   90.00000000
_symmetry_Int_Tables_number   1
_chemical_formula_structural   In6P14H19O43
_chemical_formula_sum   'In24 P56 H76 O172'
_cell_volume   4892.75917557
_cell_formula_units_Z   4
loop_
 _symmetry_equiv_pos_site_id
 _symmetry_equiv_pos_as_xyz
  1  'x, y, z'
loop_
 _atom_site_type_symbol
 _atom_site_label
 _atom_site_symmetry_multiplicity
 _atom_site_fract_x
 _atom_site_fract_y
 _atom_site_fract_z
 _atom_site_occupancy
 _atom_site_charge
  In  In1  1  0.400380  0.236820  0.805390  1.0  1.6302
  In  In2  1  0.401070  0.730780  0.569570  1.0  1.5898
  In  In3  1  0.650090  0.248730  0.808110  1.0  1.6186
  In  In4  1  0.348760  0.255150  0.070990  1.0  1.6162
  In  In5  1  0.355290  0.242320  0.544600  1.0  1.6575
  In  In6  1  0.394430  0.753110  0.035020  1.0  1.6307
  In  In7  1  0.599620  0.763180  0.305390  1.0  1.6312
  In  In8  1  0.598930  0.269220  0.069570  1.0  1.5904
  In  In9  1  0.349910  0.751270  0.308110  1.0  1.6184
  In  In10  1  0.651240  0.744850  0.570990  1.0  1.6164
  In  In11  1  0.644710  0.757680  0.044600  1.0  1.6584
  In  In12  1  0.605570  0.246890  0.535020  1.0  1.6308
  In  In13  1  0.900380  0.263180  0.805390  1.0  1.6303
  In  In14  1  0.901070  0.769220  0.569570  1.0  1.5896
  In  In15  1  0.150090  0.251270  0.808110  1.0  1.6186
  In  In16  1  0.848760  0.244850  0.070990  1.0  1.614
  In  In17  1  0.855290  0.257680  0.544600  1.0  1.6575
  In  In18  1  0.894430  0.746890  0.035020  1.0  1.6306
  In  In19  1  0.099620  0.736820  0.305390  1.0  1.6314
  In  In20  1  0.098930  0.230780  0.069570  1.0  1.5906
  In  In21  1  0.849910  0.748730  0.308110  1.0  1.6184
  In  In22  1  0.151240  0.755150  0.570990  1.0  1.6137
  In  In23  1  0.144710  0.742320  0.044600  1.0  1.6584
  In  In24  1  0.105570  0.253110  0.535020  1.0  1.6308
  P  P25  1  0.363120  0.029440  0.937870  1.0  1.4507
  P  P26  1  0.403110  0.021400  0.666960  1.0  1.5771
  P  P27  1  0.391880  0.459100  0.939860  1.0  1.4581
  P  P28  1  0.523170  0.782000  0.595990  1.0  1.1498
  P  P29  1  0.383940  0.463290  0.677020  1.0  1.5252
  P  P30  1  0.524070  0.273800  0.783720  1.0  1.6145
  P  P31  1  0.643110  0.032500  0.665440  1.0  1.5359
  P  P32  1  0.370850  0.505870  0.430690  1.0  1.5266
  P  P33  1  0.619590  0.472300  0.669320  1.0  1.5502
  P  P34  1  0.275160  0.300000  0.818010  1.0  1.622
  P  P35  1  0.231610  0.219100  0.512280  1.0  1.5345
  P  P36  1  0.347490  0.952800  0.459880  1.0  1.5812
  P  P37  1  0.272580  0.666100  0.566010  1.0  1.5647
  P  P38  1  0.483780  0.318200  0.541950  1.0  1.5058
  P  P39  1  0.636880  0.970560  0.437870  1.0  1.46
  P  P40  1  0.596890  0.978600  0.166960  1.0  1.5689
  P  P41  1  0.608120  0.540900  0.439860  1.0  1.4392
  P  P42  1  0.476830  0.218000  0.095990  1.0  1.1606
  P  P43  1  0.616060  0.536710  0.177020  1.0  1.5253
  P  P44  1  0.475930  0.726200  0.283720  1.0  1.6145
  P  P45  1  0.356890  0.967500  0.165440  1.0  1.5262
  P  P46  1  0.629150  0.494130  0.930690  1.0  1.5266
  P  P47  1  0.380410  0.527700  0.169320  1.0  1.5508
  P  P48  1  0.724840  0.700000  0.318010  1.0  1.647
  P  P49  1  0.768390  0.780900  0.012280  1.0  1.5341
  P  P50  1  0.652510  0.047200  0.959880  1.0  1.5895
  P  P51  1  0.727420  0.333900  0.066010  1.0  1.5562
  P  P52  1  0.516220  0.681800  0.041950  1.0  1.5161
  P  P53  1  0.863120  0.470560  0.937870  1.0  1.4503
  P  P54  1  0.903110  0.478600  0.666960  1.0  1.5776
  P  P55  1  0.891880  0.040900  0.939860  1.0  1.4492
  P  P56  1  0.023170  0.718000  0.595990  1.0  1.1619
  P  P57  1  0.883940  0.036710  0.677020  1.0  1.5256
  P  P58  1  0.024070  0.226200  0.783720  1.0  1.6146
  P  P59  1  0.143110  0.467500  0.665440  1.0  1.5365
  P  P60  1  0.870850  0.994130  0.430690  1.0  1.5263
  P  P61  1  0.119590  0.027700  0.669320  1.0  1.5507
  P  P62  1  0.775160  0.200000  0.818010  1.0  1.6476
  P  P63  1  0.731610  0.280900  0.512280  1.0  1.5342
  P  P64  1  0.847490  0.547200  0.459880  1.0  1.5819
  P  P65  1  0.772580  0.833900  0.566010  1.0  1.5556
  P  P66  1  0.983780  0.181800  0.541950  1.0  1.5164
  P  P67  1  0.136880  0.529440  0.437870  1.0  1.4598
  P  P68  1  0.096890  0.521400  0.166960  1.0  1.5679
  P  P69  1  0.108120  0.959100  0.439860  1.0  1.4479
  P  P70  1  0.976830  0.282000  0.095990  1.0  1.149
  P  P71  1  0.116060  0.963290  0.177020  1.0  1.5251
  P  P72  1  0.975930  0.773800  0.283720  1.0  1.6144
  P  P73  1  0.856890  0.532500  0.165440  1.0  1.5255
  P  P74  1  0.129150  0.005870  0.930690  1.0  1.5271
  P  P75  1  0.880410  0.972300  0.169320  1.0  1.5509
  P  P76  1  0.224840  0.800000  0.318010  1.0  1.6227
  P  P77  1  0.268390  0.719100  0.012280  1.0  1.5347
  P  P78  1  0.152510  0.452800  0.959880  1.0  1.5885
  P  P79  1  0.227420  0.166100  0.066010  1.0  1.5642
  P  P80  1  0.016220  0.818200  0.041950  1.0  1.5055
  H  H81  1  0.437000  0.073000  0.648000  1.0  0.1024
  H  H82  1  0.422000  0.412000  0.960000  1.0  0.0849
  H  H83  1  0.355000  0.508000  0.729000  1.0  -0.1535
  H  H84  1  0.688000  0.080000  0.646000  1.0  -0.1149
  H  H85  1  0.408000  0.445000  0.390000  1.0  -0.0946
  H  H86  1  0.584000  0.529000  0.717000  1.0  -0.0749
  H  H87  1  0.313000  0.923000  0.492000  1.0  0.099
  H  H88  1  0.272000  0.623000  0.496000  1.0  -0.1423
  H  H89  1  0.492000  0.373000  0.607000  1.0  -0.0723
  H  H90  1  0.299400  0.341400  0.915300  1.0  0.3639
  H  H91  1  0.284300  0.478600  0.601000  1.0  0.4317
  H  H92  1  0.469200  0.503700  0.507800  1.0  0.4282
  H  H93  1  0.267500  0.298500  0.430400  1.0  0.4308
  H  H94  1  0.545200  0.965800  0.625700  1.0  0.4067
  H  H95  1  0.547800  0.202400  0.688300  1.0  0.4327
  H  H96  1  0.306100  0.465000  0.844400  1.0  0.3346
  H  H97  1  0.328900  0.010500  0.905000  1.0  0.1102
  H  H98  1  0.510200  0.423500  0.760200  1.0  -0.0182
  H  H99  1  0.229000  0.102700  0.463400  1.0  -0.1129
  H  H100  1  0.563000  0.927000  0.148000  1.0  0.1034
  H  H101  1  0.578000  0.588000  0.460000  1.0  0.0848
  H  H102  1  0.645000  0.492000  0.229000  1.0  -0.1523
  H  H103  1  0.312000  0.920000  0.146000  1.0  -0.1152
  H  H104  1  0.592000  0.555000  0.890000  1.0  -0.0955
  H  H105  1  0.416000  0.471000  0.217000  1.0  -0.0772
  H  H106  1  0.687000  0.077000  0.992000  1.0  0.0982
  H  H107  1  0.728000  0.377000  0.996000  1.0  -0.1425
  H  H108  1  0.508000  0.627000  0.107000  1.0  -0.0718
  H  H109  1  0.700600  0.658600  0.415300  1.0  0.3647
  H  H110  1  0.715700  0.521400  0.101000  1.0  0.4313
  H  H111  1  0.530800  0.496300  0.007800  1.0  0.4291
  H  H112  1  0.732500  0.701500  0.930400  1.0  0.4319
  H  H113  1  0.454800  0.034200  0.125700  1.0  0.4069
  H  H114  1  0.452200  0.797600  0.188300  1.0  0.4333
  H  H115  1  0.693900  0.535000  0.344400  1.0  0.3354
  H  H116  1  0.671100  0.989500  0.405000  1.0  0.1098
  H  H117  1  0.489800  0.576500  0.260200  1.0  -0.0179
  H  H118  1  0.771000  0.897300  0.963400  1.0  -0.1125
  H  H119  1  0.937000  0.427000  0.648000  1.0  0.1028
  H  H120  1  0.922000  0.088000  0.960000  1.0  0.0845
  H  H121  1  0.855000  0.992000  0.729000  1.0  -0.1526
  H  H122  1  0.188000  0.420000  0.646000  1.0  -0.1149
  H  H123  1  0.908000  0.055000  0.390000  1.0  -0.0948
  H  H124  1  0.084000  0.971000  0.717000  1.0  -0.0767
  H  H125  1  0.813000  0.577000  0.492000  1.0  0.0992
  H  H126  1  0.772000  0.877000  0.496000  1.0  -0.1425
  H  H127  1  0.992000  0.127000  0.607000  1.0  -0.0723
  H  H128  1  0.799400  0.158600  0.915300  1.0  0.3642
  H  H129  1  0.784300  0.021400  0.601000  1.0  0.4308
  H  H130  1  0.969200  0.996300  0.507800  1.0  0.4287
  H  H131  1  0.767500  0.201500  0.430400  1.0  0.4308
  H  H132  1  0.045200  0.534200  0.625700  1.0  0.4071
  H  H133  1  0.047800  0.297600  0.688300  1.0  0.4328
  H  H134  1  0.806100  0.035000  0.844400  1.0  0.3351
  H  H135  1  0.828900  0.489500  0.905000  1.0  0.1107
  H  H136  1  0.010200  0.076500  0.760200  1.0  -0.0176
  H  H137  1  0.729000  0.397300  0.463400  1.0  -0.1121
  H  H138  1  0.063000  0.573000  0.148000  1.0  0.1028
  H  H139  1  0.078000  0.912000  0.460000  1.0  0.0853
  H  H140  1  0.145000  0.008000  0.229000  1.0  -0.1536
  H  H141  1  0.812000  0.580000  0.146000  1.0  -0.115
  H  H142  1  0.092000  0.945000  0.890000  1.0  -0.0946
  H  H143  1  0.916000  0.029000  0.217000  1.0  -0.0752
  H  H144  1  0.187000  0.423000  0.992000  1.0  0.0983
  H  H145  1  0.228000  0.123000  0.996000  1.0  -0.1424
  H  H146  1  0.008000  0.873000  0.107000  1.0  -0.0717
  H  H147  1  0.200600  0.841400  0.415300  1.0  0.3647
  H  H148  1  0.215700  0.978600  0.101000  1.0  0.4318
  H  H149  1  0.030800  0.003700  0.007800  1.0  0.4284
  H  H150  1  0.232500  0.798500  0.930400  1.0  0.4319
  H  H151  1  0.954800  0.465800  0.125700  1.0  0.4062
  H  H152  1  0.952200  0.702400  0.188300  1.0  0.4329
  H  H153  1  0.193900  0.965000  0.344400  1.0  0.3355
  H  H154  1  0.171100  0.510500  0.405000  1.0  0.1101
  H  H155  1  0.989800  0.923500  0.260200  1.0  -0.0184
  H  H156  1  0.271000  0.602700  0.963400  1.0  -0.1133
  O  O157  1  0.571900  0.267300  0.826100  1.0  -0.8272
  O  O158  1  0.272600  0.313000  0.900100  1.0  -0.6051
  O  O159  1  0.416000  0.356400  0.713600  1.0  -0.8064
  O  O160  1  0.388700  0.893900  0.949900  1.0  -0.7651
  O  O161  1  0.338800  0.084400  0.004800  1.0  -0.8099
  O  O162  1  0.393700  0.885200  0.492300  1.0  -0.7784
  O  O163  1  0.323500  0.718300  0.587100  1.0  -0.8682
  O  O164  1  0.360700  0.084800  0.624000  1.0  -0.7963
  O  O165  1  0.231000  0.763300  0.582500  1.0  -0.8171
  O  O166  1  0.402100  0.577200  0.487400  1.0  -0.811
  O  O167  1  0.348230  0.386800  0.977200  1.0  -0.8486
  O  O168  1  0.405500  0.867500  0.659800  1.0  -0.761
  O  O169  1  0.348800  0.401800  0.620700  1.0  -0.8127
  O  O170  1  0.643100  0.875900  0.662600  1.0  -0.7819
  O  O171  1  0.433400  0.256400  0.530900  1.0  -0.8429
  O  O172  1  0.601200  0.093200  0.618300  1.0  -0.7281
  O  O173  1  0.479600  0.224300  0.824600  1.0  -0.802
  O  O174  1  0.276380  0.215000  0.561100  1.0  -0.8343
  O  O175  1  0.229300  0.248200  0.784900  1.0  -0.7346
  O  O176  1  0.321300  0.237400  0.789000  1.0  -0.8327
  O  O177  1  0.339200  0.390200  0.462500  1.0  -0.7936
  O  O178  1  0.525590  0.223600  0.522400  1.0  -0.8255
  O  O179  1  0.337400  0.597800  0.385700  1.0  -0.8108
  O  O180  1  0.479300  0.747300  0.550300  1.0  -0.7992
  O  O181  1  0.399800  0.051700  0.747000  1.0  -0.7735
  O  O182  1  0.656300  0.574600  0.638000  1.0  -0.7881
  O  O183  1  0.637200  0.074300  0.744000  1.0  -0.7835
  O  O184  1  0.416400  0.576700  0.647900  1.0  -0.818
  O  O185  1  0.392000  0.429100  0.859000  1.0  -0.8119
  O  O186  1  0.572500  0.736000  0.568400  1.0  -0.8378
  O  O187  1  0.398400  0.129600  0.903000  1.0  -0.818
  O  O188  1  0.335400  0.903900  0.384400  1.0  -0.8079
  O  O189  1  0.183100  0.236200  0.552100  1.0  -0.8606
  O  O190  1  0.352100  0.106800  0.457300  1.0  -0.78
  O  O191  1  0.648000  0.381500  0.720700  1.0  -0.8423
  O  O192  1  0.390000  0.612300  0.949400  1.0  -0.8108
  O  O193  1  0.589900  0.397000  0.613000  1.0  -0.8108
  O  O194  1  0.262100  0.534000  0.608900  1.0  -0.611
  O  O195  1  0.490300  0.447500  0.496200  1.0  -0.6074
  O  O196  1  0.242100  0.320900  0.451900  1.0  -0.6145
  O  O197  1  0.521700  0.939200  0.601100  1.0  -0.6388
  O  O198  1  0.524900  0.179300  0.714900  1.0  -0.7066
  O  O199  1  0.279400  0.446100  0.825100  1.0  -0.583
  O  O200  1  0.428100  0.732700  0.326100  1.0  -0.8272
  O  O201  1  0.727400  0.687000  0.400100  1.0  -0.6035
  O  O202  1  0.584000  0.643600  0.213600  1.0  -0.8048
  O  O203  1  0.611300  0.106100  0.449900  1.0  -0.7639
  O  O204  1  0.661200  0.915600  0.504800  1.0  -0.8085
  O  O205  1  0.606300  0.114800  0.992300  1.0  -0.778
  O  O206  1  0.676500  0.281700  0.087100  1.0  -0.8655
  O  O207  1  0.639300  0.915200  0.124000  1.0  -0.7974
  O  O208  1  0.769000  0.236700  0.082500  1.0  -0.819
  O  O209  1  0.597900  0.422800  0.987400  1.0  -0.8114
  O  O210  1  0.651770  0.613200  0.477200  1.0  -0.8483
  O  O211  1  0.594500  0.132500  0.159800  1.0  -0.7591
  O  O212  1  0.651200  0.598200  0.120700  1.0  -0.8119
  O  O213  1  0.356900  0.124100  0.162600  1.0  -0.7822
  O  O214  1  0.566600  0.743600  0.030900  1.0  -0.8436
  O  O215  1  0.398800  0.906800  0.118300  1.0  -0.7281
  O  O216  1  0.520400  0.775700  0.324600  1.0  -0.8018
  O  O217  1  0.723620  0.785000  0.061100  1.0  -0.8341
  O  O218  1  0.770700  0.751800  0.284900  1.0  -0.7342
  O  O219  1  0.678700  0.762600  0.289000  1.0  -0.8327
  O  O220  1  0.660800  0.609800  0.962500  1.0  -0.7925
  O  O221  1  0.474410  0.776400  0.022400  1.0  -0.8245
  O  O222  1  0.662600  0.402200  0.885700  1.0  -0.8117
  O  O223  1  0.520700  0.252700  0.050300  1.0  -0.7992
  O  O224  1  0.600200  0.948300  0.247000  1.0  -0.7745
  O  O225  1  0.343700  0.425400  0.138000  1.0  -0.7875
  O  O226  1  0.362800  0.925700  0.244000  1.0  -0.7825
  O  O227  1  0.583600  0.423300  0.147900  1.0  -0.8163
  O  O228  1  0.608000  0.570900  0.359000  1.0  -0.8132
  O  O229  1  0.427500  0.264000  0.068400  1.0  -0.8381
  O  O230  1  0.601600  0.870400  0.403000  1.0  -0.8168
  O  O231  1  0.664600  0.096100  0.884400  1.0  -0.8074
  O  O232  1  0.816900  0.763800  0.052100  1.0  -0.8621
  O  O233  1  0.647900  0.893200  0.957300  1.0  -0.7808
  O  O234  1  0.352000  0.618500  0.220700  1.0  -0.8405
  O  O235  1  0.610000  0.387700  0.449400  1.0  -0.8148
  O  O236  1  0.410100  0.603000  0.113000  1.0  -0.8109
  O  O237  1  0.737900  0.466000  0.108900  1.0  -0.6094
  O  O238  1  0.509700  0.552500  0.996200  1.0  -0.6088
  O  O239  1  0.757900  0.679100  0.951900  1.0  -0.6154
  O  O240  1  0.478300  0.060800  0.101100  1.0  -0.636
  O  O241  1  0.475100  0.820700  0.214900  1.0  -0.7072
  O  O242  1  0.720600  0.553900  0.325100  1.0  -0.5814
  O  O243  1  0.071900  0.232700  0.826100  1.0  -0.8273
  O  O244  1  0.772600  0.187000  0.900100  1.0  -0.6044
  O  O245  1  0.916000  0.143600  0.713600  1.0  -0.8057
  O  O246  1  0.888700  0.606100  0.949900  1.0  -0.7649
  O  O247  1  0.838800  0.415600  0.004800  1.0  -0.8098
  O  O248  1  0.893700  0.614800  0.492300  1.0  -0.7779
  O  O249  1  0.823500  0.781700  0.587100  1.0  -0.8671
  O  O250  1  0.860700  0.415200  0.624000  1.0  -0.7972
  O  O251  1  0.731000  0.736700  0.582500  1.0  -0.8187
  O  O252  1  0.902100  0.922800  0.487400  1.0  -0.8115
  O  O253  1  0.848230  0.113200  0.977200  1.0  -0.8485
  O  O254  1  0.905500  0.632500  0.659800  1.0  -0.7592
  O  O255  1  0.848800  0.098200  0.620700  1.0  -0.8119
  O  O256  1  0.143100  0.624100  0.662600  1.0  -0.7815
  O  O257  1  0.933400  0.243600  0.530900  1.0  -0.843
  O  O258  1  0.101200  0.406800  0.618300  1.0  -0.7281
  O  O259  1  0.979600  0.275700  0.824600  1.0  -0.8009
  O  O260  1  0.776380  0.285000  0.561100  1.0  -0.8339
  O  O261  1  0.729300  0.251800  0.784900  1.0  -0.7358
  O  O262  1  0.821300  0.262600  0.789000  1.0  -0.8331
  O  O263  1  0.839200  0.109800  0.462500  1.0  -0.7925
  O  O264  1  0.025590  0.276400  0.522400  1.0  -0.8251
  O  O265  1  0.837400  0.902200  0.385700  1.0  -0.8106
  O  O266  1  0.979300  0.752700  0.550300  1.0  -0.7993
  O  O267  1  0.899800  0.448300  0.747000  1.0  -0.7743
  O  O268  1  0.156300  0.925400  0.638000  1.0  -0.7877
  O  O269  1  0.137200  0.425700  0.744000  1.0  -0.7826
  O  O270  1  0.916400  0.923300  0.647900  1.0  -0.8176
  O  O271  1  0.892000  0.070900  0.859000  1.0  -0.8123
  O  O272  1  0.072500  0.764000  0.568400  1.0  -0.838
  O  O273  1  0.898400  0.370400  0.903000  1.0  -0.8184
  O  O274  1  0.835400  0.596100  0.384400  1.0  -0.8075
  O  O275  1  0.683100  0.263800  0.552100  1.0  -0.8616
  O  O276  1  0.852100  0.393200  0.457300  1.0  -0.7812
  O  O277  1  0.148000  0.118500  0.720700  1.0  -0.8424
  O  O278  1  0.890000  0.887700  0.949400  1.0  -0.8137
  O  O279  1  0.089900  0.103000  0.613000  1.0  -0.811
  O  O280  1  0.762100  0.966000  0.608900  1.0  -0.6106
  O  O281  1  0.990300  0.052500  0.496200  1.0  -0.608
  O  O282  1  0.742100  0.179100  0.451900  1.0  -0.6148
  O  O283  1  0.021700  0.560800  0.601100  1.0  -0.6378
  O  O284  1  0.024900  0.320700  0.714900  1.0  -0.7074
  O  O285  1  0.779400  0.053900  0.825100  1.0  -0.5816
  O  O286  1  0.928100  0.767300  0.326100  1.0  -0.8273
  O  O287  1  0.227400  0.813000  0.400100  1.0  -0.6039
  O  O288  1  0.084000  0.856400  0.213600  1.0  -0.8051
  O  O289  1  0.111300  0.393900  0.449900  1.0  -0.764
  O  O290  1  0.161200  0.584400  0.504800  1.0  -0.8087
  O  O291  1  0.106300  0.385200  0.992300  1.0  -0.7786
  O  O292  1  0.176500  0.218300  0.087100  1.0  -0.8668
  O  O293  1  0.139300  0.584800  0.124000  1.0  -0.7964
  O  O294  1  0.269000  0.263300  0.082500  1.0  -0.8168
  O  O295  1  0.097900  0.077200  0.987400  1.0  -0.8109
  O  O296  1  0.151770  0.886800  0.477200  1.0  -0.8486
  O  O297  1  0.094500  0.367500  0.159800  1.0  -0.761
  O  O298  1  0.151200  0.901800  0.120700  1.0  -0.8127
  O  O299  1  0.856900  0.375900  0.162600  1.0  -0.7822
  O  O300  1  0.066600  0.756400  0.030900  1.0  -0.8434
  O  O301  1  0.898800  0.593200  0.118300  1.0  -0.728
  O  O302  1  0.020400  0.724300  0.324600  1.0  -0.8025
  O  O303  1  0.223620  0.715000  0.061100  1.0  -0.8346
  O  O304  1  0.270700  0.748200  0.284900  1.0  -0.7334
  O  O305  1  0.178700  0.737400  0.289000  1.0  -0.8324
  O  O306  1  0.160800  0.890200  0.962500  1.0  -0.7935
  O  O307  1  0.974410  0.723600  0.022400  1.0  -0.8245
  O  O308  1  0.162600  0.097800  0.885700  1.0  -0.8116
  O  O309  1  0.020700  0.247300  0.050300  1.0  -0.7992
  O  O310  1  0.100200  0.551700  0.247000  1.0  -0.7736
  O  O311  1  0.843700  0.074600  0.138000  1.0  -0.7884
  O  O312  1  0.862800  0.574300  0.244000  1.0  -0.7833
  O  O313  1  0.083600  0.076700  0.147900  1.0  -0.8174
  O  O314  1  0.108000  0.929100  0.359000  1.0  -0.8131
  O  O315  1  0.927500  0.236000  0.068400  1.0  -0.8382
  O  O316  1  0.101600  0.629600  0.403000  1.0  -0.8163
  O  O317  1  0.164600  0.403900  0.884400  1.0  -0.808
  O  O318  1  0.316900  0.736200  0.052100  1.0  -0.8614
  O  O319  1  0.147900  0.606800  0.957300  1.0  -0.7796
  O  O320  1  0.852000  0.881500  0.220700  1.0  -0.8407
  O  O321  1  0.110000  0.112300  0.449400  1.0  -0.812
  O  O322  1  0.910100  0.897000  0.113000  1.0  -0.8108
  O  O323  1  0.237900  0.034000  0.108900  1.0  -0.6105
  O  O324  1  0.009700  0.947500  0.996200  1.0  -0.608
  O  O325  1  0.257900  0.820900  0.951900  1.0  -0.6149
  O  O326  1  0.978300  0.439200  0.101100  1.0  -0.6365
  O  O327  1  0.975100  0.679300  0.214900  1.0  -0.7063
  O  O328  1  0.220600  0.946100  0.325100  1.0  -0.5823
