# generated using pymatgen
data_In3P8(H6O11)2
_symmetry_space_group_name_H-M   'P 1'
_cell_length_a   18.67500000
_cell_length_b   10.22000000
_cell_length_c   13.41900000
_cell_angle_alpha   90.00000000
_cell_angle_beta   98.29000000
_cell_angle_gamma   90.00000000
_symmetry_Int_Tables_number   1
_chemical_formula_structural   In3P8(H6O11)2
_chemical_formula_sum   'In12 P32 H48 O88'
_cell_volume   2534.36888229
_cell_formula_units_Z   4
loop_
 _symmetry_equiv_pos_site_id
 _symmetry_equiv_pos_as_xyz
  1  'x, y, z'
loop_
 _atom_site_type_symbol
 _atom_site_label
 _atom_site_symmetry_multiplicity
 _atom_site_fract_x
 _atom_site_fract_y
 _atom_site_fract_z
 _atom_site_occupancy
 _atom_site_charge
  In  In1  1  0.774220  0.503660  0.971350  1.0  1.5653
  In  In2  1  0.274220  0.003660  0.971350  1.0  1.5653
  In  In3  1  0.225780  0.503660  0.528650  1.0  1.5661
  In  In4  1  0.725780  0.003660  0.528650  1.0  1.5661
  In  In5  1  0.225780  0.496340  0.028650  1.0  1.5659
  In  In6  1  0.725780  0.996340  0.028650  1.0  1.5659
  In  In7  1  0.774220  0.496340  0.471350  1.0  1.5652
  In  In8  1  0.274220  0.996340  0.471350  1.0  1.5652
  In  In9  1  0.000000  0.000000  0.000000  1.0  1.4386
  In  In10  1  0.500000  0.500000  0.000000  1.0  1.4386
  In  In11  1  0.000000  0.000000  0.500000  1.0  1.4386
  In  In12  1  0.500000  0.500000  0.500000  1.0  1.4386
  P  P13  1  0.869040  0.783060  0.025940  1.0  1.4911
  P  P14  1  0.142170  0.787180  0.019410  1.0  1.5243
  P  P15  1  0.964080  0.973800  0.241920  1.0  1.3798
  P  P16  1  0.750090  0.431870  0.715760  1.0  1.4537
  P  P17  1  0.369040  0.283060  0.025940  1.0  1.4911
  P  P18  1  0.642170  0.287180  0.019410  1.0  1.5243
  P  P19  1  0.464080  0.473800  0.241920  1.0  1.3798
  P  P20  1  0.250090  0.931870  0.715760  1.0  1.4537
  P  P21  1  0.130960  0.783060  0.474060  1.0  1.4883
  P  P22  1  0.857830  0.787180  0.480590  1.0  1.5233
  P  P23  1  0.035920  0.973800  0.258080  1.0  1.3736
  P  P24  1  0.249910  0.431870  0.784240  1.0  1.4612
  P  P25  1  0.630960  0.283060  0.474060  1.0  1.4883
  P  P26  1  0.357830  0.287180  0.480590  1.0  1.5233
  P  P27  1  0.535920  0.473800  0.258080  1.0  1.3736
  P  P28  1  0.749910  0.931870  0.784240  1.0  1.4612
  P  P29  1  0.130960  0.216940  0.974060  1.0  1.4881
  P  P30  1  0.857830  0.212820  0.980590  1.0  1.5235
  P  P31  1  0.035920  0.026200  0.758080  1.0  1.3729
  P  P32  1  0.249910  0.568130  0.284240  1.0  1.4526
  P  P33  1  0.630960  0.716940  0.974060  1.0  1.4881
  P  P34  1  0.357830  0.712820  0.980590  1.0  1.5235
  P  P35  1  0.535920  0.526200  0.758080  1.0  1.3729
  P  P36  1  0.749910  0.068130  0.284240  1.0  1.4526
  P  P37  1  0.869040  0.216940  0.525940  1.0  1.4904
  P  P38  1  0.142170  0.212820  0.519410  1.0  1.5244
  P  P39  1  0.964080  0.026200  0.741920  1.0  1.3793
  P  P40  1  0.750090  0.568130  0.215760  1.0  1.4451
  P  P41  1  0.369040  0.716940  0.525940  1.0  1.4904
  P  P42  1  0.642170  0.712820  0.519410  1.0  1.5244
  P  P43  1  0.464080  0.526200  0.741920  1.0  1.3793
  P  P44  1  0.250090  0.068130  0.215760  1.0  1.4451
  H  H45  1  0.907600  0.116300  0.164300  1.0  0.2932
  H  H46  1  0.733600  0.251500  0.666200  1.0  0.428
  H  H47  1  0.680000  0.437000  0.717000  1.0  0.0971
  H  H48  1  0.170000  0.806000  0.117000  1.0  -0.1731
  H  H49  1  0.912000  0.751000  0.110000  1.0  -0.0693
  H  H50  1  0.928000  0.859000  0.250000  1.0  -0.0972
  H  H51  1  0.407600  0.616300  0.164300  1.0  0.2932
  H  H52  1  0.233600  0.751500  0.666200  1.0  0.428
  H  H53  1  0.180000  0.937000  0.717000  1.0  0.0971
  H  H54  1  0.670000  0.306000  0.117000  1.0  -0.1731
  H  H55  1  0.412000  0.251000  0.110000  1.0  -0.0693
  H  H56  1  0.428000  0.359000  0.250000  1.0  -0.0972
  H  H57  1  0.092400  0.116300  0.335700  1.0  0.2936
  H  H58  1  0.266400  0.251500  0.833800  1.0  0.4277
  H  H59  1  0.320000  0.437000  0.783000  1.0  0.0966
  H  H60  1  0.830000  0.806000  0.383000  1.0  -0.1702
  H  H61  1  0.088000  0.751000  0.390000  1.0  -0.0657
  H  H62  1  0.072000  0.859000  0.250000  1.0  -0.0963
  H  H63  1  0.592400  0.616300  0.335700  1.0  0.2936
  H  H64  1  0.766400  0.751500  0.833800  1.0  0.4277
  H  H65  1  0.820000  0.937000  0.783000  1.0  0.0966
  H  H66  1  0.330000  0.306000  0.383000  1.0  -0.1702
  H  H67  1  0.588000  0.251000  0.390000  1.0  -0.0657
  H  H68  1  0.572000  0.359000  0.250000  1.0  -0.0963
  H  H69  1  0.092400  0.883700  0.835700  1.0  0.2943
  H  H70  1  0.266400  0.748500  0.333800  1.0  0.4265
  H  H71  1  0.320000  0.563000  0.283000  1.0  0.0971
  H  H72  1  0.830000  0.194000  0.883000  1.0  -0.1701
  H  H73  1  0.088000  0.249000  0.890000  1.0  -0.0656
  H  H74  1  0.072000  0.141000  0.750000  1.0  -0.0962
  H  H75  1  0.592400  0.383700  0.835700  1.0  0.2943
  H  H76  1  0.766400  0.248500  0.333800  1.0  0.4265
  H  H77  1  0.820000  0.063000  0.283000  1.0  0.0971
  H  H78  1  0.330000  0.694000  0.883000  1.0  -0.1701
  H  H79  1  0.588000  0.749000  0.890000  1.0  -0.0656
  H  H80  1  0.572000  0.641000  0.750000  1.0  -0.0962
  H  H81  1  0.907600  0.883700  0.664300  1.0  0.2947
  H  H82  1  0.733600  0.748500  0.166200  1.0  0.4276
  H  H83  1  0.680000  0.563000  0.217000  1.0  0.0952
  H  H84  1  0.170000  0.194000  0.617000  1.0  -0.1727
  H  H85  1  0.912000  0.249000  0.610000  1.0  -0.0688
  H  H86  1  0.928000  0.141000  0.750000  1.0  -0.0975
  H  H87  1  0.407600  0.383700  0.664300  1.0  0.2947
  H  H88  1  0.233600  0.248500  0.166200  1.0  0.4276
  H  H89  1  0.180000  0.063000  0.217000  1.0  0.0952
  H  H90  1  0.670000  0.694000  0.617000  1.0  -0.1727
  H  H91  1  0.412000  0.749000  0.610000  1.0  -0.0688
  H  H92  1  0.428000  0.641000  0.750000  1.0  -0.0975
  O  O93  1  0.998700  0.982900  0.158100  1.0  -0.5031
  O  O94  1  0.851110  0.658100  0.965400  1.0  -0.8178
  O  O95  1  0.186330  0.868600  0.954400  1.0  -0.8476
  O  O96  1  0.804040  0.842700  0.065400  1.0  -0.835
  O  O97  1  0.903100  0.079800  0.217400  1.0  -0.6892
  O  O98  1  0.751200  0.281600  0.720900  1.0  -0.6783
  O  O99  1  0.781900  0.487500  0.814700  1.0  -0.854
  O  O100  1  0.907180  0.878600  0.964800  1.0  -0.833
  O  O101  1  0.145540  0.642100  0.996900  1.0  -0.8003
  O  O102  1  0.063600  0.828800  0.003100  1.0  -0.8778
  O  O103  1  0.787400  0.478300  0.631300  1.0  -0.873
  O  O104  1  0.498700  0.482900  0.158100  1.0  -0.5031
  O  O105  1  0.351110  0.158100  0.965400  1.0  -0.8178
  O  O106  1  0.686330  0.368600  0.954400  1.0  -0.8476
  O  O107  1  0.304040  0.342700  0.065400  1.0  -0.835
  O  O108  1  0.403100  0.579800  0.217400  1.0  -0.6892
  O  O109  1  0.251200  0.781600  0.720900  1.0  -0.6783
  O  O110  1  0.281900  0.987500  0.814700  1.0  -0.854
  O  O111  1  0.407180  0.378600  0.964800  1.0  -0.833
  O  O112  1  0.645540  0.142100  0.996900  1.0  -0.8003
  O  O113  1  0.563600  0.328800  0.003100  1.0  -0.8778
  O  O114  1  0.287400  0.978300  0.631300  1.0  -0.873
  O  O115  1  0.001300  0.982900  0.341900  1.0  -0.5067
  O  O116  1  0.148890  0.658100  0.534600  1.0  -0.8158
  O  O117  1  0.813670  0.868600  0.545600  1.0  -0.8471
  O  O118  1  0.195960  0.842700  0.434600  1.0  -0.8345
  O  O119  1  0.096900  0.079800  0.282600  1.0  -0.6907
  O  O120  1  0.248800  0.281600  0.779100  1.0  -0.6806
  O  O121  1  0.218100  0.487500  0.685300  1.0  -0.852
  O  O122  1  0.092820  0.878600  0.535200  1.0  -0.8319
  O  O123  1  0.854460  0.642100  0.503100  1.0  -0.799
  O  O124  1  0.936400  0.828800  0.496900  1.0  -0.8766
  O  O125  1  0.212600  0.478300  0.868700  1.0  -0.8748
  O  O126  1  0.501300  0.482900  0.341900  1.0  -0.5067
  O  O127  1  0.648890  0.158100  0.534600  1.0  -0.8158
  O  O128  1  0.313670  0.368600  0.545600  1.0  -0.8471
  O  O129  1  0.695960  0.342700  0.434600  1.0  -0.8345
  O  O130  1  0.596900  0.579800  0.282600  1.0  -0.6907
  O  O131  1  0.748800  0.781600  0.779100  1.0  -0.6806
  O  O132  1  0.718100  0.987500  0.685300  1.0  -0.852
  O  O133  1  0.592820  0.378600  0.535200  1.0  -0.8319
  O  O134  1  0.354460  0.142100  0.503100  1.0  -0.799
  O  O135  1  0.436400  0.328800  0.496900  1.0  -0.8766
  O  O136  1  0.712600  0.978300  0.868700  1.0  -0.8748
  O  O137  1  0.001300  0.017100  0.841900  1.0  -0.5067
  O  O138  1  0.148890  0.341900  0.034600  1.0  -0.8157
  O  O139  1  0.813670  0.131400  0.045600  1.0  -0.8469
  O  O140  1  0.195960  0.157300  0.934600  1.0  -0.8347
  O  O141  1  0.096900  0.920200  0.782600  1.0  -0.6916
  O  O142  1  0.248800  0.718400  0.279100  1.0  -0.6803
  O  O143  1  0.218100  0.512500  0.185300  1.0  -0.8525
  O  O144  1  0.092820  0.121400  0.035200  1.0  -0.8331
  O  O145  1  0.854460  0.357900  0.003100  1.0  -0.8002
  O  O146  1  0.936400  0.171200  0.996900  1.0  -0.8752
  O  O147  1  0.212600  0.521700  0.368700  1.0  -0.8753
  O  O148  1  0.501300  0.517100  0.841900  1.0  -0.5067
  O  O149  1  0.648890  0.841900  0.034600  1.0  -0.8157
  O  O150  1  0.313670  0.631400  0.045600  1.0  -0.8469
  O  O151  1  0.695960  0.657300  0.934600  1.0  -0.8347
  O  O152  1  0.596900  0.420200  0.782600  1.0  -0.6916
  O  O153  1  0.748800  0.218400  0.279100  1.0  -0.6803
  O  O154  1  0.718100  0.012500  0.185300  1.0  -0.8525
  O  O155  1  0.592820  0.621400  0.035200  1.0  -0.8331
  O  O156  1  0.354460  0.857900  0.003100  1.0  -0.8002
  O  O157  1  0.436400  0.671200  0.996900  1.0  -0.8752
  O  O158  1  0.712600  0.021700  0.368700  1.0  -0.8753
  O  O159  1  0.998700  0.017100  0.658100  1.0  -0.5035
  O  O160  1  0.851110  0.341900  0.465400  1.0  -0.8163
  O  O161  1  0.186330  0.131400  0.454400  1.0  -0.8474
  O  O162  1  0.804040  0.157300  0.565400  1.0  -0.8346
  O  O163  1  0.903100  0.920200  0.717400  1.0  -0.6903
  O  O164  1  0.751200  0.718400  0.220900  1.0  -0.6779
  O  O165  1  0.781900  0.512500  0.314700  1.0  -0.8545
  O  O166  1  0.907180  0.121400  0.464800  1.0  -0.8335
  O  O167  1  0.145540  0.357900  0.496900  1.0  -0.8009
  O  O168  1  0.063600  0.171200  0.503100  1.0  -0.8762
  O  O169  1  0.787400  0.521700  0.131300  1.0  -0.8733
  O  O170  1  0.498700  0.517100  0.658100  1.0  -0.5035
  O  O171  1  0.351110  0.841900  0.465400  1.0  -0.8163
  O  O172  1  0.686330  0.631400  0.454400  1.0  -0.8474
  O  O173  1  0.304040  0.657300  0.565400  1.0  -0.8346
  O  O174  1  0.403100  0.420200  0.717400  1.0  -0.6903
  O  O175  1  0.251200  0.218400  0.220900  1.0  -0.6779
  O  O176  1  0.281900  0.012500  0.314700  1.0  -0.8545
  O  O177  1  0.407180  0.621400  0.464800  1.0  -0.8335
  O  O178  1  0.645540  0.857900  0.496900  1.0  -0.8009
  O  O179  1  0.563600  0.671200  0.503100  1.0  -0.8762
  O  O180  1  0.287400  0.021700  0.131300  1.0  -0.8733
