# generated using pymatgen
data_Cu2H11C22N5O8
_symmetry_space_group_name_H-M   'P 1'
_cell_length_a   8.49700000
_cell_length_b   9.49000000
_cell_length_c   14.13500000
_cell_angle_alpha   80.55000000
_cell_angle_beta   88.56000000
_cell_angle_gamma   73.51000000
_symmetry_Int_Tables_number   1
_chemical_formula_structural   Cu2H11C22N5O8
_chemical_formula_sum   'Cu4 H22 C44 N10 O16'
_cell_volume   1077.80710810
_cell_formula_units_Z   2
loop_
 _symmetry_equiv_pos_site_id
 _symmetry_equiv_pos_as_xyz
  1  'x, y, z'
loop_
 _atom_site_type_symbol
 _atom_site_label
 _atom_site_symmetry_multiplicity
 _atom_site_fract_x
 _atom_site_fract_y
 _atom_site_fract_z
 _atom_site_occupancy
 _atom_site_charge
  Cu  Cu1  1  0.556520  0.644150  0.143090  1.0  0.911
  Cu  Cu2  1  0.515390  0.798440  0.902220  1.0  0.9577
  Cu  Cu3  1  0.443480  0.355850  0.856910  1.0  0.91
  Cu  Cu4  1  0.484610  0.201560  0.097780  1.0  0.9677
  H  H5  1  0.063600  0.900200  0.174000  1.0  0.103
  H  H6  1  0.966000  0.377100  0.010200  1.0  0.1028
  H  H7  1  0.579900  0.372200  0.289400  1.0  0.0871
  H  H8  1  0.457200  0.303900  0.428500  1.0  0.1472
  H  H9  1  0.223300  0.733900  0.427200  1.0  0.1416
  H  H10  1  0.350700  0.791400  0.288200  1.0  0.0943
  H  H11  1  0.908800  0.778200  0.639200  1.0  0.1457
  H  H12  1  0.699000  0.884100  0.733100  1.0  0.0908
  H  H13  1  0.731800  0.500700  0.893000  1.0  0.0886
  H  H14  1  0.934900  0.383000  0.799400  1.0  0.1223
  H  H15  1  0.140800  0.281200  0.695800  1.0  0.2602
  H  H16  1  0.936400  0.099800  0.826000  1.0  0.1028
  H  H17  1  0.034000  0.622900  0.989800  1.0  0.1026
  H  H18  1  0.420100  0.627800  0.710600  1.0  0.0866
  H  H19  1  0.542800  0.696100  0.571500  1.0  0.1453
  H  H20  1  0.776700  0.266100  0.572800  1.0  0.1419
  H  H21  1  0.649300  0.208600  0.711800  1.0  0.0937
  H  H22  1  0.091200  0.221800  0.360800  1.0  0.1454
  H  H23  1  0.301000  0.115900  0.266900  1.0  0.0922
  H  H24  1  0.268200  0.499300  0.107000  1.0  0.0877
  H  H25  1  0.065100  0.617000  0.200600  1.0  0.1204
  H  H26  1  0.859200  0.718800  0.304200  1.0  0.2592
  C  C27  1  0.302500  0.910100  0.052800  1.0  0.6872
  C  C28  1  0.154400  0.029400  0.072500  1.0  -0.1696
  C  C29  1  0.040900  0.995600  0.138700  1.0  0.0183
  C  C30  1  0.895000  0.100400  0.153200  1.0  -0.1407
  C  C31  1  0.867800  0.245800  0.104700  1.0  -0.0497
  C  C32  1  0.983600  0.279400  0.041100  1.0  -0.1057
  C  C33  1  0.124300  0.173200  0.021900  1.0  -0.0444
  C  C34  1  0.234800  0.223600  0.947100  1.0  0.6756
  C  C35  1  0.775400  0.050500  0.223500  1.0  0.6956
  C  C36  1  0.721900  0.375000  0.115500  1.0  0.6654
  C  C37  1  0.505400  0.445800  0.317000  1.0  0.1749
  C  C38  1  0.432500  0.403600  0.400600  1.0  -0.1534
  C  C39  1  0.322200  0.511300  0.442600  1.0  0.0499
  C  C40  1  0.294100  0.658200  0.399600  1.0  -0.1559
  C  C41  1  0.371100  0.691900  0.316200  1.0  0.1808
  C  C42  1  0.234200  0.474200  0.529700  1.0  0.3442
  C  C43  1  0.071800  0.500500  0.643100  1.0  0.292
  C  C44  1  0.944600  0.566300  0.708200  1.0  0.0358
  C  C45  1  0.873200  0.719400  0.689500  1.0  -0.1369
  C  C46  1  0.748900  0.782100  0.747100  1.0  0.169
  C  C47  1  0.766800  0.556600  0.840700  1.0  0.136
  C  C48  1  0.889300  0.485600  0.785100  1.0  -0.1573
  C  C49  1  0.697500  0.089900  0.947200  1.0  0.6875
  C  C50  1  0.845600  0.970600  0.927500  1.0  -0.1691
  C  C51  1  0.959100  0.004400  0.861300  1.0  0.0173
  C  C52  1  0.105000  0.899600  0.846800  1.0  -0.1414
  C  C53  1  0.132200  0.754200  0.895300  1.0  -0.0558
  C  C54  1  0.016400  0.720600  0.958900  1.0  -0.1105
  C  C55  1  0.875700  0.826800  0.978100  1.0  -0.0447
  C  C56  1  0.765200  0.776400  0.052900  1.0  0.6744
  C  C57  1  0.224600  0.949500  0.776500  1.0  0.6959
  C  C58  1  0.278100  0.625000  0.884500  1.0  0.6647
  C  C59  1  0.494600  0.554200  0.683000  1.0  0.1741
  C  C60  1  0.567500  0.596400  0.599400  1.0  -0.1528
  C  C61  1  0.677800  0.488700  0.557400  1.0  0.0493
  C  C62  1  0.705900  0.341800  0.600400  1.0  -0.156
  C  C63  1  0.628900  0.308100  0.683800  1.0  0.181
  C  C64  1  0.765800  0.525800  0.470300  1.0  0.3439
  C  C65  1  0.928200  0.499500  0.356900  1.0  0.2914
  C  C66  1  0.055400  0.433700  0.291800  1.0  0.0302
  C  C67  1  0.126800  0.280600  0.310500  1.0  -0.1347
  C  C68  1  0.251100  0.217900  0.252900  1.0  0.1705
  C  C69  1  0.233200  0.443400  0.159300  1.0  0.1322
  C  C70  1  0.110700  0.514400  0.214900  1.0  -0.1575
  N  N71  1  0.474400  0.587900  0.273000  1.0  -0.3703
  N  N72  1  0.121100  0.578900  0.568000  1.0  -0.4702
  N  N73  1  0.257200  0.337100  0.575700  1.0  -0.3308
  N  N74  1  0.151900  0.355600  0.649000  1.0  -0.0475
  N  N75  1  0.696500  0.703600  0.821900  1.0  -0.3571
  N  N76  1  0.525600  0.412100  0.727000  1.0  -0.3687
  N  N77  1  0.878900  0.421100  0.432000  1.0  -0.4711
  N  N78  1  0.742800  0.662900  0.424300  1.0  -0.3322
  N  N79  1  0.848100  0.644400  0.351000  1.0  -0.0457
  N  N80  1  0.303500  0.296400  0.178100  1.0  -0.357
  O  O81  1  0.348300  0.795900  0.115200  1.0  -0.5915
  O  O82  1  0.366500  0.934700  0.973400  1.0  -0.5754
  O  O83  1  0.346900  0.276200  0.977100  1.0  -0.639
  O  O84  1  0.211300  0.229500  0.862200  1.0  -0.5493
  O  O85  1  0.621900  0.114600  0.212700  1.0  -0.6026
  O  O86  1  0.835400  0.948400  0.289900  1.0  -0.5624
  O  O87  1  0.748700  0.471300  0.159500  1.0  -0.5467
  O  O88  1  0.587000  0.388500  0.077400  1.0  -0.6121
  O  O89  1  0.651700  0.204100  0.884800  1.0  -0.593
  O  O90  1  0.633500  0.065300  0.026600  1.0  -0.5762
  O  O91  1  0.653100  0.723800  0.022900  1.0  -0.638
  O  O92  1  0.788700  0.770500  0.137800  1.0  -0.5481
  O  O93  1  0.378100  0.885400  0.787300  1.0  -0.6018
  O  O94  1  0.164600  0.051600  0.710100  1.0  -0.5639
  O  O95  1  0.251300  0.528700  0.840500  1.0  -0.5466
  O  O96  1  0.413000  0.611500  0.922600  1.0  -0.6119
