# generated using pymatgen
data_EuH6(C2O)6
_symmetry_space_group_name_H-M   'P 1'
_cell_length_a   8.00700000
_cell_length_b   15.88000000
_cell_length_c   29.44500000
_cell_angle_alpha   90.00000000
_cell_angle_beta   90.00000000
_cell_angle_gamma   90.00000000
_symmetry_Int_Tables_number   1
_chemical_formula_structural   EuH6(C2O)6
_chemical_formula_sum   'Eu8 H48 C96 O48'
_cell_volume   3743.96590620
_cell_formula_units_Z   8
loop_
 _symmetry_equiv_pos_site_id
 _symmetry_equiv_pos_as_xyz
  1  'x, y, z'
loop_
 _atom_site_type_symbol
 _atom_site_label
 _atom_site_symmetry_multiplicity
 _atom_site_fract_x
 _atom_site_fract_y
 _atom_site_fract_z
 _atom_site_occupancy
 _atom_site_charge
  Eu  Eu1  1  0.449950  0.706820  0.588960  1.0  2.1439
  Eu  Eu2  1  0.050050  0.206820  0.411040  1.0  2.144
  Eu  Eu3  1  0.550050  0.293180  0.088960  1.0  2.144
  Eu  Eu4  1  0.949950  0.793180  0.911040  1.0  2.144
  Eu  Eu5  1  0.550050  0.293180  0.411040  1.0  2.1456
  Eu  Eu6  1  0.949950  0.793180  0.588960  1.0  2.1439
  Eu  Eu7  1  0.449950  0.706820  0.911040  1.0  2.1454
  Eu  Eu8  1  0.050050  0.206820  0.088960  1.0  2.144
  H  H9  1  0.276800  0.514800  0.492600  1.0  0.1095
  H  H10  1  0.004900  0.446900  0.384100  1.0  0.11
  H  H11  1  0.861400  0.574100  0.388000  1.0  0.1128
  H  H12  1  0.911100  0.665900  0.447600  1.0  0.1161
  H  H13  1  0.783500  0.932600  0.681800  1.0  0.1089
  H  H14  1  0.223200  0.014800  0.507400  1.0  0.1102
  H  H15  1  0.495100  0.946900  0.615900  1.0  0.1109
  H  H16  1  0.638600  0.074100  0.612000  1.0  0.1131
  H  H17  1  0.588900  0.165900  0.552400  1.0  0.1149
  H  H18  1  0.716500  0.432600  0.318200  1.0  0.1089
  H  H19  1  0.723200  0.485200  0.992600  1.0  0.1097
  H  H20  1  0.995100  0.553100  0.884100  1.0  0.11
  H  H21  1  0.138600  0.425900  0.888000  1.0  0.1128
  H  H22  1  0.088900  0.334100  0.947600  1.0  0.1153
  H  H23  1  0.216500  0.067400  0.181800  1.0  0.1092
  H  H24  1  0.776800  0.985200  0.007400  1.0  0.11
  H  H25  1  0.504900  0.053100  0.115900  1.0  0.1105
  H  H26  1  0.361400  0.925900  0.112000  1.0  0.1133
  H  H27  1  0.411100  0.834100  0.052400  1.0  0.115
  H  H28  1  0.283500  0.567400  0.818200  1.0  0.1089
  H  H29  1  0.723200  0.485200  0.507400  1.0  0.1102
  H  H30  1  0.995100  0.553100  0.615900  1.0  0.1108
  H  H31  1  0.138600  0.425900  0.612000  1.0  0.1129
  H  H32  1  0.088900  0.334100  0.552400  1.0  0.1148
  H  H33  1  0.216500  0.067400  0.318200  1.0  0.109
  H  H34  1  0.776800  0.985200  0.492600  1.0  0.1096
  H  H35  1  0.504900  0.053100  0.384100  1.0  0.1097
  H  H36  1  0.361400  0.925900  0.388000  1.0  0.1127
  H  H37  1  0.411100  0.834100  0.447600  1.0  0.1154
  H  H38  1  0.283500  0.567400  0.681800  1.0  0.1091
  H  H39  1  0.276800  0.514800  0.007400  1.0  0.1099
  H  H40  1  0.004900  0.446900  0.115900  1.0  0.1106
  H  H41  1  0.861400  0.574100  0.112000  1.0  0.1131
  H  H42  1  0.911100  0.665900  0.052400  1.0  0.1157
  H  H43  1  0.783500  0.932600  0.818200  1.0  0.1087
  H  H44  1  0.223200  0.014800  0.992600  1.0  0.1097
  H  H45  1  0.495100  0.946900  0.884100  1.0  0.1102
  H  H46  1  0.638600  0.074100  0.888000  1.0  0.1129
  H  H47  1  0.588900  0.165900  0.947600  1.0  0.1154
  H  H48  1  0.716500  0.432600  0.181800  1.0  0.109
  H  H49  1  0.855200  0.995700  0.750000  1.0  0.1135
  H  H50  1  0.549400  0.748100  0.750000  1.0  0.1083
  H  H51  1  0.644800  0.495700  0.250000  1.0  0.1129
  H  H52  1  0.950600  0.248100  0.250000  1.0  0.1085
  H  H53  1  0.144800  0.004300  0.250000  1.0  0.113
  H  H54  1  0.450600  0.251900  0.250000  1.0  0.1082
  H  H55  1  0.355200  0.504300  0.750000  1.0  0.1137
  H  H56  1  0.049400  0.751900  0.750000  1.0  0.1086
  C  C57  1  0.131100  0.657300  0.515870  1.0  0.7398
  C  C58  1  0.098100  0.599200  0.476510  1.0  -0.1373
  C  C59  1  0.189800  0.525500  0.472440  1.0  0.0038
  C  C60  1  0.153300  0.467700  0.438700  1.0  -0.1607
  C  C61  1  0.029100  0.485300  0.406970  1.0  -0.0392
  C  C62  1  0.941400  0.560900  0.409770  1.0  -0.0946
  C  C63  1  0.973300  0.616600  0.445020  1.0  -0.0432
  C  C64  1  0.254900  0.388500  0.436550  1.0  0.6909
  C  C65  1  0.610800  0.791900  0.665640  1.0  0.6746
  C  C66  1  0.662300  0.833000  0.709040  1.0  -0.1478
  C  C67  1  0.752500  0.907800  0.709080  1.0  -0.045
  C  C68  1  0.368900  0.157300  0.484130  1.0  0.7406
  C  C69  1  0.401900  0.099200  0.523490  1.0  -0.1382
  C  C70  1  0.310200  0.025500  0.527560  1.0  0.0052
  C  C71  1  0.346700  0.967700  0.561300  1.0  -0.1602
  C  C72  1  0.470900  0.985300  0.593030  1.0  -0.0393
  C  C73  1  0.558600  0.060900  0.590230  1.0  -0.097
  C  C74  1  0.526700  0.116600  0.554980  1.0  -0.0449
  C  C75  1  0.245100  0.888500  0.563450  1.0  0.6907
  C  C76  1  0.889200  0.291900  0.334360  1.0  0.675
  C  C77  1  0.837700  0.333000  0.290960  1.0  -0.1486
  C  C78  1  0.747500  0.407800  0.290920  1.0  -0.0465
  C  C79  1  0.868900  0.342700  0.015870  1.0  0.7385
  C  C80  1  0.901900  0.400800  0.976510  1.0  -0.1386
  C  C81  1  0.810200  0.474500  0.972440  1.0  0.005
  C  C82  1  0.846700  0.532300  0.938700  1.0  -0.16
  C  C83  1  0.970900  0.514700  0.906970  1.0  -0.0388
  C  C84  1  0.058600  0.439100  0.909770  1.0  -0.0958
  C  C85  1  0.026700  0.383400  0.945020  1.0  -0.0456
  C  C86  1  0.745100  0.611500  0.936550  1.0  0.6907
  C  C87  1  0.389200  0.208100  0.165640  1.0  0.6751
  C  C88  1  0.337700  0.167000  0.209040  1.0  -0.1484
  C  C89  1  0.247500  0.092200  0.209080  1.0  -0.0459
  C  C90  1  0.631100  0.842700  0.984130  1.0  0.7393
  C  C91  1  0.598100  0.900800  0.023490  1.0  -0.1395
  C  C92  1  0.689800  0.974500  0.027560  1.0  0.0039
  C  C93  1  0.653300  0.032300  0.061300  1.0  -0.1622
  C  C94  1  0.529100  0.014700  0.093030  1.0  -0.0396
  C  C95  1  0.441400  0.939100  0.090230  1.0  -0.0983
  C  C96  1  0.473300  0.883400  0.054980  1.0  -0.0452
  C  C97  1  0.754900  0.111500  0.063450  1.0  0.6912
  C  C98  1  0.110800  0.708100  0.834360  1.0  0.6744
  C  C99  1  0.162300  0.667000  0.790960  1.0  -0.1484
  C  C100  1  0.252500  0.592200  0.790920  1.0  -0.0454
  C  C101  1  0.868900  0.342700  0.484130  1.0  0.7388
  C  C102  1  0.901900  0.400800  0.523490  1.0  -0.14
  C  C103  1  0.810200  0.474500  0.527560  1.0  0.0051
  C  C104  1  0.846700  0.532300  0.561300  1.0  -0.1605
  C  C105  1  0.970900  0.514700  0.593030  1.0  -0.0396
  C  C106  1  0.058600  0.439100  0.590230  1.0  -0.0977
  C  C107  1  0.026700  0.383400  0.554980  1.0  -0.0462
  C  C108  1  0.745100  0.611500  0.563450  1.0  0.6909
  C  C109  1  0.389200  0.208100  0.334360  1.0  0.675
  C  C110  1  0.337700  0.167000  0.290960  1.0  -0.1491
  C  C111  1  0.247500  0.092200  0.290920  1.0  -0.0452
  C  C112  1  0.631100  0.842700  0.515870  1.0  0.7393
  C  C113  1  0.598100  0.900800  0.476510  1.0  -0.1376
  C  C114  1  0.689800  0.974500  0.472440  1.0  0.0041
  C  C115  1  0.653300  0.032300  0.438700  1.0  -0.1602
  C  C116  1  0.529100  0.014700  0.406970  1.0  -0.0385
  C  C117  1  0.441400  0.939100  0.409770  1.0  -0.0952
  C  C118  1  0.473300  0.883400  0.445020  1.0  -0.0439
  C  C119  1  0.754900  0.111500  0.436550  1.0  0.691
  C  C120  1  0.110800  0.708100  0.665640  1.0  0.6747
  C  C121  1  0.162300  0.667000  0.709040  1.0  -0.1479
  C  C122  1  0.252500  0.592200  0.709080  1.0  -0.0464
  C  C123  1  0.131100  0.657300  0.984130  1.0  0.74
  C  C124  1  0.098100  0.599200  0.023490  1.0  -0.1377
  C  C125  1  0.189800  0.525500  0.027560  1.0  0.0037
  C  C126  1  0.153300  0.467700  0.061300  1.0  -0.1612
  C  C127  1  0.029100  0.485300  0.093030  1.0  -0.0393
  C  C128  1  0.941400  0.560900  0.090230  1.0  -0.0981
  C  C129  1  0.973300  0.616600  0.054980  1.0  -0.0457
  C  C130  1  0.254900  0.388500  0.063450  1.0  0.6911
  C  C131  1  0.610800  0.791900  0.834360  1.0  0.6745
  C  C132  1  0.662300  0.833000  0.790960  1.0  -0.1481
  C  C133  1  0.752500  0.907800  0.790920  1.0  -0.0461
  C  C134  1  0.368900  0.157300  0.015870  1.0  0.7401
  C  C135  1  0.401900  0.099200  0.976510  1.0  -0.1381
  C  C136  1  0.310200  0.025500  0.972440  1.0  0.0051
  C  C137  1  0.346700  0.967700  0.938700  1.0  -0.1614
  C  C138  1  0.470900  0.985300  0.906970  1.0  -0.0395
  C  C139  1  0.558600  0.060900  0.909770  1.0  -0.0953
  C  C140  1  0.526700  0.116600  0.945020  1.0  -0.0433
  C  C141  1  0.245100  0.888500  0.936550  1.0  0.6906
  C  C142  1  0.889200  0.291900  0.165640  1.0  0.6749
  C  C143  1  0.837700  0.333000  0.209040  1.0  -0.1482
  C  C144  1  0.747500  0.407800  0.209080  1.0  -0.0461
  C  C145  1  0.796300  0.945300  0.750000  1.0  -0.082
  C  C146  1  0.614100  0.796800  0.750000  1.0  0.0278
  C  C147  1  0.703700  0.445300  0.250000  1.0  -0.0837
  C  C148  1  0.885900  0.296800  0.250000  1.0  0.0281
  C  C149  1  0.203700  0.054700  0.250000  1.0  -0.0859
  C  C150  1  0.385900  0.203200  0.250000  1.0  0.028
  C  C151  1  0.296300  0.554700  0.750000  1.0  -0.0862
  C  C152  1  0.114100  0.703200  0.750000  1.0  0.0274
  O  O153  1  0.270000  0.649550  0.535440  1.0  -0.7067
  O  O154  1  0.018400  0.708490  0.526650  1.0  -0.6987
  O  O155  1  0.224000  0.333020  0.406250  1.0  -0.8154
  O  O156  1  0.672400  0.816700  0.627960  1.0  -0.7348
  O  O157  1  0.376200  0.381050  0.462860  1.0  -0.651
  O  O158  1  0.503000  0.734470  0.667080  1.0  -0.6145
  O  O159  1  0.230000  0.149550  0.464560  1.0  -0.7065
  O  O160  1  0.481600  0.208490  0.473350  1.0  -0.6981
  O  O161  1  0.276000  0.833020  0.593750  1.0  -0.816
  O  O162  1  0.827600  0.316700  0.372040  1.0  -0.7341
  O  O163  1  0.123800  0.881050  0.537140  1.0  -0.65
  O  O164  1  0.997000  0.234470  0.332920  1.0  -0.614
  O  O165  1  0.730000  0.350450  0.035440  1.0  -0.7056
  O  O166  1  0.981600  0.291510  0.026650  1.0  -0.6986
  O  O167  1  0.776000  0.666980  0.906250  1.0  -0.8161
  O  O168  1  0.327600  0.183300  0.127960  1.0  -0.7347
  O  O169  1  0.623800  0.618950  0.962860  1.0  -0.6498
  O  O170  1  0.497000  0.265530  0.167080  1.0  -0.6152
  O  O171  1  0.770000  0.850450  0.964560  1.0  -0.7066
  O  O172  1  0.518400  0.791510  0.973350  1.0  -0.6993
  O  O173  1  0.724000  0.166980  0.093750  1.0  -0.8148
  O  O174  1  0.172400  0.683300  0.872040  1.0  -0.7338
  O  O175  1  0.876200  0.118950  0.037140  1.0  -0.6508
  O  O176  1  0.003000  0.765530  0.832920  1.0  -0.6146
  O  O177  1  0.730000  0.350450  0.464560  1.0  -0.7068
  O  O178  1  0.981600  0.291510  0.473350  1.0  -0.6986
  O  O179  1  0.776000  0.666980  0.593750  1.0  -0.8157
  O  O180  1  0.327600  0.183300  0.372040  1.0  -0.7338
  O  O181  1  0.623800  0.618950  0.537140  1.0  -0.6503
  O  O182  1  0.497000  0.265530  0.332920  1.0  -0.6152
  O  O183  1  0.770000  0.850450  0.535440  1.0  -0.7071
  O  O184  1  0.518400  0.791510  0.526650  1.0  -0.6997
  O  O185  1  0.724000  0.166980  0.406250  1.0  -0.8155
  O  O186  1  0.172400  0.683300  0.627960  1.0  -0.7349
  O  O187  1  0.876200  0.118950  0.462860  1.0  -0.6508
  O  O188  1  0.003000  0.765530  0.667080  1.0  -0.6146
  O  O189  1  0.270000  0.649550  0.964560  1.0  -0.7067
  O  O190  1  0.018400  0.708490  0.973350  1.0  -0.6987
  O  O191  1  0.224000  0.333020  0.093750  1.0  -0.8149
  O  O192  1  0.672400  0.816700  0.872040  1.0  -0.7341
  O  O193  1  0.376200  0.381050  0.037140  1.0  -0.6505
  O  O194  1  0.503000  0.734470  0.832920  1.0  -0.6146
  O  O195  1  0.230000  0.149550  0.035440  1.0  -0.7058
  O  O196  1  0.481600  0.208490  0.026650  1.0  -0.6981
  O  O197  1  0.276000  0.833020  0.906250  1.0  -0.8162
  O  O198  1  0.827600  0.316700  0.127960  1.0  -0.7346
  O  O199  1  0.123800  0.881050  0.962860  1.0  -0.6503
  O  O200  1  0.997000  0.234470  0.167080  1.0  -0.6139
