# generated using pymatgen
data_CuH10C17N5O4
_symmetry_space_group_name_H-M   'P 1'
_cell_length_a   7.68600000
_cell_length_b   9.24300000
_cell_length_c   12.56000000
_cell_angle_alpha   95.27000000
_cell_angle_beta   98.43000000
_cell_angle_gamma   101.91000000
_symmetry_Int_Tables_number   1
_chemical_formula_structural   CuH10C17N5O4
_chemical_formula_sum   'Cu2 H20 C34 N10 O8'
_cell_volume   856.74270097
_cell_formula_units_Z   2
loop_
 _symmetry_equiv_pos_site_id
 _symmetry_equiv_pos_as_xyz
  1  'x, y, z'
loop_
 _atom_site_type_symbol
 _atom_site_label
 _atom_site_symmetry_multiplicity
 _atom_site_fract_x
 _atom_site_fract_y
 _atom_site_fract_z
 _atom_site_occupancy
 _atom_site_charge
  Cu  Cu1  1  0.354050  0.101350  0.053980  1.0  0.8251
  Cu  Cu2  1  0.645950  0.898650  0.946020  1.0  0.8239
  H  H3  1  0.285900  0.569800  0.102600  1.0  0.103
  H  H4  1  0.618300  0.257200  0.230000  1.0  0.0819
  H  H5  1  0.774000  0.235400  0.394500  1.0  0.1364
  H  H6  1  0.497200  0.810600  0.363800  1.0  0.1386
  H  H7  1  0.350100  0.844700  0.199600  1.0  0.0772
  H  H8  1  0.106900  0.349800  0.676300  1.0  0.1253
  H  H9  1  0.320900  0.487700  0.817300  1.0  0.1223
  H  H10  1  0.411000  0.377000  0.964500  1.0  0.0847
  H  H11  1  0.084500  0.995800  0.840100  1.0  0.0928
  H  H12  1  0.853800  0.867900  0.694700  1.0  0.2818
  H  H13  1  0.714100  0.430200  0.897400  1.0  0.1024
  H  H14  1  0.381700  0.742800  0.770000  1.0  0.0817
  H  H15  1  0.226000  0.764600  0.605500  1.0  0.1371
  H  H16  1  0.502800  0.189400  0.636200  1.0  0.1381
  H  H17  1  0.649900  0.155300  0.800400  1.0  0.0767
  H  H18  1  0.893100  0.650200  0.323700  1.0  0.1255
  H  H19  1  0.679100  0.512300  0.182700  1.0  0.1223
  H  H20  1  0.589000  0.623000  0.035500  1.0  0.0843
  H  H21  1  0.915500  0.004200  0.159900  1.0  0.0934
  H  H22  1  0.146200  0.132100  0.305300  1.0  0.2819
  C  C23  1  0.130900  0.305900  0.148400  1.0  0.6816
  C  C24  1  0.060700  0.403800  0.070000  1.0  -0.0937
  C  C25  1  0.170800  0.541800  0.061300  1.0  -0.0693
  C  C26  1  0.112100  0.637800  0.992400  1.0  -0.0826
  C  C27  1  0.239600  0.785600  0.989600  1.0  0.659
  C  C28  1  0.594800  0.166000  0.256900  1.0  0.1738
  C  C29  1  0.689000  0.153900  0.356100  1.0  -0.1414
  C  C30  1  0.656700  0.019000  0.398900  1.0  0.0614
  C  C31  1  0.525200  0.902200  0.337900  1.0  -0.1617
  C  C32  1  0.437300  0.923800  0.239200  1.0  0.167
  C  C33  1  0.758600  0.006100  0.504400  1.0  0.3296
  C  C34  1  0.939800  0.068700  0.652100  1.0  0.2866
  C  C35  1  0.073000  0.157100  0.743500  1.0  -0.1266
  C  C36  1  0.144700  0.306000  0.736800  1.0  -0.0062
  C  C37  1  0.271600  0.387700  0.820300  1.0  -0.1534
  C  C38  1  0.325100  0.320400  0.908000  1.0  0.1561
  C  C39  1  0.132800  0.095300  0.835000  1.0  0.1691
  C  C40  1  0.869100  0.694100  0.851600  1.0  0.6829
  C  C41  1  0.939300  0.596200  0.930000  1.0  -0.0937
  C  C42  1  0.829200  0.458200  0.938700  1.0  -0.0689
  C  C43  1  0.887900  0.362200  0.007600  1.0  -0.0829
  C  C44  1  0.760400  0.214400  0.010400  1.0  0.6595
  C  C45  1  0.405200  0.834000  0.743100  1.0  0.1745
  C  C46  1  0.311000  0.846100  0.643900  1.0  -0.1412
  C  C47  1  0.343300  0.981000  0.601100  1.0  0.0621
  C  C48  1  0.474800  0.097800  0.662100  1.0  -0.1634
  C  C49  1  0.562700  0.076200  0.760800  1.0  0.167
  C  C50  1  0.241400  0.993900  0.495600  1.0  0.3286
  C  C51  1  0.060200  0.931300  0.347900  1.0  0.2877
  C  C52  1  0.927000  0.842900  0.256500  1.0  -0.1266
  C  C53  1  0.855300  0.694000  0.263200  1.0  -0.006
  C  C54  1  0.728400  0.612300  0.179700  1.0  -0.1535
  C  C55  1  0.674900  0.679600  0.092000  1.0  0.1572
  C  C56  1  0.867200  0.904700  0.165000  1.0  0.1699
  N  N57  1  0.470900  0.053600  0.196800  1.0  -0.3407
  N  N58  1  0.875800  0.125500  0.565300  1.0  -0.4875
  N  N59  1  0.746600  0.878800  0.548500  1.0  -0.352
  N  N60  1  0.864100  0.921900  0.643800  1.0  -0.0576
  N  N61  1  0.258900  0.175900  0.916300  1.0  -0.3201
  N  N62  1  0.529100  0.946400  0.803200  1.0  -0.3388
  N  N63  1  0.124200  0.874500  0.434700  1.0  -0.486
  N  N64  1  0.253400  0.121200  0.451500  1.0  -0.3535
  N  N65  1  0.135900  0.078100  0.356200  1.0  -0.0594
  N  N66  1  0.741100  0.824100  0.083700  1.0  -0.3198
  O  O67  1  0.286700  0.283400  0.144100  1.0  -0.6227
  O  O68  1  0.031100  0.257400  0.212600  1.0  -0.5828
  O  O69  1  0.390700  0.779100  0.967200  1.0  -0.5926
  O  O70  1  0.186800  0.903600  0.016300  1.0  -0.5621
  O  O71  1  0.713300  0.716600  0.855900  1.0  -0.6231
  O  O72  1  0.968900  0.742600  0.787400  1.0  -0.5847
  O  O73  1  0.609300  0.220900  0.032800  1.0  -0.5939
  O  O74  1  0.813200  0.096400  0.983700  1.0  -0.5616
