# generated using pymatgen
data_CsDyMoH4C9N8O
_symmetry_space_group_name_H-M   'P 1'
_cell_length_a   9.87600000
_cell_length_b   10.30000000
_cell_length_c   13.49800000
_cell_angle_alpha   81.96000000
_cell_angle_beta   86.68000000
_cell_angle_gamma   65.42000000
_symmetry_Int_Tables_number   1
_chemical_formula_structural   CsDyMoH4C9N8O
_chemical_formula_sum   'Cs2 Dy2 Mo2 H8 C18 N16 O2'
_cell_volume   1236.35678506
_cell_formula_units_Z   2
loop_
 _symmetry_equiv_pos_site_id
 _symmetry_equiv_pos_as_xyz
  1  'x, y, z'
loop_
 _atom_site_type_symbol
 _atom_site_label
 _atom_site_symmetry_multiplicity
 _atom_site_fract_x
 _atom_site_fract_y
 _atom_site_fract_z
 _atom_site_occupancy
 _atom_site_charge
  Cs  Cs1  1  0.149320  0.550080  0.384070  1.0  0.8969
  Cs  Cs2  1  0.850680  0.449920  0.615930  1.0  0.8964
  Dy  Dy3  1  0.333770  0.217800  0.183200  1.0  2.0314
  Dy  Dy4  1  0.666230  0.782200  0.816800  1.0  2.0298
  Mo  Mo5  1  0.255800  0.375200  0.760290  1.0  -0.1618
  Mo  Mo6  1  0.744200  0.624800  0.239710  1.0  -0.159
  H  H7  1  0.453600  0.423000  0.201700  1.0  0.1339
  H  H8  1  0.358300  0.531500  0.045100  1.0  0.1263
  H  H9  1  0.327900  0.639500  0.123300  1.0  0.1244
  H  H10  1  0.200400  0.599100  0.093900  1.0  0.1332
  H  H11  1  0.546400  0.577000  0.798300  1.0  0.1329
  H  H12  1  0.641700  0.468500  0.954900  1.0  0.126
  H  H13  1  0.672100  0.360500  0.876700  1.0  0.1229
  H  H14  1  0.799600  0.400900  0.906100  1.0  0.1326
  C  C15  1  0.154900  0.561800  0.649300  1.0  0.1654
  C  C16  1  0.254200  0.298200  0.618100  1.0  0.1764
  C  C17  1  0.457800  0.383500  0.695500  1.0  0.2005
  C  C18  1  0.427600  0.158200  0.780900  1.0  0.2052
  C  C19  1  0.296500  0.538700  0.820500  1.0  0.1789
  C  C20  1  0.281400  0.312200  0.919700  1.0  0.1726
  C  C21  1  0.037100  0.509400  0.809700  1.0  0.0968
  C  C22  1  0.127200  0.247600  0.785700  1.0  0.1678
  C  C23  1  0.305500  0.563700  0.105100  1.0  -0.0289
  C  C24  1  0.845100  0.438200  0.350700  1.0  0.1637
  C  C25  1  0.745800  0.701800  0.381900  1.0  0.175
  C  C26  1  0.542200  0.616500  0.304500  1.0  0.1984
  C  C27  1  0.572400  0.841800  0.219100  1.0  0.2045
  C  C28  1  0.703500  0.461300  0.179500  1.0  0.1803
  C  C29  1  0.718600  0.687800  0.080300  1.0  0.1724
  C  C30  1  0.962900  0.490600  0.190300  1.0  0.0969
  C  C31  1  0.872800  0.752400  0.214300  1.0  0.1662
  C  C32  1  0.694500  0.436300  0.894900  1.0  -0.0299
  N  N33  1  0.094300  0.660900  0.592800  1.0  -0.493
  N  N34  1  0.251300  0.261400  0.542200  1.0  -0.4844
  N  N35  1  0.567300  0.389800  0.666400  1.0  -0.4954
  N  N36  1  0.517400  0.042000  0.791000  1.0  -0.5834
  N  N37  1  0.322300  0.626400  0.849000  1.0  -0.4571
  N  N38  1  0.293400  0.280800  0.004000  1.0  -0.4292
  N  N39  1  0.917600  0.586800  0.828100  1.0  -0.49
  N  N40  1  0.054900  0.183200  0.795700  1.0  -0.4844
  N  N41  1  0.905700  0.339100  0.407200  1.0  -0.4923
  N  N42  1  0.748700  0.738600  0.457800  1.0  -0.4848
  N  N43  1  0.432700  0.610200  0.333600  1.0  -0.4952
  N  N44  1  0.482600  0.958000  0.209000  1.0  -0.582
  N  N45  1  0.677700  0.373600  0.151000  1.0  -0.4575
  N  N46  1  0.706600  0.719200  0.996000  1.0  -0.4304
  N  N47  1  0.082400  0.413200  0.171900  1.0  -0.4879
  N  N48  1  0.945100  0.816800  0.204300  1.0  -0.4878
  O  O49  1  0.350400  0.445200  0.184900  1.0  -0.6964
  O  O50  1  0.649600  0.554800  0.815100  1.0  -0.6972
