# generated using pymatgen
data_CoH11C10(NO2)2
_symmetry_space_group_name_H-M   'P 1'
_cell_length_a   6.56340000
_cell_length_b   25.33430000
_cell_length_c   7.84000000
_cell_angle_alpha   90.00000000
_cell_angle_beta   90.71800000
_cell_angle_gamma   90.00000000
_symmetry_Int_Tables_number   1
_chemical_formula_structural   CoH11C10(NO2)2
_chemical_formula_sum   'Co4 H44 C40 N8 O16'
_cell_volume   1303.52613582
_cell_formula_units_Z   4
loop_
 _symmetry_equiv_pos_site_id
 _symmetry_equiv_pos_as_xyz
  1  'x, y, z'
loop_
 _atom_site_type_symbol
 _atom_site_label
 _atom_site_symmetry_multiplicity
 _atom_site_fract_x
 _atom_site_fract_y
 _atom_site_fract_z
 _atom_site_occupancy
 _atom_site_charge
  Co  Co1  1  0.123490  0.214130  0.942530  1.0  0.9815
  Co  Co2  1  0.376510  0.714130  0.557470  1.0  0.9817
  Co  Co3  1  0.876510  0.785870  0.057470  1.0  0.9823
  Co  Co4  1  0.623490  0.285870  0.442530  1.0  0.9821
  H  H5  1  0.131500  0.352600  0.775300  1.0  0.068
  H  H6  1  0.303600  0.302800  0.003900  1.0  0.2773
  H  H7  1  0.350600  0.288400  0.823500  1.0  0.2861
  H  H8  1  0.838900  0.363400  0.948500  1.0  0.137
  H  H9  1  0.047100  0.370600  0.052800  1.0  0.1237
  H  H10  1  0.697700  0.173600  0.864900  1.0  0.0741
  H  H11  1  0.486400  0.101600  0.900200  1.0  0.1185
  H  H12  1  0.944200  0.029500  0.158200  1.0  0.1257
  H  H13  1  0.148400  0.102300  0.106600  1.0  0.0797
  H  H14  1  0.624300  0.984200  0.138400  1.0  0.0886
  H  H15  1  0.438700  0.024800  0.151500  1.0  0.1035
  H  H16  1  0.368500  0.852600  0.724700  1.0  0.068
  H  H17  1  0.196400  0.802800  0.496100  1.0  0.2787
  H  H18  1  0.149400  0.788400  0.676500  1.0  0.2872
  H  H19  1  0.661100  0.863400  0.551500  1.0  0.1368
  H  H20  1  0.452900  0.870600  0.447200  1.0  0.1245
  H  H21  1  0.802300  0.673600  0.635100  1.0  0.0742
  H  H22  1  0.013600  0.601600  0.599800  1.0  0.1189
  H  H23  1  0.555800  0.529500  0.341800  1.0  0.1256
  H  H24  1  0.351600  0.602300  0.393400  1.0  0.0795
  H  H25  1  0.875700  0.484200  0.361600  1.0  0.0866
  H  H26  1  0.061300  0.524800  0.348500  1.0  0.1028
  H  H27  1  0.868500  0.647400  0.224700  1.0  0.0682
  H  H28  1  0.696400  0.697200  0.996100  1.0  0.2781
  H  H29  1  0.649400  0.711600  0.176500  1.0  0.2873
  H  H30  1  0.161100  0.636600  0.051500  1.0  0.1358
  H  H31  1  0.952900  0.629400  0.947200  1.0  0.1237
  H  H32  1  0.302300  0.826400  0.135100  1.0  0.074
  H  H33  1  0.513600  0.898400  0.099800  1.0  0.1191
  H  H34  1  0.055800  0.970500  0.841800  1.0  0.1255
  H  H35  1  0.851600  0.897700  0.893400  1.0  0.0793
  H  H36  1  0.375700  0.015800  0.861600  1.0  0.0874
  H  H37  1  0.561300  0.975200  0.848500  1.0  0.1028
  H  H38  1  0.631500  0.147400  0.275300  1.0  0.068
  H  H39  1  0.803600  0.197200  0.503900  1.0  0.2769
  H  H40  1  0.850600  0.211600  0.323500  1.0  0.2861
  H  H41  1  0.338900  0.136600  0.448500  1.0  0.1377
  H  H42  1  0.547100  0.129400  0.552800  1.0  0.1235
  H  H43  1  0.197700  0.326400  0.364900  1.0  0.0739
  H  H44  1  0.986400  0.398400  0.400200  1.0  0.1189
  H  H45  1  0.444200  0.470500  0.658200  1.0  0.1256
  H  H46  1  0.648400  0.397700  0.606600  1.0  0.0792
  H  H47  1  0.124300  0.515800  0.638400  1.0  0.0876
  H  H48  1  0.938700  0.475200  0.651500  1.0  0.1036
  C  C49  1  0.932400  0.289530  0.728500  1.0  0.6479
  C  C50  1  0.077000  0.322410  0.843300  1.0  0.0596
  C  C51  1  0.959400  0.344300  0.994000  1.0  -0.3701
  C  C52  1  0.886000  0.304790  0.127300  1.0  0.7139
  C  C53  1  0.749200  0.143610  0.924000  1.0  0.1685
  C  C54  1  0.621000  0.101040  0.946000  1.0  -0.2105
  C  C55  1  0.691100  0.057430  0.035700  1.0  0.1185
  C  C56  1  0.890400  0.058640  0.096100  1.0  -0.2068
  C  C57  1  0.011400  0.102480  0.065800  1.0  0.1719
  C  C58  1  0.547200  0.011800  0.075700  1.0  -0.2132
  C  C59  1  0.567600  0.789530  0.771500  1.0  0.6474
  C  C60  1  0.423000  0.822410  0.656700  1.0  0.059
  C  C61  1  0.540600  0.844300  0.506000  1.0  -0.3691
  C  C62  1  0.614000  0.804790  0.372700  1.0  0.7128
  C  C63  1  0.750800  0.643610  0.576000  1.0  0.1689
  C  C64  1  0.879000  0.601040  0.554000  1.0  -0.2111
  C  C65  1  0.808900  0.557430  0.464300  1.0  0.1189
  C  C66  1  0.609600  0.558640  0.403900  1.0  -0.2057
  C  C67  1  0.488600  0.602480  0.434200  1.0  0.1728
  C  C68  1  0.952800  0.511800  0.424300  1.0  -0.2096
  C  C69  1  0.067600  0.710470  0.271500  1.0  0.6478
  C  C70  1  0.923000  0.677590  0.156700  1.0  0.06
  C  C71  1  0.040600  0.655700  0.006000  1.0  -0.3702
  C  C72  1  0.114000  0.695210  0.872700  1.0  0.7181
  C  C73  1  0.250800  0.856390  0.076000  1.0  0.1681
  C  C74  1  0.379000  0.898960  0.054000  1.0  -0.2114
  C  C75  1  0.308900  0.942570  0.964300  1.0  0.1185
  C  C76  1  0.109600  0.941360  0.903900  1.0  -0.2058
  C  C77  1  0.988600  0.897520  0.934200  1.0  0.1728
  C  C78  1  0.452800  0.988200  0.924300  1.0  -0.2097
  C  C79  1  0.432400  0.210470  0.228500  1.0  0.6481
  C  C80  1  0.577000  0.177590  0.343300  1.0  0.0597
  C  C81  1  0.459400  0.155700  0.494000  1.0  -0.3702
  C  C82  1  0.386000  0.195210  0.627300  1.0  0.7189
  C  C83  1  0.249200  0.356390  0.424000  1.0  0.1684
  C  C84  1  0.121000  0.398960  0.446000  1.0  -0.2109
  C  C85  1  0.191100  0.442570  0.535700  1.0  0.1176
  C  C86  1  0.390400  0.441360  0.596100  1.0  -0.2066
  C  C87  1  0.511400  0.397520  0.565800  1.0  0.1721
  C  C88  1  0.047200  0.488200  0.575700  1.0  -0.2118
  N  N89  1  0.249600  0.289620  0.903800  1.0  -0.6765
  N  N90  1  0.942700  0.145030  0.981400  1.0  -0.3461
  N  N91  1  0.250400  0.789620  0.596200  1.0  -0.6749
  N  N92  1  0.557300  0.645030  0.518600  1.0  -0.3489
  N  N93  1  0.750400  0.710380  0.096200  1.0  -0.6736
  N  N94  1  0.057300  0.854970  0.018600  1.0  -0.3489
  N  N95  1  0.749600  0.210380  0.403800  1.0  -0.6741
  N  N96  1  0.442700  0.354970  0.481400  1.0  -0.3456
  O  O97  1  0.935400  0.240350  0.744600  1.0  -0.5547
  O  O98  1  0.319200  0.184830  0.127300  1.0  -0.6054
  O  O99  1  0.926600  0.256280  0.113700  1.0  -0.578
  O  O100  1  0.787400  0.325310  0.247000  1.0  -0.5868
  O  O101  1  0.564600  0.740350  0.755400  1.0  -0.5553
  O  O102  1  0.180800  0.684830  0.372700  1.0  -0.6063
  O  O103  1  0.573400  0.756280  0.386300  1.0  -0.5781
  O  O104  1  0.712600  0.825310  0.253000  1.0  -0.5865
  O  O105  1  0.064600  0.759650  0.255400  1.0  -0.5558
  O  O106  1  0.680800  0.815170  0.872700  1.0  -0.6065
  O  O107  1  0.073400  0.743720  0.886300  1.0  -0.5776
  O  O108  1  0.212600  0.674690  0.753000  1.0  -0.5869
  O  O109  1  0.435400  0.259650  0.244600  1.0  -0.5549
  O  O110  1  0.819200  0.315170  0.627300  1.0  -0.6054
  O  O111  1  0.426600  0.243720  0.613700  1.0  -0.5778
  O  O112  1  0.287400  0.174690  0.747000  1.0  -0.5874
