# generated using pymatgen
data_CoH9C9(NO2)2
_symmetry_space_group_name_H-M   'P 1'
_cell_length_a   6.94330000
_cell_length_b   22.19230000
_cell_length_c   7.73020000
_cell_angle_alpha   90.00000000
_cell_angle_beta   90.00000000
_cell_angle_gamma   90.00000000
_symmetry_Int_Tables_number   1
_chemical_formula_structural   CoH9C9(NO2)2
_chemical_formula_sum   'Co4 H36 C36 N8 O16'
_cell_volume   1191.12948520
_cell_formula_units_Z   4
loop_
 _symmetry_equiv_pos_site_id
 _symmetry_equiv_pos_as_xyz
  1  'x, y, z'
loop_
 _atom_site_type_symbol
 _atom_site_label
 _atom_site_symmetry_multiplicity
 _atom_site_fract_x
 _atom_site_fract_y
 _atom_site_fract_z
 _atom_site_occupancy
 _atom_site_charge
  Co  Co1  1  0.546940  0.712530  0.242240  1.0  0.9774
  Co  Co2  1  0.453060  0.287470  0.242240  1.0  0.9763
  Co  Co3  1  0.046940  0.787470  0.757760  1.0  0.9771
  Co  Co4  1  0.953060  0.212530  0.757760  1.0  0.9771
  H  H5  1  0.649300  0.885600  0.389500  1.0  0.1274
  H  H6  1  0.843300  0.877500  0.281600  1.0  0.1465
  H  H7  1  0.563900  0.874600  0.106300  1.0  0.0719
  H  H8  1  0.344100  0.803900  0.143400  1.0  0.3112
  H  H9  1  0.397100  0.814800  0.328400  1.0  0.3037
  H  H10  1  0.961900  0.671900  0.273600  1.0  0.085
  H  H11  1  0.151000  0.586100  0.297400  1.0  0.1351
  H  H12  1  0.683800  0.491400  0.121300  1.0  0.1193
  H  H13  1  0.515500  0.578300  0.128900  1.0  0.0658
  H  H14  1  0.350700  0.114400  0.389500  1.0  0.1268
  H  H15  1  0.156700  0.122500  0.281600  1.0  0.1466
  H  H16  1  0.436100  0.125400  0.106300  1.0  0.072
  H  H17  1  0.655900  0.196100  0.143400  1.0  0.3118
  H  H18  1  0.602900  0.185200  0.328400  1.0  0.3041
  H  H19  1  0.038100  0.328100  0.273600  1.0  0.0855
  H  H20  1  0.849000  0.413900  0.297400  1.0  0.1354
  H  H21  1  0.316200  0.508600  0.121300  1.0  0.12
  H  H22  1  0.484500  0.421700  0.128900  1.0  0.0677
  H  H23  1  0.149300  0.614400  0.610500  1.0  0.1265
  H  H24  1  0.343300  0.622500  0.718400  1.0  0.1459
  H  H25  1  0.063900  0.625400  0.893700  1.0  0.0719
  H  H26  1  0.844100  0.696100  0.856600  1.0  0.312
  H  H27  1  0.897100  0.685200  0.671600  1.0  0.3055
  H  H28  1  0.461900  0.828100  0.726400  1.0  0.0858
  H  H29  1  0.651000  0.913900  0.702600  1.0  0.1353
  H  H30  1  0.183800  0.008600  0.878700  1.0  0.1201
  H  H31  1  0.015500  0.921700  0.871100  1.0  0.0657
  H  H32  1  0.850700  0.385600  0.610500  1.0  0.126
  H  H33  1  0.656700  0.377500  0.718400  1.0  0.1455
  H  H34  1  0.936100  0.374600  0.893700  1.0  0.0719
  H  H35  1  0.155900  0.303900  0.856600  1.0  0.3125
  H  H36  1  0.102900  0.314800  0.671600  1.0  0.3056
  H  H37  1  0.538100  0.171900  0.726400  1.0  0.0853
  H  H38  1  0.349000  0.086100  0.702600  1.0  0.1339
  H  H39  1  0.816200  0.991400  0.878700  1.0  0.1201
  H  H40  1  0.984500  0.078300  0.871100  1.0  0.0676
  C  C41  1  0.790000  0.805700  0.446300  1.0  0.7445
  C  C42  1  0.726500  0.856250  0.322600  1.0  -0.3934
  C  C43  1  0.611000  0.837610  0.166600  1.0  0.0737
  C  C44  1  0.735400  0.801120  0.040700  1.0  0.6255
  C  C45  1  0.022100  0.583570  0.257000  1.0  -0.2168
  C  C46  1  0.942000  0.527500  0.200300  1.0  0.0908
  C  C47  1  0.745800  0.527600  0.156100  1.0  -0.2277
  C  C48  1  0.646700  0.579700  0.163500  1.0  0.187
  C  C49  1  0.905000  0.633830  0.250700  1.0  0.1574
  C  C50  1  0.210000  0.194300  0.446300  1.0  0.7453
  C  C51  1  0.273500  0.143750  0.322600  1.0  -0.3916
  C  C52  1  0.389000  0.162390  0.166600  1.0  0.0725
  C  C53  1  0.264600  0.198880  0.040700  1.0  0.6254
  C  C54  1  0.977900  0.416430  0.257000  1.0  -0.2155
  C  C55  1  0.058000  0.472500  0.200300  1.0  0.0916
  C  C56  1  0.254200  0.472400  0.156100  1.0  -0.2262
  C  C57  1  0.353300  0.420300  0.163500  1.0  0.1852
  C  C58  1  0.095000  0.366170  0.250700  1.0  0.1563
  C  C59  1  0.290000  0.694300  0.553700  1.0  0.7444
  C  C60  1  0.226500  0.643750  0.677400  1.0  -0.3945
  C  C61  1  0.111000  0.662390  0.833400  1.0  0.0732
  C  C62  1  0.235400  0.698880  0.959300  1.0  0.6267
  C  C63  1  0.522100  0.916430  0.743000  1.0  -0.2152
  C  C64  1  0.442000  0.972500  0.799700  1.0  0.0914
  C  C65  1  0.245800  0.972400  0.843900  1.0  -0.2282
  C  C66  1  0.146700  0.920300  0.836500  1.0  0.1859
  C  C67  1  0.405000  0.866170  0.749300  1.0  0.1573
  C  C68  1  0.710000  0.305700  0.553700  1.0  0.7449
  C  C69  1  0.773500  0.356250  0.677400  1.0  -0.3914
  C  C70  1  0.889000  0.337610  0.833400  1.0  0.0731
  C  C71  1  0.764600  0.301120  0.959300  1.0  0.6268
  C  C72  1  0.477900  0.083570  0.743000  1.0  -0.2153
  C  C73  1  0.558000  0.027500  0.799700  1.0  0.0912
  C  C74  1  0.754200  0.027600  0.843900  1.0  -0.2267
  C  C75  1  0.853300  0.079700  0.836500  1.0  0.185
  C  C76  1  0.595000  0.133830  0.749300  1.0  0.1575
  N  N77  1  0.442100  0.801520  0.223200  1.0  -0.6847
  N  N78  1  0.713000  0.632200  0.213500  1.0  -0.3295
  N  N79  1  0.557900  0.198480  0.223200  1.0  -0.6834
  N  N80  1  0.287000  0.367800  0.213500  1.0  -0.3277
  N  N81  1  0.942100  0.698480  0.776800  1.0  -0.6837
  N  N82  1  0.213000  0.867800  0.786500  1.0  -0.3287
  N  N83  1  0.057900  0.301520  0.776800  1.0  -0.6853
  N  N84  1  0.787000  0.132200  0.786500  1.0  -0.3286
  O  O85  1  0.752500  0.751680  0.420700  1.0  -0.5986
  O  O86  1  0.884700  0.825770  0.571500  1.0  -0.6142
  O  O87  1  0.709300  0.744960  0.039900  1.0  -0.5748
  O  O88  1  0.851800  0.828860  0.944700  1.0  -0.5875
  O  O89  1  0.247500  0.248320  0.420700  1.0  -0.5988
  O  O90  1  0.115300  0.174230  0.571500  1.0  -0.6134
  O  O91  1  0.290700  0.255040  0.039900  1.0  -0.5753
  O  O92  1  0.148200  0.171140  0.944700  1.0  -0.5872
  O  O93  1  0.252500  0.748320  0.579300  1.0  -0.5984
  O  O94  1  0.384700  0.674230  0.428500  1.0  -0.6158
  O  O95  1  0.209300  0.755040  0.960100  1.0  -0.5747
  O  O96  1  0.351800  0.671140  0.055300  1.0  -0.5878
  O  O97  1  0.747500  0.251680  0.579300  1.0  -0.5986
  O  O98  1  0.615300  0.325770  0.428500  1.0  -0.6147
  O  O99  1  0.790700  0.244960  0.960100  1.0  -0.5736
  O  O100  1  0.648200  0.328860  0.055300  1.0  -0.5863
