# generated using pymatgen
data_Cu2H15C16NO11
_symmetry_space_group_name_H-M   'P 1'
_cell_length_a   18.74400000
_cell_length_b   15.69430000
_cell_length_c   21.52900000
_cell_angle_alpha   90.00000000
_cell_angle_beta   112.25100000
_cell_angle_gamma   90.00000000
_symmetry_Int_Tables_number   1
_chemical_formula_structural   Cu2H15C16NO11
_chemical_formula_sum   'Cu16 H120 C128 N8 O88'
_cell_volume   5861.65713320
_cell_formula_units_Z   8
loop_
 _symmetry_equiv_pos_site_id
 _symmetry_equiv_pos_as_xyz
  1  'x, y, z'
loop_
 _atom_site_type_symbol
 _atom_site_label
 _atom_site_symmetry_multiplicity
 _atom_site_fract_x
 _atom_site_fract_y
 _atom_site_fract_z
 _atom_site_occupancy
 _atom_site_charge
  Cu  Cu1  1  0.242030  0.266800  0.331560  1.0  0.8539
  Cu  Cu2  1  0.243330  0.278070  0.194580  1.0  0.9188
  Cu  Cu3  1  0.415200  0.237860  0.317760  1.0  0.9203
  Cu  Cu4  1  0.067340  0.244240  0.206370  1.0  0.7421
  Cu  Cu5  1  0.757970  0.766800  0.168440  1.0  0.856
  Cu  Cu6  1  0.756670  0.778070  0.305420  1.0  0.9136
  Cu  Cu7  1  0.584800  0.737860  0.182240  1.0  0.9193
  Cu  Cu8  1  0.932660  0.744240  0.293630  1.0  0.7432
  Cu  Cu9  1  0.757970  0.733200  0.668440  1.0  0.8571
  Cu  Cu10  1  0.756670  0.721930  0.805420  1.0  0.9128
  Cu  Cu11  1  0.584800  0.762140  0.682240  1.0  0.9181
  Cu  Cu12  1  0.932660  0.755760  0.793630  1.0  0.7428
  Cu  Cu13  1  0.242030  0.233200  0.831560  1.0  0.8554
  Cu  Cu14  1  0.243330  0.221930  0.694580  1.0  0.9175
  Cu  Cu15  1  0.415200  0.262140  0.817760  1.0  0.9203
  Cu  Cu16  1  0.067340  0.255760  0.706370  1.0  0.7419
  H  H17  1  0.954800  0.346300  0.228200  1.0  0.3468
  H  H18  1  0.981300  0.352100  0.176900  1.0  0.1942
  H  H19  1  0.975400  0.080700  0.176000  1.0  0.3577
  H  H20  1  0.009300  0.150200  0.214700  1.0  0.1617
  H  H21  1  0.334500  0.254900  0.040000  1.0  0.109
  H  H22  1  0.526100  0.187400  0.011200  1.0  0.116
  H  H23  1  0.521300  0.173700  0.194400  1.0  0.1024
  H  H24  1  0.517200  0.017200  0.093000  1.0  0.1284
  H  H25  1  0.568500  0.953500  0.147800  1.0  0.1362
  H  H26  1  0.572700  0.954600  0.076400  1.0  0.1299
  H  H27  1  0.726800  0.305400  0.181700  1.0  0.1226
  H  H28  1  0.646700  0.298800  0.188700  1.0  0.1292
  H  H29  1  0.650700  0.305500  0.117400  1.0  0.1381
  H  H30  1  0.959900  0.186000  0.328000  1.0  0.1029
  H  H31  1  0.953800  0.189300  0.511300  1.0  0.1233
  H  H32  1  0.143200  0.270900  0.484400  1.0  0.1186
  H  H33  1  0.745600  0.297100  0.354800  1.0  0.1161
  H  H34  1  0.824400  0.302900  0.345400  1.0  0.1369
  H  H35  1  0.823200  0.294800  0.417600  1.0  0.1375
  H  H36  1  0.973400  0.025800  0.416900  1.0  0.1268
  H  H37  1  0.924400  0.966400  0.357500  1.0  0.1309
  H  H38  1  0.921800  0.954100  0.428800  1.0  0.128
  H  H39  1  0.608300  0.232400  0.275400  1.0  0.3678
  H  H40  1  0.851000  0.055000  0.210000  1.0  0.363
  H  H41  1  0.316000  0.276000  0.282000  1.0  0.3252
  H  H42  1  0.189000  0.251000  0.231000  1.0  0.1941
  H  H43  1  0.906200  0.234600  0.152600  1.0  0.2128
  H  H44  1  0.967900  0.256900  0.136400  1.0  0.2097
  H  H45  1  0.122100  0.072700  0.217000  1.0  0.4125
  H  H46  1  0.103200  0.149500  0.184200  1.0  0.1927
  H  H47  1  0.045200  0.846300  0.271800  1.0  0.3456
  H  H48  1  0.018700  0.852100  0.323100  1.0  0.1925
  H  H49  1  0.024600  0.580700  0.324000  1.0  0.3587
  H  H50  1  0.990700  0.650200  0.285300  1.0  0.1619
  H  H51  1  0.665500  0.754900  0.460000  1.0  0.1101
  H  H52  1  0.473900  0.687400  0.488800  1.0  0.1162
  H  H53  1  0.478700  0.673700  0.305600  1.0  0.1021
  H  H54  1  0.482800  0.517200  0.407000  1.0  0.1294
  H  H55  1  0.431500  0.453500  0.352200  1.0  0.1367
  H  H56  1  0.427300  0.454600  0.423600  1.0  0.1294
  H  H57  1  0.273200  0.805400  0.318300  1.0  0.1234
  H  H58  1  0.353300  0.798800  0.311300  1.0  0.13
  H  H59  1  0.349300  0.805500  0.382600  1.0  0.1383
  H  H60  1  0.040100  0.686000  0.172000  1.0  0.1024
  H  H61  1  0.046200  0.689300  0.988700  1.0  0.1234
  H  H62  1  0.856800  0.770900  0.015600  1.0  0.118
  H  H63  1  0.254400  0.797100  0.145200  1.0  0.1145
  H  H64  1  0.175600  0.802900  0.154600  1.0  0.1355
  H  H65  1  0.176800  0.794800  0.082400  1.0  0.138
  H  H66  1  0.026600  0.525800  0.083100  1.0  0.1248
  H  H67  1  0.075600  0.466400  0.142500  1.0  0.1312
  H  H68  1  0.078200  0.454100  0.071200  1.0  0.1278
  H  H69  1  0.391700  0.732400  0.224600  1.0  0.368
  H  H70  1  0.149000  0.555000  0.290000  1.0  0.3644
  H  H71  1  0.684000  0.776000  0.218000  1.0  0.3249
  H  H72  1  0.811000  0.751000  0.269000  1.0  0.197
  H  H73  1  0.093800  0.734600  0.347400  1.0  0.2167
  H  H74  1  0.032100  0.756900  0.363600  1.0  0.2097
  H  H75  1  0.877900  0.572700  0.283000  1.0  0.4138
  H  H76  1  0.896800  0.649500  0.315800  1.0  0.1928
  H  H77  1  0.045200  0.653700  0.771800  1.0  0.3446
  H  H78  1  0.018700  0.647900  0.823100  1.0  0.1908
  H  H79  1  0.024600  0.919300  0.824000  1.0  0.3601
  H  H80  1  0.990700  0.849800  0.785300  1.0  0.1605
  H  H81  1  0.665500  0.745100  0.960000  1.0  0.1097
  H  H82  1  0.473900  0.812600  0.988800  1.0  0.1164
  H  H83  1  0.478700  0.826300  0.805600  1.0  0.1023
  H  H84  1  0.482800  0.982800  0.907000  1.0  0.1294
  H  H85  1  0.431500  0.046500  0.852200  1.0  0.1368
  H  H86  1  0.427300  0.045400  0.923600  1.0  0.1293
  H  H87  1  0.273200  0.694600  0.818300  1.0  0.124
  H  H88  1  0.353300  0.701200  0.811300  1.0  0.1299
  H  H89  1  0.349300  0.694500  0.882600  1.0  0.1383
  H  H90  1  0.040100  0.814000  0.672000  1.0  0.1026
  H  H91  1  0.046200  0.810700  0.488700  1.0  0.1232
  H  H92  1  0.856800  0.729100  0.515600  1.0  0.1184
  H  H93  1  0.254400  0.702900  0.645200  1.0  0.1138
  H  H94  1  0.175600  0.697100  0.654600  1.0  0.1357
  H  H95  1  0.176800  0.705200  0.582400  1.0  0.1369
  H  H96  1  0.026600  0.974200  0.583100  1.0  0.1252
  H  H97  1  0.075600  0.033600  0.642500  1.0  0.131
  H  H98  1  0.078200  0.045900  0.571200  1.0  0.1277
  H  H99  1  0.391700  0.767600  0.724600  1.0  0.3682
  H  H100  1  0.149000  0.945000  0.790000  1.0  0.3629
  H  H101  1  0.684000  0.724000  0.718000  1.0  0.3223
  H  H102  1  0.811000  0.749000  0.769000  1.0  0.1984
  H  H103  1  0.093800  0.765400  0.847400  1.0  0.2208
  H  H104  1  0.032100  0.743100  0.863600  1.0  0.2096
  H  H105  1  0.877900  0.927300  0.783000  1.0  0.4122
  H  H106  1  0.896800  0.850500  0.815800  1.0  0.1963
  H  H107  1  0.954800  0.153700  0.728200  1.0  0.3463
  H  H108  1  0.981300  0.147900  0.676900  1.0  0.1916
  H  H109  1  0.975400  0.419300  0.676000  1.0  0.3618
  H  H110  1  0.009300  0.349800  0.714700  1.0  0.1596
  H  H111  1  0.334500  0.245100  0.540000  1.0  0.1094
  H  H112  1  0.526100  0.312600  0.511200  1.0  0.1159
  H  H113  1  0.521300  0.326300  0.694400  1.0  0.1025
  H  H114  1  0.517200  0.482800  0.593000  1.0  0.1273
  H  H115  1  0.568500  0.546500  0.647800  1.0  0.1359
  H  H116  1  0.572700  0.545400  0.576400  1.0  0.1296
  H  H117  1  0.726800  0.194600  0.681700  1.0  0.1231
  H  H118  1  0.646700  0.201200  0.688700  1.0  0.1294
  H  H119  1  0.650700  0.194500  0.617400  1.0  0.1365
  H  H120  1  0.959900  0.314000  0.828000  1.0  0.1027
  H  H121  1  0.953800  0.310700  0.011300  1.0  0.1232
  H  H122  1  0.143200  0.229100  0.984400  1.0  0.1184
  H  H123  1  0.745600  0.202900  0.854800  1.0  0.1163
  H  H124  1  0.824400  0.197100  0.845400  1.0  0.1371
  H  H125  1  0.823200  0.205200  0.917600  1.0  0.1381
  H  H126  1  0.973400  0.474200  0.916900  1.0  0.1267
  H  H127  1  0.924400  0.533600  0.857500  1.0  0.1307
  H  H128  1  0.921800  0.545900  0.928800  1.0  0.1273
  H  H129  1  0.608300  0.267600  0.775400  1.0  0.3672
  H  H130  1  0.851000  0.445000  0.710000  1.0  0.3617
  H  H131  1  0.316000  0.224000  0.782000  1.0  0.3234
  H  H132  1  0.189000  0.249000  0.731000  1.0  0.1952
  H  H133  1  0.906200  0.265400  0.652600  1.0  0.216
  H  H134  1  0.967900  0.243100  0.636400  1.0  0.21
  H  H135  1  0.122100  0.427300  0.717000  1.0  0.4115
  H  H136  1  0.103200  0.350500  0.684200  1.0  0.1949
  C  C137  1  0.090300  0.250600  0.582900  1.0  0.6576
  C  C138  1  0.054000  0.232900  0.507800  1.0  -0.1336
  C  C139  1  0.381400  0.233100  0.172600  1.0  0.7211
  C  C140  1  0.421500  0.216900  0.124900  1.0  -0.1722
  C  C141  1  0.385000  0.235200  0.056860  1.0  0.02
  C  C142  1  0.424400  0.223800  0.014000  1.0  -0.1685
  C  C143  1  0.499300  0.193800  0.039500  1.0  -0.1664
  C  C144  1  0.534500  0.173500  0.106100  1.0  0.1093
  C  C145  1  0.496600  0.186000  0.149000  1.0  -0.1567
  C  C146  1  0.566200  0.989100  0.110800  1.0  -0.3825
  C  C147  1  0.628600  0.053700  0.134200  1.0  0.1598
  C  C148  1  0.679000  0.187900  0.158500  1.0  0.0718
  C  C149  1  0.675500  0.282900  0.161900  1.0  -0.4155
  C  C150  1  0.739200  0.130300  0.177800  1.0  0.0012
  C  C151  1  0.708400  0.044600  0.163300  1.0  -0.0697
  C  C152  1  0.820800  0.160200  0.207700  1.0  0.6173
  C  C153  1  0.100200  0.244500  0.352300  1.0  0.7193
  C  C154  1  0.058200  0.229500  0.398300  1.0  -0.1585
  C  C155  1  0.984000  0.197100  0.373600  1.0  -0.1289
  C  C156  1  0.945500  0.181200  0.415100  1.0  0.1119
  C  C157  1  0.979900  0.199400  0.482900  1.0  -0.161
  C  C158  1  0.093700  0.248300  0.467000  1.0  -0.0169
  C  C159  1  0.858700  0.057100  0.379200  1.0  0.1845
  C  C160  1  0.780100  0.042500  0.350700  1.0  -0.1521
  C  C161  1  0.743300  0.124800  0.342900  1.0  -0.0884
  C  C162  1  0.800000  0.184500  0.366700  1.0  0.1858
  C  C163  1  0.798100  0.278000  0.371500  1.0  -0.4085
  C  C164  1  0.925700  0.995200  0.397300  1.0  -0.3708
  C  C165  1  0.660500  0.145500  0.314400  1.0  0.6665
  C  C166  1  0.746100  0.962700  0.175400  1.0  0.6757
  C  C167  1  0.746500  0.956500  0.331000  1.0  0.6772
  C  C168  1  0.385500  0.243100  0.941400  1.0  0.6948
  C  C169  1  0.909700  0.750600  0.917100  1.0  0.6536
  C  C170  1  0.946000  0.732900  0.992200  1.0  -0.133
  C  C171  1  0.618600  0.733100  0.327400  1.0  0.7217
  C  C172  1  0.578500  0.716900  0.375100  1.0  -0.1715
  C  C173  1  0.615000  0.735200  0.443140  1.0  0.0228
  C  C174  1  0.575600  0.723800  0.486000  1.0  -0.1705
  C  C175  1  0.500700  0.693800  0.460500  1.0  -0.1675
  C  C176  1  0.465500  0.673500  0.393900  1.0  0.1089
  C  C177  1  0.503400  0.686000  0.351000  1.0  -0.1565
  C  C178  1  0.433800  0.489100  0.389200  1.0  -0.3841
  C  C179  1  0.371400  0.553700  0.365800  1.0  0.1615
  C  C180  1  0.321000  0.687900  0.341500  1.0  0.0726
  C  C181  1  0.324500  0.782900  0.338100  1.0  -0.4179
  C  C182  1  0.260800  0.630300  0.322200  1.0  0.0042
  C  C183  1  0.291600  0.544600  0.336700  1.0  -0.0698
  C  C184  1  0.179200  0.660200  0.292300  1.0  0.6135
  C  C185  1  0.899800  0.744500  0.147700  1.0  0.7183
  C  C186  1  0.941800  0.729500  0.101700  1.0  -0.1581
  C  C187  1  0.016000  0.697100  0.126400  1.0  -0.1284
  C  C188  1  0.054500  0.681200  0.084900  1.0  0.1121
  C  C189  1  0.020100  0.699400  0.017100  1.0  -0.1634
  C  C190  1  0.906300  0.748300  0.033000  1.0  -0.0144
  C  C191  1  0.141300  0.557100  0.120800  1.0  0.1819
  C  C192  1  0.219900  0.542500  0.149300  1.0  -0.1482
  C  C193  1  0.256700  0.624800  0.157100  1.0  -0.1009
  C  C194  1  0.200000  0.684500  0.133300  1.0  0.1804
  C  C195  1  0.201900  0.778000  0.128500  1.0  -0.4075
  C  C196  1  0.074300  0.495200  0.102700  1.0  -0.3698
  C  C197  1  0.339500  0.645500  0.185600  1.0  0.6615
  C  C198  1  0.253900  0.462700  0.324600  1.0  0.6783
  C  C199  1  0.253500  0.456500  0.169000  1.0  0.6756
  C  C200  1  0.614500  0.743100  0.558600  1.0  0.6943
  C  C201  1  0.909700  0.749400  0.417100  1.0  0.6641
  C  C202  1  0.946000  0.767100  0.492200  1.0  -0.133
  C  C203  1  0.618600  0.766900  0.827400  1.0  0.7227
  C  C204  1  0.578500  0.783100  0.875100  1.0  -0.1716
  C  C205  1  0.615000  0.764800  0.943140  1.0  0.023
  C  C206  1  0.575600  0.776200  0.986000  1.0  -0.1703
  C  C207  1  0.500700  0.806200  0.960500  1.0  -0.166
  C  C208  1  0.465500  0.826500  0.893900  1.0  0.1086
  C  C209  1  0.503400  0.814000  0.851000  1.0  -0.157
  C  C210  1  0.433800  0.010900  0.889200  1.0  -0.3843
  C  C211  1  0.371400  0.946300  0.865800  1.0  0.1614
  C  C212  1  0.321000  0.812100  0.841500  1.0  0.0697
  C  C213  1  0.324500  0.717100  0.838100  1.0  -0.416
  C  C214  1  0.260800  0.869700  0.822200  1.0  0.0036
  C  C215  1  0.291600  0.955400  0.836700  1.0  -0.073
  C  C216  1  0.179200  0.839800  0.792300  1.0  0.6182
  C  C217  1  0.899800  0.755500  0.647700  1.0  0.718
  C  C218  1  0.941800  0.770500  0.601700  1.0  -0.1584
  C  C219  1  0.016000  0.802900  0.626400  1.0  -0.1288
  C  C220  1  0.054500  0.818800  0.584900  1.0  0.1125
  C  C221  1  0.020100  0.800600  0.517100  1.0  -0.1628
  C  C222  1  0.906300  0.751700  0.533000  1.0  -0.0103
  C  C223  1  0.141300  0.942900  0.620800  1.0  0.1828
  C  C224  1  0.219900  0.957500  0.649300  1.0  -0.1474
  C  C225  1  0.256700  0.875200  0.657100  1.0  -0.1001
  C  C226  1  0.200000  0.815500  0.633300  1.0  0.1791
  C  C227  1  0.201900  0.722000  0.628500  1.0  -0.4101
  C  C228  1  0.074300  0.004800  0.602700  1.0  -0.3688
  C  C229  1  0.339500  0.854500  0.685600  1.0  0.6628
  C  C230  1  0.253900  0.037300  0.824600  1.0  0.678
  C  C231  1  0.253500  0.043500  0.669000  1.0  0.6743
  C  C232  1  0.614500  0.756900  0.058600  1.0  0.6941
  C  C233  1  0.090300  0.249400  0.082900  1.0  0.6562
  C  C234  1  0.054000  0.267100  0.007800  1.0  -0.1333
  C  C235  1  0.381400  0.266900  0.672600  1.0  0.7206
  C  C236  1  0.421500  0.283100  0.624900  1.0  -0.172
  C  C237  1  0.385000  0.264800  0.556860  1.0  0.0198
  C  C238  1  0.424400  0.276200  0.514000  1.0  -0.1692
  C  C239  1  0.499300  0.306200  0.539500  1.0  -0.1662
  C  C240  1  0.534500  0.326500  0.606100  1.0  0.1092
  C  C241  1  0.496600  0.314000  0.649000  1.0  -0.1566
  C  C242  1  0.566200  0.510900  0.610800  1.0  -0.3839
  C  C243  1  0.628600  0.446300  0.634200  1.0  0.1611
  C  C244  1  0.679000  0.312100  0.658500  1.0  0.068
  C  C245  1  0.675500  0.217100  0.661900  1.0  -0.4175
  C  C246  1  0.739200  0.369700  0.677800  1.0  0.0003
  C  C247  1  0.708400  0.455400  0.663300  1.0  -0.071
  C  C248  1  0.820800  0.339800  0.707700  1.0  0.6171
  C  C249  1  0.100200  0.255500  0.852300  1.0  0.7202
  C  C250  1  0.058200  0.270500  0.898300  1.0  -0.1584
  C  C251  1  0.984000  0.302900  0.873600  1.0  -0.1291
  C  C252  1  0.945500  0.318800  0.915100  1.0  0.1121
  C  C253  1  0.979900  0.300600  0.982900  1.0  -0.1621
  C  C254  1  0.093700  0.251700  0.967000  1.0  -0.0156
  C  C255  1  0.858700  0.442900  0.879200  1.0  0.1854
  C  C256  1  0.780100  0.457500  0.850700  1.0  -0.1538
  C  C257  1  0.743300  0.375200  0.842900  1.0  -0.0879
  C  C258  1  0.800000  0.315500  0.866700  1.0  0.1823
  C  C259  1  0.798100  0.222000  0.871500  1.0  -0.4079
  C  C260  1  0.925700  0.504800  0.897300  1.0  -0.3706
  C  C261  1  0.660500  0.354500  0.814400  1.0  0.669
  C  C262  1  0.746100  0.537300  0.675400  1.0  0.6752
  C  C263  1  0.746500  0.543500  0.831000  1.0  0.6768
  C  C264  1  0.385500  0.256900  0.441400  1.0  0.6942
  N  N265  1  0.612030  0.138900  0.131710  1.0  -0.1046
  N  N266  1  0.870750  0.140900  0.388170  1.0  -0.0804
  N  N267  1  0.387970  0.638900  0.368290  1.0  -0.1044
  N  N268  1  0.129250  0.640900  0.111830  1.0  -0.0801
  N  N269  1  0.387970  0.861100  0.868290  1.0  -0.104
  N  N270  1  0.129250  0.859100  0.611830  1.0  -0.08
  N  N271  1  0.612030  0.361100  0.631710  1.0  -0.1044
  N  N272  1  0.870750  0.359100  0.888170  1.0  -0.0798
  O  O273  1  0.427090  0.233800  0.907900  1.0  -0.6078
  O  O274  1  0.316450  0.267100  0.919420  1.0  -0.605
  O  O275  1  0.709760  0.896100  0.153470  1.0  -0.588
  O  O276  1  0.789500  0.892200  0.347000  1.0  -0.5772
  O  O277  1  0.156820  0.281700  0.606030  1.0  -0.5867
  O  O278  1  0.049270  0.232900  0.615330  1.0  -0.5547
  O  O279  1  0.964400  0.317700  0.198700  1.0  -0.2866
  O  O280  1  0.000700  0.126100  0.177200  1.0  -0.3834
  O  O281  1  0.423720  0.222400  0.233400  1.0  -0.6349
  O  O282  1  0.312710  0.251200  0.149220  1.0  -0.5998
  O  O283  1  0.304640  0.221400  0.281010  1.0  -0.6441
  O  O284  1  0.169790  0.296000  0.241750  1.0  -0.7821
  O  O285  1  0.166930  0.266600  0.375320  1.0  -0.5839
  O  O286  1  0.062600  0.227700  0.292390  1.0  -0.5829
  O  O287  1  0.874650  0.101600  0.227180  1.0  -0.5316
  O  O288  1  0.838300  0.236100  0.212900  1.0  -0.5467
  O  O289  1  0.638900  0.219400  0.314900  1.0  -0.5129
  O  O290  1  0.611500  0.084100  0.291800  1.0  -0.5566
  O  O291  1  0.820200  0.959500  0.211200  1.0  -0.56
  O  O292  1  0.673800  0.949400  0.297200  1.0  -0.5401
  O  O293  1  0.953400  0.249100  0.168900  1.0  -0.1219
  O  O294  1  0.091000  0.114500  0.208700  1.0  -0.5508
  O  O295  1  0.572910  0.733800  0.592100  1.0  -0.6075
  O  O296  1  0.683550  0.767100  0.580580  1.0  -0.6043
  O  O297  1  0.290240  0.396100  0.346530  1.0  -0.5871
  O  O298  1  0.210500  0.392200  0.153000  1.0  -0.5775
  O  O299  1  0.843180  0.781700  0.893970  1.0  -0.5845
  O  O300  1  0.950730  0.732900  0.884670  1.0  -0.5546
  O  O301  1  0.035600  0.817700  0.301300  1.0  -0.2814
  O  O302  1  0.999300  0.626100  0.322800  1.0  -0.3857
  O  O303  1  0.576280  0.722400  0.266600  1.0  -0.6341
  O  O304  1  0.687290  0.751200  0.350780  1.0  -0.6012
  O  O305  1  0.695360  0.721400  0.218990  1.0  -0.6445
  O  O306  1  0.830210  0.796000  0.258250  1.0  -0.7819
  O  O307  1  0.833070  0.766600  0.124680  1.0  -0.5816
  O  O308  1  0.937400  0.727700  0.207610  1.0  -0.5834
  O  O309  1  0.125350  0.601600  0.272820  1.0  -0.5325
  O  O310  1  0.161700  0.736100  0.287100  1.0  -0.5469
  O  O311  1  0.361100  0.719400  0.185100  1.0  -0.5135
  O  O312  1  0.388500  0.584100  0.208200  1.0  -0.562
  O  O313  1  0.179800  0.459500  0.288800  1.0  -0.5556
  O  O314  1  0.326200  0.449400  0.202800  1.0  -0.5367
  O  O315  1  0.046600  0.749100  0.331100  1.0  -0.1228
  O  O316  1  0.909000  0.614500  0.291300  1.0  -0.5486
  O  O317  1  0.572910  0.766200  0.092100  1.0  -0.6067
  O  O318  1  0.683550  0.732900  0.080580  1.0  -0.604
  O  O319  1  0.290240  0.103900  0.846530  1.0  -0.5874
  O  O320  1  0.210500  0.107800  0.653000  1.0  -0.5771
  O  O321  1  0.843180  0.718300  0.393970  1.0  -0.5874
  O  O322  1  0.950730  0.767100  0.384670  1.0  -0.5546
  O  O323  1  0.035600  0.682300  0.801300  1.0  -0.2811
  O  O324  1  0.999300  0.873900  0.822800  1.0  -0.3864
  O  O325  1  0.576280  0.777600  0.766600  1.0  -0.634
  O  O326  1  0.687290  0.748800  0.850780  1.0  -0.6015
  O  O327  1  0.695360  0.778600  0.718990  1.0  -0.6394
  O  O328  1  0.830210  0.704000  0.758250  1.0  -0.7849
  O  O329  1  0.833070  0.733400  0.624680  1.0  -0.5834
  O  O330  1  0.937400  0.772300  0.707610  1.0  -0.5833
  O  O331  1  0.125350  0.898400  0.772820  1.0  -0.533
  O  O332  1  0.161700  0.763900  0.787100  1.0  -0.547
  O  O333  1  0.361100  0.780600  0.685100  1.0  -0.5143
  O  O334  1  0.388500  0.915900  0.708200  1.0  -0.5603
  O  O335  1  0.179800  0.040500  0.788800  1.0  -0.5572
  O  O336  1  0.326200  0.050600  0.702800  1.0  -0.5348
  O  O337  1  0.046600  0.750900  0.831100  1.0  -0.1217
  O  O338  1  0.909000  0.885500  0.791300  1.0  -0.5493
  O  O339  1  0.427090  0.266200  0.407900  1.0  -0.6063
  O  O340  1  0.316450  0.232900  0.419420  1.0  -0.6066
  O  O341  1  0.709760  0.603900  0.653470  1.0  -0.5882
  O  O342  1  0.789500  0.607800  0.847000  1.0  -0.5778
  O  O343  1  0.156820  0.218300  0.106030  1.0  -0.5847
  O  O344  1  0.049270  0.267100  0.115330  1.0  -0.5547
  O  O345  1  0.964400  0.182300  0.698700  1.0  -0.2909
  O  O346  1  0.000700  0.373900  0.677200  1.0  -0.3864
  O  O347  1  0.423720  0.277600  0.733400  1.0  -0.6338
  O  O348  1  0.312710  0.248800  0.649220  1.0  -0.5995
  O  O349  1  0.304640  0.278600  0.781010  1.0  -0.6407
  O  O350  1  0.169790  0.204000  0.741750  1.0  -0.7847
  O  O351  1  0.166930  0.233400  0.875320  1.0  -0.5835
  O  O352  1  0.062600  0.272300  0.792390  1.0  -0.5829
  O  O353  1  0.874650  0.398400  0.727180  1.0  -0.5319
  O  O354  1  0.838300  0.263900  0.712900  1.0  -0.547
  O  O355  1  0.638900  0.280600  0.814900  1.0  -0.5124
  O  O356  1  0.611500  0.415900  0.791800  1.0  -0.56
  O  O357  1  0.820200  0.540500  0.711200  1.0  -0.5614
  O  O358  1  0.673800  0.550600  0.797200  1.0  -0.5394
  O  O359  1  0.953400  0.250900  0.668900  1.0  -0.1213
  O  O360  1  0.091000  0.385500  0.708700  1.0  -0.5518
