# generated using pymatgen
data_Zn2H10C13(N3O2)2
_symmetry_space_group_name_H-M   'P 1'
_cell_length_a   8.40840000
_cell_length_b   19.18470000
_cell_length_c   19.18470000
_cell_angle_alpha   62.09650000
_cell_angle_beta   81.59920000
_cell_angle_gamma   98.40080000
_symmetry_Int_Tables_number   1
_chemical_formula_structural   Zn2H10C13(N3O2)2
_chemical_formula_sum   'Zn12 H60 C78 N36 O24'
_cell_volume   2622.91301107
_cell_formula_units_Z   6
loop_
 _symmetry_equiv_pos_site_id
 _symmetry_equiv_pos_as_xyz
  1  'x, y, z'
loop_
 _atom_site_type_symbol
 _atom_site_label
 _atom_site_symmetry_multiplicity
 _atom_site_fract_x
 _atom_site_fract_y
 _atom_site_fract_z
 _atom_site_occupancy
 _atom_site_charge
  Zn  Zn1  1  0.852350  0.951040  0.455220  1.0  0.9089
  Zn  Zn2  1  0.459650  0.812230  0.486720  1.0  0.856
  Zn  Zn3  1  0.307570  0.455220  0.593740  1.0  0.9091
  Zn  Zn4  1  0.946370  0.486720  0.701050  1.0  0.8557
  Zn  Zn5  1  0.901310  0.593740  0.951040  1.0  0.908
  Zn  Zn6  1  0.647420  0.701050  0.812230  1.0  0.856
  Zn  Zn7  1  0.147650  0.048960  0.544780  1.0  0.9094
  Zn  Zn8  1  0.540350  0.187770  0.513280  1.0  0.8561
  Zn  Zn9  1  0.692430  0.544780  0.406260  1.0  0.9092
  Zn  Zn10  1  0.053630  0.513280  0.298950  1.0  0.8562
  Zn  Zn11  1  0.098690  0.406260  0.048960  1.0  0.909
  Zn  Zn12  1  0.352580  0.298950  0.187770  1.0  0.8574
  H  H13  1  0.140300  0.950400  0.238400  1.0  0.0995
  H  H14  1  0.401000  0.925700  0.244900  1.0  0.0931
  H  H15  1  0.433000  0.795300  0.299300  1.0  0.102
  H  H16  1  0.203400  0.687700  0.350400  1.0  0.0893
  H  H17  1  0.773900  0.819100  0.279900  1.0  0.1214
  H  H18  1  0.858300  0.909400  0.252000  1.0  0.1363
  H  H19  1  0.819100  0.864300  0.647900  1.0  0.071
  H  H20  1  0.431500  0.706300  0.679800  1.0  0.0787
  H  H21  1  0.379000  0.936700  0.538500  1.0  0.0875
  H  H22  1  0.122600  0.856700  0.427900  1.0  0.0858
  H  H23  1  0.378700  0.238400  0.811200  1.0  0.0979
  H  H24  1  0.645900  0.244900  0.829400  1.0  0.0918
  H  H25  1  0.732300  0.299300  0.905400  1.0  0.1021
  H  H26  1  0.553800  0.350400  0.961900  1.0  0.0895
  H  H27  1  0.053800  0.279900  0.901000  1.0  0.1205
  H  H28  1  0.110300  0.252000  0.838600  1.0  0.1348
  H  H29  1  0.467000  0.647900  0.487800  1.0  0.0701
  H  H30  1  0.111300  0.679800  0.613900  1.0  0.0787
  H  H31  1  0.917500  0.538500  0.524800  1.0  0.0885
  H  H32  1  0.550500  0.427900  0.715400  1.0  0.0864
  H  H33  1  0.189900  0.811200  0.950400  1.0  0.0983
  H  H34  1  0.475300  0.829400  0.925700  1.0  0.0914
  H  H35  1  0.637700  0.905400  0.795300  1.0  0.1038
  H  H36  1  0.515700  0.961900  0.687700  1.0  0.0882
  H  H37  1  0.954800  0.901000  0.819100  1.0  0.1228
  H  H38  1  0.948900  0.838600  0.909400  1.0  0.1315
  H  H39  1  0.954800  0.487800  0.864300  1.0  0.0714
  H  H40  1  0.725200  0.613900  0.706300  1.0  0.0779
  H  H41  1  0.442300  0.524800  0.936700  1.0  0.087
  H  H42  1  0.265900  0.715400  0.856700  1.0  0.0875
  H  H43  1  0.859700  0.049600  0.761600  1.0  0.0999
  H  H44  1  0.599000  0.074300  0.755100  1.0  0.0926
  H  H45  1  0.567000  0.204700  0.700700  1.0  0.1033
  H  H46  1  0.796600  0.312300  0.649600  1.0  0.089
  H  H47  1  0.226100  0.180900  0.720100  1.0  0.1202
  H  H48  1  0.141700  0.090600  0.748000  1.0  0.1367
  H  H49  1  0.180900  0.135700  0.352100  1.0  0.0709
  H  H50  1  0.568500  0.293700  0.320200  1.0  0.0791
  H  H51  1  0.621000  0.063300  0.461500  1.0  0.087
  H  H52  1  0.877400  0.143300  0.572100  1.0  0.0867
  H  H53  1  0.621300  0.761600  0.188800  1.0  0.0975
  H  H54  1  0.354100  0.755100  0.170600  1.0  0.0914
  H  H55  1  0.267700  0.700700  0.094600  1.0  0.1021
  H  H56  1  0.446200  0.649600  0.038100  1.0  0.0892
  H  H57  1  0.946200  0.720100  0.099000  1.0  0.1213
  H  H58  1  0.889700  0.748000  0.161400  1.0  0.1347
  H  H59  1  0.533000  0.352100  0.512200  1.0  0.0705
  H  H60  1  0.888700  0.320200  0.386100  1.0  0.0776
  H  H61  1  0.082500  0.461500  0.475200  1.0  0.0877
  H  H62  1  0.449500  0.572100  0.284600  1.0  0.0855
  H  H63  1  0.810100  0.188800  0.049600  1.0  0.098
  H  H64  1  0.524700  0.170600  0.074300  1.0  0.0917
  H  H65  1  0.362300  0.094600  0.204700  1.0  0.1028
  H  H66  1  0.484300  0.038100  0.312300  1.0  0.088
  H  H67  1  0.045200  0.099000  0.180900  1.0  0.1228
  H  H68  1  0.051100  0.161400  0.090600  1.0  0.1307
  H  H69  1  0.045200  0.512200  0.135700  1.0  0.0707
  H  H70  1  0.274800  0.386100  0.293700  1.0  0.0795
  H  H71  1  0.557700  0.475200  0.063300  1.0  0.0872
  H  H72  1  0.734100  0.284600  0.143300  1.0  0.0875
  C  C73  1  0.031180  0.754530  0.326990  1.0  -0.0978
  C  C74  1  0.010040  0.833000  0.294880  1.0  0.0842
  C  C75  1  0.151280  0.897140  0.262300  1.0  -0.1116
  C  C76  1  0.308690  0.882390  0.265220  1.0  -0.0694
  C  C77  1  0.327910  0.804860  0.297730  1.0  -0.1229
  C  C78  1  0.190450  0.740630  0.328480  1.0  -0.0382
  C  C79  1  0.890500  0.680050  0.361650  1.0  0.6338
  C  C80  1  0.842830  0.853380  0.293990  1.0  -0.3519
  C  C81  1  0.752890  0.842170  0.374100  1.0  0.7666
  C  C82  1  0.731690  0.836870  0.638500  1.0  0.2588
  C  C83  1  0.521540  0.751260  0.655940  1.0  0.2315
  C  C84  1  0.296950  0.927340  0.513990  1.0  0.2449
  C  C85  1  0.158670  0.884150  0.453940  1.0  0.2626
  C  C86  1  0.358170  0.326990  0.918480  1.0  -0.0975
  C  C87  1  0.304920  0.294880  0.872120  1.0  0.084
  C  C88  1  0.413580  0.262300  0.840560  1.0  -0.1099
  C  C89  1  0.573910  0.265220  0.852390  1.0  -0.0685
  C  C90  1  0.625640  0.297730  0.897410  1.0  -0.1226
  C  C91  1  0.518930  0.328480  0.930890  1.0  -0.0354
  C  C92  1  0.252150  0.361650  0.958300  1.0  0.6344
  C  C93  1  0.136820  0.293990  0.852630  1.0  -0.3542
  C  C94  1  0.126990  0.374100  0.783730  1.0  0.7658
  C  C95  1  0.370190  0.638500  0.524630  1.0  0.259
  C  C96  1  0.177480  0.655940  0.592800  1.0  0.232
  C  C97  1  0.810940  0.513990  0.558670  1.0  0.2439
  C  C98  1  0.612610  0.453940  0.661910  1.0  0.261
  C  C99  1  0.276650  0.918480  0.754530  1.0  -0.0957
  C  C100  1  0.177040  0.872120  0.833000  1.0  0.086
  C  C101  1  0.254140  0.840560  0.897140  1.0  -0.1064
  C  C102  1  0.426300  0.852390  0.882390  1.0  -0.0675
  C  C103  1  0.523050  0.897410  0.804860  1.0  -0.1207
  C  C104  1  0.449820  0.930890  0.740630  1.0  -0.0354
  C  C105  1  0.210450  0.958300  0.680050  1.0  0.6385
  C  C106  1  0.989450  0.852630  0.853380  1.0  -0.3524
  C  C107  1  0.910720  0.783730  0.842170  1.0  0.7667
  C  C108  1  0.894820  0.524630  0.836870  1.0  0.2573
  C  C109  1  0.770280  0.592800  0.751260  1.0  0.2316
  C  C110  1  0.369610  0.558670  0.927340  1.0  0.245
  C  C111  1  0.274520  0.661910  0.884150  1.0  0.2608
  C  C112  1  0.968820  0.245470  0.673010  1.0  -0.0979
  C  C113  1  0.989960  0.167000  0.705120  1.0  0.0857
  C  C114  1  0.848720  0.102860  0.737700  1.0  -0.1115
  C  C115  1  0.691310  0.117610  0.734780  1.0  -0.0706
  C  C116  1  0.672090  0.195140  0.702270  1.0  -0.125
  C  C117  1  0.809550  0.259370  0.671520  1.0  -0.0387
  C  C118  1  0.109500  0.319950  0.638350  1.0  0.6335
  C  C119  1  0.157170  0.146620  0.706010  1.0  -0.3504
  C  C120  1  0.247110  0.157830  0.625900  1.0  0.7666
  C  C121  1  0.268310  0.163130  0.361500  1.0  0.2591
  C  C122  1  0.478460  0.248740  0.344060  1.0  0.2314
  C  C123  1  0.703050  0.072660  0.486010  1.0  0.2448
  C  C124  1  0.841330  0.115850  0.546060  1.0  0.2626
  C  C125  1  0.641830  0.673010  0.081520  1.0  -0.0977
  C  C126  1  0.695080  0.705120  0.127880  1.0  0.0854
  C  C127  1  0.586420  0.737700  0.159440  1.0  -0.1087
  C  C128  1  0.426090  0.734780  0.147610  1.0  -0.0671
  C  C129  1  0.374360  0.702270  0.102590  1.0  -0.1236
  C  C130  1  0.481070  0.671520  0.069110  1.0  -0.0372
  C  C131  1  0.747850  0.638350  0.041700  1.0  0.6359
  C  C132  1  0.863180  0.706010  0.147370  1.0  -0.3537
  C  C133  1  0.873010  0.625900  0.216270  1.0  0.7669
  C  C134  1  0.629810  0.361500  0.475370  1.0  0.2587
  C  C135  1  0.822520  0.344060  0.407200  1.0  0.2337
  C  C136  1  0.189060  0.486010  0.441330  1.0  0.2439
  C  C137  1  0.387390  0.546060  0.338090  1.0  0.261
  C  C138  1  0.723350  0.081520  0.245470  1.0  -0.0976
  C  C139  1  0.822960  0.127880  0.167000  1.0  0.0847
  C  C140  1  0.745860  0.159440  0.102860  1.0  -0.1085
  C  C141  1  0.573700  0.147610  0.117610  1.0  -0.0669
  C  C142  1  0.476950  0.102590  0.195140  1.0  -0.1226
  C  C143  1  0.550180  0.069110  0.259370  1.0  -0.0352
  C  C144  1  0.789550  0.041700  0.319950  1.0  0.6368
  C  C145  1  0.010550  0.147370  0.146620  1.0  -0.3515
  C  C146  1  0.089280  0.216270  0.157830  1.0  0.7659
  C  C147  1  0.105180  0.475370  0.163130  1.0  0.2577
  C  C148  1  0.229720  0.407200  0.248740  1.0  0.2329
  C  C149  1  0.630390  0.441330  0.072660  1.0  0.2442
  C  C150  1  0.725480  0.338090  0.115850  1.0  0.2618
  N  N151  1  0.563110  0.805620  0.578390  1.0  -0.2531
  N  N152  1  0.701140  0.861690  0.566870  1.0  -0.2976
  N  N153  1  0.623330  0.767520  0.697130  1.0  -0.4292
  N  N154  1  0.078760  0.932000  0.468820  1.0  -0.2859
  N  N155  1  0.168370  0.959700  0.508790  1.0  -0.2649
  N  N156  1  0.297660  0.879700  0.480720  1.0  -0.4324
  N  N157  1  0.141500  0.578390  0.615990  1.0  -0.2546
  N  N158  1  0.268010  0.566870  0.571440  1.0  -0.298
  N  N159  1  0.320460  0.697130  0.535350  1.0  -0.4314
  N  N160  1  0.547580  0.468820  0.599180  1.0  -0.2851
  N  N161  1  0.677160  0.508790  0.531510  1.0  -0.2616
  N  N162  1  0.778380  0.480720  0.639580  1.0  -0.4343
  N  N163  1  0.757490  0.615990  0.805620  1.0  -0.2544
  N  N164  1  0.839450  0.571440  0.861690  1.0  -0.298
  N  N165  1  0.855810  0.535350  0.767520  1.0  -0.43
  N  N166  1  0.146760  0.599180  0.932000  1.0  -0.2866
  N  N167  1  0.208670  0.531510  0.959700  1.0  -0.2653
  N  N168  1  0.417960  0.639580  0.879700  1.0  -0.4333
  N  N169  1  0.436890  0.194380  0.421610  1.0  -0.2532
  N  N170  1  0.298860  0.138310  0.433130  1.0  -0.2979
  N  N171  1  0.376670  0.232480  0.302870  1.0  -0.4294
  N  N172  1  0.921240  0.068000  0.531180  1.0  -0.2856
  N  N173  1  0.831630  0.040300  0.491210  1.0  -0.2644
  N  N174  1  0.702340  0.120300  0.519280  1.0  -0.4329
  N  N175  1  0.858500  0.421610  0.384010  1.0  -0.2553
  N  N176  1  0.731990  0.433130  0.428560  1.0  -0.2991
  N  N177  1  0.679540  0.302870  0.464650  1.0  -0.43
  N  N178  1  0.452420  0.531180  0.400820  1.0  -0.2848
  N  N179  1  0.322840  0.491210  0.468490  1.0  -0.2612
  N  N180  1  0.221620  0.519280  0.360420  1.0  -0.4351
  N  N181  1  0.242510  0.384010  0.194380  1.0  -0.255
  N  N182  1  0.160550  0.428560  0.138310  1.0  -0.2976
  N  N183  1  0.144190  0.464650  0.232480  1.0  -0.4285
  N  N184  1  0.853240  0.400820  0.068000  1.0  -0.2856
  N  N185  1  0.791330  0.468490  0.040300  1.0  -0.2635
  N  N186  1  0.582040  0.360420  0.120300  1.0  -0.4338
  O  O187  1  0.926020  0.613520  0.374560  1.0  -0.5916
  O  O188  1  0.744230  0.683540  0.376450  1.0  -0.6165
  O  O189  1  0.595790  0.827260  0.388590  1.0  -0.589
  O  O190  1  0.834000  0.850530  0.419930  1.0  -0.6597
  O  O191  1  0.300580  0.374560  0.011920  1.0  -0.5917
  O  O192  1  0.120680  0.376450  0.940010  1.0  -0.6156
  O  O193  1  0.984380  0.388590  0.784150  1.0  -0.589
  O  O194  1  0.253930  0.419930  0.729540  1.0  -0.6612
  O  O195  1  0.312500  0.011920  0.613520  1.0  -0.5921
  O  O196  1  0.060690  0.940010  0.683540  1.0  -0.6157
  O  O197  1  0.768530  0.784150  0.827260  1.0  -0.5892
  O  O198  1  0.983470  0.729540  0.850530  1.0  -0.6609
  O  O199  1  0.073980  0.386480  0.625440  1.0  -0.5924
  O  O200  1  0.255770  0.316460  0.623550  1.0  -0.6171
  O  O201  1  0.404210  0.172740  0.611410  1.0  -0.5886
  O  O202  1  0.166000  0.149470  0.580070  1.0  -0.6608
  O  O203  1  0.699420  0.625440  0.988080  1.0  -0.5919
  O  O204  1  0.879320  0.623550  0.059990  1.0  -0.6151
  O  O205  1  0.015620  0.611410  0.215850  1.0  -0.589
  O  O206  1  0.746070  0.580070  0.270460  1.0  -0.6625
  O  O207  1  0.687500  0.988080  0.386480  1.0  -0.5916
  O  O208  1  0.939310  0.059990  0.316460  1.0  -0.6156
  O  O209  1  0.231470  0.215850  0.172740  1.0  -0.5888
  O  O210  1  0.016530  0.270460  0.149470  1.0  -0.6618
