# generated using pymatgen
data_BaH6C12(NO3)2
_symmetry_space_group_name_H-M   'P 1'
_cell_length_a   7.49590000
_cell_length_b   10.60920000
_cell_length_c   10.86570000
_cell_angle_alpha   119.22200000
_cell_angle_beta   110.17800000
_cell_angle_gamma   90.00000000
_symmetry_Int_Tables_number   1
_chemical_formula_structural   BaH6C12(NO3)2
_chemical_formula_sum   'Ba2 H12 C24 N4 O12'
_cell_volume   692.72807037
_cell_formula_units_Z   2
loop_
 _symmetry_equiv_pos_site_id
 _symmetry_equiv_pos_as_xyz
  1  'x, y, z'
loop_
 _atom_site_type_symbol
 _atom_site_label
 _atom_site_symmetry_multiplicity
 _atom_site_fract_x
 _atom_site_fract_y
 _atom_site_fract_z
 _atom_site_occupancy
 _atom_site_charge
  Ba  Ba1  1  0.333120  0.617510  0.500000  1.0  1.6347
  Ba  Ba2  1  0.833120  0.382490  0.500000  1.0  1.6257
  H  H3  1  0.389100  0.184000  0.072000  1.0  0.1191
  H  H4  1  0.146900  0.024200  0.832800  1.0  0.1055
  H  H5  1  0.956500  0.115200  0.691800  1.0  0.1229
  H  H6  1  0.317100  0.816000  0.928000  1.0  0.1207
  H  H7  1  0.314100  0.975800  0.167200  1.0  0.1057
  H  H8  1  0.264700  0.884800  0.308200  1.0  0.1221
  H  H9  1  0.889100  0.388000  0.072000  1.0  0.1209
  H  H10  1  0.646900  0.308600  0.832800  1.0  0.1055
  H  H11  1  0.456500  0.076600  0.691800  1.0  0.1232
  H  H12  1  0.817100  0.612000  0.928000  1.0  0.1202
  H  H13  1  0.814100  0.691400  0.167200  1.0  0.1059
  H  H14  1  0.764700  0.923400  0.308200  1.0  0.1196
  C  C15  1  0.234770  0.420070  0.976340  1.0  0.059
  C  C16  1  0.352110  0.367810  0.064220  1.0  -0.1215
  C  C17  1  0.315610  0.220010  0.012420  1.0  -0.0925
  C  C18  1  0.168490  0.125190  0.870980  1.0  -0.0784
  C  C19  1  0.054850  0.179550  0.787100  1.0  -0.003
  C  C20  1  0.515380  0.473180  0.217960  1.0  0.6717
  C  C21  1  0.258430  0.579930  0.023660  1.0  0.0588
  C  C22  1  0.287890  0.632190  0.935780  1.0  -0.1192
  C  C23  1  0.303190  0.779990  0.987580  1.0  -0.0914
  C  C24  1  0.297510  0.874810  0.129020  1.0  -0.0728
  C  C25  1  0.267750  0.820450  0.212900  1.0  -0.005
  C  C26  1  0.297420  0.526820  0.782040  1.0  0.6786
  C  C27  1  0.734770  0.056270  0.976340  1.0  0.0584
  C  C28  1  0.852110  0.196410  0.064220  1.0  -0.1215
  C  C29  1  0.815610  0.292410  0.012420  1.0  -0.09
  C  C30  1  0.668490  0.245790  0.870980  1.0  -0.0872
  C  C31  1  0.554850  0.107550  0.787100  1.0  -0.0027
  C  C32  1  0.015380  0.244780  0.217960  1.0  0.6709
  C  C33  1  0.758430  0.943730  0.023660  1.0  0.059
  C  C34  1  0.787890  0.803590  0.935780  1.0  -0.1189
  C  C35  1  0.803190  0.707590  0.987580  1.0  -0.0881
  C  C36  1  0.797510  0.754210  0.129020  1.0  -0.0832
  C  C37  1  0.767750  0.892450  0.212900  1.0  -0.0048
  C  C38  1  0.797420  0.755220  0.782040  1.0  0.6821
  N  N39  1  0.084030  0.326130  0.841460  1.0  0.3366
  N  N40  1  0.242570  0.673870  0.158540  1.0  0.3342
  N  N41  1  0.584030  0.015330  0.841460  1.0  0.3322
  N  N42  1  0.742570  0.984670  0.158540  1.0  0.3338
  O  O43  1  0.615580  0.576190  0.232160  1.0  -0.5787
  O  O44  1  0.535950  0.444610  0.321500  1.0  -0.7194
  O  O45  1  0.961910  0.377410  0.763820  1.0  -0.64
  O  O46  1  0.383420  0.423810  0.767840  1.0  -0.5796
  O  O47  1  0.214450  0.555390  0.678500  1.0  -0.7166
  O  O48  1  0.198090  0.622590  0.236180  1.0  -0.641
  O  O49  1  0.115580  0.155970  0.232160  1.0  -0.5866
  O  O50  1  0.035950  0.376890  0.321500  1.0  -0.7151
  O  O51  1  0.461910  0.886410  0.763820  1.0  -0.6374
  O  O52  1  0.883420  0.844030  0.767840  1.0  -0.5893
  O  O53  1  0.714450  0.623110  0.678500  1.0  -0.7062
  O  O54  1  0.698090  0.113590  0.236180  1.0  -0.6368
