# generated using pymatgen
data_Ag6H55C35N16O3
_symmetry_space_group_name_H-M   'P 1'
_cell_length_a   14.82330000
_cell_length_b   20.57870000
_cell_length_c   18.55790000
_cell_angle_alpha   90.00000000
_cell_angle_beta   104.67400000
_cell_angle_gamma   90.00000000
_symmetry_Int_Tables_number   1
_chemical_formula_structural   Ag6H55C35N16O3
_chemical_formula_sum   'Ag24 H220 C140 N64 O12'
_cell_volume   5476.33526253
_cell_formula_units_Z   4
loop_
 _symmetry_equiv_pos_site_id
 _symmetry_equiv_pos_as_xyz
  1  'x, y, z'
loop_
 _atom_site_type_symbol
 _atom_site_label
 _atom_site_symmetry_multiplicity
 _atom_site_fract_x
 _atom_site_fract_y
 _atom_site_fract_z
 _atom_site_occupancy
 _atom_site_charge
  Ag  Ag1  1  0.264180  0.417160  0.627460  1.0  -0.0664
  Ag  Ag2  1  0.493240  0.338210  0.383690  1.0  -0.0744
  Ag  Ag3  1  0.878660  0.257460  0.577400  1.0  0.1632
  Ag  Ag4  1  0.138460  0.181130  0.400390  1.0  0.1972
  Ag  Ag5  1  0.095340  0.469180  0.301000  1.0  0.0504
  Ag  Ag6  1  0.631900  0.451550  0.876830  1.0  0.2151
  Ag  Ag7  1  0.735820  0.917160  0.872540  1.0  -0.0666
  Ag  Ag8  1  0.506760  0.838210  0.116310  1.0  -0.0747
  Ag  Ag9  1  0.121340  0.757460  0.922600  1.0  0.1636
  Ag  Ag10  1  0.861540  0.681130  0.099610  1.0  0.1956
  Ag  Ag11  1  0.904660  0.969180  0.199000  1.0  0.0513
  Ag  Ag12  1  0.368100  0.951550  0.623170  1.0  0.2149
  Ag  Ag13  1  0.735820  0.582840  0.372540  1.0  -0.0663
  Ag  Ag14  1  0.506760  0.661790  0.616310  1.0  -0.0748
  Ag  Ag15  1  0.121340  0.742540  0.422600  1.0  0.1639
  Ag  Ag16  1  0.861540  0.818870  0.599610  1.0  0.198
  Ag  Ag17  1  0.904660  0.530820  0.699000  1.0  0.0523
  Ag  Ag18  1  0.368100  0.548450  0.123170  1.0  0.2143
  Ag  Ag19  1  0.264180  0.082840  0.127460  1.0  -0.0661
  Ag  Ag20  1  0.493240  0.161790  0.883690  1.0  -0.0745
  Ag  Ag21  1  0.878660  0.242540  0.077400  1.0  0.1638
  Ag  Ag22  1  0.138460  0.318870  0.900390  1.0  0.199
  Ag  Ag23  1  0.095340  0.030820  0.801000  1.0  0.0524
  Ag  Ag24  1  0.631900  0.048450  0.376830  1.0  0.2159
  H  H25  1  0.910400  0.271900  0.393200  1.0  0.0973
  H  H26  1  0.790500  0.266800  0.290800  1.0  0.0743
  H  H27  1  0.716800  0.172400  0.246600  1.0  0.1225
  H  H28  1  0.716000  0.050800  0.259200  1.0  0.0897
  H  H29  1  0.890700  0.960400  0.428500  1.0  0.0938
  H  H30  1  0.959400  0.060600  0.474900  1.0  0.1019
  H  H31  1  0.137500  0.423700  0.462700  1.0  0.0482
  H  H32  1  0.227300  0.462600  0.459300  1.0  0.054
  H  H33  1  0.138000  0.317100  0.316900  1.0  0.0535
  H  H34  1  0.083400  0.334700  0.376500  1.0  0.058
  H  H35  1  0.291300  0.266600  0.356600  1.0  0.0471
  H  H36  1  0.334300  0.251600  0.441200  1.0  0.0698
  H  H37  1  0.379500  0.412000  0.499000  1.0  0.0529
  H  H38  1  0.388500  0.339900  0.527500  1.0  0.0487
  H  H39  1  0.278100  0.375800  0.312300  1.0  0.0628
  H  H40  1  0.313100  0.434000  0.366900  1.0  0.0613
  H  H41  1  0.249700  0.278900  0.532100  1.0  0.0572
  H  H42  1  0.151100  0.311600  0.506800  1.0  0.0646
  H  H43  1  0.263000  0.548200  0.721100  1.0  0.0432
  H  H44  1  0.299300  0.496900  0.784300  1.0  0.0715
  H  H45  1  0.448300  0.654900  0.775300  1.0  0.0637
  H  H46  1  0.353900  0.643900  0.715200  1.0  0.0678
  H  H47  1  0.576900  0.533100  0.715400  1.0  0.0648
  H  H48  1  0.582900  0.587600  0.775500  1.0  0.057
  H  H49  1  0.430900  0.428300  0.782700  1.0  0.054
  H  H50  1  0.483000  0.435600  0.719300  1.0  0.0657
  H  H51  1  0.430000  0.515700  0.621300  1.0  0.0469
  H  H52  1  0.343400  0.559600  0.620900  1.0  0.0553
  H  H53  1  0.442300  0.514700  0.875600  1.0  0.0654
  H  H54  1  0.501800  0.577000  0.871400  1.0  0.0621
  H  H55  1  0.905200  0.405700  0.608800  1.0  0.0524
  H  H56  1  0.878200  0.381100  0.680500  1.0  0.073
  H  H57  1  0.977100  0.408200  0.803700  1.0  0.053
  H  H58  1  0.068900  0.448300  0.809900  1.0  0.0522
  H  H59  1  0.039500  0.358600  0.574700  1.0  0.0651
  H  H60  1  0.097300  0.303800  0.624600  1.0  0.0607
  H  H61  1  0.194500  0.329100  0.745700  1.0  0.0471
  H  H62  1  0.199600  0.400600  0.775900  1.0  0.0676
  H  H63  1  0.966000  0.296900  0.755100  1.0  0.0646
  H  H64  1  0.051800  0.265600  0.733200  1.0  0.0539
  H  H65  1  0.109800  0.485600  0.698600  1.0  0.059
  H  H66  1  0.046200  0.468200  0.619700  1.0  0.0604
  H  H67  1  0.534000  0.268700  0.545700  1.0  0.0436
  H  H68  1  0.471900  0.215900  0.495500  1.0  0.07
  H  H69  1  0.604300  0.200800  0.365500  1.0  0.0716
  H  H70  1  0.514200  0.175100  0.385900  1.0  0.0394
  H  H71  1  0.701600  0.281100  0.442500  1.0  0.0768
  H  H72  1  0.674100  0.309800  0.512300  1.0  0.0565
  H  H73  1  0.529400  0.105700  0.496700  1.0  0.0514
  H  H74  1  0.629200  0.089000  0.546200  1.0  0.0632
  H  H75  1  0.720900  0.169700  0.622600  1.0  0.064
  H  H76  1  0.683600  0.241100  0.621800  1.0  0.0682
  H  H77  1  0.756700  0.172300  0.442700  1.0  0.0599
  H  H78  1  0.765600  0.127600  0.512600  1.0  0.0741
  H  H79  1  0.788300  0.909600  0.332600  1.0  0.3574
  H  H80  1  0.089600  0.771900  0.106800  1.0  0.0975
  H  H81  1  0.209500  0.766800  0.209200  1.0  0.0751
  H  H82  1  0.283200  0.672400  0.253400  1.0  0.1223
  H  H83  1  0.284000  0.550800  0.240800  1.0  0.0897
  H  H84  1  0.109300  0.460400  0.071500  1.0  0.0936
  H  H85  1  0.040600  0.560600  0.025100  1.0  0.1006
  H  H86  1  0.862500  0.923700  0.037300  1.0  0.0488
  H  H87  1  0.772700  0.962600  0.040700  1.0  0.0548
  H  H88  1  0.862000  0.817100  0.183100  1.0  0.0528
  H  H89  1  0.916600  0.834700  0.123500  1.0  0.0575
  H  H90  1  0.708700  0.766600  0.143400  1.0  0.0487
  H  H91  1  0.665700  0.751600  0.058800  1.0  0.0697
  H  H92  1  0.620500  0.912000  0.001000  1.0  0.0543
  H  H93  1  0.611500  0.839900  0.972500  1.0  0.0507
  H  H94  1  0.721900  0.875800  0.187700  1.0  0.0632
  H  H95  1  0.686900  0.934000  0.133100  1.0  0.0623
  H  H96  1  0.750300  0.778900  0.967900  1.0  0.0572
  H  H97  1  0.848900  0.811600  0.993200  1.0  0.0654
  H  H98  1  0.737000  0.048200  0.778900  1.0  0.0434
  H  H99  1  0.700700  0.996900  0.715700  1.0  0.0678
  H  H100  1  0.551700  0.154900  0.724700  1.0  0.0644
  H  H101  1  0.646100  0.143900  0.784800  1.0  0.067
  H  H102  1  0.423100  0.033100  0.784600  1.0  0.0653
  H  H103  1  0.417100  0.087600  0.724500  1.0  0.0578
  H  H104  1  0.569100  0.928300  0.717300  1.0  0.0524
  H  H105  1  0.517000  0.935600  0.780700  1.0  0.0667
  H  H106  1  0.570000  0.015700  0.878700  1.0  0.0464
  H  H107  1  0.656600  0.059600  0.879100  1.0  0.0559
  H  H108  1  0.557700  0.014700  0.624400  1.0  0.065
  H  H109  1  0.498200  0.077000  0.628600  1.0  0.0638
  H  H110  1  0.094800  0.905700  0.891200  1.0  0.0517
  H  H111  1  0.121800  0.881100  0.819500  1.0  0.074
  H  H112  1  0.022900  0.908200  0.696300  1.0  0.053
  H  H113  1  0.931100  0.948300  0.690100  1.0  0.0526
  H  H114  1  0.960500  0.858600  0.925300  1.0  0.0642
  H  H115  1  0.902700  0.803800  0.875400  1.0  0.0622
  H  H116  1  0.805500  0.829100  0.754300  1.0  0.0465
  H  H117  1  0.800400  0.900600  0.724100  1.0  0.0682
  H  H118  1  0.034000  0.796900  0.744900  1.0  0.0648
  H  H119  1  0.948200  0.765600  0.766800  1.0  0.0551
  H  H120  1  0.890200  0.985600  0.801400  1.0  0.0591
  H  H121  1  0.953800  0.968200  0.880300  1.0  0.059
  H  H122  1  0.466000  0.768700  0.954300  1.0  0.0436
  H  H123  1  0.528100  0.715900  0.004500  1.0  0.0712
  H  H124  1  0.395700  0.700800  0.134500  1.0  0.0704
  H  H125  1  0.485800  0.675100  0.114100  1.0  0.0413
  H  H126  1  0.298400  0.781100  0.057500  1.0  0.0768
  H  H127  1  0.325900  0.809800  0.987700  1.0  0.0583
  H  H128  1  0.470600  0.605700  0.003300  1.0  0.0486
  H  H129  1  0.370800  0.589000  0.953800  1.0  0.0625
  H  H130  1  0.279100  0.669700  0.877400  1.0  0.0646
  H  H131  1  0.316400  0.741100  0.878200  1.0  0.0689
  H  H132  1  0.243300  0.672300  0.057300  1.0  0.0586
  H  H133  1  0.234400  0.627600  0.987400  1.0  0.0738
  H  H134  1  0.211700  0.409600  0.167400  1.0  0.3588
  H  H135  1  0.089600  0.728100  0.606800  1.0  0.0974
  H  H136  1  0.209500  0.733200  0.709200  1.0  0.0762
  H  H137  1  0.283200  0.827600  0.753400  1.0  0.1223
  H  H138  1  0.284000  0.949200  0.740800  1.0  0.0897
  H  H139  1  0.109300  0.039600  0.571500  1.0  0.0937
  H  H140  1  0.040600  0.939400  0.525100  1.0  0.1005
  H  H141  1  0.862500  0.576300  0.537300  1.0  0.0483
  H  H142  1  0.772700  0.537400  0.540700  1.0  0.0542
  H  H143  1  0.862000  0.682900  0.683100  1.0  0.0524
  H  H144  1  0.916600  0.665300  0.623500  1.0  0.0576
  H  H145  1  0.708700  0.733400  0.643400  1.0  0.0477
  H  H146  1  0.665700  0.748400  0.558800  1.0  0.0692
  H  H147  1  0.620500  0.588000  0.501000  1.0  0.0546
  H  H148  1  0.611500  0.660100  0.472500  1.0  0.0511
  H  H149  1  0.721900  0.624200  0.687700  1.0  0.0629
  H  H150  1  0.686900  0.566000  0.633100  1.0  0.0622
  H  H151  1  0.750300  0.721100  0.467900  1.0  0.0574
  H  H152  1  0.848900  0.688400  0.493200  1.0  0.0651
  H  H153  1  0.737000  0.451800  0.278900  1.0  0.0431
  H  H154  1  0.700700  0.503100  0.215700  1.0  0.0683
  H  H155  1  0.551700  0.345100  0.224700  1.0  0.0637
  H  H156  1  0.646100  0.356100  0.284800  1.0  0.0674
  H  H157  1  0.423100  0.466900  0.284600  1.0  0.0646
  H  H158  1  0.417100  0.412400  0.224500  1.0  0.0571
  H  H159  1  0.569100  0.571700  0.217300  1.0  0.0529
  H  H160  1  0.517000  0.564400  0.280700  1.0  0.0648
  H  H161  1  0.570000  0.484300  0.378700  1.0  0.0458
  H  H162  1  0.656600  0.440400  0.379100  1.0  0.0565
  H  H163  1  0.557700  0.485300  0.124400  1.0  0.0661
  H  H164  1  0.498200  0.423000  0.128600  1.0  0.0636
  H  H165  1  0.094800  0.594300  0.391200  1.0  0.0522
  H  H166  1  0.121800  0.618900  0.319500  1.0  0.074
  H  H167  1  0.022900  0.591800  0.196300  1.0  0.053
  H  H168  1  0.931100  0.551700  0.190100  1.0  0.0528
  H  H169  1  0.960500  0.641400  0.425300  1.0  0.0643
  H  H170  1  0.902700  0.696200  0.375400  1.0  0.0618
  H  H171  1  0.805500  0.670900  0.254300  1.0  0.0461
  H  H172  1  0.800400  0.599400  0.224100  1.0  0.0676
  H  H173  1  0.034000  0.703100  0.244900  1.0  0.0643
  H  H174  1  0.948200  0.734400  0.266800  1.0  0.0543
  H  H175  1  0.890200  0.514400  0.301400  1.0  0.059
  H  H176  1  0.953800  0.531800  0.380300  1.0  0.0596
  H  H177  1  0.466000  0.731300  0.454300  1.0  0.0428
  H  H178  1  0.528100  0.784100  0.504500  1.0  0.0715
  H  H179  1  0.395700  0.799200  0.634500  1.0  0.0707
  H  H180  1  0.485800  0.824900  0.614100  1.0  0.0412
  H  H181  1  0.298400  0.718900  0.557500  1.0  0.0772
  H  H182  1  0.325900  0.690200  0.487700  1.0  0.0566
  H  H183  1  0.470600  0.894300  0.503300  1.0  0.0491
  H  H184  1  0.370800  0.911000  0.453800  1.0  0.0627
  H  H185  1  0.279100  0.830300  0.377400  1.0  0.0646
  H  H186  1  0.316400  0.758900  0.378200  1.0  0.0682
  H  H187  1  0.243300  0.827700  0.557300  1.0  0.0585
  H  H188  1  0.234400  0.872400  0.487400  1.0  0.0741
  H  H189  1  0.211700  0.090400  0.667400  1.0  0.3561
  H  H190  1  0.910400  0.228100  0.893200  1.0  0.0974
  H  H191  1  0.790500  0.233200  0.790800  1.0  0.0752
  H  H192  1  0.716800  0.327600  0.746600  1.0  0.1224
  H  H193  1  0.716000  0.449200  0.759200  1.0  0.0897
  H  H194  1  0.890700  0.539600  0.928500  1.0  0.0937
  H  H195  1  0.959400  0.439400  0.974900  1.0  0.1018
  H  H196  1  0.137500  0.076300  0.962700  1.0  0.0483
  H  H197  1  0.227300  0.037400  0.959300  1.0  0.0518
  H  H198  1  0.138000  0.182900  0.816900  1.0  0.053
  H  H199  1  0.083400  0.165300  0.876500  1.0  0.058
  H  H200  1  0.291300  0.233400  0.856600  1.0  0.0483
  H  H201  1  0.334300  0.248400  0.941200  1.0  0.0689
  H  H202  1  0.379500  0.088000  0.999000  1.0  0.0536
  H  H203  1  0.388500  0.160100  0.027500  1.0  0.0487
  H  H204  1  0.278100  0.124200  0.812300  1.0  0.063
  H  H205  1  0.313100  0.066000  0.866900  1.0  0.0636
  H  H206  1  0.249700  0.221100  0.032100  1.0  0.0557
  H  H207  1  0.151100  0.188400  0.006800  1.0  0.0646
  H  H208  1  0.263000  0.951800  0.221100  1.0  0.0432
  H  H209  1  0.299300  0.003100  0.284300  1.0  0.0711
  H  H210  1  0.448300  0.845100  0.275300  1.0  0.0644
  H  H211  1  0.353900  0.856100  0.215200  1.0  0.0685
  H  H212  1  0.576900  0.966900  0.215400  1.0  0.0642
  H  H213  1  0.582900  0.912400  0.275500  1.0  0.0566
  H  H214  1  0.430900  0.071700  0.282700  1.0  0.0531
  H  H215  1  0.483000  0.064400  0.219300  1.0  0.0651
  H  H216  1  0.430000  0.984300  0.121300  1.0  0.0475
  H  H217  1  0.343400  0.940400  0.120900  1.0  0.0558
  H  H218  1  0.442300  0.985300  0.375600  1.0  0.0646
  H  H219  1  0.501800  0.923000  0.371400  1.0  0.0623
  H  H220  1  0.905200  0.094300  0.108800  1.0  0.0533
  H  H221  1  0.878200  0.118900  0.180500  1.0  0.0727
  H  H222  1  0.977100  0.091800  0.303700  1.0  0.0535
  H  H223  1  0.068900  0.051700  0.309900  1.0  0.0545
  H  H224  1  0.039500  0.141400  0.074700  1.0  0.065
  H  H225  1  0.097300  0.196200  0.124600  1.0  0.0604
  H  H226  1  0.194500  0.170900  0.245700  1.0  0.0475
  H  H227  1  0.199600  0.099400  0.275900  1.0  0.0681
  H  H228  1  0.966000  0.203100  0.255100  1.0  0.0636
  H  H229  1  0.051800  0.234400  0.233200  1.0  0.0539
  H  H230  1  0.109800  0.014400  0.198600  1.0  0.059
  H  H231  1  0.046200  0.031800  0.119700  1.0  0.061
  H  H232  1  0.534000  0.231300  0.045700  1.0  0.046
  H  H233  1  0.471900  0.284100  0.995500  1.0  0.0697
  H  H234  1  0.604300  0.299200  0.865500  1.0  0.0717
  H  H235  1  0.514200  0.324900  0.885900  1.0  0.0394
  H  H236  1  0.701600  0.218900  0.942500  1.0  0.0775
  H  H237  1  0.674100  0.190200  0.012300  1.0  0.0564
  H  H238  1  0.529400  0.394300  0.996700  1.0  0.0508
  H  H239  1  0.629200  0.411000  0.046200  1.0  0.062
  H  H240  1  0.720900  0.330300  0.122600  1.0  0.0634
  H  H241  1  0.683600  0.258900  0.121800  1.0  0.0694
  H  H242  1  0.756700  0.327700  0.942700  1.0  0.0597
  H  H243  1  0.765600  0.372400  0.012600  1.0  0.0736
  H  H244  1  0.788300  0.590400  0.832600  1.0  0.355
  C  C245  1  0.003100  0.186000  0.483100  1.0  0.669
  C  C246  1  0.918000  0.178800  0.414100  1.0  -0.0572
  C  C247  1  0.884200  0.231700  0.377100  1.0  -0.1512
  C  C248  1  0.811500  0.228300  0.315600  1.0  -0.116
  C  C249  1  0.767500  0.172500  0.288200  1.0  -0.1835
  C  C250  1  0.803700  0.111800  0.327400  1.0  -0.0292
  C  C251  1  0.765700  0.052500  0.301400  1.0  -0.1671
  C  C252  1  0.799600  0.997200  0.336100  1.0  0.2341
  C  C253  1  0.870700  0.998700  0.402900  1.0  -0.1611
  C  C254  1  0.912100  0.059000  0.431100  1.0  -0.1416
  C  C255  1  0.880500  0.115400  0.391900  1.0  0.055
  C  C256  1  0.198700  0.419800  0.453300  1.0  0.0836
  C  C257  1  0.145000  0.332200  0.367500  1.0  0.0822
  C  C258  1  0.296400  0.282200  0.406800  1.0  0.0956
  C  C259  1  0.349700  0.369700  0.492400  1.0  0.0813
  C  C260  1  0.283800  0.391500  0.362600  1.0  0.0932
  C  C261  1  0.212300  0.309300  0.497000  1.0  0.0777
  C  C262  1  0.318500  0.527300  0.751200  1.0  0.1049
  C  C263  1  0.408300  0.622200  0.745800  1.0  0.1022
  C  C264  1  0.542200  0.555300  0.745800  1.0  0.0831
  C  C265  1  0.450200  0.459200  0.750000  1.0  0.0689
  C  C266  1  0.397500  0.538600  0.652900  1.0  0.0799
  C  C267  1  0.461300  0.544500  0.841800  1.0  0.0986
  C  C268  1  0.930200  0.389900  0.659100  1.0  0.0772
  C  C269  1  0.028000  0.415900  0.780600  1.0  0.0807
  C  C270  1  0.062200  0.343500  0.625600  1.0  0.0984
  C  C271  1  0.158700  0.368500  0.746100  1.0  0.0844
  C  C272  1  0.017800  0.305800  0.733500  1.0  0.0966
  C  C273  1  0.069700  0.452400  0.670200  1.0  0.0851
  C  C274  1  0.535500  0.230800  0.515000  1.0  0.1027
  C  C275  1  0.577500  0.190100  0.406600  1.0  0.0668
  C  C276  1  0.673700  0.270700  0.483000  1.0  0.0612
  C  C277  1  0.592100  0.122400  0.515400  1.0  0.1055
  C  C278  1  0.684800  0.203100  0.591200  1.0  0.0932
  C  C279  1  0.728500  0.161600  0.483000  1.0  0.078
  C  C280  1  0.996900  0.686000  0.016900  1.0  0.6677
  C  C281  1  0.082000  0.678800  0.085900  1.0  -0.058
  C  C282  1  0.115800  0.731700  0.122900  1.0  -0.1507
  C  C283  1  0.188500  0.728300  0.184400  1.0  -0.1173
  C  C284  1  0.232500  0.672500  0.211800  1.0  -0.1835
  C  C285  1  0.196300  0.611800  0.172600  1.0  -0.0275
  C  C286  1  0.234300  0.552500  0.198600  1.0  -0.1719
  C  C287  1  0.200400  0.497200  0.163900  1.0  0.2331
  C  C288  1  0.129300  0.498700  0.097100  1.0  -0.1606
  C  C289  1  0.087900  0.559000  0.068900  1.0  -0.1422
  C  C290  1  0.119500  0.615400  0.108100  1.0  0.0537
  C  C291  1  0.801300  0.919800  0.046700  1.0  0.0821
  C  C292  1  0.855000  0.832200  0.132500  1.0  0.0835
  C  C293  1  0.703600  0.782200  0.093200  1.0  0.0977
  C  C294  1  0.650300  0.869700  0.007600  1.0  0.0811
  C  C295  1  0.716200  0.891500  0.137400  1.0  0.0933
  C  C296  1  0.787700  0.809300  0.003000  1.0  0.076
  C  C297  1  0.681500  0.027300  0.748800  1.0  0.1057
  C  C298  1  0.591700  0.122200  0.754200  1.0  0.1035
  C  C299  1  0.457800  0.055300  0.754200  1.0  0.0818
  C  C300  1  0.549800  0.959200  0.750000  1.0  0.0678
  C  C301  1  0.602500  0.038600  0.847100  1.0  0.0806
  C  C302  1  0.538700  0.044500  0.658200  1.0  0.0974
  C  C303  1  0.069800  0.889900  0.840900  1.0  0.0772
  C  C304  1  0.972000  0.915900  0.719400  1.0  0.0808
  C  C305  1  0.937800  0.843500  0.874400  1.0  0.0989
  C  C306  1  0.841300  0.868500  0.753900  1.0  0.0865
  C  C307  1  0.982200  0.805800  0.766500  1.0  0.0966
  C  C308  1  0.930300  0.952400  0.829800  1.0  0.0842
  C  C309  1  0.464500  0.730800  0.985000  1.0  0.1034
  C  C310  1  0.422500  0.690100  0.093400  1.0  0.0685
  C  C311  1  0.326300  0.770700  0.017000  1.0  0.0618
  C  C312  1  0.407900  0.622400  0.984600  1.0  0.104
  C  C313  1  0.315200  0.703100  0.908800  1.0  0.0896
  C  C314  1  0.271500  0.661600  0.017000  1.0  0.0794
  C  C315  1  0.996900  0.814000  0.516900  1.0  0.6676
  C  C316  1  0.082000  0.821200  0.585900  1.0  -0.0588
  C  C317  1  0.115800  0.768300  0.622900  1.0  -0.1481
  C  C318  1  0.188500  0.771700  0.684400  1.0  -0.1196
  C  C319  1  0.232500  0.827500  0.711800  1.0  -0.1831
  C  C320  1  0.196300  0.888200  0.672600  1.0  -0.0274
  C  C321  1  0.234300  0.947500  0.698600  1.0  -0.1725
  C  C322  1  0.200400  0.002800  0.663900  1.0  0.2334
  C  C323  1  0.129300  0.001300  0.597100  1.0  -0.1608
  C  C324  1  0.087900  0.941000  0.568900  1.0  -0.1421
  C  C325  1  0.119500  0.884600  0.608100  1.0  0.054
  C  C326  1  0.801300  0.580200  0.546700  1.0  0.0828
  C  C327  1  0.855000  0.667800  0.632500  1.0  0.0837
  C  C328  1  0.703600  0.717800  0.593200  1.0  0.0959
  C  C329  1  0.650300  0.630300  0.507600  1.0  0.0811
  C  C330  1  0.716200  0.608500  0.637400  1.0  0.0929
  C  C331  1  0.787700  0.690700  0.503000  1.0  0.0764
  C  C332  1  0.681500  0.472700  0.248800  1.0  0.1066
  C  C333  1  0.591700  0.377800  0.254200  1.0  0.1022
  C  C334  1  0.457800  0.444700  0.254200  1.0  0.0822
  C  C335  1  0.549800  0.540800  0.250000  1.0  0.066
  C  C336  1  0.602500  0.461400  0.347100  1.0  0.0806
  C  C337  1  0.538700  0.455500  0.158200  1.0  0.0973
  C  C338  1  0.069800  0.610100  0.340900  1.0  0.0777
  C  C339  1  0.972000  0.584100  0.219400  1.0  0.0803
  C  C340  1  0.937800  0.656500  0.374400  1.0  0.0988
  C  C341  1  0.841300  0.631500  0.253900  1.0  0.0863
  C  C342  1  0.982200  0.694200  0.266500  1.0  0.0968
  C  C343  1  0.930300  0.547600  0.329800  1.0  0.0855
  C  C344  1  0.464500  0.769200  0.485000  1.0  0.1019
  C  C345  1  0.422500  0.809900  0.593400  1.0  0.0688
  C  C346  1  0.326300  0.729300  0.517000  1.0  0.0638
  C  C347  1  0.407900  0.877600  0.484600  1.0  0.104
  C  C348  1  0.315200  0.796900  0.408800  1.0  0.0902
  C  C349  1  0.271500  0.838400  0.517000  1.0  0.0791
  C  C350  1  0.003100  0.314000  0.983100  1.0  0.6686
  C  C351  1  0.918000  0.321200  0.914100  1.0  -0.0579
  C  C352  1  0.884200  0.268300  0.877100  1.0  -0.1496
  C  C353  1  0.811500  0.271700  0.815600  1.0  -0.1181
  C  C354  1  0.767500  0.327500  0.788200  1.0  -0.1836
  C  C355  1  0.803700  0.388200  0.827400  1.0  -0.0289
  C  C356  1  0.765700  0.447500  0.801400  1.0  -0.1675
  C  C357  1  0.799600  0.502800  0.836100  1.0  0.2338
  C  C358  1  0.870700  0.501300  0.902900  1.0  -0.1603
  C  C359  1  0.912100  0.441000  0.931100  1.0  -0.1405
  C  C360  1  0.880500  0.384600  0.891900  1.0  0.0549
  C  C361  1  0.198700  0.080200  0.953300  1.0  0.0839
  C  C362  1  0.145000  0.167800  0.867500  1.0  0.0825
  C  C363  1  0.296400  0.217800  0.906800  1.0  0.0953
  C  C364  1  0.349700  0.130300  0.992400  1.0  0.0805
  C  C365  1  0.283800  0.108500  0.862600  1.0  0.0921
  C  C366  1  0.212300  0.190700  0.997000  1.0  0.0757
  C  C367  1  0.318500  0.972700  0.251200  1.0  0.1054
  C  C368  1  0.408300  0.877800  0.245800  1.0  0.1024
  C  C369  1  0.542200  0.944700  0.245800  1.0  0.0828
  C  C370  1  0.450200  0.040800  0.250000  1.0  0.0671
  C  C371  1  0.397500  0.961400  0.152900  1.0  0.0799
  C  C372  1  0.461300  0.955500  0.341800  1.0  0.0984
  C  C373  1  0.930200  0.110100  0.159100  1.0  0.0775
  C  C374  1  0.028000  0.084100  0.280600  1.0  0.0819
  C  C375  1  0.062200  0.156500  0.125600  1.0  0.0987
  C  C376  1  0.158700  0.131500  0.246100  1.0  0.0842
  C  C377  1  0.017800  0.194200  0.233500  1.0  0.0948
  C  C378  1  0.069700  0.047600  0.170200  1.0  0.085
  C  C379  1  0.535500  0.269200  0.015000  1.0  0.1033
  C  C380  1  0.577500  0.309900  0.906600  1.0  0.0669
  C  C381  1  0.673700  0.229300  0.983000  1.0  0.0619
  C  C382  1  0.592100  0.377600  0.015400  1.0  0.1052
  C  C383  1  0.684800  0.296900  0.091200  1.0  0.0928
  C  C384  1  0.728500  0.338400  0.983000  1.0  0.0786
  N  N385  1  0.256600  0.374600  0.508600  1.0  -0.2598
  N  N386  1  0.188400  0.397500  0.376300  1.0  -0.2398
  N  N387  1  0.342600  0.346700  0.416100  1.0  -0.2901
  N  N388  1  0.202700  0.285200  0.420200  1.0  -0.2428
  N  N389  1  0.366200  0.491200  0.701600  1.0  -0.2599
  N  N390  1  0.379200  0.576300  0.795100  1.0  -0.3513
  N  N391  1  0.459900  0.588600  0.696300  1.0  -0.2676
  N  N392  1  0.513900  0.508100  0.795600  1.0  -0.2864
  N  N393  1  0.990100  0.440600  0.703700  1.0  -0.2289
  N  N394  1  0.981900  0.329100  0.656600  1.0  -0.2705
  N  N395  1  0.124400  0.392800  0.669100  1.0  -0.2759
  N  N396  1  0.080500  0.354700  0.779900  1.0  -0.2778
  N  N397  1  0.575600  0.249100  0.451900  1.0  -0.2569
  N  N398  1  0.632700  0.137200  0.451400  1.0  -0.2855
  N  N399  1  0.729800  0.219900  0.530400  1.0  -0.2531
  N  N400  1  0.589500  0.179800  0.560500  1.0  -0.3548
  N  N401  1  0.743400  0.874600  0.991400  1.0  -0.2565
  N  N402  1  0.811600  0.897500  0.123700  1.0  -0.2412
  N  N403  1  0.657400  0.846700  0.083900  1.0  -0.2898
  N  N404  1  0.797300  0.785200  0.079800  1.0  -0.2428
  N  N405  1  0.633800  0.991200  0.798400  1.0  -0.2598
  N  N406  1  0.620800  0.076300  0.704900  1.0  -0.3529
  N  N407  1  0.540100  0.088600  0.803700  1.0  -0.2699
  N  N408  1  0.486100  0.008100  0.704400  1.0  -0.2874
  N  N409  1  0.009900  0.940600  0.796300  1.0  -0.2297
  N  N410  1  0.018100  0.829100  0.843400  1.0  -0.2704
  N  N411  1  0.875600  0.892800  0.830900  1.0  -0.274
  N  N412  1  0.919500  0.854700  0.720100  1.0  -0.2767
  N  N413  1  0.424400  0.749100  0.048100  1.0  -0.2579
  N  N414  1  0.367300  0.637200  0.048600  1.0  -0.2847
  N  N415  1  0.270200  0.719900  0.969600  1.0  -0.255
  N  N416  1  0.410500  0.679800  0.939500  1.0  -0.3544
  N  N417  1  0.743400  0.625400  0.491400  1.0  -0.2586
  N  N418  1  0.811600  0.602500  0.623700  1.0  -0.2408
  N  N419  1  0.657400  0.653300  0.583900  1.0  -0.2897
  N  N420  1  0.797300  0.714800  0.579800  1.0  -0.2434
  N  N421  1  0.633800  0.508800  0.298400  1.0  -0.2594
  N  N422  1  0.620800  0.423700  0.204900  1.0  -0.3533
  N  N423  1  0.540100  0.411400  0.303700  1.0  -0.2686
  N  N424  1  0.486100  0.491900  0.204400  1.0  -0.2858
  N  N425  1  0.009900  0.559400  0.296300  1.0  -0.2288
  N  N426  1  0.018100  0.670900  0.343400  1.0  -0.2701
  N  N427  1  0.875600  0.607200  0.330900  1.0  -0.2736
  N  N428  1  0.919500  0.645300  0.220100  1.0  -0.2758
  N  N429  1  0.424400  0.750900  0.548100  1.0  -0.2582
  N  N430  1  0.367300  0.862800  0.548600  1.0  -0.2853
  N  N431  1  0.270200  0.780100  0.469600  1.0  -0.256
  N  N432  1  0.410500  0.820200  0.439500  1.0  -0.3541
  N  N433  1  0.256600  0.125400  0.008600  1.0  -0.2586
  N  N434  1  0.188400  0.102500  0.876300  1.0  -0.2408
  N  N435  1  0.342600  0.153300  0.916100  1.0  -0.2902
  N  N436  1  0.202700  0.214800  0.920200  1.0  -0.2435
  N  N437  1  0.366200  0.008800  0.201600  1.0  -0.2589
  N  N438  1  0.379200  0.923700  0.295100  1.0  -0.352
  N  N439  1  0.459900  0.911400  0.196300  1.0  -0.269
  N  N440  1  0.513900  0.991900  0.295600  1.0  -0.2861
  N  N441  1  0.990100  0.059400  0.203700  1.0  -0.2272
  N  N442  1  0.981900  0.170900  0.156600  1.0  -0.2679
  N  N443  1  0.124400  0.107200  0.169100  1.0  -0.2761
  N  N444  1  0.080500  0.145300  0.279900  1.0  -0.2779
  N  N445  1  0.575600  0.250900  0.951900  1.0  -0.2583
  N  N446  1  0.632700  0.362800  0.951400  1.0  -0.2854
  N  N447  1  0.729800  0.280100  0.030400  1.0  -0.2534
  N  N448  1  0.589500  0.320200  0.060500  1.0  -0.3547
  O  O449  1  0.068400  0.146900  0.490600  1.0  -0.6735
  O  O450  1  0.004400  0.232600  0.523700  1.0  -0.6182
  O  O451  1  0.766300  0.939500  0.304300  1.0  -0.601
  O  O452  1  0.931600  0.646900  0.009400  1.0  -0.6757
  O  O453  1  0.995600  0.732600  0.976300  1.0  -0.6209
  O  O454  1  0.233700  0.439500  0.195700  1.0  -0.5996
  O  O455  1  0.931600  0.853100  0.509400  1.0  -0.6745
  O  O456  1  0.995600  0.767400  0.476300  1.0  -0.6212
  O  O457  1  0.233700  0.060500  0.695700  1.0  -0.5992
  O  O458  1  0.068400  0.353100  0.990600  1.0  -0.6729
  O  O459  1  0.004400  0.267400  0.023700  1.0  -0.6194
  O  O460  1  0.766300  0.560500  0.804300  1.0  -0.6002
