# generated using pymatgen
data_ZnH17C23(NO2)2
_symmetry_space_group_name_H-M   'P 1'
_cell_length_a   8.77130000
_cell_length_b   15.89940000
_cell_length_c   18.16470000
_cell_angle_alpha   90.00000000
_cell_angle_beta   90.00000000
_cell_angle_gamma   90.00410000
_symmetry_Int_Tables_number   1
_chemical_formula_structural   ZnH17C23(NO2)2
_chemical_formula_sum   'Zn4 H68 C92 N8 O16'
_cell_volume   2533.22012314
_cell_formula_units_Z   4
loop_
 _symmetry_equiv_pos_site_id
 _symmetry_equiv_pos_as_xyz
  1  'x, y, z'
loop_
 _atom_site_type_symbol
 _atom_site_label
 _atom_site_symmetry_multiplicity
 _atom_site_fract_x
 _atom_site_fract_y
 _atom_site_fract_z
 _atom_site_occupancy
 _atom_site_charge
  Zn  Zn1  1  0.613240  0.567080  0.480770  1.0  0.9401
  Zn  Zn2  1  0.386760  0.932920  0.980770  1.0  0.9405
  Zn  Zn3  1  0.386760  0.432920  0.519230  1.0  0.9404
  Zn  Zn4  1  0.613240  0.067080  0.019230  1.0  0.94
  H  H5  1  0.098300  0.580500  0.666200  1.0  0.1147
  H  H6  1  0.454900  0.740300  0.644500  1.0  0.1081
  H  H7  1  0.334000  0.836600  0.721700  1.0  0.1148
  H  H8  1  0.151600  0.927400  0.808400  1.0  0.132
  H  H9  1  0.954200  0.982500  0.879300  1.0  0.0954
  H  H10  1  0.693800  0.776100  0.840600  1.0  0.1238
  H  H11  1  0.986900  0.622300  0.846200  1.0  0.1205
  H  H12  1  0.918200  0.561900  0.784100  1.0  0.1248
  H  H13  1  0.806300  0.616300  0.834800  1.0  0.1255
  H  H14  1  0.793400  0.726300  0.661600  1.0  0.1249
  H  H15  1  0.686500  0.680600  0.720800  1.0  0.1217
  H  H16  1  0.798100  0.626100  0.669900  1.0  0.1186
  H  H17  1  0.946100  0.614700  0.513900  1.0  0.089
  H  H18  1  0.092000  0.736100  0.526300  1.0  0.1228
  H  H19  1  0.726300  0.870400  0.460300  1.0  0.1261
  H  H20  1  0.592700  0.746400  0.448600  1.0  0.0879
  H  H21  1  0.114900  0.892400  0.520800  1.0  0.093
  H  H22  1  0.901700  0.919500  0.166200  1.0  0.1153
  H  H23  1  0.545100  0.759700  0.144500  1.0  0.108
  H  H24  1  0.666000  0.663400  0.221700  1.0  0.1137
  H  H25  1  0.848400  0.572600  0.308400  1.0  0.1318
  H  H26  1  0.045800  0.517500  0.379300  1.0  0.0957
  H  H27  1  0.306200  0.723900  0.340600  1.0  0.123
  H  H28  1  0.013100  0.877700  0.346200  1.0  0.1197
  H  H29  1  0.081800  0.938100  0.284100  1.0  0.1267
  H  H30  1  0.193700  0.883700  0.334800  1.0  0.1274
  H  H31  1  0.206600  0.773700  0.161600  1.0  0.1242
  H  H32  1  0.313500  0.819400  0.220800  1.0  0.1226
  H  H33  1  0.201900  0.873900  0.169900  1.0  0.1186
  H  H34  1  0.053900  0.885300  0.013900  1.0  0.0892
  H  H35  1  0.908000  0.763900  0.026300  1.0  0.1235
  H  H36  1  0.273700  0.629600  0.960300  1.0  0.1258
  H  H37  1  0.407300  0.753600  0.948600  1.0  0.0875
  H  H38  1  0.885100  0.607600  0.020800  1.0  0.0925
  H  H39  1  0.901700  0.419500  0.333800  1.0  0.1151
  H  H40  1  0.545100  0.259700  0.355500  1.0  0.1079
  H  H41  1  0.666000  0.163400  0.278300  1.0  0.1141
  H  H42  1  0.848400  0.072600  0.191600  1.0  0.1315
  H  H43  1  0.045800  0.017500  0.120700  1.0  0.0954
  H  H44  1  0.306200  0.223900  0.159400  1.0  0.1235
  H  H45  1  0.013100  0.377700  0.153800  1.0  0.1193
  H  H46  1  0.081800  0.438100  0.215900  1.0  0.1267
  H  H47  1  0.193700  0.383700  0.165200  1.0  0.1279
  H  H48  1  0.206600  0.273700  0.338400  1.0  0.1254
  H  H49  1  0.313500  0.319400  0.279200  1.0  0.1228
  H  H50  1  0.201900  0.373900  0.330100  1.0  0.1179
  H  H51  1  0.053900  0.385300  0.486100  1.0  0.0894
  H  H52  1  0.908000  0.263900  0.473700  1.0  0.1236
  H  H53  1  0.273700  0.129600  0.539700  1.0  0.1255
  H  H54  1  0.407300  0.253600  0.551400  1.0  0.087
  H  H55  1  0.885100  0.107600  0.479200  1.0  0.0934
  H  H56  1  0.098300  0.080500  0.833800  1.0  0.1141
  H  H57  1  0.454900  0.240300  0.855500  1.0  0.1078
  H  H58  1  0.334000  0.336600  0.778300  1.0  0.1152
  H  H59  1  0.151600  0.427400  0.691600  1.0  0.1313
  H  H60  1  0.954200  0.482500  0.620700  1.0  0.0949
  H  H61  1  0.693800  0.276100  0.659400  1.0  0.1237
  H  H62  1  0.986900  0.122300  0.653800  1.0  0.1203
  H  H63  1  0.918200  0.061900  0.715900  1.0  0.1248
  H  H64  1  0.806300  0.116300  0.665200  1.0  0.1248
  H  H65  1  0.793400  0.226300  0.838400  1.0  0.1246
  H  H66  1  0.686500  0.180600  0.779200  1.0  0.1217
  H  H67  1  0.798100  0.126100  0.830100  1.0  0.1191
  H  H68  1  0.946100  0.114700  0.986100  1.0  0.0893
  H  H69  1  0.092000  0.236100  0.973700  1.0  0.1232
  H  H70  1  0.726300  0.370400  0.039700  1.0  0.1259
  H  H71  1  0.592700  0.246400  0.051400  1.0  0.0874
  H  H72  1  0.114900  0.392400  0.979200  1.0  0.094
  C  C73  1  0.145000  0.633200  0.676400  1.0  -0.1303
  C  C74  1  0.288300  0.651100  0.648200  1.0  -0.149
  C  C75  1  0.357400  0.727600  0.664400  1.0  -0.0305
  C  C76  1  0.284900  0.785200  0.709300  1.0  -0.0821
  C  C77  1  0.059300  0.897000  0.814800  1.0  -0.1208
  C  C78  1  0.941500  0.929300  0.856100  1.0  -0.0335
  C  C79  1  0.804600  0.886600  0.865000  1.0  -0.1417
  C  C80  1  0.785900  0.806500  0.833800  1.0  -0.0737
  C  C81  1  0.912300  0.687500  0.754400  1.0  -0.0135
  C  C82  1  0.069500  0.692000  0.719700  1.0  0.0071
  C  C83  1  0.141400  0.768100  0.736000  1.0  -0.0673
  C  C84  1  0.038500  0.817600  0.782600  1.0  -0.0316
  C  C85  1  0.903400  0.772800  0.793100  1.0  0.0339
  C  C86  1  0.905300  0.615600  0.809800  1.0  -0.3571
  C  C87  1  0.786200  0.679400  0.696500  1.0  -0.3186
  C  C88  1  0.366900  0.589400  0.599500  1.0  0.6743
  C  C89  1  0.681600  0.926200  0.909700  1.0  0.6761
  C  C90  1  0.900900  0.667500  0.502800  1.0  0.1759
  C  C91  1  0.988800  0.739800  0.510700  1.0  -0.1751
  C  C92  1  0.923600  0.817000  0.495700  1.0  -0.0202
  C  C93  1  0.774200  0.818400  0.471900  1.0  -0.1648
  C  C94  1  0.695400  0.744300  0.465000  1.0  0.1636
  C  C95  1  0.011400  0.895200  0.505600  1.0  0.1631
  C  C96  1  0.855000  0.866800  0.176400  1.0  -0.1305
  C  C97  1  0.711700  0.848900  0.148200  1.0  -0.1493
  C  C98  1  0.642600  0.772400  0.164400  1.0  -0.0313
  C  C99  1  0.715100  0.714800  0.209300  1.0  -0.0817
  C  C100  1  0.940700  0.603000  0.314800  1.0  -0.1214
  C  C101  1  0.058500  0.570700  0.356100  1.0  -0.0354
  C  C102  1  0.195400  0.613400  0.365000  1.0  -0.1409
  C  C103  1  0.214100  0.693500  0.333800  1.0  -0.0738
  C  C104  1  0.087700  0.812500  0.254400  1.0  -0.0145
  C  C105  1  0.930500  0.808000  0.219700  1.0  0.0069
  C  C106  1  0.858600  0.731900  0.236000  1.0  -0.0667
  C  C107  1  0.961500  0.682400  0.282600  1.0  -0.0321
  C  C108  1  0.096600  0.727200  0.293100  1.0  0.0329
  C  C109  1  0.094700  0.884400  0.309800  1.0  -0.357
  C  C110  1  0.213800  0.820600  0.196500  1.0  -0.3172
  C  C111  1  0.633100  0.910600  0.099500  1.0  0.6748
  C  C112  1  0.318400  0.573800  0.409700  1.0  0.6764
  C  C113  1  0.099100  0.832500  0.002800  1.0  0.1769
  C  C114  1  0.011200  0.760200  0.010700  1.0  -0.1756
  C  C115  1  0.076400  0.683000  0.995700  1.0  -0.0217
  C  C116  1  0.225800  0.681600  0.971900  1.0  -0.1641
  C  C117  1  0.304600  0.755700  0.965000  1.0  0.1631
  C  C118  1  0.988600  0.604800  0.005600  1.0  0.1629
  C  C119  1  0.855000  0.366800  0.323600  1.0  -0.1314
  C  C120  1  0.711700  0.348900  0.351800  1.0  -0.1492
  C  C121  1  0.642600  0.272400  0.335600  1.0  -0.0313
  C  C122  1  0.715100  0.214800  0.290700  1.0  -0.0812
  C  C123  1  0.940700  0.103000  0.185200  1.0  -0.1215
  C  C124  1  0.058500  0.070700  0.143900  1.0  -0.0359
  C  C125  1  0.195400  0.113400  0.135000  1.0  -0.1403
  C  C126  1  0.214100  0.193500  0.166200  1.0  -0.0742
  C  C127  1  0.087700  0.312500  0.245600  1.0  -0.0149
  C  C128  1  0.930500  0.308000  0.280300  1.0  0.007
  C  C129  1  0.858600  0.231900  0.264000  1.0  -0.0669
  C  C130  1  0.961500  0.182400  0.217400  1.0  -0.0314
  C  C131  1  0.096600  0.227200  0.206900  1.0  0.0328
  C  C132  1  0.094700  0.384400  0.190200  1.0  -0.3564
  C  C133  1  0.213800  0.320600  0.303500  1.0  -0.3187
  C  C134  1  0.633100  0.410600  0.400500  1.0  0.6749
  C  C135  1  0.318400  0.073800  0.090300  1.0  0.6753
  C  C136  1  0.099100  0.332500  0.497200  1.0  0.1771
  C  C137  1  0.011200  0.260200  0.489300  1.0  -0.1759
  C  C138  1  0.076400  0.183000  0.504300  1.0  -0.0227
  C  C139  1  0.225800  0.181600  0.528100  1.0  -0.1635
  C  C140  1  0.304600  0.255700  0.535000  1.0  0.1632
  C  C141  1  0.988600  0.104800  0.494400  1.0  0.1624
  C  C142  1  0.145000  0.133200  0.823600  1.0  -0.1304
  C  C143  1  0.288300  0.151100  0.851800  1.0  -0.1496
  C  C144  1  0.357400  0.227600  0.835600  1.0  -0.0302
  C  C145  1  0.284900  0.285200  0.790700  1.0  -0.0812
  C  C146  1  0.059300  0.397000  0.685200  1.0  -0.121
  C  C147  1  0.941500  0.429300  0.643900  1.0  -0.0337
  C  C148  1  0.804600  0.386600  0.635000  1.0  -0.1411
  C  C149  1  0.785900  0.306500  0.666200  1.0  -0.0741
  C  C150  1  0.912300  0.187500  0.745600  1.0  -0.0137
  C  C151  1  0.069500  0.192000  0.780300  1.0  0.0074
  C  C152  1  0.141400  0.268100  0.764000  1.0  -0.0672
  C  C153  1  0.038500  0.317600  0.717400  1.0  -0.0316
  C  C154  1  0.903400  0.272800  0.706900  1.0  0.0338
  C  C155  1  0.905300  0.115600  0.690200  1.0  -0.3561
  C  C156  1  0.786200  0.179400  0.803500  1.0  -0.3201
  C  C157  1  0.366900  0.089400  0.900500  1.0  0.6749
  C  C158  1  0.681600  0.426200  0.590300  1.0  0.6751
  C  C159  1  0.900900  0.167500  0.997200  1.0  0.176
  C  C160  1  0.988800  0.239800  0.989300  1.0  -0.1754
  C  C161  1  0.923600  0.317000  0.004300  1.0  -0.0209
  C  C162  1  0.774200  0.318400  0.028100  1.0  -0.1647
  C  C163  1  0.695400  0.244300  0.035000  1.0  0.1632
  C  C164  1  0.011400  0.395200  0.994400  1.0  0.1628
  N  N165  1  0.756500  0.668930  0.480460  1.0  -0.3257
  N  N166  1  0.949800  0.966200  0.494000  1.0  -0.1969
  N  N167  1  0.243500  0.831070  0.980460  1.0  -0.3245
  N  N168  1  0.050200  0.533800  0.994000  1.0  -0.1969
  N  N169  1  0.243500  0.331070  0.519540  1.0  -0.3245
  N  N170  1  0.050200  0.033800  0.506000  1.0  -0.1978
  N  N171  1  0.756500  0.168930  0.019540  1.0  -0.3255
  N  N172  1  0.949800  0.466200  0.006000  1.0  -0.198
  O  O173  1  0.311900  0.515990  0.595550  1.0  -0.5803
  O  O174  1  0.481100  0.615250  0.564220  1.0  -0.6023
  O  O175  1  0.717000  0.992870  0.943340  1.0  -0.586
  O  O176  1  0.553300  0.891440  0.911830  1.0  -0.5755
  O  O177  1  0.688100  0.984010  0.095550  1.0  -0.581
  O  O178  1  0.518900  0.884750  0.064220  1.0  -0.6008
  O  O179  1  0.283000  0.507130  0.443340  1.0  -0.5861
  O  O180  1  0.446700  0.608560  0.411830  1.0  -0.5744
  O  O181  1  0.688100  0.484010  0.404450  1.0  -0.5814
  O  O182  1  0.518900  0.384750  0.435780  1.0  -0.6014
  O  O183  1  0.283000  0.007130  0.056660  1.0  -0.5856
  O  O184  1  0.446700  0.108560  0.088170  1.0  -0.5745
  O  O185  1  0.311900  0.015990  0.904450  1.0  -0.5809
  O  O186  1  0.481100  0.115250  0.935780  1.0  -0.6022
  O  O187  1  0.717000  0.492870  0.556660  1.0  -0.5856
  O  O188  1  0.553300  0.391440  0.588170  1.0  -0.5754
