# generated using pymatgen
data_CdH22C29(NO)4
_symmetry_space_group_name_H-M   'P 1'
_cell_length_a   15.93880000
_cell_length_b   16.18370000
_cell_length_c   28.52000000
_cell_angle_alpha   90.00000000
_cell_angle_beta   90.00000000
_cell_angle_gamma   105.71400000
_symmetry_Int_Tables_number   1
_chemical_formula_structural   CdH22C29(NO)4
_chemical_formula_sum   'Cd8 H176 C232 N32 O32'
_cell_volume   7081.74635254
_cell_formula_units_Z   8
loop_
 _symmetry_equiv_pos_site_id
 _symmetry_equiv_pos_as_xyz
  1  'x, y, z'
loop_
 _atom_site_type_symbol
 _atom_site_label
 _atom_site_symmetry_multiplicity
 _atom_site_fract_x
 _atom_site_fract_y
 _atom_site_fract_z
 _atom_site_occupancy
 _atom_site_charge
  Cd  Cd1  1  0.619990  0.136080  0.966190  1.0  1.0013
  Cd  Cd2  1  0.662010  0.350160  0.033980  1.0  0.9902
  Cd  Cd3  1  0.619990  0.636080  0.533810  1.0  1.0015
  Cd  Cd4  1  0.662010  0.850160  0.466020  1.0  0.9899
  Cd  Cd5  1  0.380010  0.363920  0.466190  1.0  1.0008
  Cd  Cd6  1  0.337990  0.149840  0.533980  1.0  0.989
  Cd  Cd7  1  0.380010  0.863920  0.033810  1.0  1.001
  Cd  Cd8  1  0.337990  0.649840  0.966020  1.0  0.9887
  H  H9  1  0.689600  0.506200  0.887000  1.0  0.1195
  H  H10  1  0.667200  0.253300  0.870200  1.0  0.0957
  H  H11  1  0.655000  0.264300  0.789600  1.0  0.1234
  H  H12  1  0.635000  0.309000  0.701300  1.0  0.1205
  H  H13  1  0.617700  0.376600  0.631300  1.0  0.097
  H  H14  1  0.657900  0.606500  0.698500  1.0  0.112
  H  H15  1  0.547700  0.539000  0.802800  1.0  0.1259
  H  H16  1  0.603000  0.630900  0.784300  1.0  0.1121
  H  H17  1  0.613500  0.603300  0.837400  1.0  0.1165
  H  H18  1  0.810200  0.588800  0.784900  1.0  0.1254
  H  H19  1  0.771300  0.633500  0.826500  1.0  0.12
  H  H20  1  0.761900  0.661200  0.773300  1.0  0.1207
  H  H21  1  0.611900  0.986400  0.113100  1.0  0.124
  H  H22  1  0.588600  0.229500  0.131900  1.0  0.1068
  H  H23  1  0.590400  0.213100  0.213300  1.0  0.1229
  H  H24  1  0.610000  0.165900  0.301500  1.0  0.1156
  H  H25  1  0.633600  0.100600  0.371400  1.0  0.1076
  H  H26  1  0.651900  0.889300  0.300100  1.0  0.1233
  H  H27  1  0.496000  0.885100  0.212700  1.0  0.1156
  H  H28  1  0.558100  0.824900  0.224400  1.0  0.1184
  H  H29  1  0.546100  0.851500  0.171300  1.0  0.1162
  H  H30  1  0.760900  0.977700  0.198900  1.0  0.132
  H  H31  1  0.705800  0.907800  0.163000  1.0  0.129
  H  H32  1  0.718300  0.881300  0.216100  1.0  0.1157
  H  H33  1  0.862200  0.427600  0.996200  1.0  0.0816
  H  H34  1  0.999500  0.417800  0.006700  1.0  0.1128
  H  H35  1  0.914200  0.242000  0.104900  1.0  0.1277
  H  H36  1  0.774100  0.260600  0.095200  1.0  0.077
  H  H37  1  0.069400  0.283100  0.089800  1.0  0.1003
  H  H38  1  0.245700  0.408300  0.999000  1.0  0.1016
  H  H39  1  0.334300  0.291500  0.086800  1.0  0.119
  H  H40  1  0.475700  0.276900  0.086300  1.0  0.0888
  H  H41  1  0.527900  0.412500  0.970300  1.0  0.0864
  H  H42  1  0.390300  0.430500  0.968500  1.0  0.1035
  H  H43  1  0.436200  0.092200  0.015500  1.0  0.0919
  H  H44  1  0.294500  0.106900  0.009900  1.0  0.1265
  H  H45  1  0.366600  0.241800  0.891500  1.0  0.1231
  H  H46  1  0.505200  0.223700  0.899900  1.0  0.0935
  H  H47  1  0.217300  0.221300  0.919400  1.0  0.1068
  H  H48  1  0.037100  0.088700  0.014400  1.0  0.1171
  H  H49  1  0.887800  0.046400  0.035100  1.0  0.1288
  H  H50  1  0.743500  0.053800  0.024800  1.0  0.0733
  H  H51  1  0.815300  0.239300  0.934800  1.0  0.0804
  H  H52  1  0.960200  0.231100  0.936500  1.0  0.136
  H  H53  1  0.689600  0.006200  0.613000  1.0  0.1199
  H  H54  1  0.667200  0.753300  0.629800  1.0  0.0961
  H  H55  1  0.655000  0.764300  0.710400  1.0  0.1232
  H  H56  1  0.635000  0.809000  0.798700  1.0  0.1204
  H  H57  1  0.617700  0.876600  0.868700  1.0  0.0968
  H  H58  1  0.657900  0.106500  0.801500  1.0  0.1118
  H  H59  1  0.547700  0.039000  0.697200  1.0  0.1254
  H  H60  1  0.603000  0.130900  0.715700  1.0  0.1115
  H  H61  1  0.613500  0.103300  0.662600  1.0  0.1173
  H  H62  1  0.810200  0.088800  0.715100  1.0  0.1248
  H  H63  1  0.771300  0.133500  0.673500  1.0  0.1202
  H  H64  1  0.761900  0.161200  0.726700  1.0  0.1195
  H  H65  1  0.611900  0.486400  0.386900  1.0  0.124
  H  H66  1  0.588600  0.729500  0.368100  1.0  0.1067
  H  H67  1  0.590400  0.713100  0.286700  1.0  0.1237
  H  H68  1  0.610000  0.665900  0.198500  1.0  0.1157
  H  H69  1  0.633600  0.600600  0.128600  1.0  0.1081
  H  H70  1  0.651900  0.389300  0.199900  1.0  0.1231
  H  H71  1  0.496000  0.385100  0.287300  1.0  0.1155
  H  H72  1  0.558100  0.324900  0.275600  1.0  0.1179
  H  H73  1  0.546100  0.351500  0.328700  1.0  0.1172
  H  H74  1  0.760900  0.477700  0.301100  1.0  0.1323
  H  H75  1  0.705800  0.407800  0.337000  1.0  0.1279
  H  H76  1  0.718300  0.381300  0.283900  1.0  0.1152
  H  H77  1  0.862200  0.927600  0.503800  1.0  0.0813
  H  H78  1  0.999500  0.917800  0.493300  1.0  0.1127
  H  H79  1  0.914200  0.742000  0.395100  1.0  0.1294
  H  H80  1  0.774100  0.760600  0.404800  1.0  0.0766
  H  H81  1  0.069400  0.783100  0.410200  1.0  0.0992
  H  H82  1  0.245700  0.908300  0.501000  1.0  0.1023
  H  H83  1  0.334300  0.791500  0.413200  1.0  0.1189
  H  H84  1  0.475700  0.776900  0.413700  1.0  0.0885
  H  H85  1  0.527900  0.912500  0.529700  1.0  0.0866
  H  H86  1  0.390300  0.930500  0.531500  1.0  0.1035
  H  H87  1  0.436200  0.592200  0.484500  1.0  0.0919
  H  H88  1  0.294500  0.606900  0.490100  1.0  0.1265
  H  H89  1  0.366600  0.741800  0.608500  1.0  0.1235
  H  H90  1  0.505200  0.723700  0.600100  1.0  0.0936
  H  H91  1  0.217300  0.721300  0.580600  1.0  0.1076
  H  H92  1  0.037100  0.588700  0.485600  1.0  0.1172
  H  H93  1  0.887800  0.546400  0.464900  1.0  0.1291
  H  H94  1  0.743500  0.553800  0.475200  1.0  0.0728
  H  H95  1  0.815300  0.739300  0.565200  1.0  0.0801
  H  H96  1  0.960200  0.731100  0.563500  1.0  0.1348
  H  H97  1  0.310400  0.993800  0.387000  1.0  0.1198
  H  H98  1  0.332800  0.246700  0.370200  1.0  0.0951
  H  H99  1  0.345000  0.235700  0.289600  1.0  0.1232
  H  H100  1  0.365000  0.191000  0.201300  1.0  0.1205
  H  H101  1  0.382300  0.123400  0.131300  1.0  0.097
  H  H102  1  0.342100  0.893500  0.198500  1.0  0.113
  H  H103  1  0.452300  0.961000  0.302800  1.0  0.1257
  H  H104  1  0.397000  0.869100  0.284300  1.0  0.1122
  H  H105  1  0.386500  0.896700  0.337400  1.0  0.1168
  H  H106  1  0.189800  0.911200  0.284900  1.0  0.1263
  H  H107  1  0.228700  0.866500  0.326500  1.0  0.12
  H  H108  1  0.238100  0.838800  0.273300  1.0  0.1181
  H  H109  1  0.388100  0.513600  0.613100  1.0  0.1237
  H  H110  1  0.411400  0.270500  0.631900  1.0  0.1067
  H  H111  1  0.409600  0.286900  0.713300  1.0  0.1239
  H  H112  1  0.390000  0.334100  0.801500  1.0  0.1146
  H  H113  1  0.366400  0.399400  0.871400  1.0  0.1084
  H  H114  1  0.348100  0.610700  0.800100  1.0  0.1234
  H  H115  1  0.504000  0.614900  0.712700  1.0  0.1168
  H  H116  1  0.441900  0.675100  0.724400  1.0  0.1176
  H  H117  1  0.453900  0.648500  0.671300  1.0  0.116
  H  H118  1  0.239100  0.522300  0.698900  1.0  0.1336
  H  H119  1  0.294200  0.592200  0.663000  1.0  0.1288
  H  H120  1  0.281700  0.618700  0.716100  1.0  0.1159
  H  H121  1  0.137800  0.072400  0.496200  1.0  0.0806
  H  H122  1  0.000500  0.082200  0.506700  1.0  0.1126
  H  H123  1  0.085800  0.258000  0.604900  1.0  0.128
  H  H124  1  0.225900  0.239400  0.595200  1.0  0.0761
  H  H125  1  0.930600  0.216900  0.589800  1.0  0.1
  H  H126  1  0.754300  0.091700  0.499000  1.0  0.1018
  H  H127  1  0.665700  0.208500  0.586800  1.0  0.1189
  H  H128  1  0.524300  0.223100  0.586300  1.0  0.0887
  H  H129  1  0.472100  0.087500  0.470300  1.0  0.0865
  H  H130  1  0.609700  0.069500  0.468500  1.0  0.1036
  H  H131  1  0.563800  0.407800  0.515500  1.0  0.0921
  H  H132  1  0.705500  0.393100  0.509900  1.0  0.126
  H  H133  1  0.633400  0.258200  0.391500  1.0  0.1227
  H  H134  1  0.494800  0.276300  0.399900  1.0  0.0935
  H  H135  1  0.782700  0.278700  0.419400  1.0  0.1062
  H  H136  1  0.962900  0.411300  0.514400  1.0  0.1175
  H  H137  1  0.112200  0.453600  0.535100  1.0  0.1289
  H  H138  1  0.256500  0.446200  0.524800  1.0  0.074
  H  H139  1  0.184700  0.260700  0.434800  1.0  0.08
  H  H140  1  0.039800  0.268900  0.436500  1.0  0.1354
  H  H141  1  0.310400  0.493800  0.113000  1.0  0.1192
  H  H142  1  0.332800  0.746700  0.129800  1.0  0.0952
  H  H143  1  0.345000  0.735700  0.210400  1.0  0.1227
  H  H144  1  0.365000  0.691000  0.298700  1.0  0.1207
  H  H145  1  0.382300  0.623400  0.368700  1.0  0.097
  H  H146  1  0.342100  0.393500  0.301500  1.0  0.114
  H  H147  1  0.452300  0.461000  0.197200  1.0  0.1257
  H  H148  1  0.397000  0.369100  0.215700  1.0  0.1125
  H  H149  1  0.386500  0.396700  0.162600  1.0  0.1171
  H  H150  1  0.189800  0.411200  0.215100  1.0  0.1262
  H  H151  1  0.228700  0.366500  0.173500  1.0  0.1209
  H  H152  1  0.238100  0.338800  0.226700  1.0  0.1193
  H  H153  1  0.388100  0.013600  0.886900  1.0  0.1238
  H  H154  1  0.411400  0.770500  0.868100  1.0  0.1067
  H  H155  1  0.409600  0.786900  0.786700  1.0  0.1239
  H  H156  1  0.390000  0.834100  0.698500  1.0  0.1147
  H  H157  1  0.366400  0.899400  0.628600  1.0  0.1076
  H  H158  1  0.348100  0.110700  0.699900  1.0  0.1239
  H  H159  1  0.504000  0.114900  0.787300  1.0  0.1166
  H  H160  1  0.441900  0.175100  0.775600  1.0  0.1181
  H  H161  1  0.453900  0.148500  0.828700  1.0  0.1169
  H  H162  1  0.239100  0.022300  0.801100  1.0  0.1335
  H  H163  1  0.294200  0.092200  0.837000  1.0  0.1285
  H  H164  1  0.281700  0.118700  0.783900  1.0  0.1159
  H  H165  1  0.137800  0.572400  0.003800  1.0  0.0806
  H  H166  1  0.000500  0.582200  0.993300  1.0  0.1131
  H  H167  1  0.085800  0.758000  0.895100  1.0  0.1287
  H  H168  1  0.225900  0.739400  0.904800  1.0  0.0759
  H  H169  1  0.930600  0.716900  0.910200  1.0  0.0993
  H  H170  1  0.754300  0.591700  0.001000  1.0  0.1027
  H  H171  1  0.665700  0.708500  0.913200  1.0  0.1189
  H  H172  1  0.524300  0.723100  0.913700  1.0  0.089
  H  H173  1  0.472100  0.587500  0.029700  1.0  0.0869
  H  H174  1  0.609700  0.569500  0.031500  1.0  0.1039
  H  H175  1  0.563800  0.907800  0.984500  1.0  0.0923
  H  H176  1  0.705500  0.893100  0.990100  1.0  0.1264
  H  H177  1  0.633400  0.758200  0.108500  1.0  0.1232
  H  H178  1  0.494800  0.776300  0.100100  1.0  0.0939
  H  H179  1  0.782700  0.778700  0.080600  1.0  0.1064
  H  H180  1  0.962900  0.911300  0.985600  1.0  0.1174
  H  H181  1  0.112200  0.953600  0.964900  1.0  0.1293
  H  H182  1  0.256500  0.946200  0.975200  1.0  0.0741
  H  H183  1  0.184700  0.760700  0.065200  1.0  0.0805
  H  H184  1  0.039800  0.768900  0.063500  1.0  0.1355
  C  C185  1  0.682300  0.457700  0.867100  1.0  -0.0664
  C  C186  1  0.677800  0.376100  0.886100  1.0  -0.1449
  C  C187  1  0.668500  0.307500  0.856900  1.0  -0.061
  C  C188  1  0.660900  0.313100  0.809100  1.0  -0.1578
  C  C189  1  0.638700  0.368600  0.700800  1.0  -0.122
  C  C190  1  0.629800  0.409500  0.659300  1.0  -0.0136
  C  C191  1  0.637900  0.498200  0.657000  1.0  -0.1747
  C  C192  1  0.653200  0.546700  0.699100  1.0  -0.0603
  C  C193  1  0.661500  0.506000  0.741100  1.0  0.0133
  C  C194  1  0.653400  0.417100  0.741800  1.0  -0.0265
  C  C195  1  0.662100  0.391900  0.790500  1.0  -0.0634
  C  C196  1  0.676000  0.465800  0.819100  1.0  0.0419
  C  C197  1  0.676300  0.544500  0.790100  1.0  -0.0016
  C  C198  1  0.603700  0.582800  0.804900  1.0  -0.3267
  C  C199  1  0.762500  0.613100  0.794100  1.0  -0.334
  C  C200  1  0.680700  0.365600  0.938700  1.0  0.6441
  C  C201  1  0.627800  0.540800  0.611800  1.0  0.6733
  C  C202  1  0.609700  0.032600  0.133200  1.0  -0.0685
  C  C203  1  0.601200  0.111000  0.114800  1.0  -0.1271
  C  C204  1  0.594500  0.177300  0.144900  1.0  -0.0814
  C  C205  1  0.596200  0.168400  0.193000  1.0  -0.1069
  C  C206  1  0.618700  0.110100  0.301300  1.0  -0.0925
  C  C207  1  0.632300  0.071200  0.342500  1.0  0.0031
  C  C208  1  0.644000  0.989400  0.342000  1.0  -0.1102
  C  C209  1  0.643500  0.945200  0.300300  1.0  -0.1299
  C  C210  1  0.630500  0.984800  0.258600  1.0  0.0064
  C  C211  1  0.618000  0.065900  0.259500  1.0  -0.0173
  C  C212  1  0.606800  0.090900  0.210800  1.0  -0.052
  C  C213  1  0.614500  0.025500  0.181300  1.0  -0.0306
  C  C214  1  0.628300  0.951300  0.209600  1.0  0.0205
  C  C215  1  0.549900  0.870800  0.204000  1.0  -0.3256
  C  C216  1  0.710600  0.927400  0.195700  1.0  -0.3451
  C  C217  1  0.600900  0.124600  0.062400  1.0  0.6565
  C  C218  1  0.659000  0.947000  0.388100  1.0  0.7023
  C  C219  1  0.872300  0.389800  0.019600  1.0  0.1865
  C  C220  1  0.953700  0.384600  0.025700  1.0  -0.1597
  C  C221  1  0.970600  0.332500  0.058500  1.0  0.0074
  C  C222  1  0.904500  0.283000  0.083200  1.0  -0.1335
  C  C223  1  0.820500  0.292900  0.076200  1.0  0.1426
  C  C224  1  0.060300  0.321400  0.066400  1.0  0.1448
  C  C225  1  0.259600  0.375300  0.024000  1.0  0.1474
  C  C226  1  0.345800  0.364100  0.026800  1.0  0.0563
  C  C227  1  0.373400  0.317300  0.062500  1.0  -0.1359
  C  C228  1  0.458000  0.308800  0.062100  1.0  0.1645
  C  C229  1  0.488200  0.387900  0.994600  1.0  0.1847
  C  C230  1  0.405800  0.398400  0.993300  1.0  -0.1465
  C  C231  1  0.421600  0.122900  0.989700  1.0  0.176
  C  C232  1  0.336700  0.131400  0.986700  1.0  -0.1465
  C  C233  1  0.315900  0.175600  0.949800  1.0  0.0598
  C  C234  1  0.379400  0.210400  0.917400  1.0  -0.1291
  C  C235  1  0.461700  0.199500  0.922500  1.0  0.1389
  C  C236  1  0.228900  0.186900  0.944300  1.0  0.1447
  C  C237  1  0.025500  0.125900  0.991100  1.0  0.09
  C  C238  1  0.938900  0.136300  0.985800  1.0  0.0159
  C  C239  1  0.874800  0.085100  0.013000  1.0  -0.2328
  C  C240  1  0.788400  0.091400  0.007000  1.0  0.173
  C  C241  1  0.829300  0.197500  0.954400  1.0  0.1684
  C  C242  1  0.917200  0.194300  0.955800  1.0  -0.164
  C  C243  1  0.682300  0.957700  0.632900  1.0  -0.0662
  C  C244  1  0.677800  0.876100  0.613900  1.0  -0.1431
  C  C245  1  0.668500  0.807500  0.643100  1.0  -0.0612
  C  C246  1  0.660900  0.813100  0.690900  1.0  -0.1567
  C  C247  1  0.638700  0.868600  0.799200  1.0  -0.1218
  C  C248  1  0.629800  0.909500  0.840700  1.0  -0.0141
  C  C249  1  0.637900  0.998200  0.843000  1.0  -0.176
  C  C250  1  0.653200  0.046700  0.800900  1.0  -0.06
  C  C251  1  0.661500  0.006000  0.758900  1.0  0.0138
  C  C252  1  0.653400  0.917100  0.758200  1.0  -0.027
  C  C253  1  0.662100  0.891900  0.709500  1.0  -0.0639
  C  C254  1  0.676000  0.965800  0.680900  1.0  0.0421
  C  C255  1  0.676300  0.044500  0.709900  1.0  -0.0018
  C  C256  1  0.603700  0.082800  0.695100  1.0  -0.3261
  C  C257  1  0.762500  0.113100  0.705900  1.0  -0.334
  C  C258  1  0.680700  0.865600  0.561300  1.0  0.6438
  C  C259  1  0.627800  0.040800  0.888200  1.0  0.6742
  C  C260  1  0.609700  0.532600  0.366800  1.0  -0.0694
  C  C261  1  0.601200  0.611000  0.385200  1.0  -0.1274
  C  C262  1  0.594500  0.677300  0.355100  1.0  -0.0814
  C  C263  1  0.596200  0.668400  0.307000  1.0  -0.107
  C  C264  1  0.618700  0.610100  0.198700  1.0  -0.092
  C  C265  1  0.632300  0.571200  0.157500  1.0  0.003
  C  C266  1  0.644000  0.489400  0.158000  1.0  -0.1067
  C  C267  1  0.643500  0.445200  0.199700  1.0  -0.13
  C  C268  1  0.630500  0.484800  0.241400  1.0  0.0066
  C  C269  1  0.618000  0.565900  0.240500  1.0  -0.0165
  C  C270  1  0.606800  0.590900  0.289200  1.0  -0.0519
  C  C271  1  0.614500  0.525500  0.318700  1.0  -0.0301
  C  C272  1  0.628300  0.451300  0.290400  1.0  0.0205
  C  C273  1  0.549900  0.370800  0.296000  1.0  -0.3254
  C  C274  1  0.710600  0.427400  0.304300  1.0  -0.3449
  C  C275  1  0.600900  0.624600  0.437600  1.0  0.6572
  C  C276  1  0.659000  0.447000  0.111900  1.0  0.7019
  C  C277  1  0.872300  0.889800  0.480400  1.0  0.1861
  C  C278  1  0.953700  0.884600  0.474300  1.0  -0.1596
  C  C279  1  0.970600  0.832500  0.441500  1.0  0.0069
  C  C280  1  0.904500  0.783000  0.416800  1.0  -0.1339
  C  C281  1  0.820500  0.792900  0.423800  1.0  0.143
  C  C282  1  0.060300  0.821400  0.433600  1.0  0.1437
  C  C283  1  0.259600  0.875300  0.476000  1.0  0.1472
  C  C284  1  0.345800  0.864100  0.473200  1.0  0.0562
  C  C285  1  0.373400  0.817300  0.437500  1.0  -0.1367
  C  C286  1  0.458000  0.808800  0.437900  1.0  0.164
  C  C287  1  0.488200  0.887900  0.505400  1.0  0.1843
  C  C288  1  0.405800  0.898400  0.506700  1.0  -0.1476
  C  C289  1  0.421600  0.622900  0.510300  1.0  0.176
  C  C290  1  0.336700  0.631400  0.513300  1.0  -0.1463
  C  C291  1  0.315900  0.675600  0.550200  1.0  0.0595
  C  C292  1  0.379400  0.710400  0.582600  1.0  -0.1301
  C  C293  1  0.461700  0.699500  0.577500  1.0  0.1389
  C  C294  1  0.228900  0.686900  0.555700  1.0  0.1447
  C  C295  1  0.025500  0.625900  0.508900  1.0  0.0897
  C  C296  1  0.938900  0.636300  0.514200  1.0  0.0167
  C  C297  1  0.874800  0.585100  0.487000  1.0  -0.2332
  C  C298  1  0.788400  0.591400  0.493000  1.0  0.1725
  C  C299  1  0.829300  0.697500  0.545600  1.0  0.1691
  C  C300  1  0.917200  0.694300  0.544200  1.0  -0.163
  C  C301  1  0.317700  0.042300  0.367100  1.0  -0.0658
  C  C302  1  0.322200  0.123900  0.386100  1.0  -0.1442
  C  C303  1  0.331500  0.192500  0.356900  1.0  -0.0618
  C  C304  1  0.339100  0.186900  0.309100  1.0  -0.1569
  C  C305  1  0.361300  0.131400  0.200800  1.0  -0.1248
  C  C306  1  0.370200  0.090500  0.159300  1.0  -0.0137
  C  C307  1  0.362100  0.001800  0.157000  1.0  -0.1768
  C  C308  1  0.346800  0.953300  0.199100  1.0  -0.0589
  C  C309  1  0.338500  0.994000  0.241100  1.0  0.0111
  C  C310  1  0.346600  0.082900  0.241800  1.0  -0.0257
  C  C311  1  0.337900  0.108100  0.290500  1.0  -0.0624
  C  C312  1  0.324000  0.034200  0.319100  1.0  0.0412
  C  C313  1  0.323700  0.955500  0.290100  1.0  -0.0014
  C  C314  1  0.396300  0.917200  0.304900  1.0  -0.3264
  C  C315  1  0.237500  0.886900  0.294100  1.0  -0.333
  C  C316  1  0.319300  0.134400  0.438700  1.0  0.6443
  C  C317  1  0.372200  0.959200  0.111800  1.0  0.6721
  C  C318  1  0.390300  0.467400  0.633200  1.0  -0.0698
  C  C319  1  0.398800  0.389000  0.614800  1.0  -0.1276
  C  C320  1  0.405500  0.322700  0.644900  1.0  -0.0824
  C  C321  1  0.403800  0.331600  0.693000  1.0  -0.1074
  C  C322  1  0.381300  0.389900  0.801300  1.0  -0.094
  C  C323  1  0.367700  0.428800  0.842500  1.0  0.0039
  C  C324  1  0.356000  0.510600  0.842000  1.0  -0.109
  C  C325  1  0.356500  0.554800  0.800300  1.0  -0.1331
  C  C326  1  0.369500  0.515200  0.758600  1.0  0.0079
  C  C327  1  0.382000  0.434100  0.759500  1.0  -0.0161
  C  C328  1  0.393200  0.409100  0.710800  1.0  -0.0516
  C  C329  1  0.385500  0.474500  0.681300  1.0  -0.0311
  C  C330  1  0.371700  0.548700  0.709600  1.0  0.0206
  C  C331  1  0.450100  0.629200  0.704000  1.0  -0.3272
  C  C332  1  0.289400  0.572600  0.695700  1.0  -0.3438
  C  C333  1  0.399100  0.375400  0.562400  1.0  0.6565
  C  C334  1  0.341000  0.553000  0.888100  1.0  0.7021
  C  C335  1  0.127700  0.110200  0.519600  1.0  0.1865
  C  C336  1  0.046300  0.115400  0.525700  1.0  -0.1612
  C  C337  1  0.029400  0.167500  0.558500  1.0  0.0065
  C  C338  1  0.095500  0.217000  0.583200  1.0  -0.1383
  C  C339  1  0.179500  0.207100  0.576200  1.0  0.1429
  C  C340  1  0.939700  0.178600  0.566400  1.0  0.1425
  C  C341  1  0.740400  0.124700  0.524000  1.0  0.1462
  C  C342  1  0.654200  0.135900  0.526800  1.0  0.0568
  C  C343  1  0.626600  0.182700  0.562500  1.0  -0.1365
  C  C344  1  0.542000  0.191200  0.562100  1.0  0.1633
  C  C345  1  0.511800  0.112100  0.494600  1.0  0.1844
  C  C346  1  0.594200  0.101600  0.493300  1.0  -0.1453
  C  C347  1  0.578400  0.377100  0.489700  1.0  0.1749
  C  C348  1  0.663300  0.368600  0.486700  1.0  -0.1496
  C  C349  1  0.684100  0.324400  0.449800  1.0  0.0616
  C  C350  1  0.620600  0.289600  0.417400  1.0  -0.1286
  C  C351  1  0.538300  0.300500  0.422500  1.0  0.1396
  C  C352  1  0.771100  0.313100  0.444300  1.0  0.1459
  C  C353  1  0.974500  0.374100  0.491100  1.0  0.0915
  C  C354  1  0.061100  0.363700  0.485800  1.0  0.0154
  C  C355  1  0.125200  0.414900  0.513000  1.0  -0.238
  C  C356  1  0.211600  0.408600  0.507000  1.0  0.1724
  C  C357  1  0.170700  0.302500  0.454400  1.0  0.168
  C  C358  1  0.082800  0.305700  0.455800  1.0  -0.162
  C  C359  1  0.317700  0.542300  0.132900  1.0  -0.0643
  C  C360  1  0.322200  0.623900  0.113900  1.0  -0.1447
  C  C361  1  0.331500  0.692500  0.143100  1.0  -0.062
  C  C362  1  0.339100  0.686900  0.190900  1.0  -0.1556
  C  C363  1  0.361300  0.631400  0.299200  1.0  -0.1243
  C  C364  1  0.370200  0.590500  0.340700  1.0  -0.0143
  C  C365  1  0.362100  0.501800  0.343000  1.0  -0.1751
  C  C366  1  0.346800  0.453300  0.300900  1.0  -0.0588
  C  C367  1  0.338500  0.494000  0.258900  1.0  0.0121
  C  C368  1  0.346600  0.582900  0.258200  1.0  -0.0264
  C  C369  1  0.337900  0.608100  0.209500  1.0  -0.062
  C  C370  1  0.324000  0.534200  0.180900  1.0  0.0413
  C  C371  1  0.323700  0.455500  0.209900  1.0  -0.0013
  C  C372  1  0.396300  0.417200  0.195100  1.0  -0.3263
  C  C373  1  0.237500  0.386900  0.205900  1.0  -0.3328
  C  C374  1  0.319300  0.634400  0.061300  1.0  0.6444
  C  C375  1  0.372200  0.459200  0.388200  1.0  0.672
  C  C376  1  0.390300  0.967400  0.866800  1.0  -0.0702
  C  C377  1  0.398800  0.889000  0.885200  1.0  -0.1265
  C  C378  1  0.405500  0.822700  0.855100  1.0  -0.0826
  C  C379  1  0.403800  0.831600  0.807000  1.0  -0.1077
  C  C380  1  0.381300  0.889900  0.698700  1.0  -0.0945
  C  C381  1  0.367700  0.928800  0.657500  1.0  0.0016
  C  C382  1  0.356000  0.010600  0.658000  1.0  -0.1081
  C  C383  1  0.356500  0.054800  0.699700  1.0  -0.1335
  C  C384  1  0.369500  0.015200  0.741400  1.0  0.007
  C  C385  1  0.382000  0.934100  0.740500  1.0  -0.0156
  C  C386  1  0.393200  0.909100  0.789200  1.0  -0.0519
  C  C387  1  0.385500  0.974500  0.818700  1.0  -0.03
  C  C388  1  0.371700  0.048700  0.790400  1.0  0.0205
  C  C389  1  0.450100  0.129200  0.796000  1.0  -0.3273
  C  C390  1  0.289400  0.072600  0.804300  1.0  -0.3442
  C  C391  1  0.399100  0.875400  0.937600  1.0  0.6572
  C  C392  1  0.341000  0.053000  0.611900  1.0  0.7028
  C  C393  1  0.127700  0.610200  0.980400  1.0  0.1871
  C  C394  1  0.046300  0.615400  0.974300  1.0  -0.161
  C  C395  1  0.029400  0.667500  0.941500  1.0  0.0046
  C  C396  1  0.095500  0.717000  0.916800  1.0  -0.1359
  C  C397  1  0.179500  0.707100  0.923800  1.0  0.1428
  C  C398  1  0.939700  0.678600  0.933600  1.0  0.1419
  C  C399  1  0.740400  0.624700  0.976000  1.0  0.1462
  C  C400  1  0.654200  0.635900  0.973200  1.0  0.0569
  C  C401  1  0.626600  0.682700  0.937500  1.0  -0.1374
  C  C402  1  0.542000  0.691200  0.937900  1.0  0.163
  C  C403  1  0.511800  0.612100  0.005400  1.0  0.1839
  C  C404  1  0.594200  0.601600  0.006700  1.0  -0.1462
  C  C405  1  0.578400  0.877100  0.010300  1.0  0.1752
  C  C406  1  0.663300  0.868600  0.013300  1.0  -0.1493
  C  C407  1  0.684100  0.824400  0.050200  1.0  0.0612
  C  C408  1  0.620600  0.789600  0.082600  1.0  -0.1291
  C  C409  1  0.538300  0.800500  0.077500  1.0  0.1399
  C  C410  1  0.771100  0.813100  0.055700  1.0  0.1457
  C  C411  1  0.974500  0.874100  0.008900  1.0  0.0915
  C  C412  1  0.061100  0.863700  0.014200  1.0  0.016
  C  C413  1  0.125200  0.914900  0.987000  1.0  -0.2379
  C  C414  1  0.211600  0.908600  0.993000  1.0  0.1721
  C  C415  1  0.170700  0.802500  0.045600  1.0  0.1689
  C  C416  1  0.082800  0.805700  0.044200  1.0  -0.1657
  N  N417  1  0.803700  0.344800  0.044600  1.0  -0.3124
  N  N418  1  0.122800  0.362700  0.042000  1.0  -0.2285
  N  N419  1  0.203000  0.342900  0.053400  1.0  -0.1988
  N  N420  1  0.514800  0.343900  0.028800  1.0  -0.3385
  N  N421  1  0.481800  0.155500  0.958600  1.0  -0.3385
  N  N422  1  0.168000  0.150700  0.972800  1.0  -0.2469
  N  N423  1  0.088700  0.168600  0.963100  1.0  -0.2549
  N  N424  1  0.766200  0.146200  0.978400  1.0  -0.3223
  N  N425  1  0.803700  0.844800  0.455400  1.0  -0.3121
  N  N426  1  0.122800  0.862700  0.458000  1.0  -0.2291
  N  N427  1  0.203000  0.842900  0.446600  1.0  -0.2001
  N  N428  1  0.514800  0.843900  0.471200  1.0  -0.3383
  N  N429  1  0.481800  0.655500  0.541400  1.0  -0.3386
  N  N430  1  0.168000  0.650700  0.527200  1.0  -0.2483
  N  N431  1  0.088700  0.668600  0.536900  1.0  -0.2548
  N  N432  1  0.766200  0.646200  0.521600  1.0  -0.322
  N  N433  1  0.196300  0.155200  0.544600  1.0  -0.3141
  N  N434  1  0.877200  0.137300  0.542000  1.0  -0.2274
  N  N435  1  0.797000  0.157100  0.553400  1.0  -0.1998
  N  N436  1  0.485200  0.156100  0.528800  1.0  -0.3409
  N  N437  1  0.518200  0.344500  0.458600  1.0  -0.3402
  N  N438  1  0.832000  0.349300  0.472800  1.0  -0.2468
  N  N439  1  0.911300  0.331400  0.463100  1.0  -0.2556
  N  N440  1  0.233800  0.353800  0.478400  1.0  -0.3214
  N  N441  1  0.196300  0.655200  0.955400  1.0  -0.3142
  N  N442  1  0.877200  0.637300  0.958000  1.0  -0.228
  N  N443  1  0.797000  0.657100  0.946600  1.0  -0.1999
  N  N444  1  0.485200  0.656100  0.971200  1.0  -0.3408
  N  N445  1  0.518200  0.844500  0.041400  1.0  -0.3401
  N  N446  1  0.832000  0.849300  0.027200  1.0  -0.247
  N  N447  1  0.911300  0.831400  0.036900  1.0  -0.2536
  N  N448  1  0.233800  0.853800  0.021600  1.0  -0.321
  O  O449  1  0.690200  0.429400  0.964200  1.0  -0.5851
  O  O450  1  0.669300  0.291200  0.954900  1.0  -0.6884
  O  O451  1  0.625800  0.616400  0.613000  1.0  -0.5889
  O  O452  1  0.625200  0.498600  0.574900  1.0  -0.6327
  O  O453  1  0.592800  0.061300  0.036400  1.0  -0.6156
  O  O454  1  0.612600  0.200200  0.046900  1.0  -0.7285
  O  O455  1  0.672900  0.989300  0.425200  1.0  -0.651
  O  O456  1  0.654600  0.868100  0.386100  1.0  -0.6108
  O  O457  1  0.690200  0.929400  0.535800  1.0  -0.5856
  O  O458  1  0.669300  0.791200  0.545100  1.0  -0.6892
  O  O459  1  0.625800  0.116400  0.887000  1.0  -0.5895
  O  O460  1  0.625200  0.998600  0.925100  1.0  -0.6332
  O  O461  1  0.592800  0.561300  0.463600  1.0  -0.6151
  O  O462  1  0.612600  0.700200  0.453100  1.0  -0.7289
  O  O463  1  0.672900  0.489300  0.074800  1.0  -0.6505
  O  O464  1  0.654600  0.368100  0.113900  1.0  -0.6106
  O  O465  1  0.309800  0.070600  0.464200  1.0  -0.584
  O  O466  1  0.330700  0.208800  0.454900  1.0  -0.689
  O  O467  1  0.374200  0.883600  0.113000  1.0  -0.5907
  O  O468  1  0.374800  0.001400  0.074900  1.0  -0.6331
  O  O469  1  0.407200  0.438700  0.536400  1.0  -0.6158
  O  O470  1  0.387400  0.299800  0.546900  1.0  -0.7296
  O  O471  1  0.327100  0.510700  0.925200  1.0  -0.6516
  O  O472  1  0.345400  0.631900  0.886100  1.0  -0.6126
  O  O473  1  0.309800  0.570600  0.035800  1.0  -0.5845
  O  O474  1  0.330700  0.708800  0.045100  1.0  -0.689
  O  O475  1  0.374200  0.383600  0.387000  1.0  -0.591
  O  O476  1  0.374800  0.501400  0.425100  1.0  -0.6334
  O  O477  1  0.407200  0.938700  0.963600  1.0  -0.6153
  O  O478  1  0.387400  0.799800  0.953100  1.0  -0.7293
  O  O479  1  0.327100  0.010700  0.574800  1.0  -0.6524
  O  O480  1  0.345400  0.131900  0.613900  1.0  -0.6116
