# generated using pymatgen
data_Eu3Ag5H42C60N10O21
_symmetry_space_group_name_H-M   'P 1'
_cell_length_a   21.92200000
_cell_length_b   33.73000000
_cell_length_c   14.94800000
_cell_angle_alpha   90.00000000
_cell_angle_beta   130.51200000
_cell_angle_gamma   90.00000000
_symmetry_Int_Tables_number   1
_chemical_formula_structural   Eu3Ag5H42C60N10O21
_chemical_formula_sum   'Eu12 Ag20 H168 C240 N40 O84'
_cell_volume   8403.25256715
_cell_formula_units_Z   4
loop_
 _symmetry_equiv_pos_site_id
 _symmetry_equiv_pos_as_xyz
  1  'x, y, z'
loop_
 _atom_site_type_symbol
 _atom_site_label
 _atom_site_symmetry_multiplicity
 _atom_site_fract_x
 _atom_site_fract_y
 _atom_site_fract_z
 _atom_site_occupancy
 _atom_site_charge
  Eu  Eu1  1  0.655920  0.257360  0.001110  1.0  2.1575
  Eu  Eu2  1  0.588080  0.245250  0.588880  1.0  2.1627
  Eu  Eu3  1  0.600410  0.246130  0.293680  1.0  2.1685
  Eu  Eu4  1  0.155920  0.757360  0.001110  1.0  2.1575
  Eu  Eu5  1  0.088080  0.745250  0.588880  1.0  2.1627
  Eu  Eu6  1  0.100410  0.746130  0.293680  1.0  2.1685
  Eu  Eu7  1  0.655920  0.742640  0.501110  1.0  2.1575
  Eu  Eu8  1  0.588080  0.754750  0.088880  1.0  2.1627
  Eu  Eu9  1  0.600410  0.753870  0.793680  1.0  2.1684
  Eu  Eu10  1  0.155920  0.242640  0.501110  1.0  2.1575
  Eu  Eu11  1  0.088080  0.254750  0.088880  1.0  2.1627
  Eu  Eu12  1  0.100410  0.253870  0.793680  1.0  2.1684
  Ag  Ag13  1  0.491350  0.005620  0.785040  1.0  0.2227
  Ag  Ag14  1  0.690630  0.000960  0.098060  1.0  0.2116
  Ag  Ag15  1  0.598240  0.499360  0.744880  1.0  0.2229
  Ag  Ag16  1  0.807550  0.513110  0.105320  1.0  0.2006
  Ag  Ag17  1  0.382280  0.485600  0.290240  1.0  0.1679
  Ag  Ag18  1  0.991350  0.505620  0.785040  1.0  0.2227
  Ag  Ag19  1  0.190630  0.500960  0.098060  1.0  0.2116
  Ag  Ag20  1  0.098240  0.999360  0.744880  1.0  0.2229
  Ag  Ag21  1  0.307550  0.013110  0.105320  1.0  0.2006
  Ag  Ag22  1  0.882280  0.985600  0.290240  1.0  0.1679
  Ag  Ag23  1  0.491350  0.994380  0.285040  1.0  0.2228
  Ag  Ag24  1  0.690630  0.999040  0.598060  1.0  0.2115
  Ag  Ag25  1  0.598240  0.500640  0.244880  1.0  0.2227
  Ag  Ag26  1  0.807550  0.486890  0.605320  1.0  0.2007
  Ag  Ag27  1  0.382280  0.514400  0.790240  1.0  0.1681
  Ag  Ag28  1  0.991350  0.494380  0.285040  1.0  0.2228
  Ag  Ag29  1  0.190630  0.499040  0.598060  1.0  0.2115
  Ag  Ag30  1  0.098240  0.000640  0.244880  1.0  0.2227
  Ag  Ag31  1  0.307550  0.986890  0.605320  1.0  0.2007
  Ag  Ag32  1  0.882280  0.014400  0.790240  1.0  0.1681
  H  H33  1  0.714300  0.227300  0.773600  1.0  0.409
  H  H34  1  0.744000  0.261900  0.858700  1.0  0.3994
  H  H35  1  0.476200  0.091400  0.851000  1.0  0.0823
  H  H36  1  0.507700  0.155900  0.845000  1.0  0.1146
  H  H37  1  0.593900  0.118200  0.693200  1.0  0.0982
  H  H38  1  0.562900  0.054200  0.705000  1.0  0.0681
  H  H39  1  0.712400  0.074400  0.722500  1.0  0.0824
  H  H40  1  0.712200  0.142800  0.708600  1.0  0.1174
  H  H41  1  0.693600  0.127800  0.425000  1.0  0.1033
  H  H42  1  0.697100  0.060300  0.450400  1.0  0.0761
  H  H43  1  0.499700  0.057100  0.439800  1.0  0.0691
  H  H44  1  0.499900  0.124700  0.462700  1.0  0.1142
  H  H45  1  0.478900  0.138800  0.176800  1.0  0.119
  H  H46  1  0.473400  0.071500  0.156900  1.0  0.0879
  H  H47  1  0.620100  0.051400  0.181800  1.0  0.0738
  H  H48  1  0.599900  0.115800  0.203500  1.0  0.0986
  H  H49  1  0.697200  0.149500  0.063400  1.0  0.1008
  H  H50  1  0.721100  0.084000  0.054800  1.0  0.0699
  H  H51  1  0.794000  0.432200  0.189600  1.0  0.0744
  H  H52  1  0.772600  0.367000  0.141000  1.0  0.1028
  H  H53  1  0.809600  0.389900  0.919200  1.0  0.0986
  H  H54  1  0.826000  0.454900  0.971300  1.0  0.0552
  H  H55  1  0.574900  0.434800  0.868100  1.0  0.0652
  H  H56  1  0.564800  0.366900  0.872400  1.0  0.1144
  H  H57  1  0.602300  0.358700  0.643400  1.0  0.1062
  H  H58  1  0.622800  0.425600  0.660500  1.0  0.0807
  H  H59  1  0.788500  0.424100  0.732800  1.0  0.0719
  H  H60  1  0.732900  0.363900  0.702200  1.0  0.1038
  H  H61  1  0.741000  0.345500  0.446300  1.0  0.1075
  H  H62  1  0.791200  0.408800  0.478600  1.0  0.0718
  H  H63  1  0.419200  0.410400  0.432100  1.0  0.0685
  H  H64  1  0.464200  0.346400  0.457000  1.0  0.112
  H  H65  1  0.421600  0.356400  0.154000  1.0  0.1078
  H  H66  1  0.379400  0.420300  0.138700  1.0  0.07
  H  H67  1  0.566800  0.416300  0.289700  1.0  0.0856
  H  H68  1  0.566900  0.351600  0.243700  1.0  0.0954
  H  H69  1  0.643400  0.386900  0.076300  1.0  0.1094
  H  H70  1  0.635800  0.451000  0.117100  1.0  0.0847
  H  H71  1  0.361700  0.543500  0.425900  1.0  0.0655
  H  H72  1  0.364900  0.611800  0.465700  1.0  0.1174
  H  H73  1  0.401500  0.634900  0.239900  1.0  0.1147
  H  H74  1  0.400100  0.566700  0.211300  1.0  0.0723
  H  H75  1  0.214300  0.727300  0.773600  1.0  0.409
  H  H76  1  0.244000  0.761900  0.858700  1.0  0.3994
  H  H77  1  0.976200  0.591400  0.851000  1.0  0.0823
  H  H78  1  0.007700  0.655900  0.845000  1.0  0.1146
  H  H79  1  0.093900  0.618200  0.693200  1.0  0.0982
  H  H80  1  0.062900  0.554200  0.705000  1.0  0.0681
  H  H81  1  0.212400  0.574400  0.722500  1.0  0.0824
  H  H82  1  0.212200  0.642800  0.708600  1.0  0.1174
  H  H83  1  0.193600  0.627800  0.425000  1.0  0.1033
  H  H84  1  0.197100  0.560300  0.450400  1.0  0.0761
  H  H85  1  0.999700  0.557100  0.439800  1.0  0.0691
  H  H86  1  0.999900  0.624700  0.462700  1.0  0.1142
  H  H87  1  0.978900  0.638800  0.176800  1.0  0.119
  H  H88  1  0.973400  0.571500  0.156900  1.0  0.0879
  H  H89  1  0.120100  0.551400  0.181800  1.0  0.0738
  H  H90  1  0.099900  0.615800  0.203500  1.0  0.0986
  H  H91  1  0.197200  0.649500  0.063400  1.0  0.1008
  H  H92  1  0.221100  0.584000  0.054800  1.0  0.0699
  H  H93  1  0.294000  0.932200  0.189600  1.0  0.0744
  H  H94  1  0.272600  0.867000  0.141000  1.0  0.1028
  H  H95  1  0.309600  0.889900  0.919200  1.0  0.0986
  H  H96  1  0.326000  0.954900  0.971300  1.0  0.0552
  H  H97  1  0.074900  0.934800  0.868100  1.0  0.0652
  H  H98  1  0.064800  0.866900  0.872400  1.0  0.1144
  H  H99  1  0.102300  0.858700  0.643400  1.0  0.1062
  H  H100  1  0.122800  0.925600  0.660500  1.0  0.0807
  H  H101  1  0.288500  0.924100  0.732800  1.0  0.0719
  H  H102  1  0.232900  0.863900  0.702200  1.0  0.1038
  H  H103  1  0.241000  0.845500  0.446300  1.0  0.1075
  H  H104  1  0.291200  0.908800  0.478600  1.0  0.0718
  H  H105  1  0.919200  0.910400  0.432100  1.0  0.0685
  H  H106  1  0.964200  0.846400  0.457000  1.0  0.112
  H  H107  1  0.921600  0.856400  0.154000  1.0  0.1078
  H  H108  1  0.879400  0.920300  0.138700  1.0  0.07
  H  H109  1  0.066800  0.916300  0.289700  1.0  0.0856
  H  H110  1  0.066900  0.851600  0.243700  1.0  0.0954
  H  H111  1  0.143400  0.886900  0.076300  1.0  0.1094
  H  H112  1  0.135800  0.951000  0.117100  1.0  0.0847
  H  H113  1  0.861700  0.043500  0.425900  1.0  0.0655
  H  H114  1  0.864900  0.111800  0.465700  1.0  0.1174
  H  H115  1  0.901500  0.134900  0.239900  1.0  0.1147
  H  H116  1  0.900100  0.066700  0.211300  1.0  0.0723
  H  H117  1  0.714300  0.772700  0.273600  1.0  0.4101
  H  H118  1  0.744000  0.738100  0.358700  1.0  0.3999
  H  H119  1  0.476200  0.908600  0.351000  1.0  0.0836
  H  H120  1  0.507700  0.844100  0.345000  1.0  0.1145
  H  H121  1  0.593900  0.881800  0.193200  1.0  0.0982
  H  H122  1  0.562900  0.945800  0.205000  1.0  0.0675
  H  H123  1  0.712400  0.925600  0.222500  1.0  0.0824
  H  H124  1  0.712200  0.857200  0.208600  1.0  0.1174
  H  H125  1  0.693600  0.872200  0.925000  1.0  0.1036
  H  H126  1  0.697100  0.939700  0.950400  1.0  0.075
  H  H127  1  0.499700  0.942900  0.939800  1.0  0.0689
  H  H128  1  0.499900  0.875300  0.962700  1.0  0.1146
  H  H129  1  0.478900  0.861200  0.676800  1.0  0.119
  H  H130  1  0.473400  0.928500  0.656900  1.0  0.0874
  H  H131  1  0.620100  0.948600  0.681800  1.0  0.0735
  H  H132  1  0.599900  0.884200  0.703500  1.0  0.0988
  H  H133  1  0.697200  0.850500  0.563400  1.0  0.1012
  H  H134  1  0.721100  0.916000  0.554800  1.0  0.0697
  H  H135  1  0.794000  0.567800  0.689600  1.0  0.0743
  H  H136  1  0.772600  0.633000  0.641000  1.0  0.1028
  H  H137  1  0.809600  0.610100  0.419200  1.0  0.0987
  H  H138  1  0.826000  0.545100  0.471300  1.0  0.0564
  H  H139  1  0.574900  0.565200  0.368100  1.0  0.0661
  H  H140  1  0.564800  0.633100  0.372400  1.0  0.114
  H  H141  1  0.602300  0.641300  0.143400  1.0  0.1062
  H  H142  1  0.622800  0.574400  0.160500  1.0  0.0812
  H  H143  1  0.788500  0.575900  0.232800  1.0  0.0722
  H  H144  1  0.732900  0.636100  0.202200  1.0  0.1037
  H  H145  1  0.741000  0.654500  0.946300  1.0  0.1076
  H  H146  1  0.791200  0.591200  0.978600  1.0  0.0735
  H  H147  1  0.419200  0.589600  0.932100  1.0  0.0683
  H  H148  1  0.464200  0.653600  0.957000  1.0  0.1118
  H  H149  1  0.421600  0.643600  0.654000  1.0  0.1078
  H  H150  1  0.379400  0.579700  0.638700  1.0  0.0702
  H  H151  1  0.566800  0.583700  0.789700  1.0  0.0858
  H  H152  1  0.566900  0.648400  0.743700  1.0  0.0953
  H  H153  1  0.643400  0.613100  0.576300  1.0  0.1093
  H  H154  1  0.635800  0.549000  0.617100  1.0  0.0852
  H  H155  1  0.361700  0.456500  0.925900  1.0  0.0644
  H  H156  1  0.364900  0.388200  0.965700  1.0  0.1176
  H  H157  1  0.401500  0.365100  0.739900  1.0  0.1148
  H  H158  1  0.400100  0.433300  0.711300  1.0  0.0722
  H  H159  1  0.214300  0.272700  0.273600  1.0  0.4101
  H  H160  1  0.244000  0.238100  0.358700  1.0  0.3999
  H  H161  1  0.976200  0.408600  0.351000  1.0  0.0836
  H  H162  1  0.007700  0.344100  0.345000  1.0  0.1145
  H  H163  1  0.093900  0.381800  0.193200  1.0  0.0982
  H  H164  1  0.062900  0.445800  0.205000  1.0  0.0675
  H  H165  1  0.212400  0.425600  0.222500  1.0  0.0824
  H  H166  1  0.212200  0.357200  0.208600  1.0  0.1174
  H  H167  1  0.193600  0.372200  0.925000  1.0  0.1036
  H  H168  1  0.197100  0.439700  0.950400  1.0  0.075
  H  H169  1  0.999700  0.442900  0.939800  1.0  0.0689
  H  H170  1  0.999900  0.375300  0.962700  1.0  0.1146
  H  H171  1  0.978900  0.361200  0.676800  1.0  0.119
  H  H172  1  0.973400  0.428500  0.656900  1.0  0.0874
  H  H173  1  0.120100  0.448600  0.681800  1.0  0.0735
  H  H174  1  0.099900  0.384200  0.703500  1.0  0.0988
  H  H175  1  0.197200  0.350500  0.563400  1.0  0.1012
  H  H176  1  0.221100  0.416000  0.554800  1.0  0.0697
  H  H177  1  0.294000  0.067800  0.689600  1.0  0.0743
  H  H178  1  0.272600  0.133000  0.641000  1.0  0.1028
  H  H179  1  0.309600  0.110100  0.419200  1.0  0.0987
  H  H180  1  0.326000  0.045100  0.471300  1.0  0.0564
  H  H181  1  0.074900  0.065200  0.368100  1.0  0.0661
  H  H182  1  0.064800  0.133100  0.372400  1.0  0.114
  H  H183  1  0.102300  0.141300  0.143400  1.0  0.1062
  H  H184  1  0.122800  0.074400  0.160500  1.0  0.0812
  H  H185  1  0.288500  0.075900  0.232800  1.0  0.0722
  H  H186  1  0.232900  0.136100  0.202200  1.0  0.1037
  H  H187  1  0.241000  0.154500  0.946300  1.0  0.1076
  H  H188  1  0.291200  0.091200  0.978600  1.0  0.0735
  H  H189  1  0.919200  0.089600  0.932100  1.0  0.0683
  H  H190  1  0.964200  0.153600  0.957000  1.0  0.1118
  H  H191  1  0.921600  0.143600  0.654000  1.0  0.1078
  H  H192  1  0.879400  0.079700  0.638700  1.0  0.0702
  H  H193  1  0.066800  0.083700  0.789700  1.0  0.0858
  H  H194  1  0.066900  0.148400  0.743700  1.0  0.0953
  H  H195  1  0.143400  0.113100  0.576300  1.0  0.1093
  H  H196  1  0.135800  0.049000  0.617100  1.0  0.0852
  H  H197  1  0.861700  0.956500  0.925900  1.0  0.0644
  H  H198  1  0.864900  0.888200  0.965700  1.0  0.1176
  H  H199  1  0.901500  0.865100  0.739900  1.0  0.1148
  H  H200  1  0.900100  0.933300  0.711300  1.0  0.0722
  C  C201  1  0.500300  0.096700  0.819100  1.0  0.1384
  C  C202  1  0.519600  0.135600  0.816400  1.0  -0.1556
  C  C203  1  0.556600  0.144170  0.771400  1.0  -0.0778
  C  C204  1  0.571000  0.113300  0.726900  1.0  -0.13
  C  C205  1  0.551000  0.074900  0.732700  1.0  0.1531
  C  C206  1  0.583400  0.185380  0.774000  1.0  0.7529
  C  C207  1  0.707100  0.085500  0.660800  1.0  0.1468
  C  C208  1  0.707500  0.126800  0.653900  1.0  -0.1793
  C  C209  1  0.700700  0.143200  0.561900  1.0  -0.086
  C  C210  1  0.696800  0.117700  0.485800  1.0  -0.1413
  C  C211  1  0.697700  0.077000  0.500500  1.0  0.1438
  C  C212  1  0.688000  0.187000  0.537300  1.0  0.7024
  C  C213  1  0.495200  0.073900  0.386300  1.0  0.1339
  C  C214  1  0.496800  0.114500  0.402100  1.0  -0.1519
  C  C215  1  0.493700  0.139230  0.326100  1.0  -0.1203
  C  C216  1  0.483600  0.122700  0.231400  1.0  -0.1371
  C  C217  1  0.480600  0.082400  0.220400  1.0  0.1533
  C  C218  1  0.505800  0.184000  0.347900  1.0  0.6937
  C  C219  1  0.636000  0.071400  0.158000  1.0  0.1496
  C  C220  1  0.623900  0.110100  0.171700  1.0  -0.157
  C  C221  1  0.647600  0.140860  0.138000  1.0  -0.0625
  C  C222  1  0.682200  0.130100  0.090100  1.0  -0.1542
  C  C223  1  0.694400  0.090500  0.082100  1.0  0.1487
  C  C224  1  0.634200  0.182900  0.148800  1.0  0.6878
  C  C225  1  0.795200  0.423600  0.131600  1.0  0.1623
  C  C226  1  0.782900  0.384200  0.103500  1.0  -0.2131
  C  C227  1  0.785600  0.369800  0.019600  1.0  -0.0659
  C  C228  1  0.804000  0.397700  0.973300  1.0  -0.1987
  C  C229  1  0.814300  0.437000  0.005700  1.0  0.1615
  C  C230  1  0.767900  0.327200  0.978700  1.0  0.6835
  C  C231  1  0.581200  0.419100  0.823400  1.0  0.1591
  C  C232  1  0.573600  0.378300  0.825100  1.0  -0.1577
  C  C233  1  0.579600  0.355100  0.754100  1.0  -0.0678
  C  C234  1  0.597400  0.373400  0.691000  1.0  -0.1765
  C  C235  1  0.607600  0.413600  0.699600  1.0  0.1595
  C  C236  1  0.570800  0.310900  0.750900  1.0  0.709
  C  C237  1  0.775600  0.408800  0.670800  1.0  0.1797
  C  C238  1  0.744400  0.372200  0.655300  1.0  -0.1791
  C  C239  1  0.729800  0.347300  0.569600  1.0  -0.0637
  C  C240  1  0.748300  0.361400  0.503400  1.0  -0.1633
  C  C241  1  0.778100  0.399700  0.522900  1.0  0.1565
  C  C242  1  0.688400  0.307600  0.542100  1.0  0.7137
  C  C243  1  0.420900  0.399500  0.376600  1.0  0.1439
  C  C244  1  0.448500  0.361200  0.392500  1.0  -0.1335
  C  C245  1  0.452400  0.344900  0.310200  1.0  -0.1069
  C  C246  1  0.423600  0.367000  0.213200  1.0  -0.2025
  C  C247  1  0.397300  0.405300  0.203900  1.0  0.1649
  C  C248  1  0.492400  0.304300  0.333800  1.0  0.6927
  C  C249  1  0.582000  0.410400  0.245800  1.0  0.1466
  C  C250  1  0.583300  0.371500  0.220200  1.0  -0.1456
  C  C251  1  0.608600  0.362000  0.160700  1.0  -0.1192
  C  C252  1  0.627900  0.392500  0.119900  1.0  -0.1602
  C  C253  1  0.623500  0.430700  0.145100  1.0  0.1514
  C  C254  1  0.621100  0.318800  0.143300  1.0  0.6844
  C  C255  1  0.370800  0.561900  0.389400  1.0  0.1525
  C  C256  1  0.372500  0.603400  0.414200  1.0  -0.0627
  C  C257  1  0.385600  0.629700  0.359200  1.0  -0.1179
  C  C258  1  0.394600  0.617000  0.280000  1.0  -0.1223
  C  C259  1  0.393000  0.575700  0.262800  1.0  0.1251
  C  C260  1  0.385100  0.674400  0.382300  1.0  0.5836
  C  C261  1  0.000300  0.596700  0.819100  1.0  0.1384
  C  C262  1  0.019600  0.635600  0.816400  1.0  -0.1556
  C  C263  1  0.056600  0.644170  0.771400  1.0  -0.0778
  C  C264  1  0.071000  0.613300  0.726900  1.0  -0.13
  C  C265  1  0.051000  0.574900  0.732700  1.0  0.1531
  C  C266  1  0.083400  0.685380  0.774000  1.0  0.7529
  C  C267  1  0.207100  0.585500  0.660800  1.0  0.1468
  C  C268  1  0.207500  0.626800  0.653900  1.0  -0.1793
  C  C269  1  0.200700  0.643200  0.561900  1.0  -0.086
  C  C270  1  0.196800  0.617700  0.485800  1.0  -0.1413
  C  C271  1  0.197700  0.577000  0.500500  1.0  0.1438
  C  C272  1  0.188000  0.687000  0.537300  1.0  0.7024
  C  C273  1  0.995200  0.573900  0.386300  1.0  0.1339
  C  C274  1  0.996800  0.614500  0.402100  1.0  -0.1519
  C  C275  1  0.993700  0.639230  0.326100  1.0  -0.1203
  C  C276  1  0.983600  0.622700  0.231400  1.0  -0.1371
  C  C277  1  0.980600  0.582400  0.220400  1.0  0.1533
  C  C278  1  0.005800  0.684000  0.347900  1.0  0.6937
  C  C279  1  0.136000  0.571400  0.158000  1.0  0.1496
  C  C280  1  0.123900  0.610100  0.171700  1.0  -0.157
  C  C281  1  0.147600  0.640860  0.138000  1.0  -0.0625
  C  C282  1  0.182200  0.630100  0.090100  1.0  -0.1542
  C  C283  1  0.194400  0.590500  0.082100  1.0  0.1487
  C  C284  1  0.134200  0.682900  0.148800  1.0  0.6878
  C  C285  1  0.295200  0.923600  0.131600  1.0  0.1623
  C  C286  1  0.282900  0.884200  0.103500  1.0  -0.2131
  C  C287  1  0.285600  0.869800  0.019600  1.0  -0.0659
  C  C288  1  0.304000  0.897700  0.973300  1.0  -0.1987
  C  C289  1  0.314300  0.937000  0.005700  1.0  0.1615
  C  C290  1  0.267900  0.827200  0.978700  1.0  0.6835
  C  C291  1  0.081200  0.919100  0.823400  1.0  0.1591
  C  C292  1  0.073600  0.878300  0.825100  1.0  -0.1577
  C  C293  1  0.079600  0.855100  0.754100  1.0  -0.0678
  C  C294  1  0.097400  0.873400  0.691000  1.0  -0.1765
  C  C295  1  0.107600  0.913600  0.699600  1.0  0.1595
  C  C296  1  0.070800  0.810900  0.750900  1.0  0.709
  C  C297  1  0.275600  0.908800  0.670800  1.0  0.1797
  C  C298  1  0.244400  0.872200  0.655300  1.0  -0.1791
  C  C299  1  0.229800  0.847300  0.569600  1.0  -0.0637
  C  C300  1  0.248300  0.861400  0.503400  1.0  -0.1633
  C  C301  1  0.278100  0.899700  0.522900  1.0  0.1565
  C  C302  1  0.188400  0.807600  0.542100  1.0  0.7137
  C  C303  1  0.920900  0.899500  0.376600  1.0  0.1439
  C  C304  1  0.948500  0.861200  0.392500  1.0  -0.1335
  C  C305  1  0.952400  0.844900  0.310200  1.0  -0.1069
  C  C306  1  0.923600  0.867000  0.213200  1.0  -0.2025
  C  C307  1  0.897300  0.905300  0.203900  1.0  0.1649
  C  C308  1  0.992400  0.804300  0.333800  1.0  0.6927
  C  C309  1  0.082000  0.910400  0.245800  1.0  0.1466
  C  C310  1  0.083300  0.871500  0.220200  1.0  -0.1456
  C  C311  1  0.108600  0.862000  0.160700  1.0  -0.1192
  C  C312  1  0.127900  0.892500  0.119900  1.0  -0.1602
  C  C313  1  0.123500  0.930700  0.145100  1.0  0.1514
  C  C314  1  0.121100  0.818800  0.143300  1.0  0.6844
  C  C315  1  0.870800  0.061900  0.389400  1.0  0.1525
  C  C316  1  0.872500  0.103400  0.414200  1.0  -0.0627
  C  C317  1  0.885600  0.129700  0.359200  1.0  -0.1179
  C  C318  1  0.894600  0.117000  0.280000  1.0  -0.1223
  C  C319  1  0.893000  0.075700  0.262800  1.0  0.1251
  C  C320  1  0.885100  0.174400  0.382300  1.0  0.5836
  C  C321  1  0.500300  0.903300  0.319100  1.0  0.1376
  C  C322  1  0.519600  0.864400  0.316400  1.0  -0.1548
  C  C323  1  0.556600  0.855830  0.271400  1.0  -0.0795
  C  C324  1  0.571000  0.886700  0.226900  1.0  -0.1294
  C  C325  1  0.551000  0.925100  0.232700  1.0  0.1543
  C  C326  1  0.583400  0.814620  0.274000  1.0  0.7536
  C  C327  1  0.707100  0.914500  0.160800  1.0  0.1477
  C  C328  1  0.707500  0.873200  0.153900  1.0  -0.179
  C  C329  1  0.700700  0.856800  0.061900  1.0  -0.0848
  C  C330  1  0.696800  0.882300  0.985800  1.0  -0.1409
  C  C331  1  0.697700  0.923000  0.000500  1.0  0.1452
  C  C332  1  0.688000  0.813000  0.037300  1.0  0.6996
  C  C333  1  0.495200  0.926100  0.886300  1.0  0.1338
  C  C334  1  0.496800  0.885500  0.902100  1.0  -0.1523
  C  C335  1  0.493700  0.860770  0.826100  1.0  -0.1198
  C  C336  1  0.483600  0.877300  0.731400  1.0  -0.1374
  C  C337  1  0.480600  0.917600  0.720400  1.0  0.1524
  C  C338  1  0.505800  0.816000  0.847900  1.0  0.6901
  C  C339  1  0.636000  0.928600  0.658000  1.0  0.1493
  C  C340  1  0.623900  0.889900  0.671700  1.0  -0.1567
  C  C341  1  0.647600  0.859140  0.638000  1.0  -0.0628
  C  C342  1  0.682200  0.869900  0.590100  1.0  -0.1546
  C  C343  1  0.694400  0.909500  0.582100  1.0  0.1492
  C  C344  1  0.634200  0.817100  0.648800  1.0  0.6852
  C  C345  1  0.795200  0.576400  0.631600  1.0  0.1636
  C  C346  1  0.782900  0.615800  0.603500  1.0  -0.213
  C  C347  1  0.785600  0.630200  0.519600  1.0  -0.0656
  C  C348  1  0.804000  0.602300  0.473300  1.0  -0.1985
  C  C349  1  0.814300  0.563000  0.505700  1.0  0.16
  C  C350  1  0.767900  0.672800  0.478700  1.0  0.6817
  C  C351  1  0.581200  0.580900  0.323400  1.0  0.1586
  C  C352  1  0.573600  0.621700  0.325100  1.0  -0.1577
  C  C353  1  0.579600  0.644900  0.254100  1.0  -0.069
  C  C354  1  0.597400  0.626600  0.191000  1.0  -0.1758
  C  C355  1  0.607600  0.586400  0.199600  1.0  0.1594
  C  C356  1  0.570800  0.689100  0.250900  1.0  0.7138
  C  C357  1  0.775600  0.591200  0.170800  1.0  0.1796
  C  C358  1  0.744400  0.627800  0.155300  1.0  -0.179
  C  C359  1  0.729800  0.652700  0.069600  1.0  -0.0624
  C  C360  1  0.748300  0.638600  0.003400  1.0  -0.1632
  C  C361  1  0.778100  0.600300  0.022900  1.0  0.1564
  C  C362  1  0.688400  0.692400  0.042100  1.0  0.7146
  C  C363  1  0.420900  0.600500  0.876600  1.0  0.1452
  C  C364  1  0.448500  0.638800  0.892500  1.0  -0.1331
  C  C365  1  0.452400  0.655100  0.810200  1.0  -0.106
  C  C366  1  0.423600  0.633000  0.713200  1.0  -0.2028
  C  C367  1  0.397300  0.594700  0.703900  1.0  0.1652
  C  C368  1  0.492400  0.695700  0.833800  1.0  0.6923
  C  C369  1  0.582000  0.589600  0.745800  1.0  0.147
  C  C370  1  0.583300  0.628500  0.720200  1.0  -0.1455
  C  C371  1  0.608600  0.638000  0.660700  1.0  -0.1185
  C  C372  1  0.627900  0.607500  0.619900  1.0  -0.1599
  C  C373  1  0.623500  0.569300  0.645100  1.0  0.151
  C  C374  1  0.621100  0.681200  0.643300  1.0  0.686
  C  C375  1  0.370800  0.438100  0.889400  1.0  0.1523
  C  C376  1  0.372500  0.396600  0.914200  1.0  -0.0633
  C  C377  1  0.385600  0.370300  0.859200  1.0  -0.1163
  C  C378  1  0.394600  0.383000  0.780000  1.0  -0.1223
  C  C379  1  0.393000  0.424300  0.762800  1.0  0.1249
  C  C380  1  0.385100  0.325600  0.882300  1.0  0.5855
  C  C381  1  0.000300  0.403300  0.319100  1.0  0.1376
  C  C382  1  0.019600  0.364400  0.316400  1.0  -0.1548
  C  C383  1  0.056600  0.355830  0.271400  1.0  -0.0795
  C  C384  1  0.071000  0.386700  0.226900  1.0  -0.1294
  C  C385  1  0.051000  0.425100  0.232700  1.0  0.1543
  C  C386  1  0.083400  0.314620  0.274000  1.0  0.7536
  C  C387  1  0.207100  0.414500  0.160800  1.0  0.1477
  C  C388  1  0.207500  0.373200  0.153900  1.0  -0.179
  C  C389  1  0.200700  0.356800  0.061900  1.0  -0.0848
  C  C390  1  0.196800  0.382300  0.985800  1.0  -0.1409
  C  C391  1  0.197700  0.423000  0.000500  1.0  0.1452
  C  C392  1  0.188000  0.313000  0.037300  1.0  0.6996
  C  C393  1  0.995200  0.426100  0.886300  1.0  0.1338
  C  C394  1  0.996800  0.385500  0.902100  1.0  -0.1523
  C  C395  1  0.993700  0.360770  0.826100  1.0  -0.1198
  C  C396  1  0.983600  0.377300  0.731400  1.0  -0.1374
  C  C397  1  0.980600  0.417600  0.720400  1.0  0.1524
  C  C398  1  0.005800  0.316000  0.847900  1.0  0.6901
  C  C399  1  0.136000  0.428600  0.658000  1.0  0.1493
  C  C400  1  0.123900  0.389900  0.671700  1.0  -0.1567
  C  C401  1  0.147600  0.359140  0.638000  1.0  -0.0628
  C  C402  1  0.182200  0.369900  0.590100  1.0  -0.1546
  C  C403  1  0.194400  0.409500  0.582100  1.0  0.1492
  C  C404  1  0.134200  0.317100  0.648800  1.0  0.6852
  C  C405  1  0.295200  0.076400  0.631600  1.0  0.1636
  C  C406  1  0.282900  0.115800  0.603500  1.0  -0.213
  C  C407  1  0.285600  0.130200  0.519600  1.0  -0.0656
  C  C408  1  0.304000  0.102300  0.473300  1.0  -0.1985
  C  C409  1  0.314300  0.063000  0.505700  1.0  0.16
  C  C410  1  0.267900  0.172800  0.478700  1.0  0.6817
  C  C411  1  0.081200  0.080900  0.323400  1.0  0.1586
  C  C412  1  0.073600  0.121700  0.325100  1.0  -0.1577
  C  C413  1  0.079600  0.144900  0.254100  1.0  -0.069
  C  C414  1  0.097400  0.126600  0.191000  1.0  -0.1758
  C  C415  1  0.107600  0.086400  0.199600  1.0  0.1594
  C  C416  1  0.070800  0.189100  0.250900  1.0  0.7138
  C  C417  1  0.275600  0.091200  0.170800  1.0  0.1796
  C  C418  1  0.244400  0.127800  0.155300  1.0  -0.179
  C  C419  1  0.229800  0.152700  0.069600  1.0  -0.0624
  C  C420  1  0.248300  0.138600  0.003400  1.0  -0.1632
  C  C421  1  0.278100  0.100300  0.022900  1.0  0.1564
  C  C422  1  0.188400  0.192400  0.042100  1.0  0.7146
  C  C423  1  0.920900  0.100500  0.876600  1.0  0.1452
  C  C424  1  0.948500  0.138800  0.892500  1.0  -0.1331
  C  C425  1  0.952400  0.155100  0.810200  1.0  -0.106
  C  C426  1  0.923600  0.133000  0.713200  1.0  -0.2028
  C  C427  1  0.897300  0.094700  0.703900  1.0  0.1652
  C  C428  1  0.992400  0.195700  0.833800  1.0  0.6923
  C  C429  1  0.082000  0.089600  0.745800  1.0  0.147
  C  C430  1  0.083300  0.128500  0.720200  1.0  -0.1455
  C  C431  1  0.108600  0.138000  0.660700  1.0  -0.1185
  C  C432  1  0.127900  0.107500  0.619900  1.0  -0.1599
  C  C433  1  0.123500  0.069300  0.645100  1.0  0.151
  C  C434  1  0.121100  0.181200  0.643300  1.0  0.686
  C  C435  1  0.870800  0.938100  0.889400  1.0  0.1523
  C  C436  1  0.872500  0.896600  0.914200  1.0  -0.0633
  C  C437  1  0.885600  0.870300  0.859200  1.0  -0.1163
  C  C438  1  0.894600  0.883000  0.780000  1.0  -0.1223
  C  C439  1  0.893000  0.924300  0.762800  1.0  0.1249
  C  C440  1  0.885100  0.825600  0.882300  1.0  0.5855
  N  N441  1  0.515300  0.066450  0.776900  1.0  -0.3027
  N  N442  1  0.699500  0.061100  0.584000  1.0  -0.3058
  N  N443  1  0.487600  0.057570  0.297800  1.0  -0.2886
  N  N444  1  0.669700  0.061220  0.111800  1.0  -0.3014
  N  N445  1  0.808800  0.450340  0.080700  1.0  -0.3322
  N  N446  1  0.596900  0.436740  0.761700  1.0  -0.2988
  N  N447  1  0.788600  0.423920  0.602700  1.0  -0.2969
  N  N448  1  0.396700  0.421500  0.284500  1.0  -0.3121
  N  N449  1  0.602100  0.440300  0.209200  1.0  -0.3053
  N  N450  1  0.381700  0.548800  0.316600  1.0  -0.2962
  N  N451  1  0.015300  0.566450  0.776900  1.0  -0.3027
  N  N452  1  0.199500  0.561100  0.584000  1.0  -0.3058
  N  N453  1  0.987600  0.557570  0.297800  1.0  -0.2886
  N  N454  1  0.169700  0.561220  0.111800  1.0  -0.3014
  N  N455  1  0.308800  0.950340  0.080700  1.0  -0.3322
  N  N456  1  0.096900  0.936740  0.761700  1.0  -0.2988
  N  N457  1  0.288600  0.923920  0.602700  1.0  -0.2969
  N  N458  1  0.896700  0.921500  0.284500  1.0  -0.3121
  N  N459  1  0.102100  0.940300  0.209200  1.0  -0.3053
  N  N460  1  0.881700  0.048800  0.316600  1.0  -0.2962
  N  N461  1  0.515300  0.933550  0.276900  1.0  -0.3008
  N  N462  1  0.699500  0.938900  0.084000  1.0  -0.3051
  N  N463  1  0.487600  0.942430  0.797800  1.0  -0.2895
  N  N464  1  0.669700  0.938780  0.611800  1.0  -0.3019
  N  N465  1  0.808800  0.549660  0.580700  1.0  -0.3256
  N  N466  1  0.596900  0.563260  0.261700  1.0  -0.2973
  N  N467  1  0.788600  0.576080  0.102700  1.0  -0.297
  N  N468  1  0.396700  0.578500  0.784500  1.0  -0.3112
  N  N469  1  0.602100  0.559700  0.709200  1.0  -0.3033
  N  N470  1  0.381700  0.451200  0.816600  1.0  -0.2977
  N  N471  1  0.015300  0.433550  0.276900  1.0  -0.3008
  N  N472  1  0.199500  0.438900  0.084000  1.0  -0.3051
  N  N473  1  0.987600  0.442430  0.797800  1.0  -0.2895
  N  N474  1  0.169700  0.438780  0.611800  1.0  -0.3019
  N  N475  1  0.308800  0.049660  0.580700  1.0  -0.3256
  N  N476  1  0.096900  0.063260  0.261700  1.0  -0.2973
  N  N477  1  0.288600  0.076080  0.102700  1.0  -0.297
  N  N478  1  0.896700  0.078500  0.784500  1.0  -0.3112
  N  N479  1  0.102100  0.059700  0.709200  1.0  -0.3033
  N  N480  1  0.881700  0.951200  0.816600  1.0  -0.2977
  O  O481  1  0.599500  0.208170  0.852800  1.0  -0.759
  O  O482  1  0.590500  0.193260  0.698800  1.0  -0.7236
  O  O483  1  0.688500  0.208540  0.608200  1.0  -0.6942
  O  O484  1  0.677400  0.199260  0.450800  1.0  -0.6984
  O  O485  1  0.521700  0.194760  0.439900  1.0  -0.6897
  O  O486  1  0.505800  0.204360  0.279700  1.0  -0.7128
  O  O487  1  0.606900  0.190220  0.200400  1.0  -0.7523
  O  O488  1  0.649100  0.208480  0.104200  1.0  -0.7693
  O  O489  1  0.743400  0.305180  0.017500  1.0  -0.7304
  O  O490  1  0.772600  0.318400  0.904200  1.0  -0.5688
  O  O491  1  0.571400  0.295140  0.828500  1.0  -0.7574
  O  O492  1  0.561600  0.293350  0.669600  1.0  -0.7305
  O  O493  1  0.668800  0.298360  0.601400  1.0  -0.7124
  O  O494  1  0.675600  0.287610  0.461700  1.0  -0.7482
  O  O495  1  0.505100  0.283710  0.415400  1.0  -0.74
  O  O496  1  0.508800  0.295070  0.272600  1.0  -0.6724
  O  O497  1  0.615600  0.293490  0.196200  1.0  -0.7822
  O  O498  1  0.634600  0.312710  0.075500  1.0  -0.7153
  O  O499  1  0.382700  0.683800  0.458300  1.0  -0.5018
  O  O500  1  0.383400  0.697230  0.311800  1.0  -0.5581
  O  O501  1  0.711700  0.250650  0.792000  1.0  -0.8361
  O  O502  1  0.099500  0.708170  0.852800  1.0  -0.759
  O  O503  1  0.090500  0.693260  0.698800  1.0  -0.7236
  O  O504  1  0.188500  0.708540  0.608200  1.0  -0.6942
  O  O505  1  0.177400  0.699260  0.450800  1.0  -0.6984
  O  O506  1  0.021700  0.694760  0.439900  1.0  -0.6897
  O  O507  1  0.005800  0.704360  0.279700  1.0  -0.7128
  O  O508  1  0.106900  0.690220  0.200400  1.0  -0.7523
  O  O509  1  0.149100  0.708480  0.104200  1.0  -0.7693
  O  O510  1  0.243400  0.805180  0.017500  1.0  -0.7304
  O  O511  1  0.272600  0.818400  0.904200  1.0  -0.5688
  O  O512  1  0.071400  0.795140  0.828500  1.0  -0.7574
  O  O513  1  0.061600  0.793350  0.669600  1.0  -0.7305
  O  O514  1  0.168800  0.798360  0.601400  1.0  -0.7124
  O  O515  1  0.175600  0.787610  0.461700  1.0  -0.7482
  O  O516  1  0.005100  0.783710  0.415400  1.0  -0.74
  O  O517  1  0.008800  0.795070  0.272600  1.0  -0.6724
  O  O518  1  0.115600  0.793490  0.196200  1.0  -0.7822
  O  O519  1  0.134600  0.812710  0.075500  1.0  -0.7153
  O  O520  1  0.882700  0.183800  0.458300  1.0  -0.5018
  O  O521  1  0.883400  0.197230  0.311800  1.0  -0.5541
  O  O522  1  0.211700  0.750650  0.792000  1.0  -0.8361
  O  O523  1  0.599500  0.791830  0.352800  1.0  -0.7583
  O  O524  1  0.590500  0.806740  0.198800  1.0  -0.7237
  O  O525  1  0.688500  0.791460  0.108200  1.0  -0.6942
  O  O526  1  0.677400  0.800740  0.950800  1.0  -0.6988
  O  O527  1  0.521700  0.805240  0.939900  1.0  -0.6889
  O  O528  1  0.505800  0.795640  0.779700  1.0  -0.713
  O  O529  1  0.606900  0.809780  0.700400  1.0  -0.7528
  O  O530  1  0.649100  0.791520  0.604200  1.0  -0.7693
  O  O531  1  0.743400  0.694820  0.517500  1.0  -0.7292
  O  O532  1  0.772600  0.681600  0.404200  1.0  -0.5696
  O  O533  1  0.571400  0.704860  0.328500  1.0  -0.7577
  O  O534  1  0.561600  0.706650  0.169600  1.0  -0.73
  O  O535  1  0.668800  0.701640  0.101400  1.0  -0.7121
  O  O536  1  0.675600  0.712390  0.961700  1.0  -0.7477
  O  O537  1  0.505100  0.716290  0.915400  1.0  -0.7409
  O  O538  1  0.508800  0.704930  0.772600  1.0  -0.6715
  O  O539  1  0.615600  0.706510  0.696200  1.0  -0.7831
  O  O540  1  0.634600  0.687290  0.575500  1.0  -0.7141
  O  O541  1  0.382700  0.316200  0.958300  1.0  -0.4993
  O  O542  1  0.383400  0.302770  0.811800  1.0  -0.5603
  O  O543  1  0.711700  0.749350  0.292000  1.0  -0.8375
  O  O544  1  0.099500  0.291830  0.352800  1.0  -0.7583
  O  O545  1  0.090500  0.306740  0.198800  1.0  -0.7237
  O  O546  1  0.188500  0.291460  0.108200  1.0  -0.6942
  O  O547  1  0.177400  0.300740  0.950800  1.0  -0.6988
  O  O548  1  0.021700  0.305240  0.939900  1.0  -0.6889
  O  O549  1  0.005800  0.295640  0.779700  1.0  -0.713
  O  O550  1  0.106900  0.309780  0.700400  1.0  -0.7528
  O  O551  1  0.149100  0.291520  0.604200  1.0  -0.7693
  O  O552  1  0.243400  0.194820  0.517500  1.0  -0.7292
  O  O553  1  0.272600  0.181600  0.404200  1.0  -0.5696
  O  O554  1  0.071400  0.204860  0.328500  1.0  -0.7577
  O  O555  1  0.061600  0.206650  0.169600  1.0  -0.73
  O  O556  1  0.168800  0.201640  0.101400  1.0  -0.7121
  O  O557  1  0.175600  0.212390  0.961700  1.0  -0.7477
  O  O558  1  0.005100  0.216290  0.915400  1.0  -0.7409
  O  O559  1  0.008800  0.204930  0.772600  1.0  -0.6715
  O  O560  1  0.115600  0.206510  0.696200  1.0  -0.7831
  O  O561  1  0.134600  0.187290  0.575500  1.0  -0.7141
  O  O562  1  0.882700  0.816200  0.958300  1.0  -0.4993
  O  O563  1  0.883400  0.802770  0.811800  1.0  -0.5556
  O  O564  1  0.211700  0.249350  0.292000  1.0  -0.8375
