# generated using pymatgen
data_Sm3Ag5H40C60(NO2)10
_symmetry_space_group_name_H-M   'P 1'
_cell_length_a   21.88800000
_cell_length_b   33.72680000
_cell_length_c   14.93800000
_cell_angle_alpha   90.00000000
_cell_angle_beta   130.54000000
_cell_angle_gamma   90.00000000
_symmetry_Int_Tables_number   1
_chemical_formula_structural   Sm3Ag5H40C60(NO2)10
_chemical_formula_sum   'Sm12 Ag20 H160 C240 N40 O80'
_cell_volume   8380.30937819
_cell_formula_units_Z   4
loop_
 _symmetry_equiv_pos_site_id
 _symmetry_equiv_pos_as_xyz
  1  'x, y, z'
loop_
 _atom_site_type_symbol
 _atom_site_label
 _atom_site_symmetry_multiplicity
 _atom_site_fract_x
 _atom_site_fract_y
 _atom_site_fract_z
 _atom_site_occupancy
 _atom_site_charge
  Sm  Sm1  1  0.306280  0.257330  0.732420  1.0  2.2952
  Sm  Sm2  1  0.375610  0.245240  0.145620  1.0  2.3101
  Sm  Sm3  1  0.362880  0.246150  0.440870  1.0  2.3146
  Sm  Sm4  1  0.806280  0.757330  0.732420  1.0  2.2952
  Sm  Sm5  1  0.875610  0.745240  0.145620  1.0  2.3101
  Sm  Sm6  1  0.862880  0.746150  0.440870  1.0  2.3146
  Sm  Sm7  1  0.306280  0.742670  0.232420  1.0  2.2958
  Sm  Sm8  1  0.375610  0.754760  0.645620  1.0  2.3102
  Sm  Sm9  1  0.362880  0.753850  0.940870  1.0  2.3146
  Sm  Sm10  1  0.806280  0.242670  0.232420  1.0  2.2958
  Sm  Sm11  1  0.875610  0.254760  0.645620  1.0  2.3102
  Sm  Sm12  1  0.862880  0.253850  0.940870  1.0  2.3146
  Ag  Ag13  1  0.472040  0.005580  0.949210  1.0  0.2174
  Ag  Ag14  1  0.272210  0.000930  0.636140  1.0  0.2054
  Ag  Ag15  1  0.363940  0.499410  0.986350  1.0  0.1666
  Ag  Ag16  1  0.156000  0.513000  0.630330  1.0  0.1942
  Ag  Ag17  1  0.579920  0.485630  0.442050  1.0  0.1754
  Ag  Ag18  1  0.972040  0.505580  0.949210  1.0  0.2174
  Ag  Ag19  1  0.772210  0.500930  0.636140  1.0  0.2054
  Ag  Ag20  1  0.863940  0.999410  0.986350  1.0  0.1666
  Ag  Ag21  1  0.656000  0.013000  0.630330  1.0  0.1942
  Ag  Ag22  1  0.079920  0.985630  0.442050  1.0  0.1754
  Ag  Ag23  1  0.472040  0.994420  0.449210  1.0  0.2175
  Ag  Ag24  1  0.272210  0.999070  0.136140  1.0  0.2054
  Ag  Ag25  1  0.363940  0.500590  0.486350  1.0  0.1663
  Ag  Ag26  1  0.156000  0.487000  0.130330  1.0  0.1943
  Ag  Ag27  1  0.579920  0.514370  0.942050  1.0  0.176
  Ag  Ag28  1  0.972040  0.494420  0.449210  1.0  0.2175
  Ag  Ag29  1  0.772210  0.499070  0.136140  1.0  0.2054
  Ag  Ag30  1  0.863940  0.000590  0.486350  1.0  0.1663
  Ag  Ag31  1  0.656000  0.987000  0.130330  1.0  0.1943
  Ag  Ag32  1  0.079920  0.014370  0.942050  1.0  0.176
  H  H33  1  0.488800  0.091300  0.885900  1.0  0.0735
  H  H34  1  0.453800  0.155300  0.886300  1.0  0.1129
  H  H35  1  0.371100  0.118500  0.042700  1.0  0.0915
  H  H36  1  0.401600  0.054000  0.030500  1.0  0.0737
  H  H37  1  0.254300  0.075100  0.013200  1.0  0.096
  H  H38  1  0.250500  0.142800  0.026100  1.0  0.1111
  H  H39  1  0.268700  0.128000  0.308700  1.0  0.1061
  H  H40  1  0.268900  0.060200  0.286400  1.0  0.0697
  H  H41  1  0.466100  0.057500  0.296600  1.0  0.0647
  H  H42  1  0.464500  0.124300  0.273200  1.0  0.1008
  H  H43  1  0.481600  0.138600  0.554500  1.0  0.1036
  H  H44  1  0.488500  0.070400  0.575600  1.0  0.0905
  H  H45  1  0.341300  0.051500  0.549500  1.0  0.0649
  H  H46  1  0.364800  0.115500  0.533700  1.0  0.0928
  H  H47  1  0.262100  0.149300  0.666667  1.0  0.1086
  H  H48  1  0.243600  0.083900  0.681900  1.0  0.0717
  H  H49  1  0.171300  0.432500  0.547000  1.0  0.0718
  H  H50  1  0.191100  0.366400  0.595500  1.0  0.1002
  H  H51  1  0.152400  0.389900  0.816000  1.0  0.1126
  H  H52  1  0.135900  0.454100  0.763000  1.0  0.0432
  H  H53  1  0.386700  0.434300  0.862000  1.0  0.0711
  H  H54  1  0.399000  0.366900  0.862800  1.0  0.0973
  H  H55  1  0.362900  0.358800  0.092700  1.0  0.11
  H  H56  1  0.341900  0.426000  0.074400  1.0  0.0717
  H  H57  1  0.178100  0.424800  0.004100  1.0  0.0694
  H  H58  1  0.229800  0.363400  0.031400  1.0  0.0987
  H  H59  1  0.220700  0.345300  0.284300  1.0  0.0917
  H  H60  1  0.172500  0.409100  0.256000  1.0  0.0728
  H  H61  1  0.543600  0.409900  0.302000  1.0  0.0686
  H  H62  1  0.500100  0.346500  0.278100  1.0  0.1126
  H  H63  1  0.541200  0.356700  0.580100  1.0  0.1145
  H  H64  1  0.583800  0.420900  0.593400  1.0  0.0643
  H  H65  1  0.396400  0.416900  0.445200  1.0  0.0683
  H  H66  1  0.395400  0.351700  0.489900  1.0  0.0936
  H  H67  1  0.321700  0.387400  0.660100  1.0  0.1067
  H  H68  1  0.325500  0.451500  0.612300  1.0  0.0712
  H  H69  1  0.596600  0.543200  0.305900  1.0  0.0609
  H  H70  1  0.598300  0.611500  0.269100  1.0  0.1081
  H  H71  1  0.562200  0.633800  0.494900  1.0  0.1142
  H  H72  1  0.562600  0.567300  0.521200  1.0  0.0659
  H  H73  1  0.988800  0.591300  0.885900  1.0  0.0735
  H  H74  1  0.953800  0.655300  0.886300  1.0  0.1129
  H  H75  1  0.871100  0.618500  0.042700  1.0  0.0915
  H  H76  1  0.901600  0.554000  0.030500  1.0  0.0737
  H  H77  1  0.754300  0.575100  0.013200  1.0  0.096
  H  H78  1  0.750500  0.642800  0.026100  1.0  0.1111
  H  H79  1  0.768700  0.628000  0.308700  1.0  0.1061
  H  H80  1  0.768900  0.560200  0.286400  1.0  0.0697
  H  H81  1  0.966100  0.557500  0.296600  1.0  0.0647
  H  H82  1  0.964500  0.624300  0.273200  1.0  0.1008
  H  H83  1  0.981600  0.638600  0.554500  1.0  0.1036
  H  H84  1  0.988500  0.570400  0.575600  1.0  0.0905
  H  H85  1  0.841300  0.551500  0.549500  1.0  0.0649
  H  H86  1  0.864800  0.615500  0.533700  1.0  0.0928
  H  H87  1  0.762100  0.649300  0.666667  1.0  0.1086
  H  H88  1  0.743600  0.583900  0.681900  1.0  0.0717
  H  H89  1  0.671300  0.932500  0.547000  1.0  0.0718
  H  H90  1  0.691100  0.866400  0.595500  1.0  0.1002
  H  H91  1  0.652400  0.889900  0.816000  1.0  0.1126
  H  H92  1  0.635900  0.954100  0.763000  1.0  0.0432
  H  H93  1  0.886700  0.934300  0.862000  1.0  0.0711
  H  H94  1  0.899000  0.866900  0.862800  1.0  0.0973
  H  H95  1  0.862900  0.858800  0.092700  1.0  0.11
  H  H96  1  0.841900  0.926000  0.074400  1.0  0.0717
  H  H97  1  0.678100  0.924800  0.004100  1.0  0.0694
  H  H98  1  0.729800  0.863400  0.031400  1.0  0.0987
  H  H99  1  0.720700  0.845300  0.284300  1.0  0.0917
  H  H100  1  0.672500  0.909100  0.256000  1.0  0.0728
  H  H101  1  0.043600  0.909900  0.302000  1.0  0.0686
  H  H102  1  0.000100  0.846500  0.278100  1.0  0.1126
  H  H103  1  0.041200  0.856700  0.580100  1.0  0.1145
  H  H104  1  0.083800  0.920900  0.593400  1.0  0.0643
  H  H105  1  0.896400  0.916900  0.445200  1.0  0.0683
  H  H106  1  0.895400  0.851700  0.489900  1.0  0.0936
  H  H107  1  0.821700  0.887400  0.660100  1.0  0.1067
  H  H108  1  0.825500  0.951500  0.612300  1.0  0.0712
  H  H109  1  0.096600  0.043200  0.305900  1.0  0.0609
  H  H110  1  0.098300  0.111500  0.269100  1.0  0.1081
  H  H111  1  0.062200  0.133800  0.494900  1.0  0.1142
  H  H112  1  0.062600  0.067300  0.521200  1.0  0.0659
  H  H113  1  0.488800  0.908700  0.385900  1.0  0.0735
  H  H114  1  0.453800  0.844700  0.386300  1.0  0.1124
  H  H115  1  0.371100  0.881500  0.542700  1.0  0.0916
  H  H116  1  0.401600  0.946000  0.530500  1.0  0.073
  H  H117  1  0.254300  0.924900  0.513200  1.0  0.0959
  H  H118  1  0.250500  0.857200  0.526100  1.0  0.111
  H  H119  1  0.268700  0.872000  0.808700  1.0  0.1065
  H  H120  1  0.268900  0.939800  0.786400  1.0  0.0685
  H  H121  1  0.466100  0.942500  0.796600  1.0  0.0643
  H  H122  1  0.464500  0.875700  0.773200  1.0  0.1011
  H  H123  1  0.481600  0.861400  0.054500  1.0  0.1035
  H  H124  1  0.488500  0.929600  0.075600  1.0  0.0907
  H  H125  1  0.341300  0.948500  0.049500  1.0  0.0651
  H  H126  1  0.364800  0.884500  0.033700  1.0  0.0927
  H  H127  1  0.262100  0.850700  0.166600  1.0  0.109
  H  H128  1  0.243600  0.916100  0.181900  1.0  0.0717
  H  H129  1  0.171300  0.567500  0.047000  1.0  0.0718
  H  H130  1  0.191100  0.633600  0.095500  1.0  0.0993
  H  H131  1  0.152400  0.610100  0.316000  1.0  0.1125
  H  H132  1  0.135900  0.545900  0.263000  1.0  0.0452
  H  H133  1  0.386700  0.565700  0.362000  1.0  0.0722
  H  H134  1  0.399000  0.633100  0.362800  1.0  0.0972
  H  H135  1  0.362900  0.641200  0.592700  1.0  0.1097
  H  H136  1  0.341900  0.574000  0.574400  1.0  0.0718
  H  H137  1  0.178100  0.575200  0.504100  1.0  0.0695
  H  H138  1  0.229800  0.636600  0.531400  1.0  0.0986
  H  H139  1  0.220700  0.654700  0.784300  1.0  0.0915
  H  H140  1  0.172500  0.590900  0.756000  1.0  0.0742
  H  H141  1  0.543600  0.590100  0.802000  1.0  0.0691
  H  H142  1  0.500100  0.653500  0.778100  1.0  0.1123
  H  H143  1  0.541200  0.643300  0.080100  1.0  0.1146
  H  H144  1  0.583800  0.579100  0.093400  1.0  0.0646
  H  H145  1  0.396400  0.583100  0.945200  1.0  0.0688
  H  H146  1  0.395400  0.648300  0.989900  1.0  0.094
  H  H147  1  0.321700  0.612600  0.160100  1.0  0.1065
  H  H148  1  0.325500  0.548500  0.112300  1.0  0.0718
  H  H149  1  0.596600  0.456800  0.805900  1.0  0.0585
  H  H150  1  0.598300  0.388500  0.769100  1.0  0.1082
  H  H151  1  0.562200  0.366200  0.994900  1.0  0.1143
  H  H152  1  0.562600  0.432700  0.021200  1.0  0.0664
  H  H153  1  0.988800  0.408700  0.385900  1.0  0.0735
  H  H154  1  0.953800  0.344700  0.386300  1.0  0.1124
  H  H155  1  0.871100  0.381500  0.542700  1.0  0.0916
  H  H156  1  0.901600  0.446000  0.530500  1.0  0.073
  H  H157  1  0.754300  0.424900  0.513200  1.0  0.0959
  H  H158  1  0.750500  0.357200  0.526100  1.0  0.111
  H  H159  1  0.768700  0.372000  0.808700  1.0  0.1065
  H  H160  1  0.768900  0.439800  0.786400  1.0  0.0685
  H  H161  1  0.966100  0.442500  0.796600  1.0  0.0643
  H  H162  1  0.964500  0.375700  0.773200  1.0  0.1011
  H  H163  1  0.981600  0.361400  0.054500  1.0  0.1035
  H  H164  1  0.988500  0.429600  0.075600  1.0  0.0907
  H  H165  1  0.841300  0.448500  0.049500  1.0  0.0651
  H  H166  1  0.864800  0.384500  0.033700  1.0  0.0927
  H  H167  1  0.762100  0.350700  0.166600  1.0  0.109
  H  H168  1  0.743600  0.416100  0.181900  1.0  0.0717
  H  H169  1  0.671300  0.067500  0.047000  1.0  0.0718
  H  H170  1  0.691100  0.133600  0.095500  1.0  0.0993
  H  H171  1  0.652400  0.110100  0.316000  1.0  0.1125
  H  H172  1  0.635900  0.045900  0.263000  1.0  0.0452
  H  H173  1  0.886700  0.065700  0.362000  1.0  0.0722
  H  H174  1  0.899000  0.133100  0.362800  1.0  0.0972
  H  H175  1  0.862900  0.141200  0.592700  1.0  0.1097
  H  H176  1  0.841900  0.074000  0.574400  1.0  0.0718
  H  H177  1  0.678100  0.075200  0.504100  1.0  0.0695
  H  H178  1  0.729800  0.136600  0.531400  1.0  0.0986
  H  H179  1  0.720700  0.154700  0.784300  1.0  0.0915
  H  H180  1  0.672500  0.090900  0.756000  1.0  0.0742
  H  H181  1  0.043600  0.090100  0.802000  1.0  0.0691
  H  H182  1  0.000100  0.153500  0.778100  1.0  0.1123
  H  H183  1  0.041200  0.143300  0.080100  1.0  0.1146
  H  H184  1  0.083800  0.079100  0.093400  1.0  0.0646
  H  H185  1  0.896400  0.083100  0.945200  1.0  0.0688
  H  H186  1  0.895400  0.148300  0.989900  1.0  0.094
  H  H187  1  0.821700  0.112600  0.160100  1.0  0.1065
  H  H188  1  0.825500  0.048500  0.112300  1.0  0.0718
  H  H189  1  0.096600  0.956800  0.805900  1.0  0.0585
  H  H190  1  0.098300  0.888500  0.769100  1.0  0.1082
  H  H191  1  0.062200  0.866200  0.994900  1.0  0.1143
  H  H192  1  0.062600  0.932700  0.021200  1.0  0.0664
  C  C193  1  0.463700  0.096600  0.916300  1.0  0.1351
  C  C194  1  0.443000  0.135100  0.916600  1.0  -0.1453
  C  C195  1  0.406600  0.143620  0.961700  1.0  -0.0934
  C  C196  1  0.393300  0.113400  0.007900  1.0  -0.0948
  C  C197  1  0.413300  0.074600  0.002500  1.0  0.1474
  C  C198  1  0.379300  0.185130  0.959800  1.0  0.7166
  C  C199  1  0.257700  0.086000  0.073600  1.0  0.1306
  C  C200  1  0.256100  0.126700  0.081500  1.0  -0.1414
  C  C201  1  0.263000  0.143000  0.171600  1.0  -0.0736
  C  C202  1  0.266500  0.117700  0.248900  1.0  -0.1381
  C  C203  1  0.266700  0.077000  0.235000  1.0  0.1457
  C  C204  1  0.273800  0.186900  0.195100  1.0  0.7026
  C  C205  1  0.470000  0.074100  0.349800  1.0  0.1448
  C  C206  1  0.467900  0.114200  0.334300  1.0  -0.1782
  C  C207  1  0.471000  0.139090  0.408700  1.0  -0.1132
  C  C208  1  0.478800  0.122400  0.501400  1.0  -0.0969
  C  C209  1  0.482300  0.081500  0.513300  1.0  0.1298
  C  C210  1  0.458100  0.183600  0.386000  1.0  0.6876
  C  C211  1  0.326400  0.071400  0.575100  1.0  0.1434
  C  C212  1  0.339300  0.109800  0.563300  1.0  -0.1542
  C  C213  1  0.314700  0.140500  0.595200  1.0  -0.0796
  C  C214  1  0.278800  0.129870  0.642400  1.0  -0.1626
  C  C215  1  0.268700  0.090500  0.652300  1.0  0.1534
  C  C216  1  0.328000  0.182860  0.583400  1.0  0.6878
  C  C217  1  0.168900  0.423700  0.603600  1.0  0.1326
  C  C218  1  0.180700  0.383900  0.632200  1.0  -0.1785
  C  C219  1  0.177000  0.370400  0.714900  1.0  -0.0411
  C  C220  1  0.158200  0.397800  0.762100  1.0  -0.2044
  C  C221  1  0.148100  0.436200  0.729200  1.0  0.1688
  C  C222  1  0.195000  0.327600  0.756800  1.0  0.6905
  C  C223  1  0.381500  0.418900  0.908300  1.0  0.1375
  C  C224  1  0.389600  0.378500  0.909200  1.0  -0.1459
  C  C225  1  0.383700  0.355660  0.978300  1.0  -0.0922
  C  C226  1  0.366900  0.373600  0.044200  1.0  -0.16
  C  C227  1  0.356600  0.413900  0.034800  1.0  0.1565
  C  C228  1  0.393200  0.311200  0.984200  1.0  0.731
  C  C229  1  0.189000  0.409100  0.064200  1.0  0.1682
  C  C230  1  0.219200  0.372100  0.079300  1.0  -0.1871
  C  C231  1  0.234100  0.347410  0.165100  1.0  -0.084
  C  C232  1  0.214500  0.361500  0.228400  1.0  -0.0973
  C  C233  1  0.185000  0.400000  0.210800  1.0  0.1321
  C  C234  1  0.275200  0.307800  0.192400  1.0  0.7105
  C  C235  1  0.542100  0.399200  0.358000  1.0  0.1519
  C  C236  1  0.515500  0.361300  0.342500  1.0  -0.1833
  C  C237  1  0.511800  0.345100  0.423700  1.0  -0.0711
  C  C238  1  0.539700  0.367100  0.521000  1.0  -0.2389
  C  C239  1  0.565700  0.405700  0.528200  1.0  0.1649
  C  C240  1  0.471300  0.304300  0.400100  1.0  0.7078
  C  C241  1  0.380900  0.410900  0.488800  1.0  0.1569
  C  C242  1  0.379100  0.371600  0.513600  1.0  -0.1627
  C  C243  1  0.353700  0.362370  0.572100  1.0  -0.1646
  C  C244  1  0.335700  0.392800  0.614400  1.0  -0.2041
  C  C245  1  0.339300  0.431000  0.586600  1.0  0.1458
  C  C246  1  0.342400  0.319120  0.592100  1.0  0.7153
  C  C247  1  0.589600  0.561800  0.344400  1.0  0.163
  C  C248  1  0.590000  0.603500  0.320000  1.0  -0.1145
  C  C249  1  0.577900  0.629700  0.373300  1.0  -0.103
  C  C250  1  0.568700  0.616100  0.454000  1.0  -0.1675
  C  C251  1  0.569700  0.576100  0.469600  1.0  0.1725
  C  C252  1  0.579700  0.673600  0.353100  1.0  0.6354
  C  C253  1  0.963700  0.596600  0.916300  1.0  0.1351
  C  C254  1  0.943000  0.635100  0.916600  1.0  -0.1453
  C  C255  1  0.906600  0.643620  0.961700  1.0  -0.0934
  C  C256  1  0.893300  0.613400  0.007900  1.0  -0.0948
  C  C257  1  0.913300  0.574600  0.002500  1.0  0.1474
  C  C258  1  0.879300  0.685130  0.959800  1.0  0.7166
  C  C259  1  0.757700  0.586000  0.073600  1.0  0.1306
  C  C260  1  0.756100  0.626700  0.081500  1.0  -0.1414
  C  C261  1  0.763000  0.643000  0.171600  1.0  -0.0736
  C  C262  1  0.766500  0.617700  0.248900  1.0  -0.1381
  C  C263  1  0.766700  0.577000  0.235000  1.0  0.1457
  C  C264  1  0.773800  0.686900  0.195100  1.0  0.7026
  C  C265  1  0.970000  0.574100  0.349800  1.0  0.1448
  C  C266  1  0.967900  0.614200  0.334300  1.0  -0.1782
  C  C267  1  0.971000  0.639090  0.408700  1.0  -0.1132
  C  C268  1  0.978800  0.622400  0.501400  1.0  -0.0969
  C  C269  1  0.982300  0.581500  0.513300  1.0  0.1298
  C  C270  1  0.958100  0.683600  0.386000  1.0  0.6876
  C  C271  1  0.826400  0.571400  0.575100  1.0  0.1434
  C  C272  1  0.839300  0.609800  0.563300  1.0  -0.1542
  C  C273  1  0.814700  0.640500  0.595200  1.0  -0.0796
  C  C274  1  0.778800  0.629870  0.642400  1.0  -0.1626
  C  C275  1  0.768700  0.590500  0.652300  1.0  0.1534
  C  C276  1  0.828000  0.682860  0.583400  1.0  0.6878
  C  C277  1  0.668900  0.923700  0.603600  1.0  0.1326
  C  C278  1  0.680700  0.883900  0.632200  1.0  -0.1785
  C  C279  1  0.677000  0.870400  0.714900  1.0  -0.0411
  C  C280  1  0.658200  0.897800  0.762100  1.0  -0.2044
  C  C281  1  0.648100  0.936200  0.729200  1.0  0.1688
  C  C282  1  0.695000  0.827600  0.756800  1.0  0.6905
  C  C283  1  0.881500  0.918900  0.908300  1.0  0.1375
  C  C284  1  0.889600  0.878500  0.909200  1.0  -0.1459
  C  C285  1  0.883700  0.855660  0.978300  1.0  -0.0922
  C  C286  1  0.866900  0.873600  0.044200  1.0  -0.16
  C  C287  1  0.856600  0.913900  0.034800  1.0  0.1565
  C  C288  1  0.893200  0.811200  0.984200  1.0  0.731
  C  C289  1  0.689000  0.909100  0.064200  1.0  0.1682
  C  C290  1  0.719200  0.872100  0.079300  1.0  -0.1871
  C  C291  1  0.734100  0.847410  0.165100  1.0  -0.084
  C  C292  1  0.714500  0.861500  0.228400  1.0  -0.0973
  C  C293  1  0.685000  0.900000  0.210800  1.0  0.1321
  C  C294  1  0.775200  0.807800  0.192400  1.0  0.7105
  C  C295  1  0.042100  0.899200  0.358000  1.0  0.1519
  C  C296  1  0.015500  0.861300  0.342500  1.0  -0.1833
  C  C297  1  0.011800  0.845100  0.423700  1.0  -0.0711
  C  C298  1  0.039700  0.867100  0.521000  1.0  -0.2389
  C  C299  1  0.065700  0.905700  0.528200  1.0  0.1649
  C  C300  1  0.971300  0.804300  0.400100  1.0  0.7078
  C  C301  1  0.880900  0.910900  0.488800  1.0  0.1569
  C  C302  1  0.879100  0.871600  0.513600  1.0  -0.1627
  C  C303  1  0.853700  0.862370  0.572100  1.0  -0.1646
  C  C304  1  0.835700  0.892800  0.614400  1.0  -0.2041
  C  C305  1  0.839300  0.931000  0.586600  1.0  0.1458
  C  C306  1  0.842400  0.819120  0.592100  1.0  0.7153
  C  C307  1  0.089600  0.061800  0.344400  1.0  0.163
  C  C308  1  0.090000  0.103500  0.320000  1.0  -0.1145
  C  C309  1  0.077900  0.129700  0.373300  1.0  -0.103
  C  C310  1  0.068700  0.116100  0.454000  1.0  -0.1675
  C  C311  1  0.069700  0.076100  0.469600  1.0  0.1725
  C  C312  1  0.079700  0.173600  0.353100  1.0  0.6354
  C  C313  1  0.463700  0.903400  0.416300  1.0  0.1355
  C  C314  1  0.443000  0.864900  0.416600  1.0  -0.1448
  C  C315  1  0.406600  0.856380  0.461700  1.0  -0.0935
  C  C316  1  0.393300  0.886600  0.507900  1.0  -0.0943
  C  C317  1  0.413300  0.925400  0.502500  1.0  0.148
  C  C318  1  0.379300  0.814870  0.459800  1.0  0.7162
  C  C319  1  0.257700  0.914000  0.573600  1.0  0.1305
  C  C320  1  0.256100  0.873300  0.581500  1.0  -0.1412
  C  C321  1  0.263000  0.857000  0.671600  1.0  -0.0721
  C  C322  1  0.266500  0.882300  0.748900  1.0  -0.1378
  C  C323  1  0.266700  0.923000  0.735000  1.0  0.1467
  C  C324  1  0.273800  0.813100  0.695100  1.0  0.7
  C  C325  1  0.470000  0.925900  0.849800  1.0  0.1461
  C  C326  1  0.467900  0.885800  0.834300  1.0  -0.1784
  C  C327  1  0.471000  0.860910  0.908700  1.0  -0.1131
  C  C328  1  0.478800  0.877600  0.001400  1.0  -0.0973
  C  C329  1  0.482300  0.918500  0.013300  1.0  0.1295
  C  C330  1  0.458100  0.816400  0.886000  1.0  0.6851
  C  C331  1  0.326400  0.928600  0.075100  1.0  0.1444
  C  C332  1  0.339300  0.890200  0.063300  1.0  -0.1544
  C  C333  1  0.314700  0.859500  0.095200  1.0  -0.0802
  C  C334  1  0.278800  0.870130  0.142400  1.0  -0.1619
  C  C335  1  0.268700  0.909500  0.152300  1.0  0.1509
  C  C336  1  0.328000  0.817140  0.083400  1.0  0.6884
  C  C337  1  0.168900  0.576300  0.103600  1.0  0.1329
  C  C338  1  0.180700  0.616100  0.132200  1.0  -0.1777
  C  C339  1  0.177000  0.629600  0.214900  1.0  -0.0413
  C  C340  1  0.158200  0.602200  0.262100  1.0  -0.2042
  C  C341  1  0.148100  0.563800  0.229200  1.0  0.1708
  C  C342  1  0.195000  0.672400  0.256800  1.0  0.692
  C  C343  1  0.381500  0.581100  0.408300  1.0  0.1369
  C  C344  1  0.389600  0.621500  0.409200  1.0  -0.146
  C  C345  1  0.383700  0.644340  0.478300  1.0  -0.0917
  C  C346  1  0.366900  0.626400  0.544200  1.0  -0.1601
  C  C347  1  0.356600  0.586100  0.534800  1.0  0.1574
  C  C348  1  0.393200  0.688800  0.484200  1.0  0.7302
  C  C349  1  0.189000  0.590900  0.564200  1.0  0.1683
  C  C350  1  0.219200  0.627900  0.579300  1.0  -0.1864
  C  C351  1  0.234100  0.652590  0.665100  1.0  -0.0835
  C  C352  1  0.214500  0.638500  0.728400  1.0  -0.0977
  C  C353  1  0.185000  0.600000  0.710800  1.0  0.1334
  C  C354  1  0.275200  0.692200  0.692400  1.0  0.712
  C  C355  1  0.542100  0.600800  0.858000  1.0  0.1515
  C  C356  1  0.515500  0.638700  0.842500  1.0  -0.1831
  C  C357  1  0.511800  0.654900  0.923700  1.0  -0.0715
  C  C358  1  0.539700  0.632900  0.021000  1.0  -0.2396
  C  C359  1  0.565700  0.594300  0.028200  1.0  0.1653
  C  C360  1  0.471300  0.695700  0.900100  1.0  0.7092
  C  C361  1  0.380900  0.589100  0.988800  1.0  0.1562
  C  C362  1  0.379100  0.628400  0.013600  1.0  -0.1617
  C  C363  1  0.353700  0.637630  0.072100  1.0  -0.1641
  C  C364  1  0.335700  0.607200  0.114400  1.0  -0.2048
  C  C365  1  0.339300  0.569000  0.086600  1.0  0.1471
  C  C366  1  0.342400  0.680880  0.092100  1.0  0.7176
  C  C367  1  0.589600  0.438200  0.844400  1.0  0.1629
  C  C368  1  0.590000  0.396500  0.820000  1.0  -0.1141
  C  C369  1  0.577900  0.370300  0.873300  1.0  -0.1037
  C  C370  1  0.568700  0.383900  0.954000  1.0  -0.1679
  C  C371  1  0.569700  0.423900  0.969600  1.0  0.1721
  C  C372  1  0.579700  0.326400  0.853100  1.0  0.6363
  C  C373  1  0.963700  0.403400  0.416300  1.0  0.1355
  C  C374  1  0.943000  0.364900  0.416600  1.0  -0.1448
  C  C375  1  0.906600  0.356380  0.461700  1.0  -0.0935
  C  C376  1  0.893300  0.386600  0.507900  1.0  -0.0943
  C  C377  1  0.913300  0.425400  0.502500  1.0  0.148
  C  C378  1  0.879300  0.314870  0.459800  1.0  0.7162
  C  C379  1  0.757700  0.414000  0.573600  1.0  0.1305
  C  C380  1  0.756100  0.373300  0.581500  1.0  -0.1412
  C  C381  1  0.763000  0.357000  0.671600  1.0  -0.0721
  C  C382  1  0.766500  0.382300  0.748900  1.0  -0.1378
  C  C383  1  0.766700  0.423000  0.735000  1.0  0.1467
  C  C384  1  0.773800  0.313100  0.695100  1.0  0.7
  C  C385  1  0.970000  0.425900  0.849800  1.0  0.1461
  C  C386  1  0.967900  0.385800  0.834300  1.0  -0.1784
  C  C387  1  0.971000  0.360910  0.908700  1.0  -0.1131
  C  C388  1  0.978800  0.377600  0.001400  1.0  -0.0973
  C  C389  1  0.982300  0.418500  0.013300  1.0  0.1295
  C  C390  1  0.958100  0.316400  0.886000  1.0  0.6851
  C  C391  1  0.826400  0.428600  0.075100  1.0  0.1444
  C  C392  1  0.839300  0.390200  0.063300  1.0  -0.1544
  C  C393  1  0.814700  0.359500  0.095200  1.0  -0.0802
  C  C394  1  0.778800  0.370130  0.142400  1.0  -0.1619
  C  C395  1  0.768700  0.409500  0.152300  1.0  0.1509
  C  C396  1  0.828000  0.317140  0.083400  1.0  0.6884
  C  C397  1  0.668900  0.076300  0.103600  1.0  0.1329
  C  C398  1  0.680700  0.116100  0.132200  1.0  -0.1777
  C  C399  1  0.677000  0.129600  0.214900  1.0  -0.0413
  C  C400  1  0.658200  0.102200  0.262100  1.0  -0.2042
  C  C401  1  0.648100  0.063800  0.229200  1.0  0.1708
  C  C402  1  0.695000  0.172400  0.256800  1.0  0.692
  C  C403  1  0.881500  0.081100  0.408300  1.0  0.1369
  C  C404  1  0.889600  0.121500  0.409200  1.0  -0.146
  C  C405  1  0.883700  0.144340  0.478300  1.0  -0.0917
  C  C406  1  0.866900  0.126400  0.544200  1.0  -0.1601
  C  C407  1  0.856600  0.086100  0.534800  1.0  0.1574
  C  C408  1  0.893200  0.188800  0.484200  1.0  0.7302
  C  C409  1  0.689000  0.090900  0.564200  1.0  0.1683
  C  C410  1  0.719200  0.127900  0.579300  1.0  -0.1864
  C  C411  1  0.734100  0.152590  0.665100  1.0  -0.0835
  C  C412  1  0.714500  0.138500  0.728400  1.0  -0.0977
  C  C413  1  0.685000  0.100000  0.710800  1.0  0.1334
  C  C414  1  0.775200  0.192200  0.692400  1.0  0.712
  C  C415  1  0.042100  0.100800  0.858000  1.0  0.1515
  C  C416  1  0.015500  0.138700  0.842500  1.0  -0.1831
  C  C417  1  0.011800  0.154900  0.923700  1.0  -0.0715
  C  C418  1  0.039700  0.132900  0.021000  1.0  -0.2396
  C  C419  1  0.065700  0.094300  0.028200  1.0  0.1653
  C  C420  1  0.971300  0.195700  0.900100  1.0  0.7092
  C  C421  1  0.880900  0.089100  0.988800  1.0  0.1562
  C  C422  1  0.879100  0.128400  0.013600  1.0  -0.1617
  C  C423  1  0.853700  0.137630  0.072100  1.0  -0.1641
  C  C424  1  0.835700  0.107200  0.114400  1.0  -0.2048
  C  C425  1  0.839300  0.069000  0.086600  1.0  0.1471
  C  C426  1  0.842400  0.180880  0.092100  1.0  0.7176
  C  C427  1  0.089600  0.938200  0.844400  1.0  0.1629
  C  C428  1  0.090000  0.896500  0.820000  1.0  -0.1141
  C  C429  1  0.077900  0.870300  0.873300  1.0  -0.1037
  C  C430  1  0.068700  0.883900  0.954000  1.0  -0.1679
  C  C431  1  0.069700  0.923900  0.969600  1.0  0.1721
  C  C432  1  0.079700  0.826400  0.853100  1.0  0.6363
  N  N433  1  0.448800  0.066520  0.958200  1.0  -0.2919
  N  N434  1  0.263900  0.061300  0.150500  1.0  -0.3191
  N  N435  1  0.477200  0.057700  0.437100  1.0  -0.2864
  N  N436  1  0.293200  0.060980  0.621600  1.0  -0.3061
  N  N437  1  0.154000  0.450200  0.654000  1.0  -0.3196
  N  N438  1  0.366400  0.436630  0.971800  1.0  -0.2922
  N  N439  1  0.174300  0.424090  0.131000  1.0  -0.3006
  N  N440  1  0.566400  0.421800  0.449400  1.0  -0.3261
  N  N441  1  0.361500  0.440290  0.524800  1.0  -0.2808
  N  N442  1  0.580100  0.549000  0.416900  1.0  -0.3243
  N  N443  1  0.948800  0.566520  0.958200  1.0  -0.2919
  N  N444  1  0.763900  0.561300  0.150500  1.0  -0.3191
  N  N445  1  0.977200  0.557700  0.437100  1.0  -0.2864
  N  N446  1  0.793200  0.560980  0.621600  1.0  -0.3061
  N  N447  1  0.654000  0.950200  0.654000  1.0  -0.3196
  N  N448  1  0.866400  0.936630  0.971800  1.0  -0.2922
  N  N449  1  0.674300  0.924090  0.131000  1.0  -0.3006
  N  N450  1  0.066400  0.921800  0.449400  1.0  -0.3261
  N  N451  1  0.861500  0.940290  0.524800  1.0  -0.2808
  N  N452  1  0.080100  0.049000  0.416900  1.0  -0.3243
  N  N453  1  0.448800  0.933480  0.458200  1.0  -0.2935
  N  N454  1  0.263900  0.938700  0.650500  1.0  -0.3191
  N  N455  1  0.477200  0.942300  0.937100  1.0  -0.2887
  N  N456  1  0.293200  0.939020  0.121600  1.0  -0.3066
  N  N457  1  0.154000  0.549800  0.154000  1.0  -0.3156
  N  N458  1  0.366400  0.563370  0.471800  1.0  -0.2901
  N  N459  1  0.174300  0.575910  0.631000  1.0  -0.3016
  N  N460  1  0.566400  0.578200  0.949400  1.0  -0.3239
  N  N461  1  0.361500  0.559710  0.024800  1.0  -0.2784
  N  N462  1  0.580100  0.451000  0.916900  1.0  -0.3255
  N  N463  1  0.948800  0.433480  0.458200  1.0  -0.2935
  N  N464  1  0.763900  0.438700  0.650500  1.0  -0.3191
  N  N465  1  0.977200  0.442300  0.937100  1.0  -0.2887
  N  N466  1  0.793200  0.439020  0.121600  1.0  -0.3066
  N  N467  1  0.654000  0.049800  0.154000  1.0  -0.3156
  N  N468  1  0.866400  0.063370  0.471800  1.0  -0.2901
  N  N469  1  0.674300  0.075910  0.631000  1.0  -0.3016
  N  N470  1  0.066400  0.078200  0.949400  1.0  -0.3239
  N  N471  1  0.861500  0.059710  0.024800  1.0  -0.2784
  N  N472  1  0.080100  0.951000  0.916900  1.0  -0.3255
  O  O473  1  0.364000  0.207940  0.882300  1.0  -0.7645
  O  O474  1  0.372500  0.192870  0.034600  1.0  -0.7672
  O  O475  1  0.273000  0.208200  0.123300  1.0  -0.7199
  O  O476  1  0.285500  0.199080  0.282500  1.0  -0.6885
  O  O477  1  0.441700  0.194400  0.294300  1.0  -0.7006
  O  O478  1  0.456400  0.204340  0.453100  1.0  -0.731
  O  O479  1  0.355000  0.189820  0.532700  1.0  -0.7484
  O  O480  1  0.312900  0.208090  0.628800  1.0  -0.7746
  O  O481  1  0.218900  0.305350  0.717400  1.0  -0.7488
  O  O482  1  0.189500  0.318900  0.830500  1.0  -0.5321
  O  O483  1  0.391300  0.295100  0.905900  1.0  -0.7618
  O  O484  1  0.402500  0.293710  0.063200  1.0  -0.725
  O  O485  1  0.295300  0.298690  0.133300  1.0  -0.7448
  O  O486  1  0.287500  0.287920  0.272100  1.0  -0.7444
  O  O487  1  0.458400  0.283840  0.318500  1.0  -0.7739
  O  O488  1  0.455600  0.294940  0.464500  1.0  -0.7105
  O  O489  1  0.346900  0.293590  0.537600  1.0  -0.7859
  O  O490  1  0.327100  0.313150  0.657100  1.0  -0.7174
  O  O491  1  0.580000  0.683800  0.276500  1.0  -0.5001
  O  O492  1  0.578500  0.696680  0.419900  1.0  -0.588
  O  O493  1  0.864000  0.707940  0.882300  1.0  -0.7645
  O  O494  1  0.872500  0.692870  0.034600  1.0  -0.7672
  O  O495  1  0.773000  0.708200  0.123300  1.0  -0.7199
  O  O496  1  0.785500  0.699080  0.282500  1.0  -0.6885
  O  O497  1  0.941700  0.694400  0.294300  1.0  -0.7006
  O  O498  1  0.956400  0.704340  0.453100  1.0  -0.731
  O  O499  1  0.855000  0.689820  0.532700  1.0  -0.7484
  O  O500  1  0.812900  0.708090  0.628800  1.0  -0.7746
  O  O501  1  0.718900  0.805350  0.717400  1.0  -0.7488
  O  O502  1  0.689500  0.818900  0.830500  1.0  -0.5321
  O  O503  1  0.891300  0.795100  0.905900  1.0  -0.7618
  O  O504  1  0.902500  0.793710  0.063200  1.0  -0.725
  O  O505  1  0.795300  0.798690  0.133300  1.0  -0.7448
  O  O506  1  0.787500  0.787920  0.272100  1.0  -0.7444
  O  O507  1  0.958400  0.783840  0.318500  1.0  -0.7739
  O  O508  1  0.955600  0.794940  0.464500  1.0  -0.7105
  O  O509  1  0.846900  0.793590  0.537600  1.0  -0.7859
  O  O510  1  0.827100  0.813150  0.657100  1.0  -0.7174
  O  O511  1  0.080000  0.183800  0.276500  1.0  -0.5001
  O  O512  1  0.078500  0.196680  0.419900  1.0  -0.5881
  O  O513  1  0.364000  0.792060  0.382300  1.0  -0.7651
  O  O514  1  0.372500  0.807130  0.534600  1.0  -0.7655
  O  O515  1  0.273000  0.791800  0.623300  1.0  -0.7191
  O  O516  1  0.285500  0.800920  0.782500  1.0  -0.6887
  O  O517  1  0.441700  0.805600  0.794300  1.0  -0.7023
  O  O518  1  0.456400  0.795660  0.953100  1.0  -0.7305
  O  O519  1  0.355000  0.810180  0.032700  1.0  -0.7486
  O  O520  1  0.312900  0.791910  0.128800  1.0  -0.7742
  O  O521  1  0.218900  0.694650  0.217400  1.0  -0.7509
  O  O522  1  0.189500  0.681100  0.330500  1.0  -0.534
  O  O523  1  0.391300  0.704900  0.405900  1.0  -0.7605
  O  O524  1  0.402500  0.706290  0.563200  1.0  -0.7248
  O  O525  1  0.295300  0.701310  0.633300  1.0  -0.7436
  O  O526  1  0.287500  0.712080  0.772100  1.0  -0.7458
  O  O527  1  0.458400  0.716160  0.818500  1.0  -0.7725
  O  O528  1  0.455600  0.705060  0.964500  1.0  -0.7102
  O  O529  1  0.346900  0.706410  0.037600  1.0  -0.7869
  O  O530  1  0.327100  0.686850  0.157100  1.0  -0.716
  O  O531  1  0.580000  0.316200  0.776500  1.0  -0.499
  O  O532  1  0.578500  0.303320  0.919900  1.0  -0.5879
  O  O533  1  0.864000  0.292060  0.382300  1.0  -0.7651
  O  O534  1  0.872500  0.307130  0.534600  1.0  -0.7655
  O  O535  1  0.773000  0.291800  0.623300  1.0  -0.7191
  O  O536  1  0.785500  0.300920  0.782500  1.0  -0.6887
  O  O537  1  0.941700  0.305600  0.794300  1.0  -0.7023
  O  O538  1  0.956400  0.295660  0.953100  1.0  -0.7305
  O  O539  1  0.855000  0.310180  0.032700  1.0  -0.7486
  O  O540  1  0.812900  0.291910  0.128800  1.0  -0.7742
  O  O541  1  0.718900  0.194650  0.217400  1.0  -0.7509
  O  O542  1  0.689500  0.181100  0.330500  1.0  -0.534
  O  O543  1  0.891300  0.204900  0.405900  1.0  -0.7605
  O  O544  1  0.902500  0.206290  0.563200  1.0  -0.7248
  O  O545  1  0.795300  0.201310  0.633300  1.0  -0.7436
  O  O546  1  0.787500  0.212080  0.772100  1.0  -0.7458
  O  O547  1  0.958400  0.216160  0.818500  1.0  -0.7725
  O  O548  1  0.955600  0.205060  0.964500  1.0  -0.7102
  O  O549  1  0.846900  0.206410  0.037600  1.0  -0.7869
  O  O550  1  0.827100  0.186850  0.157100  1.0  -0.716
  O  O551  1  0.080000  0.816200  0.776500  1.0  -0.499
  O  O552  1  0.078500  0.803320  0.919900  1.0  -0.5876
