# generated using pymatgen
data_Zn3P2H4(CO3)4
_symmetry_space_group_name_H-M   'P 1'
_cell_length_a   5.55120000
_cell_length_b   9.78580000
_cell_length_c   12.93820000
_cell_angle_alpha   86.87700000
_cell_angle_beta   87.80900000
_cell_angle_gamma   76.45100000
_symmetry_Int_Tables_number   1
_chemical_formula_structural   Zn3P2H4(CO3)4
_chemical_formula_sum   'Zn6 P4 H8 C8 O24'
_cell_volume   682.03125385
_cell_formula_units_Z   2
loop_
 _symmetry_equiv_pos_site_id
 _symmetry_equiv_pos_as_xyz
  1  'x, y, z'
loop_
 _atom_site_type_symbol
 _atom_site_label
 _atom_site_symmetry_multiplicity
 _atom_site_fract_x
 _atom_site_fract_y
 _atom_site_fract_z
 _atom_site_occupancy
 _atom_site_charge
  Zn  Zn1  1  0.083200  0.623550  0.812800  1.0  1.0515
  Zn  Zn2  1  0.532500  0.020990  0.492770  1.0  0.9466
  Zn  Zn3  1  0.801230  0.079700  0.919150  1.0  0.9998
  Zn  Zn4  1  0.916800  0.376450  0.187200  1.0  1.0543
  Zn  Zn5  1  0.467500  0.979010  0.507230  1.0  0.9429
  Zn  Zn6  1  0.198770  0.920300  0.080850  1.0  0.9993
  P  P7  1  0.003210  0.835880  0.606470  1.0  1.5157
  P  P8  1  0.769240  0.773830  0.013550  1.0  1.544
  P  P9  1  0.996790  0.164120  0.393530  1.0  1.5173
  P  P10  1  0.230760  0.226170  0.986450  1.0  1.5433
  H  H11  1  0.189000  0.000000  0.751000  1.0  0.3343
  H  H12  1  0.555000  0.618000  0.160000  1.0  0.4206
  H  H13  1  0.955000  0.081000  0.644000  1.0  0.1245
  H  H14  1  0.744000  0.771000  0.191000  1.0  0.1337
  H  H15  1  0.811000  0.000000  0.249000  1.0  0.3349
  H  H16  1  0.445000  0.382000  0.840000  1.0  0.4209
  H  H17  1  0.045000  0.919000  0.356000  1.0  0.1245
  H  H18  1  0.256000  0.229000  0.809000  1.0  0.1329
  C  C19  1  0.919700  0.993400  0.685200  1.0  0.0181
  C  C20  1  0.648500  0.025600  0.718500  1.0  0.6955
  C  C21  1  0.810300  0.695700  0.146000  1.0  -0.0166
  C  C22  1  0.076600  0.641300  0.176430  1.0  0.7102
  C  C23  1  0.080300  0.006600  0.314800  1.0  0.0175
  C  C24  1  0.351500  0.974400  0.281500  1.0  0.6982
  C  C25  1  0.189700  0.304300  0.854000  1.0  -0.0145
  C  C26  1  0.923400  0.358700  0.823570  1.0  0.7097
  O  O27  1  0.982400  0.706500  0.674940  1.0  -0.7804
  O  O28  1  0.819600  0.858900  0.519980  1.0  -0.8354
  O  O29  1  0.269100  0.825100  0.566900  1.0  -0.7982
  O  O30  1  0.062800  0.975900  0.776900  1.0  -0.5901
  O  O31  1  0.486000  0.056100  0.650610  1.0  -0.6526
  O  O32  1  0.592500  0.022300  0.812960  1.0  -0.5549
  O  O33  1  0.492300  0.813400  0.996780  1.0  -0.7919
  O  O34  1  0.882300  0.901700  0.013970  1.0  -0.8443
  O  O35  1  0.904400  0.665600  0.941170  1.0  -0.8636
  O  O36  1  0.690600  0.582100  0.159810  1.0  -0.6239
  O  O37  1  0.221000  0.723800  0.166560  1.0  -0.5827
  O  O38  1  0.143900  0.517900  0.212490  1.0  -0.5592
  O  O39  1  0.017600  0.293500  0.325060  1.0  -0.7828
  O  O40  1  0.180400  0.141100  0.480020  1.0  -0.8363
  O  O41  1  0.730900  0.174900  0.433100  1.0  -0.7985
  O  O42  1  0.937200  0.024100  0.223100  1.0  -0.5905
  O  O43  1  0.514000  0.943900  0.349390  1.0  -0.6512
  O  O44  1  0.407500  0.977700  0.187040  1.0  -0.5552
  O  O45  1  0.507700  0.186600  0.003220  1.0  -0.7932
  O  O46  1  0.117700  0.098300  0.986030  1.0  -0.8449
  O  O47  1  0.095600  0.334400  0.058830  1.0  -0.8623
  O  O48  1  0.309400  0.417900  0.840190  1.0  -0.6245
  O  O49  1  0.779000  0.276200  0.833440  1.0  -0.5841
  O  O50  1  0.856100  0.482100  0.787510  1.0  -0.5586
