# generated using pymatgen
data_Zn3P2H2(CO3)4
_symmetry_space_group_name_H-M   'P 1'
_cell_length_a   10.23000000
_cell_length_b   11.05900000
_cell_length_c   13.81800000
_cell_angle_alpha   69.01000000
_cell_angle_beta   78.31000000
_cell_angle_gamma   72.15000000
_symmetry_Int_Tables_number   1
_chemical_formula_structural   Zn3P2H2(CO3)4
_chemical_formula_sum   'Zn12 P8 H8 C16 O48'
_cell_volume   1381.68788109
_cell_formula_units_Z   4
loop_
 _symmetry_equiv_pos_site_id
 _symmetry_equiv_pos_as_xyz
  1  'x, y, z'
loop_
 _atom_site_type_symbol
 _atom_site_label
 _atom_site_symmetry_multiplicity
 _atom_site_fract_x
 _atom_site_fract_y
 _atom_site_fract_z
 _atom_site_occupancy
 _atom_site_charge
  Zn  Zn1  1  0.921460  0.149060  0.085230  1.0  1.125
  Zn  Zn2  1  0.077500  0.352390  0.914300  1.0  1.0763
  Zn  Zn3  1  0.382530  0.014460  0.172980  1.0  1.0822
  Zn  Zn4  1  0.379690  0.514970  0.174480  1.0  1.0868
  Zn  Zn5  1  0.021360  0.724160  0.490370  1.0  0.9819
  Zn  Zn6  1  0.016600  0.231500  0.493600  1.0  0.9483
  Zn  Zn7  1  0.078540  0.850940  0.914770  1.0  1.1249
  Zn  Zn8  1  0.922500  0.647610  0.085700  1.0  1.077
  Zn  Zn9  1  0.617470  0.985540  0.827020  1.0  1.0818
  Zn  Zn10  1  0.620310  0.485030  0.825520  1.0  1.086
  Zn  Zn11  1  0.978640  0.275840  0.509630  1.0  0.9793
  Zn  Zn12  1  0.983400  0.768500  0.506400  1.0  0.9464
  P  P13  1  0.222990  0.031040  0.981650  1.0  1.597
  P  P14  1  0.222960  0.530980  0.981460  1.0  1.6113
  P  P15  1  0.156490  0.978810  0.381310  1.0  1.5392
  P  P16  1  0.156540  0.485710  0.383950  1.0  1.5835
  P  P17  1  0.777010  0.968960  0.018350  1.0  1.596
  P  P18  1  0.777040  0.469020  0.018540  1.0  1.6112
  P  P19  1  0.843510  0.021190  0.618690  1.0  1.5411
  P  P20  1  0.843460  0.514290  0.616050  1.0  1.5873
  H  H21  1  0.236200  0.102900  0.799500  1.0  0.125
  H  H22  1  0.239400  0.600300  0.800100  1.0  0.124
  H  H23  1  0.923200  0.084400  0.361200  1.0  0.1444
  H  H24  1  0.922700  0.586900  0.357800  1.0  0.1384
  H  H25  1  0.763800  0.897100  0.200500  1.0  0.1266
  H  H26  1  0.760600  0.399700  0.199900  1.0  0.1257
  H  H27  1  0.076800  0.915600  0.638800  1.0  0.1439
  H  H28  1  0.077300  0.413100  0.642200  1.0  0.139
  C  C29  1  0.305200  0.080300  0.847400  1.0  0.0409
  C  C30  1  0.638500  0.799000  0.176600  1.0  0.7655
  C  C31  1  0.307500  0.577800  0.848600  1.0  0.0325
  C  C32  1  0.635800  0.301000  0.175800  1.0  0.7606
  C  C33  1  0.000200  0.051300  0.314300  1.0  0.0727
  C  C34  1  0.965900  0.946000  0.283700  1.0  0.7465
  C  C35  1  0.001600  0.552400  0.312900  1.0  0.0735
  C  C36  1  0.030400  0.554600  0.715900  1.0  0.7565
  C  C37  1  0.694800  0.919700  0.152600  1.0  0.0435
  C  C38  1  0.361500  0.201000  0.823400  1.0  0.7633
  C  C39  1  0.692500  0.422200  0.151400  1.0  0.0336
  C  C40  1  0.364200  0.699000  0.824200  1.0  0.7589
  C  C41  1  0.999800  0.948700  0.685700  1.0  0.0727
  C  C42  1  0.034100  0.054000  0.716300  1.0  0.747
  C  C43  1  0.998400  0.447600  0.687100  1.0  0.0714
  C  C44  1  0.969600  0.445400  0.284100  1.0  0.7554
  O  O45  1  0.100600  0.151900  0.986200  1.0  -0.8494
  O  O46  1  0.821200  0.094500  0.002100  1.0  -0.7695
  O  O47  1  0.331400  0.004600  0.049800  1.0  -0.8544
  O  O48  1  0.584100  0.027000  0.170700  1.0  -0.5402
  O  O49  1  0.510500  0.814600  0.197500  1.0  -0.5371
  O  O50  1  0.279000  0.309500  0.825300  1.0  -0.5582
  O  O51  1  0.179400  0.405800  0.997000  1.0  -0.7621
  O  O52  1  0.899800  0.349100  0.014400  1.0  -0.8421
  O  O53  1  0.330000  0.505600  0.050800  1.0  -0.8504
  O  O54  1  0.582100  0.528500  0.169100  1.0  -0.5421
  O  O55  1  0.719300  0.191600  0.173900  1.0  -0.5519
  O  O56  1  0.507800  0.316900  0.197200  1.0  -0.5352
  O  O57  1  0.279700  0.944500  0.307000  1.0  -0.7728
  O  O58  1  0.167600  0.089400  0.421100  1.0  -0.7615
  O  O59  1  0.133800  0.858400  0.471500  1.0  -0.7995
  O  O60  1  0.014800  0.160100  0.220000  1.0  -0.5345
  O  O61  1  0.966000  0.963100  0.188400  1.0  -0.5537
  O  O62  1  0.939300  0.843300  0.353800  1.0  -0.6616
  O  O63  1  0.280900  0.450100  0.309900  1.0  -0.7765
  O  O64  1  0.166600  0.595700  0.422200  1.0  -0.7468
  O  O65  1  0.867300  0.635800  0.525500  1.0  -0.8134
  O  O66  1  0.018200  0.660300  0.217700  1.0  -0.6066
  O  O67  1  0.030600  0.539500  0.810200  1.0  -0.545
  O  O68  1  0.056200  0.656700  0.646500  1.0  -0.6426
  O  O69  1  0.899400  0.848100  0.013800  1.0  -0.849
  O  O70  1  0.178800  0.905500  0.997900  1.0  -0.7683
  O  O71  1  0.668600  0.995400  0.950200  1.0  -0.8551
  O  O72  1  0.415900  0.973000  0.829300  1.0  -0.5427
  O  O73  1  0.489500  0.185400  0.802500  1.0  -0.5371
  O  O74  1  0.721000  0.690500  0.174700  1.0  -0.5596
  O  O75  1  0.820600  0.594200  0.003000  1.0  -0.7621
  O  O76  1  0.100200  0.650900  0.985600  1.0  -0.8422
  O  O77  1  0.670000  0.494400  0.949200  1.0  -0.8507
  O  O78  1  0.417900  0.471500  0.830900  1.0  -0.5414
  O  O79  1  0.280700  0.808400  0.826100  1.0  -0.5509
  O  O80  1  0.492200  0.683100  0.802800  1.0  -0.5343
  O  O81  1  0.720300  0.055500  0.693000  1.0  -0.7726
  O  O82  1  0.832400  0.910600  0.578900  1.0  -0.7654
  O  O83  1  0.866200  0.141600  0.528500  1.0  -0.7993
  O  O84  1  0.985200  0.839900  0.780000  1.0  -0.5353
  O  O85  1  0.034000  0.036900  0.811600  1.0  -0.5535
  O  O86  1  0.060700  0.156700  0.646200  1.0  -0.6591
  O  O87  1  0.719100  0.549900  0.690100  1.0  -0.7748
  O  O88  1  0.833400  0.404300  0.577800  1.0  -0.7521
  O  O89  1  0.132700  0.364200  0.474500  1.0  -0.814
  O  O90  1  0.981800  0.339700  0.782300  1.0  -0.6087
  O  O91  1  0.969400  0.460500  0.189800  1.0  -0.5454
  O  O92  1  0.943800  0.343300  0.353500  1.0  -0.6437
