# generated using pymatgen
data_CeH9C17O8
_symmetry_space_group_name_H-M   'P 1'
_cell_length_a   4.88000000
_cell_length_b   13.11000000
_cell_length_c   13.28990000
_cell_angle_alpha   90.00000000
_cell_angle_beta   100.57900000
_cell_angle_gamma   90.00000000
_symmetry_Int_Tables_number   1
_chemical_formula_structural   CeH9C17O8
_chemical_formula_sum   'Ce2 H18 C34 O16'
_cell_volume   835.79340441
_cell_formula_units_Z   2
loop_
 _symmetry_equiv_pos_site_id
 _symmetry_equiv_pos_as_xyz
  1  'x, y, z'
loop_
 _atom_site_type_symbol
 _atom_site_label
 _atom_site_symmetry_multiplicity
 _atom_site_fract_x
 _atom_site_fract_y
 _atom_site_fract_z
 _atom_site_occupancy
 _atom_site_charge
  Ce  Ce1  1  0.977780  0.758800  0.212300  1.0  2.2325
  Ce  Ce2  1  0.022220  0.258800  0.787700  1.0  2.2315
  H  H3  1  0.938700  0.496300  0.660600  1.0  0.4203
  H  H4  1  0.099500  0.794300  0.869700  1.0  0.1218
  H  H5  1  0.692600  0.578800  0.949400  1.0  0.1141
  H  H6  1  0.474300  0.661300  0.655100  1.0  0.1035
  H  H7  1  0.969000  0.843400  0.691300  1.0  0.0979
  H  H8  1  0.002800  0.753200  0.616300  1.0  0.1105
  H  H9  1  0.405500  0.972400  0.728200  1.0  0.115
  H  H10  1  0.278000  0.785300  0.486400  1.0  0.1179
  H  H11  1  0.822400  0.017800  0.497600  1.0  0.1141
  H  H12  1  0.061300  0.996300  0.339400  1.0  0.4201
  H  H13  1  0.900500  0.294300  0.130300  1.0  0.1211
  H  H14  1  0.307400  0.078800  0.050600  1.0  0.1135
  H  H15  1  0.525700  0.161300  0.344900  1.0  0.1026
  H  H16  1  0.031000  0.343400  0.308700  1.0  0.0979
  H  H17  1  0.997200  0.253200  0.383700  1.0  0.1115
  H  H18  1  0.594500  0.472400  0.271800  1.0  0.1158
  H  H19  1  0.722000  0.285300  0.513600  1.0  0.1178
  H  H20  1  0.177600  0.517800  0.502400  1.0  0.1142
  C  C21  1  0.235600  0.748700  0.850800  1.0  -0.0815
  C  C22  1  0.397400  0.686800  0.926300  1.0  -0.1234
  C  C23  1  0.584500  0.618500  0.899300  1.0  0.0113
  C  C24  1  0.613500  0.608400  0.797900  1.0  -0.1724
  C  C25  1  0.458000  0.670000  0.723200  1.0  -0.0764
  C  C26  1  0.273900  0.746300  0.748900  1.0  0.0661
  C  C27  1  0.103200  0.800700  0.665600  1.0  -0.2048
  C  C28  1  0.309900  0.869300  0.613300  1.0  0.0401
  C  C29  1  0.444300  0.953200  0.664900  1.0  -0.0744
  C  C30  1  0.632700  0.007000  0.622200  1.0  -0.1316
  C  C31  1  0.364300  0.841900  0.520600  1.0  -0.0682
  C  C32  1  0.555200  0.901100  0.476500  1.0  -0.1245
  C  C33  1  0.692600  0.981100  0.526100  1.0  -0.0207
  C  C34  1  0.611900  0.864400  0.377400  1.0  0.6979
  C  C35  1  0.782100  0.094800  0.683200  1.0  0.6571
  C  C36  1  0.802000  0.535500  0.766600  1.0  0.6846
  C  C37  1  0.380900  0.699400  0.035300  1.0  0.6182
  C  C38  1  0.764400  0.248700  0.149200  1.0  -0.0812
  C  C39  1  0.602600  0.186800  0.073700  1.0  -0.1236
  C  C40  1  0.415500  0.118500  0.100700  1.0  0.0119
  C  C41  1  0.386500  0.108400  0.202100  1.0  -0.1762
  C  C42  1  0.542000  0.170000  0.276800  1.0  -0.0778
  C  C43  1  0.726100  0.246300  0.251100  1.0  0.067
  C  C44  1  0.896800  0.300700  0.334400  1.0  -0.2053
  C  C45  1  0.690100  0.369300  0.386700  1.0  0.0403
  C  C46  1  0.555700  0.453200  0.335100  1.0  -0.072
  C  C47  1  0.367300  0.507000  0.377800  1.0  -0.1318
  C  C48  1  0.635700  0.341900  0.479400  1.0  -0.0657
  C  C49  1  0.444800  0.401100  0.523500  1.0  -0.1255
  C  C50  1  0.307400  0.481100  0.473900  1.0  -0.0209
  C  C51  1  0.388100  0.364400  0.622600  1.0  0.6992
  C  C52  1  0.217900  0.594800  0.316800  1.0  0.6581
  C  C53  1  0.198000  0.035500  0.233400  1.0  0.6849
  C  C54  1  0.619100  0.199400  0.964700  1.0  0.6325
  O  O55  1  0.602700  0.668700  0.108400  1.0  -0.7306
  O  O56  1  0.160900  0.753900  0.054700  1.0  -0.7024
  O  O57  1  0.847900  0.545200  0.674700  1.0  -0.4959
  O  O58  1  0.913000  0.460600  0.824000  1.0  -0.6572
  O  O59  1  0.739700  0.114800  0.770300  1.0  -0.6268
  O  O60  1  0.944400  0.148500  0.642200  1.0  -0.6291
  O  O61  1  0.443400  0.808100  0.320500  1.0  -0.6749
  O  O62  1  0.869500  0.887000  0.353300  1.0  -0.7319
  O  O63  1  0.397300  0.168700  0.891600  1.0  -0.7312
  O  O64  1  0.839100  0.253900  0.945300  1.0  -0.7025
  O  O65  1  0.152100  0.045200  0.325300  1.0  -0.4946
  O  O66  1  0.087000  0.960600  0.176000  1.0  -0.6579
  O  O67  1  0.260300  0.614800  0.229700  1.0  -0.6269
  O  O68  1  0.055600  0.648500  0.357800  1.0  -0.6343
  O  O69  1  0.556600  0.308100  0.679500  1.0  -0.6732
  O  O70  1  0.130500  0.387000  0.646700  1.0  -0.7354
