# generated using pymatgen
data_CeH9C17O8
_symmetry_space_group_name_H-M   'P 1'
_cell_length_a   4.87300000
_cell_length_b   13.13300000
_cell_length_c   13.29970000
_cell_angle_alpha   90.00000000
_cell_angle_beta   100.55200000
_cell_angle_gamma   90.00000000
_symmetry_Int_Tables_number   1
_chemical_formula_structural   CeH9C17O8
_chemical_formula_sum   'Ce2 H18 C34 O16'
_cell_volume   836.74877669
_cell_formula_units_Z   2
loop_
 _symmetry_equiv_pos_site_id
 _symmetry_equiv_pos_as_xyz
  1  'x, y, z'
loop_
 _atom_site_type_symbol
 _atom_site_label
 _atom_site_symmetry_multiplicity
 _atom_site_fract_x
 _atom_site_fract_y
 _atom_site_fract_z
 _atom_site_occupancy
 _atom_site_charge
  Ce  Ce1  1  0.735760  0.396260  0.211980  1.0  2.242
  Ce  Ce2  1  0.264240  0.896260  0.788020  1.0  2.233
  H  H3  1  0.706200  0.921500  0.129100  1.0  0.117
  H  H4  1  0.247700  0.713400  0.052500  1.0  0.1115
  H  H5  1  0.315700  0.794800  0.346200  1.0  0.104
  H  H6  1  0.914000  0.887200  0.377500  1.0  0.1218
  H  H7  1  0.775300  0.981200  0.313900  1.0  0.1023
  H  H8  1  0.189700  0.102000  0.273500  1.0  0.0876
  H  H9  1  0.847500  0.156400  0.501000  1.0  0.1402
  H  H10  1  0.284000  0.933300  0.512800  1.0  0.091
  H  H11  1  0.557200  0.656600  0.354300  1.0  0.3787
  H  H12  1  0.293800  0.421500  0.870900  1.0  0.1176
  H  H13  1  0.752300  0.213400  0.947500  1.0  0.1114
  H  H14  1  0.684300  0.294800  0.653800  1.0  0.1045
  H  H15  1  0.086000  0.387200  0.622500  1.0  0.1223
  H  H16  1  0.224700  0.481200  0.686100  1.0  0.1028
  H  H17  1  0.810300  0.602000  0.726500  1.0  0.0869
  H  H18  1  0.152500  0.656400  0.499000  1.0  0.1408
  H  H19  1  0.716000  0.433300  0.487200  1.0  0.0907
  H  H20  1  0.442800  0.156600  0.645700  1.0  0.3779
  C  C21  1  0.878300  0.890000  0.149400  1.0  -0.0712
  C  C22  1  0.985700  0.825200  0.075400  1.0  -0.1516
  C  C23  1  0.196000  0.754500  0.102800  1.0  0.0301
  C  C24  1  0.331400  0.743300  0.202800  1.0  -0.2193
  C  C25  1  0.244900  0.808500  0.277800  1.0  -0.0386
  C  C26  1  0.027000  0.907000  0.251700  1.0  0.0724
  C  C27  1  0.946600  0.942400  0.332600  1.0  -0.2073
  C  C28  1  0.184100  0.010700  0.385100  1.0  0.0748
  C  C29  1  0.285100  0.086200  0.338800  1.0  -0.0714
  C  C30  1  0.517300  0.145100  0.375500  1.0  -0.1255
  C  C31  1  0.684700  0.121900  0.473200  1.0  -0.0514
  C  C32  1  0.566700  0.035500  0.525000  1.0  -0.1083
  C  C33  1  0.342600  0.988500  0.478400  1.0  -0.0311
  C  C34  1  0.534400  0.673400  0.231000  1.0  0.7164
  C  C35  1  0.737000  0.002000  0.626100  1.0  0.6801
  C  C36  1  0.599600  0.231400  0.315900  1.0  0.6591
  C  C37  1  0.836800  0.842900  0.965200  1.0  0.6383
  C  C38  1  0.121700  0.390000  0.850600  1.0  -0.0714
  C  C39  1  0.014300  0.325200  0.924600  1.0  -0.1505
  C  C40  1  0.804000  0.254500  0.897200  1.0  0.031
  C  C41  1  0.668600  0.243300  0.797200  1.0  -0.2197
  C  C42  1  0.755100  0.308500  0.722200  1.0  -0.0396
  C  C43  1  0.973000  0.407000  0.748300  1.0  0.0794
  C  C44  1  0.053400  0.442400  0.667400  1.0  -0.2089
  C  C45  1  0.815900  0.510700  0.614900  1.0  0.0765
  C  C46  1  0.714900  0.586200  0.661200  1.0  -0.0731
  C  C47  1  0.482700  0.645100  0.624500  1.0  -0.1245
  C  C48  1  0.315300  0.621900  0.526800  1.0  -0.052
  C  C49  1  0.433300  0.535500  0.475000  1.0  -0.1124
  C  C50  1  0.657400  0.488500  0.521600  1.0  -0.0295
  C  C51  1  0.465600  0.173400  0.769000  1.0  0.7142
  C  C52  1  0.263000  0.502000  0.373900  1.0  0.6801
  C  C53  1  0.400400  0.731400  0.684100  1.0  0.6587
  C  C54  1  0.163200  0.342900  0.034800  1.0  0.6328
  O  O55  1  0.818500  0.287000  0.355100  1.0  -0.6703
  O  O56  1  0.610500  0.892800  0.945900  1.0  -0.689
  O  O57  1  0.674400  0.683100  0.321900  1.0  -0.5195
  O  O58  1  0.586900  0.598900  0.177700  1.0  -0.6679
  O  O59  1  0.475500  0.252800  0.227800  1.0  -0.6188
  O  O60  1  0.627500  0.949000  0.680700  1.0  -0.6908
  O  O61  1  0.975000  0.812100  0.891300  1.0  -0.7559
  O  O62  1  0.015000  0.025500  0.648000  1.0  -0.6867
  O  O63  1  0.181500  0.787000  0.644900  1.0  -0.6705
  O  O64  1  0.389500  0.392800  0.054100  1.0  -0.69
  O  O65  1  0.325600  0.183100  0.678100  1.0  -0.5147
  O  O66  1  0.413100  0.098900  0.822300  1.0  -0.6574
  O  O67  1  0.524500  0.752800  0.772200  1.0  -0.6183
  O  O68  1  0.372500  0.449000  0.319300  1.0  -0.692
  O  O69  1  0.025000  0.312100  0.108700  1.0  -0.7535
  O  O70  1  0.985000  0.525500  0.352000  1.0  -0.6753
