# generated using pymatgen
data_CuH12C12O7
_symmetry_space_group_name_H-M   'P 1'
_cell_length_a   11.92800000
_cell_length_b   18.25300000
_cell_length_c   18.66000000
_cell_angle_alpha   90.00000000
_cell_angle_beta   90.00000000
_cell_angle_gamma   90.00000000
_symmetry_Int_Tables_number   1
_chemical_formula_structural   CuH12C12O7
_chemical_formula_sum   'Cu8 H96 C96 O56'
_cell_volume   4062.68848944
_cell_formula_units_Z   8
loop_
 _symmetry_equiv_pos_site_id
 _symmetry_equiv_pos_as_xyz
  1  'x, y, z'
loop_
 _atom_site_type_symbol
 _atom_site_label
 _atom_site_symmetry_multiplicity
 _atom_site_fract_x
 _atom_site_fract_y
 _atom_site_fract_z
 _atom_site_occupancy
 _atom_site_charge
  Cu  Cu1  1  0.087290  0.280420  0.271430  1.0  0.893
  Cu  Cu2  1  0.928870  0.208520  0.202400  1.0  0.8918
  Cu  Cu3  1  0.087290  0.719580  0.728570  1.0  0.8941
  Cu  Cu4  1  0.928870  0.791480  0.797600  1.0  0.8905
  Cu  Cu5  1  0.912710  0.219580  0.771430  1.0  0.894
  Cu  Cu6  1  0.071130  0.291480  0.702400  1.0  0.892
  Cu  Cu7  1  0.912710  0.780420  0.228570  1.0  0.8928
  Cu  Cu8  1  0.071130  0.708520  0.297600  1.0  0.8912
  H  H9  1  0.953200  0.496600  0.251800  1.0  0.0966
  H  H10  1  0.673200  0.383500  0.195800  1.0  0.1201
  H  H11  1  0.660100  0.601900  0.211700  1.0  0.1157
  H  H12  1  0.485800  0.569600  0.252700  1.0  0.0692
  H  H13  1  0.479500  0.584300  0.167900  1.0  0.0737
  H  H14  1  0.331400  0.495400  0.160600  1.0  0.071
  H  H15  1  0.296900  0.565800  0.206900  1.0  0.0641
  H  H16  1  0.169900  0.514700  0.274700  1.0  0.0684
  H  H17  1  0.178400  0.440000  0.230000  1.0  0.0651
  H  H18  1  0.103200  0.429600  0.351900  1.0  0.0877
  H  H19  1  0.228700  0.443100  0.379100  1.0  0.0736
  H  H20  1  0.030600  0.256100  0.990500  1.0  0.1066
  H  H21  1  0.299200  0.342300  0.094000  1.0  0.1244
  H  H22  1  0.289400  0.342700  0.876100  1.0  0.109
  H  H23  1  0.452100  0.431500  0.064300  1.0  0.0579
  H  H24  1  0.482700  0.346000  0.067300  1.0  0.0643
  H  H25  1  0.642500  0.418700  0.056500  1.0  0.0712
  H  H26  1  0.595600  0.451500  0.983300  1.0  0.0542
  H  H27  1  0.797000  0.326800  0.934300  1.0  0.0304
  H  H28  1  0.796700  0.335500  0.018100  1.0  0.015
  H  H29  1  0.785900  0.220600  0.035800  1.0  0.0614
  H  H30  1  0.861900  0.226900  0.963800  1.0  0.0672
  H  H31  1  0.269400  0.343200  0.309600  1.0  0.4184
  H  H32  1  0.717100  0.218400  0.902700  1.0  0.3657
  H  H33  1  0.953200  0.503400  0.748200  1.0  0.0965
  H  H34  1  0.673200  0.616500  0.804200  1.0  0.1198
  H  H35  1  0.660100  0.398100  0.788300  1.0  0.1169
  H  H36  1  0.485800  0.430400  0.747300  1.0  0.07
  H  H37  1  0.479500  0.415700  0.832100  1.0  0.0748
  H  H38  1  0.331400  0.504600  0.839400  1.0  0.0665
  H  H39  1  0.296900  0.434200  0.793100  1.0  0.0648
  H  H40  1  0.169900  0.485300  0.725300  1.0  0.0652
  H  H41  1  0.178400  0.560000  0.770000  1.0  0.0658
  H  H42  1  0.103200  0.570400  0.648100  1.0  0.0876
  H  H43  1  0.228700  0.556900  0.620900  1.0  0.0739
  H  H44  1  0.030600  0.743900  0.009500  1.0  0.1067
  H  H45  1  0.299200  0.657700  0.906000  1.0  0.124
  H  H46  1  0.289400  0.657300  0.123900  1.0  0.1093
  H  H47  1  0.452100  0.568500  0.935700  1.0  0.0592
  H  H48  1  0.482700  0.654000  0.932700  1.0  0.0636
  H  H49  1  0.642500  0.581300  0.943500  1.0  0.0755
  H  H50  1  0.595600  0.548500  0.016700  1.0  0.0545
  H  H51  1  0.797000  0.673200  0.065700  1.0  0.0306
  H  H52  1  0.796700  0.664500  0.981900  1.0  0.003
  H  H53  1  0.785900  0.779400  0.964200  1.0  0.0625
  H  H54  1  0.861900  0.773100  0.036200  1.0  0.0662
  H  H55  1  0.269400  0.656800  0.690400  1.0  0.418
  H  H56  1  0.717100  0.781600  0.097300  1.0  0.3615
  H  H57  1  0.046800  0.003400  0.751800  1.0  0.0972
  H  H58  1  0.326800  0.116500  0.695800  1.0  0.1201
  H  H59  1  0.339900  0.898100  0.711700  1.0  0.1173
  H  H60  1  0.514200  0.930400  0.752700  1.0  0.0699
  H  H61  1  0.520500  0.915700  0.667900  1.0  0.0728
  H  H62  1  0.668600  0.004600  0.660600  1.0  0.0707
  H  H63  1  0.703100  0.934200  0.706900  1.0  0.0645
  H  H64  1  0.830100  0.985300  0.774700  1.0  0.0651
  H  H65  1  0.821600  0.060000  0.730000  1.0  0.0641
  H  H66  1  0.896800  0.070400  0.851900  1.0  0.0838
  H  H67  1  0.771300  0.056900  0.879100  1.0  0.0744
  H  H68  1  0.969400  0.243900  0.490500  1.0  0.1056
  H  H69  1  0.700800  0.157700  0.594000  1.0  0.1241
  H  H70  1  0.710600  0.157300  0.376100  1.0  0.1089
  H  H71  1  0.547900  0.068500  0.564300  1.0  0.0583
  H  H72  1  0.517300  0.154000  0.567300  1.0  0.0629
  H  H73  1  0.357500  0.081300  0.556500  1.0  0.0722
  H  H74  1  0.404400  0.048500  0.483300  1.0  0.0542
  H  H75  1  0.203000  0.173200  0.434300  1.0  0.0296
  H  H76  1  0.203300  0.164500  0.518100  1.0  0.0085
  H  H77  1  0.214100  0.279400  0.535800  1.0  0.0616
  H  H78  1  0.138100  0.273100  0.463800  1.0  0.0664
  H  H79  1  0.730600  0.156800  0.809600  1.0  0.4185
  H  H80  1  0.282900  0.281600  0.402700  1.0  0.3674
  H  H81  1  0.046800  0.996600  0.248200  1.0  0.0971
  H  H82  1  0.326800  0.883500  0.304200  1.0  0.1202
  H  H83  1  0.339900  0.101900  0.288300  1.0  0.1166
  H  H84  1  0.514200  0.069600  0.247300  1.0  0.0703
  H  H85  1  0.520500  0.084300  0.332100  1.0  0.0753
  H  H86  1  0.668600  0.995400  0.339400  1.0  0.0666
  H  H87  1  0.703100  0.065800  0.293100  1.0  0.0632
  H  H88  1  0.830100  0.014700  0.225300  1.0  0.0683
  H  H89  1  0.821600  0.940000  0.270000  1.0  0.066
  H  H90  1  0.896800  0.929600  0.148100  1.0  0.0846
  H  H91  1  0.771300  0.943100  0.120900  1.0  0.0759
  H  H92  1  0.969400  0.756100  0.509500  1.0  0.106
  H  H93  1  0.700800  0.842300  0.406000  1.0  0.124
  H  H94  1  0.710600  0.842700  0.623900  1.0  0.1095
  H  H95  1  0.547900  0.931500  0.435700  1.0  0.0577
  H  H96  1  0.517300  0.846000  0.432700  1.0  0.0638
  H  H97  1  0.357500  0.918700  0.443500  1.0  0.0737
  H  H98  1  0.404400  0.951500  0.516700  1.0  0.0531
  H  H99  1  0.203000  0.826800  0.565700  1.0  0.0303
  H  H100  1  0.203300  0.835500  0.481900  1.0  0.003
  H  H101  1  0.214100  0.720600  0.464200  1.0  0.063
  H  H102  1  0.138100  0.726900  0.536200  1.0  0.0656
  H  H103  1  0.730600  0.843200  0.190400  1.0  0.4185
  H  H104  1  0.282900  0.718400  0.597300  1.0  0.3661
  C  C105  1  0.817000  0.558300  0.234100  1.0  -0.089
  C  C106  1  0.876400  0.494900  0.238600  1.0  -0.0297
  C  C107  1  0.826000  0.426700  0.224000  1.0  -0.1104
  C  C108  1  0.710200  0.428100  0.206900  1.0  -0.1482
  C  C109  1  0.649200  0.493100  0.205800  1.0  0.2603
  C  C110  1  0.700600  0.557300  0.216200  1.0  -0.1971
  C  C111  1  0.875300  0.629800  0.243600  1.0  0.6765
  C  C112  1  0.888300  0.357500  0.224300  1.0  0.6627
  C  C113  1  0.466900  0.547300  0.205900  1.0  0.0701
  C  C114  1  0.346900  0.522500  0.205400  1.0  0.0909
  C  C115  1  0.207800  0.466600  0.272200  1.0  0.0479
  C  C116  1  0.183200  0.423500  0.339200  1.0  0.1074
  C  C117  1  0.151600  0.298300  0.920900  1.0  -0.1085
  C  C118  1  0.101300  0.279900  0.988300  1.0  -0.0611
  C  C119  1  0.158900  0.297600  0.050000  1.0  -0.0716
  C  C120  1  0.261700  0.332000  0.050200  1.0  -0.2011
  C  C121  1  0.309200  0.351300  0.985300  1.0  0.2453
  C  C122  1  0.254300  0.332000  0.920600  1.0  -0.1245
  C  C123  1  0.091500  0.283100  0.855600  1.0  0.6834
  C  C124  1  0.106600  0.274700  0.120700  1.0  0.6684
  C  C125  1  0.482600  0.390000  0.036300  1.0  0.0691
  C  C126  1  0.598000  0.406800  0.013000  1.0  0.1147
  C  C127  1  0.757000  0.311300  0.978000  1.0  0.1655
  C  C128  1  0.788000  0.237800  0.986000  1.0  0.1238
  C  C129  1  0.817000  0.441700  0.765900  1.0  -0.0891
  C  C130  1  0.876400  0.505100  0.761400  1.0  -0.0295
  C  C131  1  0.826000  0.573300  0.776000  1.0  -0.1104
  C  C132  1  0.710200  0.571900  0.793100  1.0  -0.148
  C  C133  1  0.649200  0.506900  0.794200  1.0  0.2596
  C  C134  1  0.700600  0.442700  0.783800  1.0  -0.1967
  C  C135  1  0.875300  0.370200  0.756400  1.0  0.6759
  C  C136  1  0.888300  0.642500  0.775700  1.0  0.6632
  C  C137  1  0.466900  0.452700  0.794100  1.0  0.072
  C  C138  1  0.346900  0.477500  0.794600  1.0  0.0917
  C  C139  1  0.207800  0.533400  0.727800  1.0  0.0486
  C  C140  1  0.183200  0.576500  0.660800  1.0  0.109
  C  C141  1  0.151600  0.701700  0.079100  1.0  -0.1076
  C  C142  1  0.101300  0.720100  0.011700  1.0  -0.0617
  C  C143  1  0.158900  0.702400  0.950000  1.0  -0.0721
  C  C144  1  0.261700  0.668000  0.949800  1.0  -0.2014
  C  C145  1  0.309200  0.648700  0.014700  1.0  0.245
  C  C146  1  0.254300  0.668000  0.079400  1.0  -0.1239
  C  C147  1  0.091500  0.716900  0.144400  1.0  0.6838
  C  C148  1  0.106600  0.725300  0.879300  1.0  0.6688
  C  C149  1  0.482600  0.610000  0.963700  1.0  0.0687
  C  C150  1  0.598000  0.593200  0.987000  1.0  0.1145
  C  C151  1  0.757000  0.688700  0.022000  1.0  0.1641
  C  C152  1  0.788000  0.762200  0.014000  1.0  0.1234
  C  C153  1  0.183000  0.941700  0.734100  1.0  -0.0889
  C  C154  1  0.123600  0.005100  0.738600  1.0  -0.0295
  C  C155  1  0.174000  0.073300  0.724000  1.0  -0.1117
  C  C156  1  0.289800  0.071900  0.706900  1.0  -0.1478
  C  C157  1  0.350800  0.006900  0.705800  1.0  0.2588
  C  C158  1  0.299400  0.942700  0.716200  1.0  -0.1956
  C  C159  1  0.124700  0.870200  0.743600  1.0  0.6757
  C  C160  1  0.111700  0.142500  0.724300  1.0  0.6634
  C  C161  1  0.533100  0.952700  0.705900  1.0  0.0696
  C  C162  1  0.653100  0.977500  0.705400  1.0  0.0915
  C  C163  1  0.792200  0.033400  0.772200  1.0  0.0491
  C  C164  1  0.816800  0.076500  0.839200  1.0  0.1053
  C  C165  1  0.848400  0.201700  0.420900  1.0  -0.1083
  C  C166  1  0.898700  0.220100  0.488300  1.0  -0.0614
  C  C167  1  0.841100  0.202400  0.550000  1.0  -0.0715
  C  C168  1  0.738300  0.168000  0.550200  1.0  -0.2018
  C  C169  1  0.690800  0.148700  0.485300  1.0  0.2454
  C  C170  1  0.745700  0.168000  0.420600  1.0  -0.1249
  C  C171  1  0.908500  0.216900  0.355600  1.0  0.6821
  C  C172  1  0.893400  0.225300  0.620700  1.0  0.6684
  C  C173  1  0.517400  0.110000  0.536300  1.0  0.0694
  C  C174  1  0.402000  0.093200  0.513000  1.0  0.1156
  C  C175  1  0.243000  0.188700  0.478000  1.0  0.1663
  C  C176  1  0.212000  0.262200  0.486000  1.0  0.1223
  C  C177  1  0.183000  0.058300  0.265900  1.0  -0.0888
  C  C178  1  0.123600  0.994900  0.261400  1.0  -0.0292
  C  C179  1  0.174000  0.926700  0.276000  1.0  -0.1118
  C  C180  1  0.289800  0.928100  0.293100  1.0  -0.146
  C  C181  1  0.350800  0.993100  0.294200  1.0  0.2589
  C  C182  1  0.299400  0.057300  0.283800  1.0  -0.1943
  C  C183  1  0.124700  0.129800  0.256400  1.0  0.6761
  C  C184  1  0.111700  0.857500  0.275700  1.0  0.6635
  C  C185  1  0.533100  0.047300  0.294100  1.0  0.0718
  C  C186  1  0.653100  0.022500  0.294600  1.0  0.091
  C  C187  1  0.792200  0.966600  0.227800  1.0  0.0487
  C  C188  1  0.816800  0.923500  0.160800  1.0  0.1082
  C  C189  1  0.848400  0.798300  0.579100  1.0  -0.1082
  C  C190  1  0.898700  0.779900  0.511700  1.0  -0.0611
  C  C191  1  0.841100  0.797600  0.450000  1.0  -0.0719
  C  C192  1  0.738300  0.832000  0.449800  1.0  -0.2018
  C  C193  1  0.690800  0.851300  0.514700  1.0  0.2462
  C  C194  1  0.745700  0.832000  0.579400  1.0  -0.1254
  C  C195  1  0.908500  0.783100  0.644400  1.0  0.6822
  C  C196  1  0.893400  0.774700  0.379300  1.0  0.6692
  C  C197  1  0.517400  0.890000  0.463700  1.0  0.0693
  C  C198  1  0.402000  0.906800  0.487000  1.0  0.1155
  C  C199  1  0.243000  0.811300  0.522000  1.0  0.1664
  C  C200  1  0.212000  0.737800  0.514000  1.0  0.122
  O  O201  1  0.846800  0.302400  0.197400  1.0  -0.545
  O  O202  1  0.985900  0.363000  0.255900  1.0  -0.592
  O  O203  1  0.967100  0.626600  0.279600  1.0  -0.6046
  O  O204  1  0.830900  0.687700  0.222900  1.0  -0.5624
  O  O205  1  0.534800  0.484600  0.193500  1.0  -0.2872
  O  O206  1  0.324200  0.477000  0.264600  1.0  -0.3707
  O  O207  1  0.207100  0.347000  0.330400  1.0  -0.5571
  O  O208  1  0.140500  0.305400  0.796900  1.0  -0.5979
  O  O209  1  0.002100  0.248900  0.855000  1.0  -0.5622
  O  O210  1  0.017000  0.239000  0.118400  1.0  -0.5609
  O  O211  1  0.153600  0.299500  0.177600  1.0  -0.5777
  O  O212  1  0.417000  0.377800  0.977500  1.0  -0.2671
  O  O213  1  0.656200  0.350800  0.974000  1.0  -0.401
  O  O214  1  0.702200  0.213000  0.946500  1.0  -0.5837
  O  O215  1  0.846800  0.697600  0.802600  1.0  -0.545
  O  O216  1  0.985900  0.637000  0.744100  1.0  -0.5922
  O  O217  1  0.967100  0.373400  0.720400  1.0  -0.605
  O  O218  1  0.830900  0.312300  0.777100  1.0  -0.5612
  O  O219  1  0.534800  0.515400  0.806500  1.0  -0.2872
  O  O220  1  0.324200  0.523000  0.735400  1.0  -0.3714
  O  O221  1  0.207100  0.653000  0.669600  1.0  -0.5567
  O  O222  1  0.140500  0.694600  0.203100  1.0  -0.5975
  O  O223  1  0.002100  0.751100  0.145000  1.0  -0.5624
  O  O224  1  0.017000  0.761000  0.881600  1.0  -0.56
  O  O225  1  0.153600  0.700500  0.822400  1.0  -0.5773
  O  O226  1  0.417000  0.622200  0.022500  1.0  -0.2665
  O  O227  1  0.656200  0.649200  0.026000  1.0  -0.4013
  O  O228  1  0.702200  0.787000  0.053500  1.0  -0.583
  O  O229  1  0.153200  0.197600  0.697400  1.0  -0.5455
  O  O230  1  0.014100  0.137000  0.755900  1.0  -0.5932
  O  O231  1  0.032900  0.873400  0.779600  1.0  -0.6046
  O  O232  1  0.169100  0.812300  0.722900  1.0  -0.5607
  O  O233  1  0.465200  0.015400  0.693500  1.0  -0.2872
  O  O234  1  0.675800  0.023000  0.764600  1.0  -0.3697
  O  O235  1  0.792900  0.153000  0.830400  1.0  -0.5582
  O  O236  1  0.859500  0.194600  0.296900  1.0  -0.5982
  O  O237  1  0.997900  0.251100  0.355000  1.0  -0.5631
  O  O238  1  0.983000  0.261000  0.618400  1.0  -0.5612
  O  O239  1  0.846400  0.200500  0.677600  1.0  -0.5787
  O  O240  1  0.583000  0.122200  0.477500  1.0  -0.2667
  O  O241  1  0.343800  0.149200  0.474000  1.0  -0.4008
  O  O242  1  0.297800  0.287000  0.446500  1.0  -0.584
  O  O243  1  0.153200  0.802400  0.302600  1.0  -0.546
  O  O244  1  0.014100  0.863000  0.244100  1.0  -0.5938
  O  O245  1  0.032900  0.126600  0.220400  1.0  -0.6052
  O  O246  1  0.169100  0.187700  0.277100  1.0  -0.5632
  O  O247  1  0.465200  0.984600  0.306500  1.0  -0.2882
  O  O248  1  0.675800  0.977000  0.235400  1.0  -0.371
  O  O249  1  0.792900  0.847000  0.169600  1.0  -0.5589
  O  O250  1  0.859500  0.805400  0.703100  1.0  -0.5972
  O  O251  1  0.997900  0.748900  0.645000  1.0  -0.564
  O  O252  1  0.983000  0.739000  0.381600  1.0  -0.5609
  O  O253  1  0.846400  0.799500  0.322400  1.0  -0.578
  O  O254  1  0.583000  0.877800  0.522500  1.0  -0.2666
  O  O255  1  0.343800  0.850800  0.526000  1.0  -0.4012
  O  O256  1  0.297800  0.713000  0.553500  1.0  -0.5862
