# generated using pymatgen
data_Cd2H6C19(O4F3)2
_symmetry_space_group_name_H-M   'P 1'
_cell_length_a   7.71130000
_cell_length_b   23.18960000
_cell_length_c   23.18960000
_cell_angle_alpha   61.21200000
_cell_angle_beta   83.63600000
_cell_angle_gamma   96.36400000
_symmetry_Int_Tables_number   1
_chemical_formula_structural   Cd2H6C19(O4F3)2
_chemical_formula_sum   'Cd12 H36 C114 O48 F36'
_cell_volume   3547.11906462
_cell_formula_units_Z   6
loop_
 _symmetry_equiv_pos_site_id
 _symmetry_equiv_pos_as_xyz
  1  'x, y, z'
loop_
 _atom_site_type_symbol
 _atom_site_label
 _atom_site_symmetry_multiplicity
 _atom_site_fract_x
 _atom_site_fract_y
 _atom_site_fract_z
 _atom_site_occupancy
 _atom_site_charge
  Cd  Cd1  1  0.253860  0.475770  0.562940  1.0  1.0336
  Cd  Cd2  1  0.816920  0.522120  0.599150  1.0  1.0658
  Cd  Cd3  1  0.816800  0.562940  0.961290  1.0  1.033
  Cd  Cd4  1  0.416070  0.599150  0.878730  1.0  1.0729
  Cd  Cd5  1  0.778090  0.961290  0.475770  1.0  1.0346
  Cd  Cd6  1  0.294800  0.878730  0.522120  1.0  1.0711
  Cd  Cd7  1  0.746140  0.524230  0.437060  1.0  1.0335
  Cd  Cd8  1  0.183080  0.477880  0.400850  1.0  1.0666
  Cd  Cd9  1  0.183200  0.437060  0.038710  1.0  1.0333
  Cd  Cd10  1  0.583930  0.400850  0.121270  1.0  1.0672
  Cd  Cd11  1  0.221910  0.038710  0.524230  1.0  1.0337
  Cd  Cd12  1  0.705200  0.121270  0.477880  1.0  1.0741
  H  H13  1  0.029900  0.299300  0.609700  1.0  0.1278
  H  H14  1  0.603400  0.207300  0.758000  1.0  0.1236
  H  H15  1  0.463800  0.295700  0.701800  1.0  0.117
  H  H16  1  0.886400  0.170500  0.623700  1.0  0.1329
  H  H17  1  0.473800  0.167700  0.640400  1.0  0.118
  H  H18  1  0.285500  0.180600  0.715700  1.0  0.1133
  H  H19  1  0.639600  0.609700  0.091000  1.0  0.127
  H  H20  1  0.361400  0.758000  0.034700  1.0  0.1252
  H  H21  1  0.165600  0.701800  0.002500  1.0  0.1168
  H  H22  1  0.510100  0.623700  0.205800  1.0  0.1331
  H  H23  1  0.114200  0.640400  0.191900  1.0  0.1178
  H  H24  1  0.001200  0.715700  0.103700  1.0  0.1123
  H  H25  1  0.730600  0.091000  0.299300  1.0  0.1269
  H  H26  1  0.396100  0.034700  0.207300  1.0  0.1254
  H  H27  1  0.168100  0.002500  0.295700  1.0  0.1168
  H  H28  1  0.715900  0.205800  0.170500  1.0  0.1337
  H  H29  1  0.306100  0.191900  0.167700  1.0  0.1183
  H  H30  1  0.104900  0.103700  0.180600  1.0  0.1119
  H  H31  1  0.970100  0.700700  0.390300  1.0  0.1264
  H  H32  1  0.396600  0.792700  0.242000  1.0  0.1235
  H  H33  1  0.536200  0.704300  0.298200  1.0  0.1166
  H  H34  1  0.113600  0.829500  0.376300  1.0  0.1321
  H  H35  1  0.526200  0.832300  0.359600  1.0  0.1202
  H  H36  1  0.714500  0.819400  0.284300  1.0  0.1121
  H  H37  1  0.360400  0.390300  0.909000  1.0  0.1273
  H  H38  1  0.638600  0.242000  0.965300  1.0  0.1243
  H  H39  1  0.834400  0.298200  0.997500  1.0  0.1171
  H  H40  1  0.489900  0.376300  0.794200  1.0  0.1334
  H  H41  1  0.885800  0.359600  0.808100  1.0  0.1191
  H  H42  1  0.998800  0.284300  0.896300  1.0  0.1121
  H  H43  1  0.269400  0.909000  0.700700  1.0  0.1269
  H  H44  1  0.603900  0.965300  0.792700  1.0  0.1253
  H  H45  1  0.831900  0.997500  0.704300  1.0  0.1164
  H  H46  1  0.284100  0.794200  0.829500  1.0  0.1342
  H  H47  1  0.693900  0.808100  0.832300  1.0  0.1189
  H  H48  1  0.895100  0.896300  0.819400  1.0  0.1117
  C  C49  1  0.555540  0.404850  0.586430  1.0  0.7172
  C  C50  1  0.656580  0.349210  0.620070  1.0  -0.0943
  C  C51  1  0.827990  0.350120  0.592750  1.0  -0.045
  C  C52  1  0.914070  0.297620  0.627610  1.0  -0.1017
  C  C53  1  0.828650  0.242260  0.689310  1.0  0.0829
  C  C54  1  0.660650  0.242920  0.716370  1.0  -0.1122
  C  C55  1  0.576360  0.295940  0.682360  1.0  -0.0303
  C  C56  1  0.917890  0.403190  0.523720  1.0  0.6916
  C  C57  1  0.927480  0.184680  0.726740  1.0  -0.2558
  C  C58  1  0.063780  0.176510  0.678670  1.0  0.1034
  C  C59  1  0.004110  0.168290  0.628360  1.0  -0.0788
  C  C60  1  0.114260  0.156950  0.584470  1.0  -0.1086
  C  C61  1  0.292960  0.157360  0.588180  1.0  0.0029
  C  C62  1  0.354340  0.166980  0.637460  1.0  -0.1105
  C  C63  1  0.241220  0.175500  0.682340  1.0  -0.1327
  C  C64  1  0.033150  0.146350  0.533100  1.0  0.7388
  C  C65  1  0.428420  0.148280  0.542320  1.0  0.7073
  C  C66  1  0.794650  0.116450  0.768400  1.0  0.6937
  C  C67  1  0.013500  0.199440  0.776240  1.0  0.6975
  C  C68  1  0.141970  0.586430  0.008720  1.0  0.7175
  C  C69  1  0.276650  0.620070  0.030720  1.0  -0.0973
  C  C70  1  0.420740  0.592750  0.057130  1.0  -0.0459
  C  C71  1  0.541680  0.627610  0.074770  1.0  -0.1042
  C  C72  1  0.517960  0.689310  0.068430  1.0  0.0828
  C  C73  1  0.377020  0.716370  0.040710  1.0  -0.1111
  C  C74  1  0.258720  0.682360  0.021700  1.0  -0.0297
  C  C75  1  0.441610  0.523720  0.073090  1.0  0.6866
  C  C76  1  0.654220  0.726740  0.088580  1.0  -0.2576
  C  C77  1  0.742450  0.678670  0.144820  1.0  0.1042
  C  C78  1  0.632470  0.628360  0.203350  1.0  -0.0779
  C  C79  1  0.698730  0.584470  0.258580  1.0  -0.1136
  C  C80  1  0.881140  0.588180  0.254460  1.0  -0.0013
  C  C81  1  0.991800  0.637460  0.195560  1.0  -0.1101
  C  C82  1  0.923560  0.682340  0.142160  1.0  -0.132
  C  C83  1  0.566250  0.533100  0.320550  1.0  0.7365
  C  C84  1  0.970740  0.542320  0.309400  1.0  0.7067
  C  C85  1  0.563050  0.768400  0.115150  1.0  0.6926
  C  C86  1  0.789740  0.776240  0.024320  1.0  0.6973
  C  C87  1  0.150690  0.008720  0.404850  1.0  0.7163
  C  C88  1  0.307370  0.030720  0.349210  1.0  -0.0927
  C  C89  1  0.477870  0.057130  0.350120  1.0  -0.0436
  C  C90  1  0.616450  0.074770  0.297620  1.0  -0.1016
  C  C91  1  0.586390  0.068430  0.242260  1.0  0.082
  C  C92  1  0.417730  0.040710  0.242920  1.0  -0.1115
  C  C93  1  0.280420  0.021700  0.295940  1.0  -0.0312
  C  C94  1  0.514700  0.073090  0.403190  1.0  0.6883
  C  C95  1  0.742800  0.088580  0.184680  1.0  -0.2569
  C  C96  1  0.887270  0.144820  0.176510  1.0  0.1039
  C  C97  1  0.835820  0.203350  0.168290  1.0  -0.0797
  C  C98  1  0.957310  0.258580  0.156950  1.0  -0.11
  C  C99  1  0.135600  0.254460  0.157360  1.0  0.0036
  C  C100  1  0.187360  0.195560  0.166980  1.0  -0.109
  C  C101  1  0.065720  0.142160  0.175500  1.0  -0.1314
  C  C102  1  0.886800  0.320550  0.146350  1.0  0.7361
  C  C103  1  0.280140  0.309400  0.148280  1.0  0.7079
  C  C104  1  0.678200  0.115150  0.116450  1.0  0.6917
  C  C105  1  0.814060  0.024320  0.199440  1.0  0.6957
  C  C106  1  0.444460  0.595150  0.413570  1.0  0.7184
  C  C107  1  0.343420  0.650790  0.379930  1.0  -0.0947
  C  C108  1  0.172010  0.649880  0.407250  1.0  -0.0448
  C  C109  1  0.085930  0.702380  0.372390  1.0  -0.103
  C  C110  1  0.171350  0.757740  0.310690  1.0  0.0831
  C  C111  1  0.339350  0.757080  0.283630  1.0  -0.1114
  C  C112  1  0.423640  0.704060  0.317640  1.0  -0.0317
  C  C113  1  0.082110  0.596810  0.476280  1.0  0.6918
  C  C114  1  0.072520  0.815320  0.273260  1.0  -0.2574
  C  C115  1  0.936220  0.823490  0.321330  1.0  0.1029
  C  C116  1  0.995890  0.831710  0.371640  1.0  -0.0772
  C  C117  1  0.885740  0.843050  0.415530  1.0  -0.1097
  C  C118  1  0.707040  0.842640  0.411820  1.0  0.0011
  C  C119  1  0.645660  0.833020  0.362540  1.0  -0.1111
  C  C120  1  0.758780  0.824500  0.317660  1.0  -0.1325
  C  C121  1  0.966850  0.853650  0.466900  1.0  0.7381
  C  C122  1  0.571580  0.851720  0.457680  1.0  0.7071
  C  C123  1  0.205350  0.883550  0.231600  1.0  0.6911
  C  C124  1  0.986500  0.800560  0.223760  1.0  0.6977
  C  C125  1  0.858030  0.413570  0.991280  1.0  0.7176
  C  C126  1  0.723350  0.379930  0.969280  1.0  -0.0967
  C  C127  1  0.579260  0.407250  0.942870  1.0  -0.0439
  C  C128  1  0.458320  0.372390  0.925230  1.0  -0.104
  C  C129  1  0.482040  0.310690  0.931570  1.0  0.0825
  C  C130  1  0.622980  0.283630  0.959290  1.0  -0.1117
  C  C131  1  0.741280  0.317640  0.978300  1.0  -0.0307
  C  C132  1  0.558390  0.476280  0.926910  1.0  0.6864
  C  C133  1  0.345780  0.273260  0.911420  1.0  -0.2572
  C  C134  1  0.257550  0.321330  0.855180  1.0  0.1039
  C  C135  1  0.367530  0.371640  0.796650  1.0  -0.0805
  C  C136  1  0.301270  0.415530  0.741420  1.0  -0.114
  C  C137  1  0.118860  0.411820  0.745540  1.0  -0.0011
  C  C138  1  0.008200  0.362540  0.804440  1.0  -0.1109
  C  C139  1  0.076440  0.317660  0.857840  1.0  -0.1315
  C  C140  1  0.433750  0.466900  0.679450  1.0  0.7375
  C  C141  1  0.029260  0.457680  0.690600  1.0  0.7028
  C  C142  1  0.436950  0.231600  0.884850  1.0  0.6928
  C  C143  1  0.210260  0.223760  0.975680  1.0  0.6966
  C  C144  1  0.849310  0.991280  0.595150  1.0  0.7181
  C  C145  1  0.692630  0.969280  0.650790  1.0  -0.0942
  C  C146  1  0.522130  0.942870  0.649880  1.0  -0.0456
  C  C147  1  0.383550  0.925230  0.702380  1.0  -0.0996
  C  C148  1  0.413610  0.931570  0.757740  1.0  0.0817
  C  C149  1  0.582270  0.959290  0.757080  1.0  -0.1128
  C  C150  1  0.719580  0.978300  0.704060  1.0  -0.0318
  C  C151  1  0.485300  0.926910  0.596810  1.0  0.6862
  C  C152  1  0.257200  0.911420  0.815320  1.0  -0.2551
  C  C153  1  0.112730  0.855180  0.823490  1.0  0.1034
  C  C154  1  0.164180  0.796650  0.831710  1.0  -0.0813
  C  C155  1  0.042690  0.741420  0.843050  1.0  -0.1119
  C  C156  1  0.864400  0.745540  0.842640  1.0  0.0037
  C  C157  1  0.812640  0.804440  0.833020  1.0  -0.1087
  C  C158  1  0.934280  0.857840  0.824500  1.0  -0.1314
  C  C159  1  0.113200  0.679450  0.853650  1.0  0.735
  C  C160  1  0.719860  0.690600  0.851720  1.0  0.708
  C  C161  1  0.321800  0.884850  0.883550  1.0  0.6922
  C  C162  1  0.185940  0.975680  0.800560  1.0  0.6956
  O  O163  1  0.641040  0.464900  0.550780  1.0  -0.7273
  O  O164  1  0.390080  0.389200  0.597660  1.0  -0.563
  O  O165  1  0.835590  0.418840  0.475770  1.0  -0.6732
  O  O166  1  0.079710  0.429350  0.514120  1.0  -0.6785
  O  O167  1  0.869770  0.147300  0.535790  1.0  -0.5905
  O  O168  1  0.128070  0.136560  0.492650  1.0  -0.6407
  O  O169  1  0.536060  0.196690  0.497610  1.0  -0.5066
  O  O170  1  0.437690  0.087980  0.555610  1.0  -0.6899
  O  O171  1  0.191820  0.550780  0.984320  1.0  -0.7282
  O  O172  1  0.987740  0.597660  0.013140  1.0  -0.5622
  O  O173  1  0.311360  0.475770  0.105390  1.0  -0.6719
  O  O174  1  0.593830  0.514120  0.056530  1.0  -0.6787
  O  O175  1  0.405560  0.535790  0.316910  1.0  -0.5898
  O  O176  1  0.620720  0.492650  0.370790  1.0  -0.6382
  O  O177  1  0.033670  0.497610  0.305700  1.0  -0.5056
  O  O178  1  0.993300  0.555610  0.356410  1.0  -0.6903
  O  O179  1  0.176140  0.984320  0.464900  1.0  -0.7263
  O  O180  1  0.000880  0.013140  0.389200  1.0  -0.5634
  O  O181  1  0.416750  0.105390  0.418840  1.0  -0.6706
  O  O182  1  0.650360  0.056530  0.429350  1.0  -0.6775
  O  O183  1  0.722470  0.316910  0.147300  1.0  -0.5885
  O  O184  1  0.991510  0.370790  0.136560  1.0  -0.6407
  O  O185  1  0.339370  0.305700  0.196690  1.0  -0.5104
  O  O186  1  0.349710  0.356410  0.087980  1.0  -0.6921
  O  O187  1  0.358960  0.535100  0.449220  1.0  -0.7274
  O  O188  1  0.609920  0.610800  0.402340  1.0  -0.5637
  O  O189  1  0.164410  0.581160  0.524230  1.0  -0.6754
  O  O190  1  0.920290  0.570650  0.485880  1.0  -0.6801
  O  O191  1  0.130230  0.852700  0.464210  1.0  -0.5927
  O  O192  1  0.871930  0.863440  0.507350  1.0  -0.6402
  O  O193  1  0.463940  0.803310  0.502390  1.0  -0.5082
  O  O194  1  0.562310  0.912020  0.444390  1.0  -0.687
  O  O195  1  0.808180  0.449220  0.015680  1.0  -0.7275
  O  O196  1  0.012260  0.402340  0.986860  1.0  -0.5637
  O  O197  1  0.688640  0.524230  0.894610  1.0  -0.6719
  O  O198  1  0.406170  0.485880  0.943470  1.0  -0.6811
  O  O199  1  0.594440  0.464210  0.683090  1.0  -0.5907
  O  O200  1  0.379280  0.507350  0.629210  1.0  -0.6376
  O  O201  1  0.966330  0.502390  0.694300  1.0  -0.5097
  O  O202  1  0.006700  0.444390  0.643590  1.0  -0.6919
  O  O203  1  0.823860  0.015680  0.535100  1.0  -0.7271
  O  O204  1  0.999120  0.986860  0.610800  1.0  -0.5642
  O  O205  1  0.583250  0.894610  0.581160  1.0  -0.6697
  O  O206  1  0.349640  0.943470  0.570650  1.0  -0.6801
  O  O207  1  0.277530  0.683090  0.852700  1.0  -0.5909
  O  O208  1  0.008490  0.629210  0.863440  1.0  -0.6399
  O  O209  1  0.660630  0.694300  0.803310  1.0  -0.5107
  O  O210  1  0.650290  0.643590  0.912020  1.0  -0.6924
  F  F211  1  0.877210  0.064970  0.787840  1.0  -0.1759
  F  F212  1  0.697660  0.109180  0.823800  1.0  -0.1909
  F  F213  1  0.678640  0.109840  0.732120  1.0  -0.1807
  F  F214  1  0.087520  0.149200  0.816540  1.0  -0.1792
  F  F215  1  0.898010  0.210670  0.815040  1.0  -0.1937
  F  F216  1  0.140340  0.254370  0.742850  1.0  -0.1949
  F  F217  1  0.665050  0.787840  0.147190  1.0  -0.1782
  F  F218  1  0.521460  0.823800  0.067020  1.0  -0.1878
  F  F219  1  0.410760  0.732120  0.158040  1.0  -0.1805
  F  F220  1  0.904060  0.816540  0.034260  1.0  -0.1885
  F  F221  1  0.713050  0.815040  0.974290  1.0  -0.192
  F  F222  1  0.883190  0.742850  0.002780  1.0  -0.196
  F  F223  1  0.812240  0.147190  0.064970  1.0  -0.1776
  F  F224  1  0.588480  0.067020  0.109180  1.0  -0.1909
  F  F225  1  0.568800  0.158040  0.109840  1.0  -0.1799
  F  F226  1  0.938320  0.034260  0.149200  1.0  -0.176
  F  F227  1  0.687340  0.974290  0.210670  1.0  -0.193
  F  F228  1  0.885970  0.002780  0.254370  1.0  -0.1965
  F  F229  1  0.122790  0.935030  0.212160  1.0  -0.1764
  F  F230  1  0.302340  0.890820  0.176200  1.0  -0.1879
  F  F231  1  0.321360  0.890160  0.267880  1.0  -0.1833
  F  F232  1  0.912480  0.850800  0.183460  1.0  -0.175
  F  F233  1  0.101990  0.789330  0.184960  1.0  -0.1932
  F  F234  1  0.859660  0.745630  0.257150  1.0  -0.1951
  F  F235  1  0.334950  0.212160  0.852810  1.0  -0.1778
  F  F236  1  0.478540  0.176200  0.932980  1.0  -0.1903
  F  F237  1  0.589240  0.267880  0.841960  1.0  -0.1809
  F  F238  1  0.095940  0.183460  0.965740  1.0  -0.1882
  F  F239  1  0.286950  0.184960  0.025710  1.0  -0.1922
  F  F240  1  0.116810  0.257150  0.997220  1.0  -0.1966
  F  F241  1  0.187760  0.852810  0.935030  1.0  -0.1779
  F  F242  1  0.411520  0.932980  0.890820  1.0  -0.1909
  F  F243  1  0.431200  0.841960  0.890160  1.0  -0.1815
  F  F244  1  0.061680  0.965740  0.850800  1.0  -0.1732
  F  F245  1  0.312660  0.025710  0.789330  1.0  -0.1927
  F  F246  1  0.114030  0.997220  0.745630  1.0  -0.1964
