# generated using pymatgen
data_CdH24PdC48(NO2)4
_symmetry_space_group_name_H-M   'P 1'
_cell_length_a   7.21720000
_cell_length_b   25.61300000
_cell_length_c   30.66000000
_cell_angle_alpha   90.00000000
_cell_angle_beta   96.39200000
_cell_angle_gamma   90.00000000
_symmetry_Int_Tables_number   1
_chemical_formula_structural   CdH24PdC48(NO2)4
_chemical_formula_sum   'Cd4 H96 Pd4 C192 N16 O32'
_cell_volume   5632.39508270
_cell_formula_units_Z   4
loop_
 _symmetry_equiv_pos_site_id
 _symmetry_equiv_pos_as_xyz
  1  'x, y, z'
loop_
 _atom_site_type_symbol
 _atom_site_label
 _atom_site_symmetry_multiplicity
 _atom_site_fract_x
 _atom_site_fract_y
 _atom_site_fract_z
 _atom_site_occupancy
 _atom_site_charge
  Cd  Cd1  1  0.000000  0.405050  0.250000  1.0  0.9803
  Cd  Cd2  1  0.500000  0.094950  0.750000  1.0  0.9805
  Cd  Cd3  1  0.500000  0.905050  0.250000  1.0  0.9803
  Cd  Cd4  1  0.000000  0.594950  0.750000  1.0  0.9805
  H  H5  1  0.898900  0.153600  0.146800  1.0  0.1426
  H  H6  1  0.144100  0.213600  0.145200  1.0  0.1174
  H  H7  1  0.336600  0.355300  0.036100  1.0  0.1353
  H  H8  1  0.194200  0.394900  0.964600  1.0  0.1738
  H  H9  1  0.133800  0.337600  0.144100  1.0  0.1182
  H  H10  1  0.363300  0.356200  0.197200  1.0  0.113
  H  H11  1  0.743000  0.295400  0.126000  1.0  0.1349
  H  H12  1  0.500300  0.267200  0.076100  1.0  0.1054
  H  H13  1  0.360800  0.139800  0.120700  1.0  0.1133
  H  H14  1  0.312300  0.071300  0.167600  1.0  0.1324
  H  H15  1  0.774100  0.000500  0.134800  1.0  0.1253
  H  H16  1  0.822600  0.069000  0.088000  1.0  0.1354
  H  H17  1  0.101100  0.153600  0.353200  1.0  0.1434
  H  H18  1  0.855900  0.213600  0.354800  1.0  0.118
  H  H19  1  0.663400  0.355300  0.463900  1.0  0.1354
  H  H20  1  0.805800  0.394900  0.535400  1.0  0.1732
  H  H21  1  0.866200  0.337600  0.355900  1.0  0.1177
  H  H22  1  0.636700  0.356200  0.302800  1.0  0.1133
  H  H23  1  0.257000  0.295400  0.374000  1.0  0.1351
  H  H24  1  0.499700  0.267200  0.423900  1.0  0.105
  H  H25  1  0.639200  0.139800  0.379300  1.0  0.1136
  H  H26  1  0.687700  0.071300  0.332400  1.0  0.1321
  H  H27  1  0.225900  0.000500  0.365200  1.0  0.1249
  H  H28  1  0.177400  0.069000  0.412000  1.0  0.136
  H  H29  1  0.601100  0.346400  0.853200  1.0  0.1435
  H  H30  1  0.355900  0.286400  0.854800  1.0  0.1182
  H  H31  1  0.163400  0.144700  0.963900  1.0  0.1335
  H  H32  1  0.305800  0.105100  0.035400  1.0  0.1731
  H  H33  1  0.366200  0.162400  0.855900  1.0  0.117
  H  H34  1  0.136700  0.143800  0.802800  1.0  0.1137
  H  H35  1  0.757000  0.204600  0.874000  1.0  0.1351
  H  H36  1  0.999700  0.232800  0.923900  1.0  0.1048
  H  H37  1  0.139200  0.360200  0.879300  1.0  0.1115
  H  H38  1  0.187700  0.428700  0.832400  1.0  0.132
  H  H39  1  0.725900  0.499500  0.865200  1.0  0.1253
  H  H40  1  0.677400  0.431000  0.912000  1.0  0.136
  H  H41  1  0.398900  0.346400  0.646800  1.0  0.1424
  H  H42  1  0.644100  0.286400  0.645200  1.0  0.1176
  H  H43  1  0.836600  0.144700  0.536100  1.0  0.1335
  H  H44  1  0.694200  0.105100  0.464600  1.0  0.1739
  H  H45  1  0.633800  0.162400  0.644100  1.0  0.118
  H  H46  1  0.863300  0.143800  0.697200  1.0  0.1134
  H  H47  1  0.243000  0.204600  0.626000  1.0  0.1349
  H  H48  1  0.000300  0.232800  0.576100  1.0  0.1049
  H  H49  1  0.860800  0.360200  0.620700  1.0  0.1113
  H  H50  1  0.812300  0.428700  0.667600  1.0  0.1323
  H  H51  1  0.274100  0.499500  0.634800  1.0  0.1255
  H  H52  1  0.322600  0.431000  0.588000  1.0  0.1356
  H  H53  1  0.398900  0.653600  0.146800  1.0  0.1426
  H  H54  1  0.644100  0.713600  0.145200  1.0  0.1174
  H  H55  1  0.836600  0.855300  0.036100  1.0  0.1353
  H  H56  1  0.694200  0.894900  0.964600  1.0  0.1738
  H  H57  1  0.633800  0.837600  0.144100  1.0  0.1182
  H  H58  1  0.863300  0.856200  0.197200  1.0  0.113
  H  H59  1  0.243000  0.795400  0.126000  1.0  0.1349
  H  H60  1  0.000300  0.767200  0.076100  1.0  0.1054
  H  H61  1  0.860800  0.639800  0.120700  1.0  0.1133
  H  H62  1  0.812300  0.571300  0.167600  1.0  0.1324
  H  H63  1  0.274100  0.500500  0.134800  1.0  0.1253
  H  H64  1  0.322600  0.569000  0.088000  1.0  0.1354
  H  H65  1  0.601100  0.653600  0.353200  1.0  0.1434
  H  H66  1  0.355900  0.713600  0.354800  1.0  0.118
  H  H67  1  0.163400  0.855300  0.463900  1.0  0.1354
  H  H68  1  0.305800  0.894900  0.535400  1.0  0.1732
  H  H69  1  0.366200  0.837600  0.355900  1.0  0.1177
  H  H70  1  0.136700  0.856200  0.302800  1.0  0.1134
  H  H71  1  0.757000  0.795400  0.374000  1.0  0.1351
  H  H72  1  0.999700  0.767200  0.423900  1.0  0.105
  H  H73  1  0.139200  0.639800  0.379300  1.0  0.1136
  H  H74  1  0.187700  0.571300  0.332400  1.0  0.1321
  H  H75  1  0.725900  0.500500  0.365200  1.0  0.1249
  H  H76  1  0.677400  0.569000  0.412000  1.0  0.136
  H  H77  1  0.101100  0.846400  0.853200  1.0  0.1435
  H  H78  1  0.855900  0.786400  0.854800  1.0  0.1182
  H  H79  1  0.663400  0.644700  0.963900  1.0  0.1335
  H  H80  1  0.805800  0.605100  0.035400  1.0  0.1731
  H  H81  1  0.866200  0.662400  0.855900  1.0  0.117
  H  H82  1  0.636700  0.643800  0.802800  1.0  0.1136
  H  H83  1  0.257000  0.704600  0.874000  1.0  0.1351
  H  H84  1  0.499700  0.732800  0.923900  1.0  0.1048
  H  H85  1  0.639200  0.860200  0.879300  1.0  0.1115
  H  H86  1  0.687700  0.928700  0.832400  1.0  0.132
  H  H87  1  0.225900  0.999500  0.865200  1.0  0.1253
  H  H88  1  0.177400  0.931000  0.912000  1.0  0.136
  H  H89  1  0.898900  0.846400  0.646800  1.0  0.1424
  H  H90  1  0.144100  0.786400  0.645200  1.0  0.1176
  H  H91  1  0.336600  0.644700  0.536100  1.0  0.1335
  H  H92  1  0.194200  0.605100  0.464600  1.0  0.1739
  H  H93  1  0.133800  0.662400  0.644100  1.0  0.118
  H  H94  1  0.363300  0.643800  0.697200  1.0  0.1134
  H  H95  1  0.743000  0.704600  0.626000  1.0  0.1349
  H  H96  1  0.500300  0.732800  0.576100  1.0  0.1049
  H  H97  1  0.360800  0.860200  0.620700  1.0  0.1113
  H  H98  1  0.312300  0.928700  0.667600  1.0  0.1323
  H  H99  1  0.774100  0.999500  0.634800  1.0  0.1255
  H  H100  1  0.822600  0.931000  0.588000  1.0  0.1356
  Pd  Pd101  1  0.750000  0.250000  0.000000  1.0  0.5531
  Pd  Pd102  1  0.250000  0.250000  0.500000  1.0  0.5531
  Pd  Pd103  1  0.250000  0.750000  0.000000  1.0  0.5531
  Pd  Pd104  1  0.750000  0.750000  0.500000  1.0  0.5531
  C  C105  1  0.796000  0.180700  0.081000  1.0  0.2417
  C  C106  1  0.916000  0.176400  0.123900  1.0  -0.1403
  C  C107  1  0.046000  0.210100  0.123000  1.0  -0.0657
  C  C108  1  0.024000  0.243500  0.082700  1.0  0.0579
  C  C109  1  0.140000  0.280600  0.070900  1.0  0.0882
  C  C110  1  0.110000  0.304800  0.031800  1.0  0.1662
  C  C111  1  0.226000  0.344900  0.020000  1.0  -0.0796
  C  C112  1  0.149000  0.367100  0.979800  1.0  -0.0909
  C  C113  1  0.985000  0.336500  0.968000  1.0  0.152
  C  C114  1  0.637000  0.154500  0.070900  1.0  0.1015
  C  C115  1  0.291000  0.298800  0.103400  1.0  0.1172
  C  C116  1  0.255000  0.327500  0.140900  1.0  -0.1759
  C  C117  1  0.392000  0.340400  0.171400  1.0  -0.0935
  C  C118  1  0.574000  0.330800  0.165900  1.0  -0.1049
  C  C119  1  0.620000  0.303000  0.129900  1.0  -0.097
  C  C120  1  0.473000  0.287100  0.100000  1.0  -0.1135
  C  C121  1  0.731000  0.354700  0.198200  1.0  0.7132
  C  C122  1  0.597000  0.111200  0.099700  1.0  0.0592
  C  C123  1  0.444000  0.111900  0.123500  1.0  -0.1001
  C  C124  1  0.415000  0.070800  0.151600  1.0  -0.0336
  C  C125  1  0.538000  0.029100  0.155900  1.0  -0.121
  C  C126  1  0.691000  0.028400  0.132000  1.0  -0.0251
  C  C127  1  0.720000  0.069500  0.103900  1.0  -0.1118
  C  C128  1  0.510000  0.987000  0.189300  1.0  0.6967
  C  C129  1  0.204000  0.180700  0.419000  1.0  0.2406
  C  C130  1  0.084000  0.176400  0.376100  1.0  -0.1402
  C  C131  1  0.954000  0.210100  0.377000  1.0  -0.0667
  C  C132  1  0.976000  0.243500  0.417300  1.0  0.0567
  C  C133  1  0.860000  0.280600  0.429100  1.0  0.0872
  C  C134  1  0.890000  0.304800  0.468200  1.0  0.1654
  C  C135  1  0.774000  0.344900  0.480000  1.0  -0.0828
  C  C136  1  0.851000  0.367100  0.520200  1.0  -0.0896
  C  C137  1  0.015000  0.336500  0.532000  1.0  0.1543
  C  C138  1  0.363000  0.154500  0.429100  1.0  0.101
  C  C139  1  0.709000  0.298800  0.396600  1.0  0.1176
  C  C140  1  0.745000  0.327500  0.359100  1.0  -0.1759
  C  C141  1  0.608000  0.340400  0.328600  1.0  -0.0939
  C  C142  1  0.426000  0.330800  0.334100  1.0  -0.1054
  C  C143  1  0.380000  0.303000  0.370100  1.0  -0.0978
  C  C144  1  0.527000  0.287100  0.400000  1.0  -0.1126
  C  C145  1  0.269000  0.354700  0.301800  1.0  0.7127
  C  C146  1  0.403000  0.111200  0.400300  1.0  0.059
  C  C147  1  0.556000  0.111900  0.376500  1.0  -0.1007
  C  C148  1  0.585000  0.070800  0.348400  1.0  -0.0345
  C  C149  1  0.462000  0.029100  0.344100  1.0  -0.1211
  C  C150  1  0.309000  0.028400  0.368000  1.0  -0.0234
  C  C151  1  0.280000  0.069500  0.396100  1.0  -0.1126
  C  C152  1  0.490000  0.987000  0.310700  1.0  0.6953
  C  C153  1  0.704000  0.319300  0.919000  1.0  0.2416
  C  C154  1  0.584000  0.323600  0.876100  1.0  -0.1397
  C  C155  1  0.454000  0.289900  0.877000  1.0  -0.0671
  C  C156  1  0.476000  0.256500  0.917300  1.0  0.0566
  C  C157  1  0.360000  0.219400  0.929100  1.0  0.0868
  C  C158  1  0.390000  0.195200  0.968200  1.0  0.1652
  C  C159  1  0.274000  0.155100  0.980000  1.0  -0.082
  C  C160  1  0.351000  0.132900  0.020200  1.0  -0.0888
  C  C161  1  0.515000  0.163500  0.032000  1.0  0.1542
  C  C162  1  0.863000  0.345500  0.929100  1.0  0.1008
  C  C163  1  0.209000  0.201200  0.896600  1.0  0.1173
  C  C164  1  0.245000  0.172500  0.859100  1.0  -0.1761
  C  C165  1  0.108000  0.159600  0.828600  1.0  -0.0927
  C  C166  1  0.926000  0.169200  0.834100  1.0  -0.1058
  C  C167  1  0.880000  0.197000  0.870100  1.0  -0.0975
  C  C168  1  0.027000  0.212900  0.900000  1.0  -0.1128
  C  C169  1  0.769000  0.145300  0.801800  1.0  0.7126
  C  C170  1  0.903000  0.388800  0.900300  1.0  0.0588
  C  C171  1  0.056000  0.388100  0.876500  1.0  -0.1001
  C  C172  1  0.085000  0.429200  0.848400  1.0  -0.0343
  C  C173  1  0.962000  0.470900  0.844100  1.0  -0.1195
  C  C174  1  0.809000  0.471600  0.868000  1.0  -0.0247
  C  C175  1  0.780000  0.430500  0.896100  1.0  -0.1135
  C  C176  1  0.990000  0.513000  0.810700  1.0  0.696
  C  C177  1  0.296000  0.319300  0.581000  1.0  0.2435
  C  C178  1  0.416000  0.323600  0.623900  1.0  -0.1401
  C  C179  1  0.546000  0.289900  0.623000  1.0  -0.0663
  C  C180  1  0.524000  0.256500  0.582700  1.0  0.0577
  C  C181  1  0.640000  0.219400  0.570900  1.0  0.0879
  C  C182  1  0.610000  0.195200  0.531800  1.0  0.1661
  C  C183  1  0.726000  0.155100  0.520000  1.0  -0.0807
  C  C184  1  0.649000  0.132900  0.479800  1.0  -0.0907
  C  C185  1  0.485000  0.163500  0.468000  1.0  0.1528
  C  C186  1  0.137000  0.345500  0.570900  1.0  0.1013
  C  C187  1  0.791000  0.201200  0.603400  1.0  0.1164
  C  C188  1  0.755000  0.172500  0.640900  1.0  -0.1751
  C  C189  1  0.892000  0.159600  0.671400  1.0  -0.0926
  C  C190  1  0.074000  0.169200  0.665900  1.0  -0.105
  C  C191  1  0.120000  0.197000  0.629900  1.0  -0.097
  C  C192  1  0.973000  0.212900  0.600000  1.0  -0.1132
  C  C193  1  0.231000  0.145300  0.698200  1.0  0.7128
  C  C194  1  0.097000  0.388800  0.599700  1.0  0.059
  C  C195  1  0.944000  0.388100  0.623500  1.0  -0.1008
  C  C196  1  0.915000  0.429200  0.651600  1.0  -0.0338
  C  C197  1  0.038000  0.470900  0.655900  1.0  -0.1201
  C  C198  1  0.191000  0.471600  0.632000  1.0  -0.0247
  C  C199  1  0.220000  0.430500  0.603900  1.0  -0.111
  C  C200  1  0.010000  0.513000  0.689300  1.0  0.6971
  C  C201  1  0.296000  0.680700  0.081000  1.0  0.2417
  C  C202  1  0.416000  0.676400  0.123900  1.0  -0.1403
  C  C203  1  0.546000  0.710100  0.123000  1.0  -0.0657
  C  C204  1  0.524000  0.743500  0.082700  1.0  0.0579
  C  C205  1  0.640000  0.780600  0.070900  1.0  0.0882
  C  C206  1  0.610000  0.804800  0.031800  1.0  0.1662
  C  C207  1  0.726000  0.844900  0.020000  1.0  -0.0796
  C  C208  1  0.649000  0.867100  0.979800  1.0  -0.0909
  C  C209  1  0.485000  0.836500  0.968000  1.0  0.152
  C  C210  1  0.137000  0.654500  0.070900  1.0  0.1015
  C  C211  1  0.791000  0.798800  0.103400  1.0  0.1172
  C  C212  1  0.755000  0.827500  0.140900  1.0  -0.1759
  C  C213  1  0.892000  0.840400  0.171400  1.0  -0.0935
  C  C214  1  0.074000  0.830800  0.165900  1.0  -0.1049
  C  C215  1  0.120000  0.803000  0.129900  1.0  -0.097
  C  C216  1  0.973000  0.787100  0.100000  1.0  -0.1135
  C  C217  1  0.231000  0.854700  0.198200  1.0  0.7132
  C  C218  1  0.097000  0.611200  0.099700  1.0  0.0592
  C  C219  1  0.944000  0.611900  0.123500  1.0  -0.1001
  C  C220  1  0.915000  0.570800  0.151600  1.0  -0.0336
  C  C221  1  0.038000  0.529100  0.155900  1.0  -0.121
  C  C222  1  0.191000  0.528400  0.132000  1.0  -0.0251
  C  C223  1  0.220000  0.569500  0.103900  1.0  -0.1118
  C  C224  1  0.010000  0.487000  0.189300  1.0  0.6967
  C  C225  1  0.704000  0.680700  0.419000  1.0  0.2406
  C  C226  1  0.584000  0.676400  0.376100  1.0  -0.1402
  C  C227  1  0.454000  0.710100  0.377000  1.0  -0.0667
  C  C228  1  0.476000  0.743500  0.417300  1.0  0.0567
  C  C229  1  0.360000  0.780600  0.429100  1.0  0.0872
  C  C230  1  0.390000  0.804800  0.468200  1.0  0.1654
  C  C231  1  0.274000  0.844900  0.480000  1.0  -0.0828
  C  C232  1  0.351000  0.867100  0.520200  1.0  -0.0896
  C  C233  1  0.515000  0.836500  0.532000  1.0  0.1543
  C  C234  1  0.863000  0.654500  0.429100  1.0  0.101
  C  C235  1  0.209000  0.798800  0.396600  1.0  0.1176
  C  C236  1  0.245000  0.827500  0.359100  1.0  -0.1759
  C  C237  1  0.108000  0.840400  0.328600  1.0  -0.0939
  C  C238  1  0.926000  0.830800  0.334100  1.0  -0.1054
  C  C239  1  0.880000  0.803000  0.370100  1.0  -0.0978
  C  C240  1  0.027000  0.787100  0.400000  1.0  -0.1126
  C  C241  1  0.769000  0.854700  0.301800  1.0  0.7127
  C  C242  1  0.903000  0.611200  0.400300  1.0  0.059
  C  C243  1  0.056000  0.611900  0.376500  1.0  -0.1007
  C  C244  1  0.085000  0.570800  0.348400  1.0  -0.0345
  C  C245  1  0.962000  0.529100  0.344100  1.0  -0.1211
  C  C246  1  0.809000  0.528400  0.368000  1.0  -0.0234
  C  C247  1  0.780000  0.569500  0.396100  1.0  -0.1126
  C  C248  1  0.990000  0.487000  0.310700  1.0  0.6953
  C  C249  1  0.204000  0.819300  0.919000  1.0  0.2416
  C  C250  1  0.084000  0.823600  0.876100  1.0  -0.1397
  C  C251  1  0.954000  0.789900  0.877000  1.0  -0.0671
  C  C252  1  0.976000  0.756500  0.917300  1.0  0.0566
  C  C253  1  0.860000  0.719400  0.929100  1.0  0.0868
  C  C254  1  0.890000  0.695200  0.968200  1.0  0.1652
  C  C255  1  0.774000  0.655100  0.980000  1.0  -0.082
  C  C256  1  0.851000  0.632900  0.020200  1.0  -0.0888
  C  C257  1  0.015000  0.663500  0.032000  1.0  0.1542
  C  C258  1  0.363000  0.845500  0.929100  1.0  0.1008
  C  C259  1  0.709000  0.701200  0.896600  1.0  0.1173
  C  C260  1  0.745000  0.672500  0.859100  1.0  -0.1761
  C  C261  1  0.608000  0.659600  0.828600  1.0  -0.0927
  C  C262  1  0.426000  0.669200  0.834100  1.0  -0.1058
  C  C263  1  0.380000  0.697000  0.870100  1.0  -0.0975
  C  C264  1  0.527000  0.712900  0.900000  1.0  -0.1128
  C  C265  1  0.269000  0.645300  0.801800  1.0  0.7126
  C  C266  1  0.403000  0.888800  0.900300  1.0  0.0588
  C  C267  1  0.556000  0.888100  0.876500  1.0  -0.1001
  C  C268  1  0.585000  0.929200  0.848400  1.0  -0.0343
  C  C269  1  0.462000  0.970900  0.844100  1.0  -0.1195
  C  C270  1  0.309000  0.971600  0.868000  1.0  -0.0247
  C  C271  1  0.280000  0.930500  0.896100  1.0  -0.1135
  C  C272  1  0.490000  0.013000  0.810700  1.0  0.696
  C  C273  1  0.796000  0.819300  0.581000  1.0  0.2435
  C  C274  1  0.916000  0.823600  0.623900  1.0  -0.1401
  C  C275  1  0.046000  0.789900  0.623000  1.0  -0.0663
  C  C276  1  0.024000  0.756500  0.582700  1.0  0.0577
  C  C277  1  0.140000  0.719400  0.570900  1.0  0.0879
  C  C278  1  0.110000  0.695200  0.531800  1.0  0.1661
  C  C279  1  0.226000  0.655100  0.520000  1.0  -0.0807
  C  C280  1  0.149000  0.632900  0.479800  1.0  -0.0907
  C  C281  1  0.985000  0.663500  0.468000  1.0  0.1528
  C  C282  1  0.637000  0.845500  0.570900  1.0  0.1013
  C  C283  1  0.291000  0.701200  0.603400  1.0  0.1164
  C  C284  1  0.255000  0.672500  0.640900  1.0  -0.1751
  C  C285  1  0.392000  0.659600  0.671400  1.0  -0.0926
  C  C286  1  0.574000  0.669200  0.665900  1.0  -0.105
  C  C287  1  0.620000  0.697000  0.629900  1.0  -0.097
  C  C288  1  0.473000  0.712900  0.600000  1.0  -0.1132
  C  C289  1  0.731000  0.645300  0.698200  1.0  0.7128
  C  C290  1  0.597000  0.888800  0.599700  1.0  0.059
  C  C291  1  0.444000  0.888100  0.623500  1.0  -0.1008
  C  C292  1  0.415000  0.929200  0.651600  1.0  -0.0338
  C  C293  1  0.538000  0.970900  0.655900  1.0  -0.1201
  C  C294  1  0.691000  0.971600  0.632000  1.0  -0.0247
  C  C295  1  0.720000  0.930500  0.603900  1.0  -0.111
  C  C296  1  0.510000  0.013000  0.689300  1.0  0.6971
  N  N297  1  0.862000  0.220200  0.059200  1.0  -0.3957
  N  N298  1  0.954400  0.298500  0.999300  1.0  -0.4988
  N  N299  1  0.138000  0.220200  0.440800  1.0  -0.3961
  N  N300  1  0.045600  0.298500  0.500700  1.0  -0.499
  N  N301  1  0.638000  0.279800  0.940800  1.0  -0.3963
  N  N302  1  0.545600  0.201500  0.000700  1.0  -0.4981
  N  N303  1  0.362000  0.279800  0.559200  1.0  -0.3966
  N  N304  1  0.454400  0.201500  0.499300  1.0  -0.4979
  N  N305  1  0.362000  0.720200  0.059200  1.0  -0.3957
  N  N306  1  0.454400  0.798500  0.999300  1.0  -0.4988
  N  N307  1  0.638000  0.720200  0.440800  1.0  -0.3961
  N  N308  1  0.545600  0.798500  0.500700  1.0  -0.499
  N  N309  1  0.138000  0.779800  0.940800  1.0  -0.3963
  N  N310  1  0.045600  0.701500  0.000700  1.0  -0.4981
  N  N311  1  0.862000  0.779800  0.559200  1.0  -0.3966
  N  N312  1  0.954400  0.701500  0.499300  1.0  -0.4979
  O  O313  1  0.310800  0.383100  0.272500  1.0  -0.6081
  O  O314  1  0.895000  0.343300  0.194500  1.0  -0.6386
  O  O315  1  0.358000  0.987400  0.201200  1.0  -0.5533
  O  O316  1  0.651000  0.954900  0.195300  1.0  -0.6545
  O  O317  1  0.689200  0.383100  0.227500  1.0  -0.6082
  O  O318  1  0.105000  0.343300  0.305500  1.0  -0.6404
  O  O319  1  0.642000  0.987400  0.298800  1.0  -0.5507
  O  O320  1  0.349000  0.954900  0.304700  1.0  -0.6553
  O  O321  1  0.189200  0.116900  0.727500  1.0  -0.6074
  O  O322  1  0.605000  0.156700  0.805500  1.0  -0.6411
  O  O323  1  0.142000  0.512600  0.798800  1.0  -0.5514
  O  O324  1  0.849000  0.545100  0.804700  1.0  -0.6549
  O  O325  1  0.810800  0.116900  0.772500  1.0  -0.608
  O  O326  1  0.395000  0.156700  0.694500  1.0  -0.6395
  O  O327  1  0.858000  0.512600  0.701200  1.0  -0.5529
  O  O328  1  0.151000  0.545100  0.695300  1.0  -0.6552
  O  O329  1  0.810800  0.883100  0.272500  1.0  -0.6081
  O  O330  1  0.395000  0.843300  0.194500  1.0  -0.6386
  O  O331  1  0.858000  0.487400  0.201200  1.0  -0.5533
  O  O332  1  0.151000  0.454900  0.195300  1.0  -0.6561
  O  O333  1  0.189200  0.883100  0.227500  1.0  -0.6082
  O  O334  1  0.605000  0.843300  0.305500  1.0  -0.6404
  O  O335  1  0.142000  0.487400  0.298800  1.0  -0.5507
  O  O336  1  0.849000  0.454900  0.304700  1.0  -0.6568
  O  O337  1  0.689200  0.616900  0.727500  1.0  -0.6074
  O  O338  1  0.105000  0.656700  0.805500  1.0  -0.6411
  O  O339  1  0.642000  0.012600  0.798800  1.0  -0.5514
  O  O340  1  0.349000  0.045100  0.804700  1.0  -0.6564
  O  O341  1  0.310800  0.616900  0.772500  1.0  -0.608
  O  O342  1  0.895000  0.656700  0.694500  1.0  -0.6395
  O  O343  1  0.358000  0.012600  0.701200  1.0  -0.5529
  O  O344  1  0.651000  0.045100  0.695300  1.0  -0.6567
