# generated using pymatgen
data_CdH24PdC48(NO2)4
_symmetry_space_group_name_H-M   'P 1'
_cell_length_a   7.29530000
_cell_length_b   13.29810000
_cell_length_c   30.75970000
_cell_angle_alpha   88.25850000
_cell_angle_beta   83.63900000
_cell_angle_gamma   74.07980000
_symmetry_Int_Tables_number   1
_chemical_formula_structural   CdH24PdC48(NO2)4
_chemical_formula_sum   'Cd2 H48 Pd2 C96 N8 O16'
_cell_volume   2851.98673424
_cell_formula_units_Z   2
loop_
 _symmetry_equiv_pos_site_id
 _symmetry_equiv_pos_as_xyz
  1  'x, y, z'
loop_
 _atom_site_type_symbol
 _atom_site_label
 _atom_site_symmetry_multiplicity
 _atom_site_fract_x
 _atom_site_fract_y
 _atom_site_fract_z
 _atom_site_occupancy
 _atom_site_charge
  Cd  Cd1  1  0.155240  0.689520  0.250000  1.0  0.9705
  Cd  Cd2  1  0.844760  0.310480  0.750000  1.0  0.9704
  H  H3  1  0.903200  0.198800  0.144300  1.0  0.1426
  H  H4  1  0.212200  0.075800  0.144800  1.0  0.1162
  H  H5  1  0.653600  0.787200  0.036400  1.0  0.1267
  H  H6  1  0.619900  0.713600  0.966700  1.0  0.1478
  H  H7  1  0.316600  0.842600  0.145800  1.0  0.1186
  H  H8  1  0.528800  0.787800  0.196600  1.0  0.1089
  H  H9  1  0.905700  0.911200  0.126700  1.0  0.1114
  H  H10  1  0.694900  0.965200  0.075600  1.0  0.1154
  H  H11  1  0.387700  0.219000  0.118100  1.0  0.1155
  H  H12  1  0.219800  0.352800  0.165900  1.0  0.1265
  H  H13  1  0.623700  0.504200  0.135400  1.0  0.1259
  H  H14  1  0.791400  0.370600  0.087600  1.0  0.1346
  H  H15  1  0.898000  0.198800  0.355700  1.0  0.1426
  H  H16  1  0.712000  0.075800  0.355200  1.0  0.1177
  H  H17  1  0.559200  0.787200  0.463600  1.0  0.1263
  H  H18  1  0.666500  0.713600  0.533300  1.0  0.1482
  H  H19  1  0.840800  0.842600  0.354200  1.0  0.1182
  H  H20  1  0.683400  0.787800  0.303400  1.0  0.1092
  H  H21  1  0.183100  0.911200  0.373300  1.0  0.1111
  H  H22  1  0.339900  0.965200  0.424400  1.0  0.1158
  H  H23  1  0.393300  0.219000  0.381900  1.0  0.1159
  H  H24  1  0.427400  0.352800  0.334100  1.0  0.1263
  H  H25  1  0.872100  0.504200  0.364600  1.0  0.1266
  H  H26  1  0.838000  0.370600  0.412400  1.0  0.135
  H  H27  1  0.096800  0.801200  0.855700  1.0  0.1429
  H  H28  1  0.787800  0.924200  0.855200  1.0  0.1174
  H  H29  1  0.346400  0.212800  0.963600  1.0  0.1267
  H  H30  1  0.380100  0.286400  0.033300  1.0  0.1482
  H  H31  1  0.683400  0.157400  0.854200  1.0  0.1184
  H  H32  1  0.471200  0.212200  0.803400  1.0  0.1093
  H  H33  1  0.094300  0.088800  0.873300  1.0  0.1113
  H  H34  1  0.305100  0.034800  0.924400  1.0  0.1157
  H  H35  1  0.612300  0.781000  0.881900  1.0  0.1142
  H  H36  1  0.780200  0.647200  0.834100  1.0  0.1264
  H  H37  1  0.376300  0.495800  0.864600  1.0  0.1261
  H  H38  1  0.208600  0.629400  0.912400  1.0  0.135
  H  H39  1  0.102000  0.801200  0.644300  1.0  0.1428
  H  H40  1  0.288000  0.924200  0.644800  1.0  0.116
  H  H41  1  0.440800  0.212800  0.536400  1.0  0.1262
  H  H42  1  0.333500  0.286400  0.466700  1.0  0.1473
  H  H43  1  0.159200  0.157400  0.645800  1.0  0.1187
  H  H44  1  0.316600  0.212200  0.696600  1.0  0.109
  H  H45  1  0.816900  0.088800  0.626700  1.0  0.1112
  H  H46  1  0.660100  0.034800  0.575600  1.0  0.1156
  H  H47  1  0.606700  0.781000  0.618100  1.0  0.114
  H  H48  1  0.572600  0.647200  0.665900  1.0  0.1266
  H  H49  1  0.127900  0.495800  0.635400  1.0  0.126
  H  H50  1  0.162000  0.629400  0.587600  1.0  0.1348
  Pd  Pd51  1  0.000000  0.000000  0.000000  1.0  0.4522
  Pd  Pd52  1  0.000000  0.000000  0.500000  1.0  0.4522
  C  C53  1  0.894400  0.138400  0.081600  1.0  0.2224
  C  C54  1  0.965300  0.151200  0.122300  1.0  -0.1603
  C  C55  1  0.133700  0.083400  0.122400  1.0  -0.1148
  C  C56  1  0.179300  0.022800  0.083200  1.0  0.1888
  C  C57  1  0.343600  0.945000  0.071300  1.0  -0.0636
  C  C58  1  0.384400  0.889400  0.032000  1.0  0.2007
  C  C59  1  0.549000  0.809400  0.020300  1.0  -0.1231
  C  C60  1  0.532000  0.769000  0.981800  1.0  -0.1617
  C  C61  1  0.354700  0.827400  0.969100  1.0  0.1757
  C  C62  1  0.720700  0.193400  0.069500  1.0  0.0175
  C  C63  1  0.482300  0.910600  0.105000  1.0  0.1038
  C  C64  1  0.435500  0.856400  0.141700  1.0  -0.152
  C  C65  1  0.563200  0.823200  0.171900  1.0  -0.0077
  C  C66  1  0.742300  0.840800  0.166400  1.0  -0.1135
  C  C67  1  0.787700  0.896200  0.130500  1.0  -0.055
  C  C68  1  0.660500  0.929200  0.100200  1.0  -0.1161
  C  C69  1  0.887200  0.795000  0.198700  1.0  0.7135
  C  C70  1  0.606200  0.281600  0.098100  1.0  0.0689
  C  C71  1  0.435000  0.276200  0.121600  1.0  -0.0926
  C  C72  1  0.334400  0.356400  0.150200  1.0  -0.0126
  C  C73  1  0.405100  0.441800  0.155400  1.0  -0.1122
  C  C74  1  0.576500  0.447000  0.131900  1.0  -0.0206
  C  C75  1  0.676900  0.367000  0.103300  1.0  -0.0704
  C  C76  1  0.308300  0.527400  0.188800  1.0  0.7228
  C  C77  1  0.967200  0.138400  0.418400  1.0  0.2212
  C  C78  1  0.883500  0.151200  0.377700  1.0  -0.158
  C  C79  1  0.782900  0.083400  0.377600  1.0  -0.1168
  C  C80  1  0.797900  0.022800  0.416800  1.0  0.1875
  C  C81  1  0.711400  0.945000  0.428700  1.0  -0.0631
  C  C82  1  0.726200  0.889400  0.468000  1.0  0.2013
  C  C83  1  0.641600  0.809400  0.479700  1.0  -0.122
  C  C84  1  0.699000  0.769000  0.518200  1.0  -0.1603
  C  C85  1  0.817900  0.827400  0.530900  1.0  0.1762
  C  C86  1  0.085900  0.193400  0.430500  1.0  0.0171
  C  C87  1  0.607100  0.910600  0.395000  1.0  0.1037
  C  C88  1  0.708100  0.856400  0.358300  1.0  -0.1534
  C  C89  1  0.613600  0.823200  0.328100  1.0  -0.0083
  C  C90  1  0.416900  0.840800  0.333600  1.0  -0.113
  C  C91  1  0.316100  0.896200  0.369500  1.0  -0.0583
  C  C92  1  0.410300  0.929200  0.399800  1.0  -0.1154
  C  C93  1  0.317800  0.795000  0.301300  1.0  0.7137
  C  C94  1  0.112200  0.281600  0.401900  1.0  0.0688
  C  C95  1  0.288800  0.276200  0.378400  1.0  -0.092
  C  C96  1  0.309200  0.356400  0.349800  1.0  -0.0117
  C  C97  1  0.153100  0.441800  0.344600  1.0  -0.1128
  C  C98  1  0.976500  0.447000  0.368100  1.0  -0.0212
  C  C99  1  0.956100  0.367000  0.396700  1.0  -0.0725
  C  C100  1  0.164300  0.527400  0.311200  1.0  0.7229
  C  C101  1  0.105600  0.861600  0.918400  1.0  0.22
  C  C102  1  0.034700  0.848800  0.877700  1.0  -0.1583
  C  C103  1  0.866300  0.916600  0.877600  1.0  -0.1171
  C  C104  1  0.820700  0.977200  0.916800  1.0  0.1874
  C  C105  1  0.656400  0.055000  0.928700  1.0  -0.0633
  C  C106  1  0.615600  0.110600  0.968000  1.0  0.2016
  C  C107  1  0.451000  0.190600  0.979700  1.0  -0.1217
  C  C108  1  0.468000  0.231000  0.018200  1.0  -0.1595
  C  C109  1  0.645300  0.172600  0.030900  1.0  0.1774
  C  C110  1  0.279300  0.806600  0.930500  1.0  0.0171
  C  C111  1  0.517700  0.089400  0.895000  1.0  0.1036
  C  C112  1  0.564500  0.143600  0.858300  1.0  -0.1531
  C  C113  1  0.436800  0.176800  0.828100  1.0  -0.0077
  C  C114  1  0.257700  0.159200  0.833600  1.0  -0.1122
  C  C115  1  0.212300  0.103800  0.869500  1.0  -0.0588
  C  C116  1  0.339500  0.070800  0.899800  1.0  -0.1151
  C  C117  1  0.112800  0.205000  0.801300  1.0  0.7137
  C  C118  1  0.393800  0.718400  0.901900  1.0  0.0681
  C  C119  1  0.565000  0.723800  0.878400  1.0  -0.093
  C  C120  1  0.665600  0.643600  0.849800  1.0  -0.0117
  C  C121  1  0.594900  0.558200  0.844600  1.0  -0.1137
  C  C122  1  0.423500  0.553000  0.868100  1.0  -0.0192
  C  C123  1  0.323100  0.633000  0.896700  1.0  -0.0708
  C  C124  1  0.691700  0.472600  0.811200  1.0  0.7226
  C  C125  1  0.032800  0.861600  0.581600  1.0  0.2207
  C  C126  1  0.116500  0.848800  0.622300  1.0  -0.1597
  C  C127  1  0.217100  0.916600  0.622400  1.0  -0.1142
  C  C128  1  0.202100  0.977200  0.583200  1.0  0.1889
  C  C129  1  0.288600  0.055000  0.571300  1.0  -0.0638
  C  C130  1  0.273800  0.110600  0.532000  1.0  0.2015
  C  C131  1  0.358400  0.190600  0.520300  1.0  -0.1209
  C  C132  1  0.301000  0.231000  0.481800  1.0  -0.1607
  C  C133  1  0.182100  0.172600  0.469100  1.0  0.176
  C  C134  1  0.914100  0.806600  0.569500  1.0  0.017
  C  C135  1  0.392900  0.089400  0.605000  1.0  0.1041
  C  C136  1  0.291900  0.143600  0.641700  1.0  -0.1526
  C  C137  1  0.386400  0.176800  0.671900  1.0  -0.0075
  C  C138  1  0.583100  0.159200  0.666400  1.0  -0.1138
  C  C139  1  0.683900  0.103800  0.630500  1.0  -0.0553
  C  C140  1  0.589700  0.070800  0.600200  1.0  -0.1165
  C  C141  1  0.682200  0.205000  0.698700  1.0  0.7138
  C  C142  1  0.887800  0.718400  0.598100  1.0  0.0683
  C  C143  1  0.711200  0.723800  0.621600  1.0  -0.0932
  C  C144  1  0.690800  0.643600  0.650200  1.0  -0.013
  C  C145  1  0.846900  0.558200  0.655400  1.0  -0.1125
  C  C146  1  0.023500  0.553000  0.631900  1.0  -0.0202
  C  C147  1  0.043900  0.633000  0.603300  1.0  -0.0707
  C  C148  1  0.835700  0.472600  0.688800  1.0  0.7229
  N  N149  1  0.025800  0.059000  0.058500  1.0  -0.383
  N  N150  1  0.263100  0.900400  0.999700  1.0  -0.4294
  N  N151  1  0.915200  0.059000  0.441500  1.0  -0.3835
  N  N152  1  0.836500  0.900400  0.500300  1.0  -0.4294
  N  N153  1  0.974200  0.941000  0.941500  1.0  -0.3835
  N  N154  1  0.736900  0.099600  0.000300  1.0  -0.4297
  N  N155  1  0.084800  0.941000  0.558500  1.0  -0.3824
  N  N156  1  0.163500  0.099600  0.499700  1.0  -0.4298
  O  O157  1  0.846300  0.737200  0.228080  1.0  -0.592
  O  O158  1  0.043400  0.816200  0.194300  1.0  -0.6378
  O  O159  1  0.149000  0.528000  0.202200  1.0  -0.5448
  O  O160  1  0.399700  0.594600  0.196100  1.0  -0.6524
  O  O161  1  0.416500  0.737200  0.271920  1.0  -0.5934
  O  O162  1  0.140400  0.816200  0.305700  1.0  -0.6367
  O  O163  1  0.323000  0.528000  0.297800  1.0  -0.5436
  O  O164  1  0.005700  0.594600  0.303900  1.0  -0.6513
  O  O165  1  0.153700  0.262800  0.771920  1.0  -0.5932
  O  O166  1  0.956600  0.183800  0.805700  1.0  -0.636
  O  O167  1  0.851000  0.472000  0.797800  1.0  -0.5433
  O  O168  1  0.600300  0.405400  0.803900  1.0  -0.6507
  O  O169  1  0.583500  0.262800  0.728080  1.0  -0.5929
  O  O170  1  0.859600  0.183800  0.694300  1.0  -0.6371
  O  O171  1  0.677000  0.472000  0.702200  1.0  -0.5452
  O  O172  1  0.994300  0.405400  0.696100  1.0  -0.6526
