# generated using pymatgen
data_CdH24PdC48(NO2)4
_symmetry_space_group_name_H-M   'P 1'
_cell_length_a   7.15640000
_cell_length_b   13.04050000
_cell_length_c   31.19200000
_cell_angle_alpha   88.27810000
_cell_angle_beta   83.71300000
_cell_angle_gamma   74.07430000
_symmetry_Int_Tables_number   1
_chemical_formula_structural   CdH24PdC48(NO2)4
_chemical_formula_sum   'Cd2 H48 Pd2 C96 N8 O16'
_cell_volume   2782.37073903
_cell_formula_units_Z   2
loop_
 _symmetry_equiv_pos_site_id
 _symmetry_equiv_pos_as_xyz
  1  'x, y, z'
loop_
 _atom_site_type_symbol
 _atom_site_label
 _atom_site_symmetry_multiplicity
 _atom_site_fract_x
 _atom_site_fract_y
 _atom_site_fract_z
 _atom_site_occupancy
 _atom_site_charge
  Cd  Cd1  1  0.598680  0.802640  0.250000  1.0  1.0037
  Cd  Cd2  1  0.401320  0.197360  0.750000  1.0  1.0042
  H  H3  1  0.955000  0.287800  0.139500  1.0  0.1486
  H  H4  1  0.649000  0.425800  0.142200  1.0  0.1245
  H  H5  1  0.308200  0.724600  0.038000  1.0  0.1309
  H  H6  1  0.400600  0.800200  0.967700  1.0  0.1531
  H  H7  1  0.540900  0.663400  0.144100  1.0  0.1232
  H  H8  1  0.275100  0.725000  0.193400  1.0  0.101
  H  H9  1  0.969000  0.578000  0.128900  1.0  0.1286
  H  H10  1  0.235700  0.530200  0.076900  1.0  0.0939
  H  H11  1  0.496100  0.276600  0.118000  1.0  0.1173
  H  H12  1  0.619800  0.144400  0.166800  1.0  0.1277
  H  H13  1  0.258100  0.979200  0.134200  1.0  0.1297
  H  H14  1  0.134500  0.111400  0.085300  1.0  0.1295
  H  H15  1  0.757200  0.287800  0.360500  1.0  0.1482
  H  H16  1  0.925200  0.425800  0.357800  1.0  0.1252
  H  H17  1  0.967200  0.724600  0.462000  1.0  0.1313
  H  H18  1  0.799200  0.800200  0.532300  1.0  0.1524
  H  H19  1  0.795700  0.663400  0.355900  1.0  0.1234
  H  H20  1  0.999900  0.725000  0.306600  1.0  0.101
  H  H21  1  0.453000  0.578000  0.371100  1.0  0.1279
  H  H22  1  0.234100  0.530200  0.423100  1.0  0.0934
  H  H23  1  0.227300  0.276600  0.382000  1.0  0.1171
  H  H24  1  0.235800  0.144400  0.333200  1.0  0.1277
  H  H25  1  0.762700  0.979200  0.365800  1.0  0.1302
  H  H26  1  0.754100  0.111400  0.414700  1.0  0.1308
  H  H27  1  0.045000  0.712200  0.860500  1.0  0.1481
  H  H28  1  0.351000  0.574200  0.857800  1.0  0.1253
  H  H29  1  0.691800  0.275400  0.962000  1.0  0.1313
  H  H30  1  0.599400  0.199800  0.032300  1.0  0.1534
  H  H31  1  0.459100  0.336600  0.855900  1.0  0.1223
  H  H32  1  0.724900  0.275000  0.806600  1.0  0.1008
  H  H33  1  0.031000  0.422000  0.871100  1.0  0.1277
  H  H34  1  0.764300  0.469800  0.923100  1.0  0.0932
  H  H35  1  0.503900  0.723400  0.882000  1.0  0.1169
  H  H36  1  0.380200  0.855600  0.833200  1.0  0.1276
  H  H37  1  0.741900  0.020800  0.865800  1.0  0.1304
  H  H38  1  0.865500  0.888600  0.914700  1.0  0.1313
  H  H39  1  0.242800  0.712200  0.639500  1.0  0.1483
  H  H40  1  0.074800  0.574200  0.642200  1.0  0.1245
  H  H41  1  0.032800  0.275400  0.538000  1.0  0.1313
  H  H42  1  0.200800  0.199800  0.467700  1.0  0.153
  H  H43  1  0.204300  0.336600  0.644100  1.0  0.1227
  H  H44  1  0.000100  0.275000  0.693400  1.0  0.1012
  H  H45  1  0.547000  0.422000  0.628900  1.0  0.1286
  H  H46  1  0.765900  0.469800  0.576900  1.0  0.0936
  H  H47  1  0.772700  0.723400  0.618000  1.0  0.1174
  H  H48  1  0.764200  0.855600  0.666800  1.0  0.128
  H  H49  1  0.237300  0.020800  0.634200  1.0  0.1305
  H  H50  1  0.245900  0.888600  0.585300  1.0  0.1306
  Pd  Pd51  1  0.000000  0.500000  0.000000  1.0  0.4286
  Pd  Pd52  1  0.500000  0.500000  0.500000  1.0  0.4286
  C  C53  1  0.027800  0.356400  0.079400  1.0  0.2493
  C  C54  1  0.916900  0.340200  0.118900  1.0  -0.181
  C  C55  1  0.749100  0.415800  0.119700  1.0  -0.0924
  C  C56  1  0.741700  0.478600  0.082200  1.0  0.1957
  C  C57  1  0.588400  0.560200  0.070500  1.0  -0.0487
  C  C58  1  0.583500  0.617000  0.033100  1.0  0.2099
  C  C59  1  0.428500  0.701000  0.021500  1.0  -0.1213
  C  C60  1  0.477200  0.743600  0.982400  1.0  -0.1542
  C  C61  1  0.675000  0.680000  0.969200  1.0  0.1453
  C  C62  1  0.216900  0.300200  0.067100  1.0  -0.0349
  C  C63  1  0.410000  0.594200  0.103500  1.0  0.1305
  C  C64  1  0.423200  0.649600  0.140100  1.0  -0.147
  C  C65  1  0.264900  0.684200  0.170200  1.0  -0.0779
  C  C66  1  0.097500  0.661000  0.166900  1.0  -0.1186
  C  C67  1  0.081800  0.598400  0.131400  1.0  -0.0678
  C  C68  1  0.244400  0.569200  0.100700  1.0  -0.1111
  C  C69  1  0.924500  0.697000  0.198600  1.0  0.739
  C  C70  1  0.303400  0.207200  0.096800  1.0  0.0923
  C  C71  1  0.448500  0.217000  0.121200  1.0  -0.0795
  C  C72  1  0.522100  0.137800  0.150500  1.0  -0.0284
  C  C73  1  0.451700  0.048600  0.155300  1.0  -0.1031
  C  C74  1  0.305600  0.038800  0.130900  1.0  -0.0415
  C  C75  1  0.232000  0.118000  0.101700  1.0  -0.0762
  C  C76  1  0.518200  0.959600  0.188500  1.0  0.6794
  C  C77  1  0.615800  0.356400  0.420600  1.0  0.2484
  C  C78  1  0.742900  0.340200  0.381100  1.0  -0.179
  C  C79  1  0.835100  0.415800  0.380300  1.0  -0.0928
  C  C80  1  0.779700  0.478600  0.417800  1.0  0.1953
  C  C81  1  0.851400  0.560200  0.429500  1.0  -0.0506
  C  C82  1  0.799500  0.617000  0.466900  1.0  0.2122
  C  C83  1  0.870500  0.701000  0.478500  1.0  -0.1223
  C  C84  1  0.779200  0.743600  0.517600  1.0  -0.1542
  C  C85  1  0.645000  0.680000  0.530800  1.0  0.1457
  C  C86  1  0.482900  0.300200  0.432900  1.0  -0.0345
  C  C87  1  0.995800  0.594200  0.396500  1.0  0.1295
  C  C88  1  0.927200  0.649600  0.359900  1.0  -0.1512
  C  C89  1  0.050900  0.684200  0.329800  1.0  -0.0775
  C  C90  1  0.241500  0.661000  0.333100  1.0  -0.1185
  C  C91  1  0.319800  0.598400  0.368600  1.0  -0.066
  C  C92  1  0.186400  0.569200  0.399300  1.0  -0.1073
  C  C93  1  0.378500  0.697000  0.301400  1.0  0.7412
  C  C94  1  0.489400  0.207200  0.403200  1.0  0.0927
  C  C95  1  0.334500  0.217000  0.378800  1.0  -0.0792
  C  C96  1  0.340100  0.137800  0.349500  1.0  -0.0281
  C  C97  1  0.499700  0.048600  0.344700  1.0  -0.1022
  C  C98  1  0.655600  0.038800  0.369100  1.0  -0.0396
  C  C99  1  0.650000  0.118000  0.398300  1.0  -0.0771
  C  C100  1  0.522200  0.959600  0.311500  1.0  0.6786
  C  C101  1  0.972200  0.643600  0.920600  1.0  0.2498
  C  C102  1  0.083100  0.659800  0.881100  1.0  -0.1773
  C  C103  1  0.250900  0.584200  0.880300  1.0  -0.0926
  C  C104  1  0.258300  0.521400  0.917800  1.0  0.1971
  C  C105  1  0.411600  0.439800  0.929500  1.0  -0.0498
  C  C106  1  0.416500  0.383000  0.966900  1.0  0.2127
  C  C107  1  0.571500  0.299000  0.978500  1.0  -0.1233
  C  C108  1  0.522800  0.256400  0.017600  1.0  -0.1541
  C  C109  1  0.325000  0.320000  0.030800  1.0  0.1473
  C  C110  1  0.783100  0.699800  0.932900  1.0  -0.0347
  C  C111  1  0.590000  0.405800  0.896500  1.0  0.1294
  C  C112  1  0.576800  0.350400  0.859900  1.0  -0.1519
  C  C113  1  0.735100  0.315800  0.829800  1.0  -0.0792
  C  C114  1  0.902500  0.339000  0.833100  1.0  -0.1184
  C  C115  1  0.918200  0.401600  0.868600  1.0  -0.0662
  C  C116  1  0.755600  0.430800  0.899300  1.0  -0.1034
  C  C117  1  0.075500  0.303000  0.801400  1.0  0.7394
  C  C118  1  0.696600  0.792800  0.903200  1.0  0.0927
  C  C119  1  0.551500  0.783000  0.878800  1.0  -0.0777
  C  C120  1  0.477900  0.862200  0.849500  1.0  -0.0284
  C  C121  1  0.548300  0.951400  0.844700  1.0  -0.0995
  C  C122  1  0.694400  0.961200  0.869100  1.0  -0.0405
  C  C123  1  0.768000  0.882000  0.898300  1.0  -0.0765
  C  C124  1  0.481800  0.040400  0.811500  1.0  0.6814
  C  C125  1  0.384200  0.643600  0.579400  1.0  0.25
  C  C126  1  0.257100  0.659800  0.618900  1.0  -0.1812
  C  C127  1  0.164900  0.584200  0.619700  1.0  -0.0929
  C  C128  1  0.220300  0.521400  0.582200  1.0  0.1954
  C  C129  1  0.148600  0.439800  0.570500  1.0  -0.0482
  C  C130  1  0.200500  0.383000  0.533100  1.0  0.2122
  C  C131  1  0.129500  0.299000  0.521500  1.0  -0.1208
  C  C132  1  0.220800  0.256400  0.482400  1.0  -0.1528
  C  C133  1  0.355000  0.320000  0.469200  1.0  0.1448
  C  C134  1  0.517100  0.699800  0.567100  1.0  -0.034
  C  C135  1  0.004200  0.405800  0.603500  1.0  0.131
  C  C136  1  0.072800  0.350400  0.640100  1.0  -0.1467
  C  C137  1  0.949100  0.315800  0.670200  1.0  -0.0794
  C  C138  1  0.758500  0.339000  0.666900  1.0  -0.1185
  C  C139  1  0.680200  0.401600  0.631400  1.0  -0.0679
  C  C140  1  0.813600  0.430800  0.600700  1.0  -0.1097
  C  C141  1  0.621500  0.303000  0.698600  1.0  0.7366
  C  C142  1  0.510600  0.792800  0.596800  1.0  0.092
  C  C143  1  0.665500  0.783000  0.621200  1.0  -0.0775
  C  C144  1  0.659900  0.862200  0.650500  1.0  -0.0283
  C  C145  1  0.500300  0.951400  0.655300  1.0  -0.101
  C  C146  1  0.344400  0.961200  0.630900  1.0  -0.0401
  C  C147  1  0.350000  0.882000  0.601700  1.0  -0.076
  C  C148  1  0.477800  0.040400  0.688500  1.0  0.6791
  N  N149  1  0.917200  0.437200  0.057600  1.0  -0.3744
  N  N150  1  0.742700  0.601600  0.001000  1.0  -0.4928
  N  N151  1  0.645600  0.437200  0.442400  1.0  -0.3741
  N  N152  1  0.655700  0.601600  0.499000  1.0  -0.493
  N  N153  1  0.082800  0.562800  0.942400  1.0  -0.3739
  N  N154  1  0.257300  0.398400  0.999000  1.0  -0.493
  N  N155  1  0.354400  0.562800  0.557600  1.0  -0.375
  N  N156  1  0.344300  0.398400  0.501000  1.0  -0.4922
  O  O157  1  0.934100  0.758400  0.227500  1.0  -0.5842
  O  O158  1  0.771900  0.669800  0.195500  1.0  -0.6564
  O  O159  1  0.661600  0.972800  0.200900  1.0  -0.5035
  O  O160  1  0.416400  0.893200  0.199300  1.0  -0.5794
  O  O161  1  0.307500  0.758400  0.272500  1.0  -0.584
  O  O162  1  0.558300  0.669800  0.304500  1.0  -0.6556
  O  O163  1  0.365600  0.972800  0.299100  1.0  -0.5042
  O  O164  1  0.690400  0.893200  0.300700  1.0  -0.5799
  O  O165  1  0.065900  0.241600  0.772500  1.0  -0.586
  O  O166  1  0.228100  0.330200  0.804500  1.0  -0.6557
  O  O167  1  0.338400  0.027200  0.799100  1.0  -0.5045
  O  O168  1  0.583600  0.106800  0.800700  1.0  -0.5788
  O  O169  1  0.692500  0.241600  0.727500  1.0  -0.5857
  O  O170  1  0.441700  0.330200  0.695500  1.0  -0.6567
  O  O171  1  0.634400  0.027200  0.700900  1.0  -0.5036
  O  O172  1  0.309600  0.106800  0.699300  1.0  -0.5765
