# generated using pymatgen
data_CdH24PdC48(NO2)4
_symmetry_space_group_name_H-M   'P 1'
_cell_length_a   7.27510000
_cell_length_b   13.30230000
_cell_length_c   30.77490000
_cell_angle_alpha   88.23210000
_cell_angle_beta   83.52210000
_cell_angle_gamma   74.13020000
_symmetry_Int_Tables_number   1
_chemical_formula_structural   CdH24PdC48(NO2)4
_chemical_formula_sum   'Cd2 H48 Pd2 C96 N8 O16'
_cell_volume   2846.45356007
_cell_formula_units_Z   2
loop_
 _symmetry_equiv_pos_site_id
 _symmetry_equiv_pos_as_xyz
  1  'x, y, z'
loop_
 _atom_site_type_symbol
 _atom_site_label
 _atom_site_symmetry_multiplicity
 _atom_site_fract_x
 _atom_site_fract_y
 _atom_site_fract_z
 _atom_site_occupancy
 _atom_site_charge
  Cd  Cd1  1  0.155730  0.688540  0.250000  1.0  0.9711
  Cd  Cd2  1  0.844270  0.311460  0.750000  1.0  0.9711
  H  H3  1  0.897500  0.197600  0.144300  1.0  0.1362
  H  H4  1  0.203800  0.074600  0.145600  1.0  0.1145
  H  H5  1  0.651300  0.782400  0.038200  1.0  0.1341
  H  H6  1  0.622800  0.715000  0.964300  1.0  0.1451
  H  H7  1  0.317300  0.835600  0.144400  1.0  0.1257
  H  H8  1  0.531200  0.780000  0.195800  1.0  0.1062
  H  H9  1  0.900500  0.916200  0.128500  1.0  0.0983
  H  H10  1  0.694500  0.968800  0.076000  1.0  0.1303
  H  H11  1  0.388500  0.214000  0.119600  1.0  0.105
  H  H12  1  0.210900  0.347600  0.166400  1.0  0.1207
  H  H13  1  0.601400  0.508200  0.134900  1.0  0.1217
  H  H14  1  0.778900  0.374800  0.088100  1.0  0.1231
  H  H15  1  0.904900  0.197600  0.355700  1.0  0.1365
  H  H16  1  0.721600  0.074600  0.354400  1.0  0.1157
  H  H17  1  0.566300  0.782400  0.461800  1.0  0.1338
  H  H18  1  0.662200  0.715000  0.535700  1.0  0.1456
  H  H19  1  0.847100  0.835600  0.355600  1.0  0.1256
  H  H20  1  0.688800  0.780000  0.304200  1.0  0.1059
  H  H21  1  0.183300  0.916200  0.371500  1.0  0.0978
  H  H22  1  0.336700  0.968800  0.424000  1.0  0.1305
  H  H23  1  0.397500  0.214000  0.380400  1.0  0.1056
  H  H24  1  0.441500  0.347600  0.333600  1.0  0.1207
  H  H25  1  0.890400  0.508200  0.365100  1.0  0.1219
  H  H26  1  0.846300  0.374800  0.411900  1.0  0.1235
  H  H27  1  0.102500  0.802400  0.855700  1.0  0.1366
  H  H28  1  0.796200  0.925400  0.854400  1.0  0.1157
  H  H29  1  0.348700  0.217600  0.961800  1.0  0.134
  H  H30  1  0.377200  0.285000  0.035700  1.0  0.1457
  H  H31  1  0.682700  0.164400  0.855600  1.0  0.1258
  H  H32  1  0.468800  0.220000  0.804200  1.0  0.1084
  H  H33  1  0.099500  0.083800  0.871500  1.0  0.0979
  H  H34  1  0.305500  0.031200  0.924000  1.0  0.1301
  H  H35  1  0.611500  0.786000  0.880400  1.0  0.1043
  H  H36  1  0.789100  0.652400  0.833600  1.0  0.1207
  H  H37  1  0.398600  0.491800  0.865100  1.0  0.1219
  H  H38  1  0.221100  0.625200  0.911900  1.0  0.1238
  H  H39  1  0.095100  0.802400  0.644300  1.0  0.1364
  H  H40  1  0.278400  0.925400  0.645600  1.0  0.115
  H  H41  1  0.433700  0.217600  0.538200  1.0  0.1335
  H  H42  1  0.337800  0.285000  0.464300  1.0  0.1451
  H  H43  1  0.152900  0.164400  0.644400  1.0  0.1255
  H  H44  1  0.311200  0.220000  0.695800  1.0  0.1019
  H  H45  1  0.816700  0.083800  0.628500  1.0  0.0983
  H  H46  1  0.663300  0.031200  0.576000  1.0  0.1303
  H  H47  1  0.602500  0.786000  0.619600  1.0  0.1038
  H  H48  1  0.558500  0.652400  0.666400  1.0  0.1206
  H  H49  1  0.109600  0.491800  0.634900  1.0  0.1223
  H  H50  1  0.153700  0.625200  0.588100  1.0  0.1232
  Pd  Pd51  1  0.000000  0.000000  0.000000  1.0  0.3946
  Pd  Pd52  1  0.000000  0.000000  0.500000  1.0  0.3946
  C  C53  1  0.894400  0.135000  0.081600  1.0  0.2193
  C  C54  1  0.961200  0.149600  0.122500  1.0  -0.1696
  C  C55  1  0.127000  0.082000  0.122900  1.0  -0.1028
  C  C56  1  0.178900  0.018800  0.083300  1.0  0.1681
  C  C57  1  0.343300  0.941000  0.071400  1.0  0.0311
  C  C58  1  0.382700  0.889000  0.033200  1.0  0.1741
  C  C59  1  0.548600  0.806800  0.021600  1.0  -0.1047
  C  C60  1  0.532200  0.767600  0.980400  1.0  -0.0976
  C  C61  1  0.352800  0.824200  0.968800  1.0  0.2535
  C  C62  1  0.719700  0.193600  0.068800  1.0  -0.0914
  C  C63  1  0.481900  0.910600  0.105400  1.0  0.0372
  C  C64  1  0.434700  0.851800  0.141200  1.0  -0.0903
  C  C65  1  0.563400  0.818000  0.171600  1.0  -0.0112
  C  C66  1  0.741700  0.840000  0.166600  1.0  -0.1311
  C  C67  1  0.784500  0.898600  0.131300  1.0  -0.0058
  C  C68  1  0.660100  0.932000  0.100300  1.0  -0.1194
  C  C69  1  0.883800  0.793400  0.198700  1.0  0.6956
  C  C70  1  0.601400  0.281200  0.099200  1.0  0.1039
  C  C71  1  0.431100  0.273000  0.122700  1.0  -0.0947
  C  C72  1  0.324500  0.353000  0.150700  1.0  -0.0267
  C  C73  1  0.388400  0.441200  0.155300  1.0  -0.13
  C  C74  1  0.558300  0.449400  0.131800  1.0  -0.0544
  C  C75  1  0.665400  0.369200  0.103800  1.0  -0.093
  C  C76  1  0.285600  0.526800  0.189100  1.0  0.6583
  C  C77  1  0.970600  0.135000  0.418400  1.0  0.2178
  C  C78  1  0.889200  0.149600  0.377500  1.0  -0.1662
  C  C79  1  0.791000  0.082000  0.377100  1.0  -0.1051
  C  C80  1  0.802300  0.018800  0.416700  1.0  0.168
  C  C81  1  0.715700  0.941000  0.428600  1.0  0.0311
  C  C82  1  0.728300  0.889000  0.466800  1.0  0.1736
  C  C83  1  0.644600  0.806800  0.478400  1.0  -0.1043
  C  C84  1  0.700200  0.767600  0.519600  1.0  -0.0963
  C  C85  1  0.823000  0.824200  0.531200  1.0  0.2546
  C  C86  1  0.086700  0.193600  0.431200  1.0  -0.0939
  C  C87  1  0.607500  0.910600  0.394600  1.0  0.0379
  C  C88  1  0.713500  0.851800  0.358800  1.0  -0.0898
  C  C89  1  0.618600  0.818000  0.328400  1.0  -0.0108
  C  C90  1  0.418300  0.840000  0.333400  1.0  -0.1313
  C  C91  1  0.316900  0.898600  0.368700  1.0  -0.0058
  C  C92  1  0.407900  0.932000  0.399700  1.0  -0.1189
  C  C93  1  0.322800  0.793400  0.301300  1.0  0.6951
  C  C94  1  0.117400  0.281200  0.400800  1.0  0.1041
  C  C95  1  0.295900  0.273000  0.377300  1.0  -0.0939
  C  C96  1  0.322500  0.353000  0.349300  1.0  -0.0247
  C  C97  1  0.170400  0.441200  0.344700  1.0  -0.1307
  C  C98  1  0.992300  0.449400  0.368200  1.0  -0.0551
  C  C99  1  0.965400  0.369200  0.396200  1.0  -0.0946
  C  C100  1  0.187600  0.526800  0.310900  1.0  0.657
  C  C101  1  0.105600  0.865000  0.918400  1.0  0.2184
  C  C102  1  0.038800  0.850400  0.877500  1.0  -0.1664
  C  C103  1  0.873000  0.918000  0.877100  1.0  -0.1055
  C  C104  1  0.821100  0.981200  0.916700  1.0  0.1679
  C  C105  1  0.656700  0.059000  0.928600  1.0  0.0313
  C  C106  1  0.617300  0.111000  0.966800  1.0  0.1742
  C  C107  1  0.451400  0.193200  0.978400  1.0  -0.104
  C  C108  1  0.467800  0.232400  0.019600  1.0  -0.0984
  C  C109  1  0.647200  0.175800  0.031200  1.0  0.2534
  C  C110  1  0.280300  0.806400  0.931200  1.0  -0.0942
  C  C111  1  0.518100  0.089400  0.894600  1.0  0.0376
  C  C112  1  0.565300  0.148200  0.858800  1.0  -0.0899
  C  C113  1  0.436600  0.182000  0.828400  1.0  -0.0083
  C  C114  1  0.258300  0.160000  0.833400  1.0  -0.1318
  C  C115  1  0.215500  0.101400  0.868700  1.0  -0.0055
  C  C116  1  0.339900  0.068000  0.899700  1.0  -0.1183
  C  C117  1  0.116200  0.206600  0.801300  1.0  0.6952
  C  C118  1  0.398600  0.718800  0.900800  1.0  0.1042
  C  C119  1  0.568900  0.727000  0.877300  1.0  -0.0947
  C  C120  1  0.675500  0.647000  0.849300  1.0  -0.0249
  C  C121  1  0.611600  0.558800  0.844700  1.0  -0.1316
  C  C122  1  0.441700  0.550600  0.868200  1.0  -0.0529
  C  C123  1  0.334600  0.630800  0.896200  1.0  -0.094
  C  C124  1  0.714400  0.473200  0.810900  1.0  0.6568
  C  C125  1  0.029400  0.865000  0.581600  1.0  0.2187
  C  C126  1  0.110800  0.850400  0.622500  1.0  -0.1695
  C  C127  1  0.209000  0.918000  0.622900  1.0  -0.103
  C  C128  1  0.197700  0.981200  0.583300  1.0  0.168
  C  C129  1  0.284300  0.059000  0.571400  1.0  0.0316
  C  C130  1  0.271700  0.111000  0.533200  1.0  0.1747
  C  C131  1  0.355400  0.193200  0.521600  1.0  -0.1025
  C  C132  1  0.299800  0.232400  0.480400  1.0  -0.0979
  C  C133  1  0.177000  0.175800  0.468800  1.0  0.2517
  C  C134  1  0.913300  0.806400  0.568800  1.0  -0.092
  C  C135  1  0.392500  0.089400  0.605400  1.0  0.037
  C  C136  1  0.286500  0.148200  0.641200  1.0  -0.0909
  C  C137  1  0.381400  0.182000  0.671600  1.0  -0.0112
  C  C138  1  0.581700  0.160000  0.666667  1.0  -0.1342
  C  C139  1  0.683100  0.101400  0.631300  1.0  -0.0102
  C  C140  1  0.592100  0.068000  0.600300  1.0  -0.1197
  C  C141  1  0.677200  0.206600  0.698700  1.0  0.6973
  C  C142  1  0.882600  0.718800  0.599200  1.0  0.1037
  C  C143  1  0.704100  0.727000  0.622700  1.0  -0.095
  C  C144  1  0.677500  0.647000  0.650700  1.0  -0.0264
  C  C145  1  0.829600  0.558800  0.655300  1.0  -0.1312
  C  C146  1  0.007700  0.550600  0.631800  1.0  -0.0529
  C  C147  1  0.034600  0.630800  0.603800  1.0  -0.094
  C  C148  1  0.812400  0.473200  0.689100  1.0  0.6577
  N  N149  1  0.024800  0.056800  0.058800  1.0  -0.3893
  N  N150  1  0.259100  0.900800  0.999900  1.0  -0.4098
  N  N151  1  0.918400  0.056800  0.441200  1.0  -0.3899
  N  N152  1  0.840100  0.900800  0.500100  1.0  -0.4101
  N  N153  1  0.975200  0.943200  0.941200  1.0  -0.3903
  N  N154  1  0.740900  0.099200  0.000100  1.0  -0.4102
  N  N155  1  0.081600  0.943200  0.558800  1.0  -0.3889
  N  N156  1  0.159900  0.099200  0.499900  1.0  -0.4099
  O  O157  1  0.420300  0.733800  0.272200  1.0  -0.5801
  O  O158  1  0.042000  0.815800  0.194100  1.0  -0.6664
  O  O159  1  0.129900  0.518200  0.202700  1.0  -0.4962
  O  O160  1  0.388000  0.590000  0.193400  1.0  -0.6205
  O  O161  1  0.845900  0.733800  0.227800  1.0  -0.5791
  O  O162  1  0.142200  0.815800  0.305900  1.0  -0.6637
  O  O163  1  0.351900  0.518200  0.297300  1.0  -0.4946
  O  O164  1  0.022000  0.590000  0.306600  1.0  -0.621
  O  O165  1  0.579700  0.266200  0.727800  1.0  -0.5793
  O  O166  1  0.958000  0.184200  0.805900  1.0  -0.6635
  O  O167  1  0.870100  0.481800  0.797300  1.0  -0.4941
  O  O168  1  0.612000  0.410000  0.806600  1.0  -0.622
  O  O169  1  0.154100  0.266200  0.772200  1.0  -0.5791
  O  O170  1  0.857800  0.184200  0.694100  1.0  -0.6657
  O  O171  1  0.648100  0.481800  0.702700  1.0  -0.4966
  O  O172  1  0.978000  0.410000  0.693400  1.0  -0.6212
