# generated using pymatgen
data_YbH7(C5O2)3
_symmetry_space_group_name_H-M   'P 1'
_cell_length_a   14.33300000
_cell_length_b   14.64200000
_cell_length_c   14.64200000
_cell_angle_alpha   90.00000000
_cell_angle_beta   90.00000000
_cell_angle_gamma   90.00000000
_symmetry_Int_Tables_number   1
_chemical_formula_structural   YbH7(C5O2)3
_chemical_formula_sum   'Yb4 H28 C60 O24'
_cell_volume   3072.82555461
_cell_formula_units_Z   4
loop_
 _symmetry_equiv_pos_site_id
 _symmetry_equiv_pos_as_xyz
  1  'x, y, z'
loop_
 _atom_site_type_symbol
 _atom_site_label
 _atom_site_symmetry_multiplicity
 _atom_site_fract_x
 _atom_site_fract_y
 _atom_site_fract_z
 _atom_site_occupancy
 _atom_site_charge
  Yb  Yb1  1  0.515060  0.366540  0.586410  1.0  1.5258
  Yb  Yb2  1  0.015060  0.633460  0.413590  1.0  1.5264
  Yb  Yb3  1  0.765060  0.413590  0.366540  1.0  1.5256
  Yb  Yb4  1  0.265060  0.586410  0.633460  1.0  1.5247
  H  H5  1  0.895700  0.481400  0.555400  1.0  0.0916
  H  H6  1  0.008100  0.515000  0.803400  1.0  0.1166
  H  H7  1  0.758400  0.390200  0.774700  1.0  0.1093
  H  H8  1  0.825300  0.311000  0.905300  1.0  0.1267
  H  H9  1  0.798800  0.302400  0.059800  1.0  0.1106
  H  H10  1  0.881400  0.561800  0.092500  1.0  0.1176
  H  H11  1  0.915800  0.567600  0.935300  1.0  0.1184
  H  H12  1  0.395700  0.518600  0.444600  1.0  0.0909
  H  H13  1  0.508100  0.485000  0.196600  1.0  0.1167
  H  H14  1  0.258400  0.609800  0.225300  1.0  0.1091
  H  H15  1  0.325300  0.689000  0.094700  1.0  0.1269
  H  H16  1  0.298800  0.697600  0.940200  1.0  0.1102
  H  H17  1  0.381400  0.438200  0.907500  1.0  0.1174
  H  H18  1  0.415800  0.432400  0.064700  1.0  0.1179
  H  H19  1  0.145700  0.444600  0.481400  1.0  0.0893
  H  H20  1  0.258100  0.196600  0.515000  1.0  0.1171
  H  H21  1  0.008400  0.225300  0.390200  1.0  0.1092
  H  H22  1  0.075300  0.094700  0.311000  1.0  0.1269
  H  H23  1  0.048800  0.940200  0.302400  1.0  0.1104
  H  H24  1  0.131400  0.907500  0.561800  1.0  0.118
  H  H25  1  0.165800  0.064700  0.567600  1.0  0.1183
  H  H26  1  0.645700  0.555400  0.518600  1.0  0.0885
  H  H27  1  0.758100  0.803400  0.485000  1.0  0.1166
  H  H28  1  0.508400  0.774700  0.609800  1.0  0.1092
  H  H29  1  0.575300  0.905300  0.689000  1.0  0.127
  H  H30  1  0.548800  0.059800  0.697600  1.0  0.1101
  H  H31  1  0.631400  0.092500  0.438200  1.0  0.1176
  H  H32  1  0.665800  0.935300  0.432400  1.0  0.1179
  C  C33  1  0.816200  0.428800  0.655300  1.0  -0.1571
  C  C34  1  0.892600  0.471900  0.618100  1.0  0.0274
  C  C35  1  0.965000  0.501100  0.673600  1.0  -0.1311
  C  C36  1  0.960300  0.492500  0.766900  1.0  -0.0631
  C  C37  1  0.882700  0.449500  0.807000  1.0  0.0224
  C  C38  1  0.810500  0.418300  0.749400  1.0  -0.0569
  C  C39  1  0.737500  0.399200  0.599100  1.0  0.7501
  C  C40  1  0.050400  0.543700  0.630300  1.0  0.7334
  C  C41  1  0.872800  0.440700  0.906500  1.0  0.0724
  C  C42  1  0.837700  0.360900  0.942700  1.0  -0.1563
  C  C43  1  0.821400  0.356400  0.034700  1.0  -0.0204
  C  C44  1  0.837800  0.430600  0.091100  1.0  -0.109
  C  C45  1  0.871600  0.511200  0.055400  1.0  -0.0377
  C  C46  1  0.890800  0.514800  0.960700  1.0  -0.1333
  C  C47  1  0.812100  0.423900  0.189100  1.0  0.6498
  C  C48  1  0.316200  0.571200  0.344700  1.0  -0.1566
  C  C49  1  0.392600  0.528100  0.381900  1.0  0.0257
  C  C50  1  0.465000  0.498900  0.326400  1.0  -0.1312
  C  C51  1  0.460300  0.507500  0.233100  1.0  -0.0622
  C  C52  1  0.382700  0.550500  0.193000  1.0  0.0222
  C  C53  1  0.310500  0.581700  0.250600  1.0  -0.0571
  C  C54  1  0.237500  0.600800  0.400900  1.0  0.75
  C  C55  1  0.550400  0.456300  0.369700  1.0  0.7333
  C  C56  1  0.372800  0.559300  0.093500  1.0  0.0722
  C  C57  1  0.337700  0.639100  0.057300  1.0  -0.1559
  C  C58  1  0.321400  0.643600  0.965300  1.0  -0.0219
  C  C59  1  0.337800  0.569400  0.908900  1.0  -0.1081
  C  C60  1  0.371600  0.488800  0.944600  1.0  -0.0382
  C  C61  1  0.390800  0.485200  0.039300  1.0  -0.1313
  C  C62  1  0.312100  0.576100  0.810900  1.0  0.6507
  C  C63  1  0.066200  0.344700  0.428800  1.0  -0.157
  C  C64  1  0.142600  0.381900  0.471900  1.0  0.0242
  C  C65  1  0.215000  0.326400  0.501100  1.0  -0.1318
  C  C66  1  0.210300  0.233100  0.492500  1.0  -0.0624
  C  C67  1  0.132700  0.193000  0.449500  1.0  0.0222
  C  C68  1  0.060500  0.250600  0.418300  1.0  -0.0566
  C  C69  1  0.987500  0.400900  0.399200  1.0  0.7559
  C  C70  1  0.300400  0.369700  0.543700  1.0  0.7355
  C  C71  1  0.122800  0.093500  0.440700  1.0  0.0728
  C  C72  1  0.087700  0.057300  0.360900  1.0  -0.1588
  C  C73  1  0.071400  0.965300  0.356400  1.0  -0.0222
  C  C74  1  0.087800  0.908900  0.430600  1.0  -0.1064
  C  C75  1  0.121600  0.944600  0.511200  1.0  -0.038
  C  C76  1  0.140800  0.039300  0.514800  1.0  -0.1319
  C  C77  1  0.062100  0.810900  0.423900  1.0  0.6463
  C  C78  1  0.566200  0.655300  0.571200  1.0  -0.1572
  C  C79  1  0.642600  0.618100  0.528100  1.0  0.0249
  C  C80  1  0.715000  0.673600  0.498900  1.0  -0.1314
  C  C81  1  0.710300  0.766900  0.507500  1.0  -0.0628
  C  C82  1  0.632700  0.807000  0.550500  1.0  0.0227
  C  C83  1  0.560500  0.749400  0.581700  1.0  -0.0566
  C  C84  1  0.487500  0.599100  0.600800  1.0  0.7546
  C  C85  1  0.800400  0.630300  0.456300  1.0  0.7363
  C  C86  1  0.622800  0.906500  0.559300  1.0  0.0731
  C  C87  1  0.587700  0.942700  0.639100  1.0  -0.1555
  C  C88  1  0.571400  0.034700  0.643600  1.0  -0.0225
  C  C89  1  0.587800  0.091100  0.569400  1.0  -0.1058
  C  C90  1  0.621600  0.055400  0.488800  1.0  -0.038
  C  C91  1  0.640800  0.960700  0.485200  1.0  -0.1333
  C  C92  1  0.562100  0.189100  0.576100  1.0  0.6459
  O  O93  1  0.661600  0.385800  0.637700  1.0  -0.6298
  O  O94  1  0.748600  0.391700  0.514300  1.0  -0.6585
  O  O95  1  0.124000  0.540900  0.672700  1.0  -0.6254
  O  O96  1  0.040100  0.578600  0.551800  1.0  -0.6311
  O  O97  1  0.781700  0.350800  0.220300  1.0  -0.5991
  O  O98  1  0.825900  0.491700  0.239300  1.0  -0.5634
  O  O99  1  0.161600  0.614200  0.362300  1.0  -0.6303
  O  O100  1  0.248600  0.608300  0.485700  1.0  -0.6565
  O  O101  1  0.624000  0.459100  0.327300  1.0  -0.6246
  O  O102  1  0.540100  0.421400  0.448200  1.0  -0.6327
  O  O103  1  0.281700  0.649200  0.779700  1.0  -0.6003
  O  O104  1  0.325900  0.508300  0.760700  1.0  -0.5637
  O  O105  1  0.911600  0.362300  0.385800  1.0  -0.629
  O  O106  1  0.998600  0.485700  0.391700  1.0  -0.6575
  O  O107  1  0.374000  0.327300  0.540900  1.0  -0.6249
  O  O108  1  0.290100  0.448200  0.578600  1.0  -0.6348
  O  O109  1  0.031700  0.779700  0.350800  1.0  -0.5992
  O  O110  1  0.075900  0.760700  0.491700  1.0  -0.5613
  O  O111  1  0.411600  0.637700  0.614200  1.0  -0.6288
  O  O112  1  0.498600  0.514300  0.608300  1.0  -0.6573
  O  O113  1  0.874000  0.672700  0.459100  1.0  -0.6239
  O  O114  1  0.790100  0.551800  0.421400  1.0  -0.6346
  O  O115  1  0.531700  0.220300  0.649200  1.0  -0.6006
  O  O116  1  0.575900  0.239300  0.508300  1.0  -0.5599
