# generated using pymatgen
data_Y2H6C18(SO4)3
_symmetry_space_group_name_H-M   'P 1'
_cell_length_a   17.43930000
_cell_length_b   10.14830000
_cell_length_c   17.57710000
_cell_angle_alpha   90.00000000
_cell_angle_beta   90.00000000
_cell_angle_gamma   90.00000000
_symmetry_Int_Tables_number   1
_chemical_formula_structural   Y2H6C18(SO4)3
_chemical_formula_sum   'Y8 H24 C72 S12 O48'
_cell_volume   3110.78194336
_cell_formula_units_Z   4
loop_
 _symmetry_equiv_pos_site_id
 _symmetry_equiv_pos_as_xyz
  1  'x, y, z'
loop_
 _atom_site_type_symbol
 _atom_site_label
 _atom_site_symmetry_multiplicity
 _atom_site_fract_x
 _atom_site_fract_y
 _atom_site_fract_z
 _atom_site_occupancy
 _atom_site_charge
  Y  Y1  1  0.821570  0.880700  0.272470  1.0  2.0703
  Y  Y2  1  0.521100  0.841120  0.258590  1.0  2.0879
  Y  Y3  1  0.178430  0.119300  0.772470  1.0  2.0707
  Y  Y4  1  0.478900  0.158880  0.758590  1.0  2.0884
  Y  Y5  1  0.321570  0.619300  0.272470  1.0  2.0702
  Y  Y6  1  0.021100  0.658880  0.258590  1.0  2.0881
  Y  Y7  1  0.678430  0.380700  0.772470  1.0  2.071
  Y  Y8  1  0.978900  0.341120  0.758590  1.0  2.0882
  H  H9  1  0.792900  0.034400  0.452800  1.0  0.1186
  H  H10  1  0.548600  0.879200  0.063700  1.0  0.1131
  H  H11  1  0.532000  0.978200  0.938900  1.0  0.1167
  H  H12  1  0.858200  0.024500  0.077900  1.0  0.1134
  H  H13  1  0.787700  0.130800  0.578900  1.0  0.1088
  H  H14  1  0.875400  0.115800  0.952000  1.0  0.1171
  H  H15  1  0.207100  0.965600  0.952800  1.0  0.1187
  H  H16  1  0.451400  0.120800  0.563700  1.0  0.1131
  H  H17  1  0.468000  0.021800  0.438900  1.0  0.1171
  H  H18  1  0.141800  0.975500  0.577900  1.0  0.1137
  H  H19  1  0.212300  0.869200  0.078900  1.0  0.1092
  H  H20  1  0.124600  0.884200  0.452000  1.0  0.1166
  H  H21  1  0.292900  0.465600  0.452800  1.0  0.1187
  H  H22  1  0.048600  0.620800  0.063700  1.0  0.113
  H  H23  1  0.032000  0.521800  0.938900  1.0  0.1171
  H  H24  1  0.358200  0.475500  0.077900  1.0  0.1133
  H  H25  1  0.287700  0.369200  0.578900  1.0  0.1089
  H  H26  1  0.375400  0.384200  0.952000  1.0  0.1166
  H  H27  1  0.707100  0.534400  0.952800  1.0  0.1186
  H  H28  1  0.951400  0.379200  0.563700  1.0  0.1136
  H  H29  1  0.968000  0.478200  0.438900  1.0  0.1168
  H  H30  1  0.641800  0.524500  0.577900  1.0  0.1135
  H  H31  1  0.712300  0.630800  0.078900  1.0  0.1089
  H  H32  1  0.624600  0.615800  0.452000  1.0  0.1169
  C  C33  1  0.679100  0.932900  0.151000  1.0  0.8019
  C  C34  1  0.661600  0.941000  0.378200  1.0  0.7822
  C  C35  1  0.679900  0.995700  0.454600  1.0  -0.2111
  C  C36  1  0.747900  0.040100  0.481000  1.0  -0.0468
  C  C37  1  0.651500  0.974500  0.075800  1.0  -0.1986
  C  C38  1  0.639300  0.152400  0.878800  1.0  0.7597
  C  C39  1  0.644400  0.136100  0.656800  1.0  0.771
  C  C40  1  0.583800  0.936400  0.041600  1.0  -0.0558
  C  C41  1  0.967600  0.955200  0.075600  1.0  -0.2085
  C  C42  1  0.574300  0.993800  0.969900  1.0  -0.0563
  C  C43  1  0.632900  0.074200  0.950100  1.0  -0.1938
  C  C44  1  0.977100  0.887000  0.149200  1.0  0.7722
  C  C45  1  0.903400  0.017800  0.050200  1.0  -0.0487
  C  C46  1  0.673100  0.088400  0.582700  1.0  -0.2081
  C  C47  1  0.745700  0.094900  0.553700  1.0  -0.0852
  C  C48  1  0.983900  0.050000  0.948700  1.0  -0.1936
  C  C49  1  0.913700  0.070500  0.977900  1.0  -0.0367
  C  C50  1  0.015900  0.093800  0.874300  1.0  0.7865
  C  C51  1  0.320900  0.067100  0.651000  1.0  0.8032
  C  C52  1  0.338400  0.059000  0.878200  1.0  0.7824
  C  C53  1  0.320100  0.004300  0.954600  1.0  -0.2101
  C  C54  1  0.252100  0.959900  0.981000  1.0  -0.0486
  C  C55  1  0.348500  0.025500  0.575800  1.0  -0.1973
  C  C56  1  0.360700  0.847600  0.378800  1.0  0.7676
  C  C57  1  0.355600  0.863900  0.156800  1.0  0.7701
  C  C58  1  0.416200  0.063600  0.541600  1.0  -0.0565
  C  C59  1  0.032400  0.044800  0.575600  1.0  -0.2037
  C  C60  1  0.425700  0.006200  0.469900  1.0  -0.0558
  C  C61  1  0.367100  0.925800  0.450100  1.0  -0.1944
  C  C62  1  0.022900  0.113000  0.649200  1.0  0.7726
  C  C63  1  0.096600  0.982200  0.550200  1.0  -0.0484
  C  C64  1  0.326900  0.911600  0.082700  1.0  -0.2069
  C  C65  1  0.254300  0.905100  0.053700  1.0  -0.0861
  C  C66  1  0.016100  0.950000  0.448700  1.0  -0.1949
  C  C67  1  0.086300  0.929500  0.477900  1.0  -0.0367
  C  C68  1  0.984100  0.906200  0.374300  1.0  0.7864
  C  C69  1  0.179100  0.567100  0.151000  1.0  0.8029
  C  C70  1  0.161600  0.559000  0.378200  1.0  0.7826
  C  C71  1  0.179900  0.504300  0.454600  1.0  -0.2108
  C  C72  1  0.247900  0.459900  0.481000  1.0  -0.0469
  C  C73  1  0.151500  0.525500  0.075800  1.0  -0.1978
  C  C74  1  0.139300  0.347600  0.878800  1.0  0.7688
  C  C75  1  0.144400  0.363900  0.656800  1.0  0.7719
  C  C76  1  0.083800  0.563600  0.041600  1.0  -0.0559
  C  C77  1  0.467600  0.544800  0.075600  1.0  -0.2075
  C  C78  1  0.074300  0.506200  0.969900  1.0  -0.0568
  C  C79  1  0.132900  0.425800  0.950100  1.0  -0.1939
  C  C80  1  0.477100  0.613000  0.149200  1.0  0.7638
  C  C81  1  0.403400  0.482200  0.050200  1.0  -0.0482
  C  C82  1  0.173100  0.411600  0.582700  1.0  -0.2079
  C  C83  1  0.245700  0.405100  0.553700  1.0  -0.0853
  C  C84  1  0.483900  0.450000  0.948700  1.0  -0.1956
  C  C85  1  0.413700  0.429500  0.977900  1.0  -0.0374
  C  C86  1  0.515900  0.406200  0.874300  1.0  0.7859
  C  C87  1  0.820900  0.432900  0.651000  1.0  0.802
  C  C88  1  0.838400  0.441000  0.878200  1.0  0.782
  C  C89  1  0.820100  0.495700  0.954600  1.0  -0.2103
  C  C90  1  0.752100  0.540100  0.981000  1.0  -0.0478
  C  C91  1  0.848500  0.474500  0.575800  1.0  -0.1984
  C  C92  1  0.860700  0.652400  0.378800  1.0  0.7626
  C  C93  1  0.855600  0.636100  0.156800  1.0  0.7695
  C  C94  1  0.916200  0.436400  0.541600  1.0  -0.056
  C  C95  1  0.532400  0.455200  0.575600  1.0  -0.204
  C  C96  1  0.925700  0.493800  0.469900  1.0  -0.0564
  C  C97  1  0.867100  0.574200  0.450100  1.0  -0.194
  C  C98  1  0.522900  0.387000  0.649200  1.0  0.772
  C  C99  1  0.596600  0.517800  0.550200  1.0  -0.0488
  C  C100  1  0.826900  0.588400  0.082700  1.0  -0.2081
  C  C101  1  0.754300  0.594900  0.053700  1.0  -0.0868
  C  C102  1  0.516100  0.550000  0.448700  1.0  -0.1949
  C  C103  1  0.586300  0.570500  0.477900  1.0  -0.0371
  C  C104  1  0.484100  0.593800  0.374300  1.0  0.7866
  S  S105  1  0.702260  0.078610  0.018650  1.0  0.1864
  S  S106  1  0.610290  0.015970  0.521500  1.0  0.1691
  S  S107  1  0.040620  0.962040  0.011070  1.0  0.1792
  S  S108  1  0.297740  0.921390  0.518650  1.0  0.1887
  S  S109  1  0.389710  0.984030  0.021500  1.0  0.1682
  S  S110  1  0.959380  0.037960  0.511070  1.0  0.182
  S  S111  1  0.202260  0.421390  0.018650  1.0  0.1866
  S  S112  1  0.110290  0.484030  0.521500  1.0  0.1694
  S  S113  1  0.540620  0.537960  0.011070  1.0  0.1791
  S  S114  1  0.797740  0.578610  0.518650  1.0  0.1882
  S  S115  1  0.889710  0.515970  0.021500  1.0  0.1681
  S  S116  1  0.459380  0.462040  0.511070  1.0  0.1818
  O  O117  1  0.921700  0.895200  0.195300  1.0  -0.7967
  O  O118  1  0.085500  0.071300  0.863300  1.0  -0.7334
  O  O119  1  0.747600  0.950300  0.168400  1.0  -0.6828
  O  O120  1  0.697900  0.220400  0.868100  1.0  -0.6329
  O  O121  1  0.715600  0.936800  0.332700  1.0  -0.6999
  O  O122  1  0.630100  0.880400  0.194500  1.0  -0.7608
  O  O123  1  0.593400  0.910700  0.364800  1.0  -0.7355
  O  O124  1  0.574200  0.116300  0.670300  1.0  -0.7515
  O  O125  1  0.691200  0.190500  0.701400  1.0  -0.65
  O  O126  1  0.583200  0.147400  0.833700  1.0  -0.7771
  O  O127  1  0.036100  0.823900  0.162700  1.0  -0.6213
  O  O128  1  0.970000  0.151900  0.829700  1.0  -0.6736
  O  O129  1  0.078300  0.104800  0.695300  1.0  -0.7947
  O  O130  1  0.914500  0.928700  0.363300  1.0  -0.734
  O  O131  1  0.252400  0.049700  0.668400  1.0  -0.6836
  O  O132  1  0.302100  0.779600  0.368100  1.0  -0.6344
  O  O133  1  0.284400  0.063200  0.832700  1.0  -0.7012
  O  O134  1  0.369900  0.119600  0.694500  1.0  -0.7588
  O  O135  1  0.406600  0.089300  0.864800  1.0  -0.7377
  O  O136  1  0.425800  0.883700  0.170300  1.0  -0.7523
  O  O137  1  0.308800  0.809500  0.201400  1.0  -0.6513
  O  O138  1  0.416800  0.852600  0.333700  1.0  -0.778
  O  O139  1  0.963900  0.176100  0.662700  1.0  -0.62
  O  O140  1  0.030000  0.848100  0.329700  1.0  -0.6745
  O  O141  1  0.421700  0.604800  0.195300  1.0  -0.7956
  O  O142  1  0.585500  0.428700  0.863300  1.0  -0.7342
  O  O143  1  0.247600  0.549700  0.168400  1.0  -0.6814
  O  O144  1  0.197900  0.279600  0.868100  1.0  -0.6341
  O  O145  1  0.215600  0.563200  0.332700  1.0  -0.7009
  O  O146  1  0.130100  0.619600  0.194500  1.0  -0.7601
  O  O147  1  0.093400  0.589300  0.364800  1.0  -0.7357
  O  O148  1  0.074200  0.383700  0.670300  1.0  -0.7516
  O  O149  1  0.191200  0.309500  0.701400  1.0  -0.6508
  O  O150  1  0.083200  0.352600  0.833700  1.0  -0.7772
  O  O151  1  0.536100  0.676100  0.162700  1.0  -0.6209
  O  O152  1  0.470000  0.348100  0.829700  1.0  -0.6748
  O  O153  1  0.578300  0.395200  0.695300  1.0  -0.7959
  O  O154  1  0.414500  0.571300  0.363300  1.0  -0.7332
  O  O155  1  0.752400  0.450300  0.668400  1.0  -0.6831
  O  O156  1  0.802100  0.720400  0.368100  1.0  -0.6328
  O  O157  1  0.784400  0.436800  0.832700  1.0  -0.7002
  O  O158  1  0.869900  0.380400  0.694500  1.0  -0.7597
  O  O159  1  0.906600  0.410700  0.864800  1.0  -0.7376
  O  O160  1  0.925800  0.616300  0.170300  1.0  -0.7522
  O  O161  1  0.808800  0.690500  0.201400  1.0  -0.6502
  O  O162  1  0.916800  0.647400  0.333700  1.0  -0.7777
  O  O163  1  0.463900  0.323900  0.662700  1.0  -0.6211
  O  O164  1  0.530000  0.651900  0.329700  1.0  -0.6735
