# generated using pymatgen
data_Er2H6C18(SO4)3
_symmetry_space_group_name_H-M   'P 1'
_cell_length_a   17.40950000
_cell_length_b   10.11980000
_cell_length_c   17.54700000
_cell_angle_alpha   90.00000000
_cell_angle_beta   90.00000000
_cell_angle_gamma   90.00000000
_symmetry_Int_Tables_number   1
_chemical_formula_structural   Er2H6C18(SO4)3
_chemical_formula_sum   'Er8 H24 C72 S12 O48'
_cell_volume   3091.44200768
_cell_formula_units_Z   4
loop_
 _symmetry_equiv_pos_site_id
 _symmetry_equiv_pos_as_xyz
  1  'x, y, z'
loop_
 _atom_site_type_symbol
 _atom_site_label
 _atom_site_symmetry_multiplicity
 _atom_site_fract_x
 _atom_site_fract_y
 _atom_site_fract_z
 _atom_site_occupancy
 _atom_site_charge
  Er  Er1  1  0.821470  0.879870  0.272630  1.0  1.5559
  Er  Er2  1  0.520920  0.841130  0.258390  1.0  1.5368
  Er  Er3  1  0.178530  0.120130  0.772630  1.0  1.557
  Er  Er4  1  0.479080  0.158870  0.758390  1.0  1.5365
  Er  Er5  1  0.321470  0.620130  0.272630  1.0  1.5609
  Er  Er6  1  0.020920  0.658870  0.258390  1.0  1.5365
  Er  Er7  1  0.678540  0.379870  0.772630  1.0  1.5604
  Er  Er8  1  0.979080  0.341130  0.758390  1.0  1.5368
  H  H9  1  0.793700  0.034700  0.451500  1.0  0.1374
  H  H10  1  0.550000  0.875400  0.063400  1.0  0.1376
  H  H11  1  0.532400  0.977100  0.938100  1.0  0.1359
  H  H12  1  0.858100  0.023300  0.078000  1.0  0.1442
  H  H13  1  0.787800  0.126800  0.579000  1.0  0.1334
  H  H14  1  0.874900  0.116600  0.951100  1.0  0.1386
  H  H15  1  0.206300  0.965300  0.951500  1.0  0.1377
  H  H16  1  0.450000  0.124600  0.563400  1.0  0.1375
  H  H17  1  0.467600  0.022900  0.438100  1.0  0.1364
  H  H18  1  0.141900  0.976700  0.578000  1.0  0.1443
  H  H19  1  0.212200  0.873200  0.079000  1.0  0.1335
  H  H20  1  0.125100  0.883400  0.451100  1.0  0.1383
  H  H21  1  0.293700  0.465300  0.451500  1.0  0.1375
  H  H22  1  0.050000  0.624600  0.063400  1.0  0.1376
  H  H23  1  0.032400  0.522900  0.938100  1.0  0.1365
  H  H24  1  0.358100  0.476700  0.078000  1.0  0.1442
  H  H25  1  0.287800  0.373200  0.579000  1.0  0.1334
  H  H26  1  0.374900  0.383400  0.951100  1.0  0.1383
  H  H27  1  0.706300  0.534700  0.951500  1.0  0.1378
  H  H28  1  0.950000  0.375400  0.563400  1.0  0.138
  H  H29  1  0.967600  0.477100  0.438100  1.0  0.1359
  H  H30  1  0.641900  0.523300  0.578000  1.0  0.1439
  H  H31  1  0.712200  0.626800  0.079000  1.0  0.1335
  H  H32  1  0.625100  0.616600  0.451100  1.0  0.1384
  C  C33  1  0.679600  0.932200  0.152000  1.0  0.8243
  C  C34  1  0.661000  0.938300  0.377900  1.0  0.8055
  C  C35  1  0.680000  0.994300  0.454600  1.0  -0.1902
  C  C36  1  0.748700  0.039100  0.480100  1.0  -0.0235
  C  C37  1  0.651400  0.974600  0.076200  1.0  -0.1675
  C  C38  1  0.638900  0.154300  0.878900  1.0  0.818
  C  C39  1  0.644700  0.133400  0.657700  1.0  0.7868
  C  C40  1  0.584600  0.934300  0.041600  1.0  -0.0259
  C  C41  1  0.967200  0.954700  0.076000  1.0  -0.1912
  C  C42  1  0.574600  0.992700  0.969200  1.0  -0.0337
  C  C43  1  0.632900  0.073300  0.950400  1.0  -0.1691
  C  C44  1  0.977500  0.888900  0.149600  1.0  0.8042
  C  C45  1  0.903500  0.017000  0.050300  1.0  -0.0175
  C  C46  1  0.673800  0.088300  0.583300  1.0  -0.1974
  C  C47  1  0.745500  0.092400  0.553500  1.0  -0.0232
  C  C48  1  0.983800  0.050300  0.948800  1.0  -0.1703
  C  C49  1  0.913300  0.071200  0.977100  1.0  -0.0193
  C  C50  1  0.016700  0.095200  0.874700  1.0  0.8009
  C  C51  1  0.320400  0.067800  0.652000  1.0  0.8249
  C  C52  1  0.339000  0.061700  0.877900  1.0  0.8058
  C  C53  1  0.320000  0.005700  0.954600  1.0  -0.1883
  C  C54  1  0.251300  0.960900  0.980100  1.0  -0.0236
  C  C55  1  0.348600  0.025400  0.576200  1.0  -0.1669
  C  C56  1  0.361100  0.845700  0.378900  1.0  0.8176
  C  C57  1  0.355300  0.866600  0.157700  1.0  0.7848
  C  C58  1  0.415400  0.065700  0.541600  1.0  -0.0261
  C  C59  1  0.032800  0.045300  0.576000  1.0  -0.1915
  C  C60  1  0.425400  0.007300  0.469200  1.0  -0.0341
  C  C61  1  0.367100  0.926700  0.450400  1.0  -0.1687
  C  C62  1  0.022500  0.111100  0.649600  1.0  0.804
  C  C63  1  0.096500  0.983000  0.550300  1.0  -0.0181
  C  C64  1  0.326200  0.911700  0.083300  1.0  -0.196
  C  C65  1  0.254500  0.907600  0.053500  1.0  -0.0234
  C  C66  1  0.016200  0.949700  0.448800  1.0  -0.1718
  C  C67  1  0.086700  0.928800  0.477100  1.0  -0.0202
  C  C68  1  0.983300  0.904800  0.374700  1.0  0.8027
  C  C69  1  0.179600  0.567800  0.152000  1.0  0.8248
  C  C70  1  0.161000  0.561700  0.377900  1.0  0.8061
  C  C71  1  0.180000  0.505700  0.454600  1.0  -0.1899
  C  C72  1  0.248700  0.460900  0.480100  1.0  -0.0233
  C  C73  1  0.151400  0.525400  0.076200  1.0  -0.1668
  C  C74  1  0.138900  0.345700  0.878900  1.0  0.8101
  C  C75  1  0.144700  0.366600  0.657700  1.0  0.7868
  C  C76  1  0.084600  0.565700  0.041600  1.0  -0.0267
  C  C77  1  0.467200  0.545300  0.076000  1.0  -0.1898
  C  C78  1  0.074600  0.507300  0.969200  1.0  -0.0339
  C  C79  1  0.132900  0.426700  0.950400  1.0  -0.1691
  C  C80  1  0.477500  0.611100  0.149600  1.0  0.8044
  C  C81  1  0.403500  0.483000  0.050300  1.0  -0.017
  C  C82  1  0.173800  0.411700  0.583300  1.0  -0.1968
  C  C83  1  0.245500  0.407600  0.553500  1.0  -0.0234
  C  C84  1  0.483800  0.449700  0.948800  1.0  -0.1705
  C  C85  1  0.413300  0.428800  0.977100  1.0  -0.0195
  C  C86  1  0.516700  0.404800  0.874700  1.0  0.8012
  C  C87  1  0.820400  0.432200  0.652000  1.0  0.8235
  C  C88  1  0.839000  0.438300  0.877900  1.0  0.8052
  C  C89  1  0.820000  0.494300  0.954600  1.0  -0.1884
  C  C90  1  0.751300  0.539100  0.980100  1.0  -0.0235
  C  C91  1  0.848600  0.474600  0.576200  1.0  -0.167
  C  C92  1  0.861100  0.654300  0.378900  1.0  0.8108
  C  C93  1  0.855300  0.633400  0.157700  1.0  0.7851
  C  C94  1  0.915400  0.434300  0.541600  1.0  -0.0254
  C  C95  1  0.532800  0.454700  0.576000  1.0  -0.192
  C  C96  1  0.925400  0.492700  0.469200  1.0  -0.0341
  C  C97  1  0.867100  0.573300  0.450400  1.0  -0.1683
  C  C98  1  0.522500  0.388900  0.649600  1.0  0.804
  C  C99  1  0.596500  0.517000  0.550300  1.0  -0.0182
  C  C100  1  0.826200  0.588300  0.083300  1.0  -0.1965
  C  C101  1  0.754500  0.592400  0.053500  1.0  -0.0235
  C  C102  1  0.516200  0.550300  0.448800  1.0  -0.1719
  C  C103  1  0.586700  0.571200  0.477100  1.0  -0.0196
  C  C104  1  0.483300  0.595200  0.374700  1.0  0.8023
  S  S105  1  0.702510  0.078900  0.018990  1.0  0.2067
  S  S106  1  0.609970  0.015700  0.521580  1.0  0.1925
  S  S107  1  0.040560  0.962300  0.010850  1.0  0.19
  S  S108  1  0.297490  0.921100  0.518990  1.0  0.2093
  S  S109  1  0.390030  0.984300  0.021580  1.0  0.1911
  S  S110  1  0.959440  0.037700  0.510850  1.0  0.1924
  S  S111  1  0.202510  0.421100  0.018990  1.0  0.2065
  S  S112  1  0.109970  0.484300  0.521580  1.0  0.1925
  S  S113  1  0.540560  0.537700  0.010850  1.0  0.1899
  S  S114  1  0.797490  0.578900  0.518990  1.0  0.2091
  S  S115  1  0.890030  0.515700  0.021580  1.0  0.1916
  S  S116  1  0.459440  0.462300  0.510850  1.0  0.1922
  O  O117  1  0.921000  0.895100  0.195500  1.0  -0.748
  O  O118  1  0.085500  0.072300  0.862800  1.0  -0.6775
  O  O119  1  0.747800  0.949000  0.168700  1.0  -0.6382
  O  O120  1  0.697600  0.220100  0.868400  1.0  -0.5895
  O  O121  1  0.715900  0.937200  0.332500  1.0  -0.6647
  O  O122  1  0.629800  0.879700  0.195600  1.0  -0.739
  O  O123  1  0.592900  0.911900  0.364600  1.0  -0.6767
  O  O124  1  0.574100  0.115500  0.670300  1.0  -0.7248
  O  O125  1  0.691600  0.190700  0.701400  1.0  -0.6233
  O  O126  1  0.583700  0.147200  0.833400  1.0  -0.769
  O  O127  1  0.036400  0.823900  0.163000  1.0  -0.6013
  O  O128  1  0.970600  0.153200  0.829500  1.0  -0.6693
  O  O129  1  0.079000  0.104900  0.695500  1.0  -0.7462
  O  O130  1  0.914500  0.927700  0.362800  1.0  -0.676
  O  O131  1  0.252200  0.051000  0.668700  1.0  -0.6382
  O  O132  1  0.302400  0.779900  0.368400  1.0  -0.5903
  O  O133  1  0.284100  0.062800  0.832500  1.0  -0.6664
  O  O134  1  0.370200  0.120300  0.695600  1.0  -0.7376
  O  O135  1  0.407100  0.088100  0.864600  1.0  -0.6773
  O  O136  1  0.425900  0.884500  0.170300  1.0  -0.7258
  O  O137  1  0.308400  0.809300  0.201400  1.0  -0.6247
  O  O138  1  0.416300  0.852800  0.333400  1.0  -0.7683
  O  O139  1  0.963600  0.176100  0.663000  1.0  -0.5988
  O  O140  1  0.029400  0.846800  0.329500  1.0  -0.6694
  O  O141  1  0.421000  0.604900  0.195500  1.0  -0.7475
  O  O142  1  0.585500  0.427700  0.862800  1.0  -0.6775
  O  O143  1  0.247800  0.551000  0.168700  1.0  -0.6397
  O  O144  1  0.197600  0.279900  0.868400  1.0  -0.5896
  O  O145  1  0.215900  0.562800  0.332500  1.0  -0.6655
  O  O146  1  0.129800  0.620300  0.195600  1.0  -0.7404
  O  O147  1  0.092900  0.588100  0.364600  1.0  -0.6783
  O  O148  1  0.074100  0.384500  0.670300  1.0  -0.7249
  O  O149  1  0.191600  0.309300  0.701400  1.0  -0.6243
  O  O150  1  0.083700  0.352800  0.833400  1.0  -0.7683
  O  O151  1  0.536400  0.676100  0.163000  1.0  -0.5998
  O  O152  1  0.470600  0.346800  0.829500  1.0  -0.6707
  O  O153  1  0.579000  0.395100  0.695500  1.0  -0.7469
  O  O154  1  0.414500  0.572300  0.362800  1.0  -0.6763
  O  O155  1  0.752200  0.449000  0.668700  1.0  -0.6374
  O  O156  1  0.802400  0.720100  0.368400  1.0  -0.5891
  O  O157  1  0.784100  0.437200  0.832500  1.0  -0.6656
  O  O158  1  0.870200  0.379700  0.695600  1.0  -0.7399
  O  O159  1  0.907100  0.411900  0.864600  1.0  -0.6776
  O  O160  1  0.925900  0.615500  0.170300  1.0  -0.7256
  O  O161  1  0.808400  0.690700  0.201400  1.0  -0.6232
  O  O162  1  0.916300  0.647200  0.333400  1.0  -0.7687
  O  O163  1  0.463600  0.323900  0.663000  1.0  -0.5998
  O  O164  1  0.529400  0.653200  0.329500  1.0  -0.6687
