# generated using pymatgen
data_Cu3H76C72(N19O3)2
_symmetry_space_group_name_H-M   'P 1'
_cell_length_a   19.12990000
_cell_length_b   19.12990000
_cell_length_c   19.12990000
_cell_angle_alpha   105.85200000
_cell_angle_beta   105.85200000
_cell_angle_gamma   116.98100000
_symmetry_Int_Tables_number   1
_chemical_formula_structural   Cu3H76C72(N19O3)2
_chemical_formula_sum   'Cu6 H152 C144 N76 O12'
_cell_volume   5318.79725811
_cell_formula_units_Z   2
loop_
 _symmetry_equiv_pos_site_id
 _symmetry_equiv_pos_as_xyz
  1  'x, y, z'
loop_
 _atom_site_type_symbol
 _atom_site_label
 _atom_site_symmetry_multiplicity
 _atom_site_fract_x
 _atom_site_fract_y
 _atom_site_fract_z
 _atom_site_occupancy
 _atom_site_charge
  Cu  Cu1  1  0.517850  0.258150  0.776000  1.0  0.6248
  Cu  Cu2  1  0.482150  0.741850  0.224000  1.0  0.626
  Cu  Cu3  1  0.741850  0.517850  0.259700  1.0  0.619
  Cu  Cu4  1  0.258150  0.482150  0.740300  1.0  0.6167
  Cu  Cu5  1  0.841660  0.841660  0.000000  1.0  0.5305
  Cu  Cu6  1  0.158340  0.158340  0.000000  1.0  0.5303
  H  H7  1  0.794400  0.941900  0.906100  1.0  0.1054
  H  H8  1  0.432500  0.050400  0.964500  1.0  0.0745
  H  H9  1  0.534900  0.119200  0.021900  1.0  0.0896
  H  H10  1  0.709300  0.008400  0.867100  1.0  0.0922
  H  H11  1  0.742600  0.081700  0.953700  1.0  0.1024
  H  H12  1  0.734700  0.899400  0.074500  1.0  0.0898
  H  H13  1  0.327100  0.931100  0.772200  1.0  0.117
  H  H14  1  0.338800  0.958200  0.861800  1.0  0.1156
  H  H15  1  0.302200  0.860600  0.804400  1.0  0.1176
  H  H16  1  0.723800  0.140200  0.022200  1.0  0.1096
  H  H17  1  0.660700  0.145600  0.057900  1.0  0.1096
  H  H18  1  0.675700  0.183800  0.996500  1.0  0.1215
  H  H19  1  0.391400  0.785700  0.689900  1.0  0.0979
  H  H20  1  0.324600  0.802800  0.710200  1.0  0.1054
  H  H21  1  0.307900  0.620400  0.670900  1.0  0.0604
  H  H22  1  0.506900  0.784800  0.762100  1.0  0.1091
  H  H23  1  0.609000  0.856300  0.817100  1.0  0.1024
  H  H24  1  0.559600  0.853000  0.734800  1.0  0.1256
  H  H25  1  0.331200  0.658600  0.881400  1.0  0.0958
  H  H26  1  0.035800  0.888300  0.093900  1.0  0.108
  H  H27  1  0.085900  0.468000  0.035500  1.0  0.0771
  H  H28  1  0.097300  0.513000  0.978100  1.0  0.0926
  H  H29  1  0.141300  0.842200  0.132900  1.0  0.0923
  H  H30  1  0.128000  0.788900  0.046300  1.0  0.105
  H  H31  1  0.824900  0.660200  0.925500  1.0  0.0908
  H  H32  1  0.158900  0.554900  0.227800  1.0  0.1139
  H  H33  1  0.096400  0.477000  0.138200  1.0  0.1184
  H  H34  1  0.056200  0.497800  0.195600  1.0  0.1186
  H  H35  1  0.118000  0.701600  0.977800  1.0  0.1069
  H  H36  1  0.087700  0.602800  0.942100  1.0  0.1132
  H  H37  1  0.187300  0.679200  0.003500  1.0  0.1226
  H  H38  1  0.095800  0.701500  0.310100  1.0  0.0986
  H  H39  1  0.092600  0.614400  0.289800  1.0  0.1048
  H  H40  1  0.949500  0.637000  0.329100  1.0  0.0582
  H  H41  1  0.022700  0.744800  0.237900  1.0  0.109
  H  H42  1  0.039200  0.791900  0.182900  1.0  0.1023
  H  H43  1  0.118200  0.824800  0.265200  1.0  0.1306
  H  H44  1  0.777200  0.449800  0.118600  1.0  0.0945
  H  H45  1  0.888300  0.794400  0.852500  1.0  0.1069
  H  H46  1  0.468000  0.432500  0.382100  1.0  0.0752
  H  H47  1  0.513000  0.534900  0.415700  1.0  0.092
  H  H48  1  0.842200  0.709300  0.700900  1.0  0.0917
  H  H49  1  0.788900  0.742600  0.660900  1.0  0.1028
  H  H50  1  0.660200  0.734700  0.835300  1.0  0.0897
  H  H51  1  0.554900  0.327100  0.396000  1.0  0.1182
  H  H52  1  0.477000  0.338800  0.380600  1.0  0.116
  H  H53  1  0.497800  0.302200  0.441600  1.0  0.1163
  H  H54  1  0.701600  0.723800  0.583600  1.0  0.1066
  H  H55  1  0.602800  0.660700  0.515100  1.0  0.1124
  H  H56  1  0.679200  0.675700  0.491900  1.0  0.1211
  H  H57  1  0.701500  0.391400  0.605700  1.0  0.0986
  H  H58  1  0.614400  0.324600  0.521800  1.0  0.1048
  H  H59  1  0.637000  0.307900  0.687500  1.0  0.0621
  H  H60  1  0.744800  0.506900  0.722100  1.0  0.1094
  H  H61  1  0.791900  0.609000  0.752700  1.0  0.1014
  H  H62  1  0.824800  0.559600  0.706600  1.0  0.1307
  H  H63  1  0.449800  0.331200  0.672600  1.0  0.0905
  H  H64  1  0.941900  0.035800  0.147500  1.0  0.1071
  H  H65  1  0.050400  0.085900  0.617900  1.0  0.0768
  H  H66  1  0.119200  0.097300  0.584300  1.0  0.0913
  H  H67  1  0.008400  0.141300  0.299100  1.0  0.0934
  H  H68  1  0.081700  0.128000  0.339100  1.0  0.1021
  H  H69  1  0.899400  0.824900  0.164700  1.0  0.0918
  H  H70  1  0.931100  0.158900  0.604000  1.0  0.1181
  H  H71  1  0.958200  0.096400  0.619400  1.0  0.1166
  H  H72  1  0.860600  0.056200  0.558400  1.0  0.1161
  H  H73  1  0.140200  0.118000  0.416400  1.0  0.1096
  H  H74  1  0.145600  0.087700  0.484900  1.0  0.1115
  H  H75  1  0.183800  0.187300  0.508100  1.0  0.121
  H  H76  1  0.785700  0.095800  0.394300  1.0  0.0987
  H  H77  1  0.802800  0.092600  0.478200  1.0  0.1054
  H  H78  1  0.620400  0.949500  0.312500  1.0  0.0609
  H  H79  1  0.784800  0.022700  0.277900  1.0  0.1111
  H  H80  1  0.856300  0.039200  0.247300  1.0  0.102
  H  H81  1  0.853000  0.118200  0.293400  1.0  0.1274
  H  H82  1  0.658600  0.777200  0.327400  1.0  0.0948
  H  H83  1  0.205600  0.058100  0.093900  1.0  0.1049
  H  H84  1  0.567500  0.949600  0.035500  1.0  0.074
  H  H85  1  0.465100  0.880800  0.978100  1.0  0.0907
  H  H86  1  0.290700  0.991600  0.132900  1.0  0.0917
  H  H87  1  0.257400  0.918300  0.046300  1.0  0.1023
  H  H88  1  0.265300  0.100600  0.925500  1.0  0.0905
  H  H89  1  0.672900  0.068900  0.227800  1.0  0.1136
  H  H90  1  0.661200  0.041800  0.138200  1.0  0.1166
  H  H91  1  0.697800  0.139400  0.195600  1.0  0.1164
  H  H92  1  0.276200  0.859800  0.977800  1.0  0.1076
  H  H93  1  0.339300  0.854400  0.942100  1.0  0.11
  H  H94  1  0.324300  0.816200  0.003500  1.0  0.123
  H  H95  1  0.608600  0.214300  0.310100  1.0  0.0975
  H  H96  1  0.675400  0.197200  0.289800  1.0  0.1057
  H  H97  1  0.692100  0.379600  0.329100  1.0  0.0603
  H  H98  1  0.493100  0.215200  0.237900  1.0  0.1104
  H  H99  1  0.391000  0.143700  0.182900  1.0  0.1011
  H  H100  1  0.440400  0.147000  0.265200  1.0  0.1269
  H  H101  1  0.668800  0.341400  0.118600  1.0  0.0966
  H  H102  1  0.964200  0.111700  0.906100  1.0  0.1085
  H  H103  1  0.914100  0.532000  0.964500  1.0  0.0769
  H  H104  1  0.902700  0.487000  0.021900  1.0  0.0931
  H  H105  1  0.858700  0.157800  0.867100  1.0  0.0929
  H  H106  1  0.872000  0.211100  0.953700  1.0  0.1035
  H  H107  1  0.175100  0.339800  0.074500  1.0  0.0911
  H  H108  1  0.841100  0.445100  0.772200  1.0  0.1148
  H  H109  1  0.903600  0.523000  0.861800  1.0  0.1175
  H  H110  1  0.943800  0.502200  0.804400  1.0  0.1191
  H  H111  1  0.882000  0.298400  0.022200  1.0  0.1071
  H  H112  1  0.912300  0.397200  0.057900  1.0  0.1134
  H  H113  1  0.812700  0.320800  0.996500  1.0  0.1234
  H  H114  1  0.904200  0.298500  0.689900  1.0  0.0996
  H  H115  1  0.907400  0.385600  0.710200  1.0  0.1039
  H  H116  1  0.050500  0.363000  0.670900  1.0  0.0567
  H  H117  1  0.977300  0.255200  0.762100  1.0  0.1099
  H  H118  1  0.960800  0.208100  0.817100  1.0  0.1018
  H  H119  1  0.881800  0.175200  0.734800  1.0  0.1305
  H  H120  1  0.222800  0.550200  0.881400  1.0  0.0948
  H  H121  1  0.111700  0.205600  0.147500  1.0  0.1067
  H  H122  1  0.532000  0.567500  0.617900  1.0  0.0753
  H  H123  1  0.487000  0.465100  0.584300  1.0  0.0921
  H  H124  1  0.157800  0.290700  0.299100  1.0  0.0929
  H  H125  1  0.211100  0.257400  0.339100  1.0  0.103
  H  H126  1  0.339800  0.265300  0.164700  1.0  0.0896
  H  H127  1  0.445100  0.672900  0.604000  1.0  0.1152
  H  H128  1  0.523000  0.661200  0.619400  1.0  0.1171
  H  H129  1  0.502200  0.697800  0.558400  1.0  0.1175
  H  H130  1  0.298400  0.276200  0.416400  1.0  0.1078
  H  H131  1  0.397200  0.339300  0.484900  1.0  0.1138
  H  H132  1  0.320800  0.324300  0.508100  1.0  0.121
  H  H133  1  0.298500  0.608600  0.394300  1.0  0.0982
  H  H134  1  0.385600  0.675400  0.478200  1.0  0.1039
  H  H135  1  0.363000  0.692100  0.312500  1.0  0.0633
  H  H136  1  0.255200  0.493100  0.277900  1.0  0.1104
  H  H137  1  0.208100  0.391000  0.247300  1.0  0.102
  H  H138  1  0.175200  0.440400  0.293400  1.0  0.1287
  H  H139  1  0.550200  0.668800  0.327400  1.0  0.0911
  H  H140  1  0.058100  0.964200  0.852500  1.0  0.1073
  H  H141  1  0.949600  0.914100  0.382100  1.0  0.0769
  H  H142  1  0.880800  0.902700  0.415700  1.0  0.0921
  H  H143  1  0.991600  0.858700  0.700900  1.0  0.094
  H  H144  1  0.918300  0.872000  0.660900  1.0  0.1009
  H  H145  1  0.100600  0.175100  0.835300  1.0  0.0924
  H  H146  1  0.068900  0.841100  0.396000  1.0  0.1172
  H  H147  1  0.041800  0.903600  0.380600  1.0  0.1166
  H  H148  1  0.139400  0.943800  0.441600  1.0  0.1174
  H  H149  1  0.859800  0.882000  0.583600  1.0  0.1086
  H  H150  1  0.854400  0.912300  0.515100  1.0  0.1121
  H  H151  1  0.816200  0.812700  0.491900  1.0  0.1199
  H  H152  1  0.214300  0.904200  0.605700  1.0  0.0969
  H  H153  1  0.197200  0.907400  0.521800  1.0  0.1058
  H  H154  1  0.379600  0.050500  0.687500  1.0  0.0617
  H  H155  1  0.215200  0.977300  0.722100  1.0  0.1108
  H  H156  1  0.143700  0.960800  0.752700  1.0  0.1022
  H  H157  1  0.147000  0.881800  0.706600  1.0  0.1266
  H  H158  1  0.341400  0.222800  0.672600  1.0  0.0949
  C  C159  1  0.593330  0.048930  0.939440  1.0  0.0545
  C  C160  1  0.505810  0.024140  0.916570  1.0  -0.14
  C  C161  1  0.608460  0.991720  0.894140  1.0  -0.0386
  C  C162  1  0.434710  0.945060  0.849210  1.0  0.0999
  C  C163  1  0.771870  0.939510  0.943360  1.0  0.1589
  C  C164  1  0.489100  0.084770  0.965410  1.0  -0.054
  C  C165  1  0.450810  0.887130  0.804960  1.0  -0.0008
  C  C166  1  0.701960  0.018740  0.916360  1.0  -0.063
  C  C167  1  0.738730  0.917190  0.034360  1.0  0.3102
  C  C168  1  0.507130  0.156530  0.871400  1.0  0.1735
  C  C169  1  0.342440  0.921640  0.819200  1.0  -0.3539
  C  C170  1  0.670380  0.137670  0.010470  1.0  -0.3544
  C  C171  1  0.536280  0.909660  0.827740  1.0  -0.0019
  C  C172  1  0.374580  0.799850  0.732470  1.0  -0.0742
  C  C173  1  0.317120  0.647050  0.724090  1.0  0.1369
  C  C174  1  0.554720  0.844700  0.780940  1.0  -0.3349
  C  C175  1  0.479250  0.245740  0.915770  1.0  0.1236
  C  C176  1  0.330470  0.668580  0.836310  1.0  0.2287
  C  C177  1  0.109490  0.653890  0.060560  1.0  0.0545
  C  C178  1  0.107570  0.589240  0.083430  1.0  -0.1406
  C  C179  1  0.097580  0.714320  0.105860  1.0  -0.0345
  C  C180  1  0.095850  0.585500  0.150790  1.0  0.1037
  C  C181  1  0.996150  0.828510  0.056640  1.0  0.1578
  C  C182  1  0.119360  0.523690  0.034590  1.0  -0.0472
  C  C183  1  0.082170  0.645850  0.195040  1.0  0.0004
  C  C184  1  0.102380  0.785600  0.083640  1.0  -0.0616
  C  C185  1  0.882830  0.704370  0.965640  1.0  0.308
  C  C186  1  0.285130  0.635730  0.128600  1.0  0.1769
  C  C187  1  0.102440  0.523240  0.180800  1.0  -0.3537
  C  C188  1  0.127200  0.659910  0.989530  1.0  -0.3568
  C  C189  1  0.081920  0.708540  0.172260  1.0  0.0002
  C  C190  1  0.067380  0.642110  0.267530  1.0  -0.0777
  C  C191  1  0.922960  0.593030  0.275910  1.0  0.1398
  C  C192  1  0.063760  0.773780  0.219060  1.0  -0.3348
  C  C193  1  0.329970  0.563480  0.084230  1.0  0.1204
  C  C194  1  0.832270  0.494160  0.163690  1.0  0.2238
  C  C195  1  0.653890  0.593330  0.544400  1.0  0.0544
  C  C196  1  0.589240  0.505810  0.481670  1.0  -0.1397
  C  C197  1  0.714320  0.608460  0.616740  1.0  -0.0363
  C  C198  1  0.585500  0.434710  0.489650  1.0  0.1031
  C  C199  1  0.828510  0.771870  0.832360  1.0  0.16
  C  C200  1  0.523690  0.489100  0.404330  1.0  -0.0526
  C  C201  1  0.645850  0.450810  0.563680  1.0  0.0031
  C  C202  1  0.785600  0.701960  0.683220  1.0  -0.0632
  C  C203  1  0.704370  0.738730  0.821540  1.0  0.3124
  C  C204  1  0.635730  0.507130  0.350600  1.0  0.1813
  C  C205  1  0.523240  0.342440  0.420800  1.0  -0.3521
  C  C206  1  0.659910  0.670380  0.532710  1.0  -0.3565
  C  C207  1  0.708540  0.536280  0.626620  1.0  0.0013
  C  C208  1  0.642110  0.374580  0.574730  1.0  -0.0765
  C  C209  1  0.593030  0.317120  0.670070  1.0  0.1367
  C  C210  1  0.773780  0.554720  0.710020  1.0  -0.3355
  C  C211  1  0.563480  0.479250  0.233510  1.0  0.1232
  C  C212  1  0.494160  0.330470  0.661890  1.0  0.2266
  C  C213  1  0.048930  0.109490  0.455600  1.0  0.0525
  C  C214  1  0.024140  0.107570  0.518330  1.0  -0.1361
  C  C215  1  0.991720  0.097580  0.383260  1.0  -0.0362
  C  C216  1  0.945060  0.095850  0.510350  1.0  0.1017
  C  C217  1  0.939510  0.996150  0.167640  1.0  0.1595
  C  C218  1  0.084770  0.119360  0.595670  1.0  -0.0466
  C  C219  1  0.887130  0.082170  0.436320  1.0  1e-04
  C  C220  1  0.018740  0.102380  0.316780  1.0  -0.0646
  C  C221  1  0.917190  0.882830  0.178460  1.0  0.308
  C  C222  1  0.156530  0.285130  0.649400  1.0  0.1813
  C  C223  1  0.921640  0.102440  0.579200  1.0  -0.3565
  C  C224  1  0.137670  0.127200  0.467290  1.0  -0.3543
  C  C225  1  0.909660  0.081920  0.373380  1.0  -0.0014
  C  C226  1  0.799850  0.067380  0.425270  1.0  -0.0785
  C  C227  1  0.647050  0.922960  0.329930  1.0  0.1364
  C  C228  1  0.844700  0.063760  0.289980  1.0  -0.3335
  C  C229  1  0.245740  0.329970  0.766490  1.0  0.1265
  C  C230  1  0.668580  0.832270  0.338110  1.0  0.2231
  C  C231  1  0.406670  0.951070  0.060560  1.0  0.0564
  C  C232  1  0.494190  0.975860  0.083430  1.0  -0.1375
  C  C233  1  0.391540  0.008280  0.105860  1.0  -0.0356
  C  C234  1  0.565290  0.054940  0.150790  1.0  0.1033
  C  C235  1  0.228130  0.060490  0.056640  1.0  0.1579
  C  C236  1  0.510900  0.915230  0.034590  1.0  -0.0514
  C  C237  1  0.549190  0.112870  0.195040  1.0  0.0006
  C  C238  1  0.298040  0.981260  0.083640  1.0  -0.0644
  C  C239  1  0.261270  0.082810  0.965640  1.0  0.309
  C  C240  1  0.492870  0.843470  0.128600  1.0  0.1746
  C  C241  1  0.657560  0.078360  0.180800  1.0  -0.3561
  C  C242  1  0.329620  0.862330  0.989530  1.0  -0.3557
  C  C243  1  0.463720  0.090340  0.172260  1.0  0.0014
  C  C244  1  0.625420  0.200150  0.267530  1.0  -0.0771
  C  C245  1  0.682880  0.352950  0.275910  1.0  0.1368
  C  C246  1  0.445280  0.155300  0.219060  1.0  -0.3355
  C  C247  1  0.520750  0.754260  0.084230  1.0  0.1257
  C  C248  1  0.669530  0.331420  0.163690  1.0  0.2262
  C  C249  1  0.890510  0.346110  0.939440  1.0  0.0551
  C  C250  1  0.892430  0.410760  0.916570  1.0  -0.1377
  C  C251  1  0.902420  0.285680  0.894140  1.0  -0.0354
  C  C252  1  0.904150  0.414500  0.849210  1.0  0.1031
  C  C253  1  0.003850  0.171490  0.943360  1.0  0.1572
  C  C254  1  0.880640  0.476310  0.965410  1.0  -0.0459
  C  C255  1  0.917830  0.354150  0.804960  1.0  -0.001
  C  C256  1  0.897620  0.214400  0.916360  1.0  -0.0633
  C  C257  1  0.117170  0.295630  0.034360  1.0  0.3088
  C  C258  1  0.714870  0.364270  0.871400  1.0  0.1782
  C  C259  1  0.897560  0.476760  0.819200  1.0  -0.3528
  C  C260  1  0.872800  0.340090  0.010470  1.0  -0.3602
  C  C261  1  0.918080  0.291460  0.827740  1.0  -0.0005
  C  C262  1  0.932620  0.357890  0.732470  1.0  -0.0772
  C  C263  1  0.077040  0.406970  0.724090  1.0  0.1387
  C  C264  1  0.936240  0.226220  0.780940  1.0  -0.3354
  C  C265  1  0.670030  0.436520  0.915770  1.0  0.1184
  C  C266  1  0.167730  0.505840  0.836310  1.0  0.2238
  C  C267  1  0.346110  0.406670  0.455600  1.0  0.0552
  C  C268  1  0.410760  0.494190  0.518330  1.0  -0.1362
  C  C269  1  0.285680  0.391540  0.383260  1.0  -0.0347
  C  C270  1  0.414500  0.565290  0.510350  1.0  0.102
  C  C271  1  0.171490  0.228130  0.167640  1.0  0.159
  C  C272  1  0.476310  0.510900  0.595670  1.0  -0.0553
  C  C273  1  0.354150  0.549190  0.436320  1.0  -1e-04
  C  C274  1  0.214400  0.298040  0.316780  1.0  -0.0621
  C  C275  1  0.295630  0.261270  0.178460  1.0  0.3116
  C  C276  1  0.364270  0.492870  0.649400  1.0  0.1834
  C  C277  1  0.476760  0.657560  0.579200  1.0  -0.3516
  C  C278  1  0.340090  0.329620  0.467290  1.0  -0.3568
  C  C279  1  0.291460  0.463720  0.373380  1.0  -0.001
  C  C280  1  0.357890  0.625420  0.425270  1.0  -0.0765
  C  C281  1  0.406970  0.682880  0.329930  1.0  0.1372
  C  C282  1  0.226220  0.445280  0.289980  1.0  -0.3332
  C  C283  1  0.436520  0.520750  0.766490  1.0  0.1207
  C  C284  1  0.505840  0.669530  0.338110  1.0  0.2254
  C  C285  1  0.951070  0.890510  0.544400  1.0  0.0533
  C  C286  1  0.975860  0.892430  0.481670  1.0  -0.1378
  C  C287  1  0.008280  0.902420  0.616740  1.0  -0.0348
  C  C288  1  0.054940  0.904150  0.489650  1.0  0.1015
  C  C289  1  0.060490  0.003850  0.832360  1.0  0.16
  C  C290  1  0.915230  0.880640  0.404330  1.0  -0.0488
  C  C291  1  0.112870  0.917830  0.563680  1.0  0.0032
  C  C292  1  0.981260  0.897620  0.683220  1.0  -0.0643
  C  C293  1  0.082810  0.117170  0.821540  1.0  0.3079
  C  C294  1  0.843470  0.714870  0.350600  1.0  0.1779
  C  C295  1  0.078360  0.897560  0.420800  1.0  -0.3573
  C  C296  1  0.862330  0.872800  0.532710  1.0  -0.3549
  C  C297  1  0.090340  0.918080  0.626620  1.0  -0.0008
  C  C298  1  0.200150  0.932620  0.574730  1.0  -0.0789
  C  C299  1  0.352950  0.077040  0.670070  1.0  0.1369
  C  C300  1  0.155300  0.936240  0.710020  1.0  -0.3347
  C  C301  1  0.754260  0.670030  0.233510  1.0  0.1266
  C  C302  1  0.331420  0.167730  0.661890  1.0  0.2237
  N  N303  1  0.782180  0.903880  0.993260  1.0  -0.408
  N  N304  1  0.725050  0.970570  0.954860  1.0  0.1297
  N  N305  1  0.488560  0.145180  0.930080  1.0  0.1555
  N  N306  1  0.702290  0.957350  0.013320  1.0  -0.3755
  N  N307  1  0.500160  0.216680  0.859340  1.0  -0.3013
  N  N308  1  0.349130  0.728010  0.761180  1.0  0.0497
  N  N309  1  0.470150  0.201820  0.959090  1.0  -0.2948
  N  N310  1  0.361370  0.747820  0.839790  1.0  -0.3846
  N  N311  1  0.298720  0.605140  0.763020  1.0  -0.263
  N  N312  1  0.910620  0.788920  0.006740  1.0  -0.4088
  N  N313  1  0.015710  0.770190  0.045140  1.0  0.1274
  N  N314  1  0.215100  0.558480  0.069920  1.0  0.1517
  N  N315  1  0.944030  0.688970  0.986680  1.0  -0.3778
  N  N316  1  0.357340  0.640820  0.140660  1.0  -0.2993
  N  N317  1  0.966830  0.587950  0.238820  1.0  0.0508
  N  N318  1  0.242730  0.511060  0.040910  1.0  -0.3007
  N  N319  1  0.908030  0.521580  0.160210  1.0  -0.38
  N  N320  1  0.842120  0.535700  0.236980  1.0  -0.2673
  N  N321  1  0.788920  0.782180  0.878300  1.0  -0.411
  N  N322  1  0.770190  0.725050  0.754480  1.0  0.1287
  N  N323  1  0.558480  0.488560  0.343380  1.0  0.1561
  N  N324  1  0.688970  0.702290  0.744940  1.0  -0.3764
  N  N325  1  0.640820  0.500160  0.283480  1.0  -0.3033
  N  N326  1  0.587950  0.349130  0.621120  1.0  0.0477
  N  N327  1  0.511060  0.470150  0.268330  1.0  -0.2939
  N  N328  1  0.521580  0.361370  0.613550  1.0  -0.3796
  N  N329  1  0.535700  0.298720  0.693580  1.0  -0.2639
  N  N330  1  0.903880  0.910620  0.121700  1.0  -0.4092
  N  N331  1  0.970570  0.015710  0.245520  1.0  0.1281
  N  N332  1  0.145180  0.215100  0.656620  1.0  0.1566
  N  N333  1  0.957350  0.944030  0.255060  1.0  -0.3745
  N  N334  1  0.216680  0.357340  0.716520  1.0  -0.2976
  N  N335  1  0.728010  0.966830  0.378880  1.0  0.0482
  N  N336  1  0.201820  0.242730  0.731670  1.0  -0.2996
  N  N337  1  0.747820  0.908030  0.386450  1.0  -0.3816
  N  N338  1  0.605140  0.842120  0.306420  1.0  -0.2715
  N  N339  1  0.217820  0.096120  0.006740  1.0  -0.4113
  N  N340  1  0.274950  0.029430  0.045140  1.0  0.1289
  N  N341  1  0.511440  0.854820  0.069920  1.0  0.1537
  N  N342  1  0.297710  0.042650  0.986680  1.0  -0.3749
  N  N343  1  0.499840  0.783320  0.140660  1.0  -0.3009
  N  N344  1  0.650870  0.271990  0.238820  1.0  0.05
  N  N345  1  0.529850  0.798180  0.040910  1.0  -0.2942
  N  N346  1  0.638630  0.252180  0.160210  1.0  -0.3821
  N  N347  1  0.701280  0.394860  0.236980  1.0  -0.2633
  N  N348  1  0.089380  0.211080  0.993260  1.0  -0.4104
  N  N349  1  0.984290  0.229810  0.954860  1.0  0.1272
  N  N350  1  0.784900  0.441520  0.930080  1.0  0.1532
  N  N351  1  0.055970  0.311030  0.013320  1.0  -0.3771
  N  N352  1  0.642660  0.359180  0.859340  1.0  -0.2985
  N  N353  1  0.033170  0.412050  0.761180  1.0  0.0503
  N  N354  1  0.757270  0.488940  0.959090  1.0  -0.2953
  N  N355  1  0.091970  0.478420  0.839790  1.0  -0.3803
  N  N356  1  0.157880  0.464300  0.763020  1.0  -0.2702
  N  N357  1  0.211080  0.217820  0.121700  1.0  -0.4128
  N  N358  1  0.229810  0.274950  0.245520  1.0  0.1284
  N  N359  1  0.441520  0.511440  0.656620  1.0  0.1576
  N  N360  1  0.311030  0.297710  0.255060  1.0  -0.3764
  N  N361  1  0.359180  0.499840  0.716520  1.0  -0.3022
  N  N362  1  0.412050  0.650870  0.378880  1.0  0.0479
  N  N363  1  0.488940  0.529850  0.731670  1.0  -0.2955
  N  N364  1  0.478420  0.638630  0.386450  1.0  -0.3788
  N  N365  1  0.464300  0.701280  0.306420  1.0  -0.2657
  N  N366  1  0.096120  0.089380  0.878300  1.0  -0.4101
  N  N367  1  0.029430  0.984290  0.754480  1.0  0.1282
  N  N368  1  0.854820  0.784900  0.343380  1.0  0.1536
  N  N369  1  0.042650  0.055970  0.744940  1.0  -0.3734
  N  N370  1  0.783320  0.642660  0.283480  1.0  -0.2992
  N  N371  1  0.271990  0.033170  0.621120  1.0  0.0485
  N  N372  1  0.798180  0.757270  0.268330  1.0  -0.2938
  N  N373  1  0.252180  0.091970  0.613550  1.0  -0.3823
  N  N374  1  0.394860  0.157880  0.693580  1.0  -0.2733
  N  N375  1  0.940770  0.179540  0.120310  1.0  0.4949
  N  N376  1  0.059230  0.820460  0.879690  1.0  0.4952
  N  N377  1  0.820460  0.940770  0.761230  1.0  0.4965
  N  N378  1  0.179540  0.059230  0.238770  1.0  0.4959
  O  O379  1  0.943690  0.125400  0.069090  1.0  -0.5815
  O  O380  1  0.896350  0.204200  0.100550  1.0  -0.5143
  O  O381  1  0.988780  0.200330  0.189110  1.0  -0.5508
  O  O382  1  0.056310  0.874600  0.930910  1.0  -0.5807
  O  O383  1  0.103650  0.795800  0.899450  1.0  -0.5137
  O  O384  1  0.011220  0.799670  0.810890  1.0  -0.5528
  O  O385  1  0.874600  0.943690  0.818290  1.0  -0.5802
  O  O386  1  0.795800  0.896350  0.692150  1.0  -0.518
  O  O387  1  0.799670  0.988780  0.788450  1.0  -0.5473
  O  O388  1  0.125400  0.056310  0.181710  1.0  -0.5792
  O  O389  1  0.204200  0.103650  0.307850  1.0  -0.5193
  O  O390  1  0.200330  0.011220  0.211550  1.0  -0.5458
