# generated using pymatgen
data_Tm2H6C18(SO4)3
_symmetry_space_group_name_H-M   'P 1'
_cell_length_a   17.26190000
_cell_length_b   10.03910000
_cell_length_c   17.59960000
_cell_angle_alpha   90.00000000
_cell_angle_beta   90.00000000
_cell_angle_gamma   90.00000000
_symmetry_Int_Tables_number   1
_chemical_formula_structural   Tm2H6C18(SO4)3
_chemical_formula_sum   'Tm8 H24 C72 S12 O48'
_cell_volume   3049.90403153
_cell_formula_units_Z   4
loop_
 _symmetry_equiv_pos_site_id
 _symmetry_equiv_pos_as_xyz
  1  'x, y, z'
loop_
 _atom_site_type_symbol
 _atom_site_label
 _atom_site_symmetry_multiplicity
 _atom_site_fract_x
 _atom_site_fract_y
 _atom_site_fract_z
 _atom_site_occupancy
 _atom_site_charge
  Tm  Tm1  1  0.821670  0.887210  0.273280  1.0  2.1714
  Tm  Tm2  1  0.521520  0.840500  0.257980  1.0  2.1635
  Tm  Tm3  1  0.178330  0.112790  0.773280  1.0  2.1735
  Tm  Tm4  1  0.478480  0.159500  0.757980  1.0  2.1634
  Tm  Tm5  1  0.321670  0.612790  0.273280  1.0  2.1771
  Tm  Tm6  1  0.021520  0.659500  0.257980  1.0  2.1633
  Tm  Tm7  1  0.678330  0.387210  0.773280  1.0  2.1738
  Tm  Tm8  1  0.978480  0.340500  0.757980  1.0  2.1637
  H  H9  1  0.794800  0.050400  0.448300  1.0  0.111
  H  H10  1  0.550100  0.875300  0.063900  1.0  0.1041
  H  H11  1  0.531700  0.978500  0.939200  1.0  0.1089
  H  H12  1  0.853200  0.019000  0.077100  1.0  0.1061
  H  H13  1  0.789800  0.142800  0.578000  1.0  0.104
  H  H14  1  0.869600  0.113800  0.949100  1.0  0.1153
  H  H15  1  0.205200  0.949600  0.948300  1.0  0.1109
  H  H16  1  0.449900  0.124700  0.563900  1.0  0.104
  H  H17  1  0.468300  0.021500  0.439200  1.0  0.1094
  H  H18  1  0.146800  0.981000  0.577100  1.0  0.1063
  H  H19  1  0.210200  0.857200  0.078000  1.0  0.1042
  H  H20  1  0.130400  0.886200  0.449100  1.0  0.1148
  H  H21  1  0.294800  0.449600  0.448300  1.0  0.1109
  H  H22  1  0.050100  0.624700  0.063900  1.0  0.1037
  H  H23  1  0.031700  0.521500  0.939200  1.0  0.1092
  H  H24  1  0.353200  0.481000  0.077100  1.0  0.1063
  H  H25  1  0.289800  0.357200  0.578000  1.0  0.1038
  H  H26  1  0.369600  0.386200  0.949100  1.0  0.1147
  H  H27  1  0.705200  0.550400  0.948300  1.0  0.1111
  H  H28  1  0.949900  0.375300  0.563900  1.0  0.1047
  H  H29  1  0.968300  0.478500  0.439200  1.0  0.1091
  H  H30  1  0.646800  0.519000  0.577100  1.0  0.1059
  H  H31  1  0.710200  0.642800  0.078000  1.0  0.1044
  H  H32  1  0.630400  0.613800  0.449100  1.0  0.1152
  C  C33  1  0.679700  0.939000  0.152900  1.0  0.7741
  C  C34  1  0.661400  0.950600  0.377600  1.0  0.7775
  C  C35  1  0.679900  0.004900  0.453800  1.0  -0.2193
  C  C36  1  0.750200  0.052500  0.477800  1.0  -0.063
  C  C37  1  0.650200  0.980200  0.077200  1.0  -0.1951
  C  C38  1  0.637900  0.158900  0.879800  1.0  0.769
  C  C39  1  0.646700  0.139000  0.659100  1.0  0.7533
  C  C40  1  0.584200  0.936600  0.042600  1.0  -0.0771
  C  C41  1  0.965300  0.952300  0.073800  1.0  -0.2038
  C  C42  1  0.574000  0.996100  0.970300  1.0  -0.0715
  C  C43  1  0.631400  0.080900  0.950800  1.0  -0.1978
  C  C44  1  0.976000  0.885000  0.147300  1.0  0.7339
  C  C45  1  0.898700  0.013600  0.049000  1.0  -0.0733
  C  C46  1  0.675100  0.094700  0.583200  1.0  -0.2105
  C  C47  1  0.747600  0.105600  0.552900  1.0  -0.0723
  C  C48  1  0.980000  0.046100  0.945600  1.0  -0.2034
  C  C49  1  0.908400  0.068000  0.974900  1.0  -0.0572
  C  C50  1  0.012900  0.091700  0.871900  1.0  0.7588
  C  C51  1  0.320300  0.061000  0.652900  1.0  0.7757
  C  C52  1  0.338600  0.049400  0.877600  1.0  0.778
  C  C53  1  0.320100  0.995100  0.953800  1.0  -0.2189
  C  C54  1  0.249800  0.947500  0.977800  1.0  -0.0634
  C  C55  1  0.349800  0.019800  0.577200  1.0  -0.1948
  C  C56  1  0.362100  0.841100  0.379800  1.0  0.7685
  C  C57  1  0.353300  0.861000  0.159100  1.0  0.7507
  C  C58  1  0.415800  0.063400  0.542600  1.0  -0.0774
  C  C59  1  0.034700  0.047700  0.573800  1.0  -0.2049
  C  C60  1  0.426000  0.003900  0.470300  1.0  -0.0726
  C  C61  1  0.368600  0.919100  0.450800  1.0  -0.1981
  C  C62  1  0.024000  0.115000  0.647300  1.0  0.7344
  C  C63  1  0.101300  0.986400  0.549000  1.0  -0.0734
  C  C64  1  0.324900  0.905300  0.083200  1.0  -0.2097
  C  C65  1  0.252400  0.894400  0.052900  1.0  -0.0731
  C  C66  1  0.020000  0.953900  0.445600  1.0  -0.2044
  C  C67  1  0.091600  0.932000  0.474900  1.0  -0.0579
  C  C68  1  0.987100  0.908300  0.371900  1.0  0.761
  C  C69  1  0.179700  0.561000  0.152900  1.0  0.7751
  C  C70  1  0.161400  0.549400  0.377600  1.0  0.7778
  C  C71  1  0.179900  0.495100  0.453800  1.0  -0.2196
  C  C72  1  0.250200  0.447500  0.477800  1.0  -0.0633
  C  C73  1  0.150200  0.519800  0.077200  1.0  -0.1943
  C  C74  1  0.137900  0.341100  0.879800  1.0  0.7613
  C  C75  1  0.146700  0.361000  0.659100  1.0  0.7517
  C  C76  1  0.084200  0.563400  0.042600  1.0  -0.0771
  C  C77  1  0.465300  0.547700  0.073800  1.0  -0.2028
  C  C78  1  0.074000  0.503900  0.970300  1.0  -0.072
  C  C79  1  0.131400  0.419100  0.950800  1.0  -0.1977
  C  C80  1  0.476000  0.615000  0.147300  1.0  0.734
  C  C81  1  0.398700  0.486400  0.049000  1.0  -0.0727
  C  C82  1  0.175100  0.405300  0.583200  1.0  -0.2107
  C  C83  1  0.247600  0.394400  0.552900  1.0  -0.0725
  C  C84  1  0.480000  0.453900  0.945600  1.0  -0.2034
  C  C85  1  0.408400  0.432000  0.974900  1.0  -0.0571
  C  C86  1  0.512900  0.408300  0.871900  1.0  0.7593
  C  C87  1  0.820300  0.439000  0.652900  1.0  0.7744
  C  C88  1  0.838600  0.450600  0.877600  1.0  0.7776
  C  C89  1  0.820100  0.504900  0.953800  1.0  -0.2187
  C  C90  1  0.749800  0.552500  0.977800  1.0  -0.0632
  C  C91  1  0.849800  0.480200  0.577200  1.0  -0.1954
  C  C92  1  0.862100  0.658900  0.379800  1.0  0.7614
  C  C93  1  0.853300  0.639000  0.159100  1.0  0.7525
  C  C94  1  0.915800  0.436600  0.542600  1.0  -0.0773
  C  C95  1  0.534700  0.452300  0.573800  1.0  -0.2057
  C  C96  1  0.926000  0.496100  0.470300  1.0  -0.0726
  C  C97  1  0.868600  0.580900  0.450800  1.0  -0.198
  C  C98  1  0.524000  0.385000  0.647300  1.0  0.7342
  C  C99  1  0.601300  0.513600  0.549000  1.0  -0.0736
  C  C100  1  0.824900  0.594700  0.083200  1.0  -0.2092
  C  C101  1  0.752400  0.605600  0.052900  1.0  -0.0726
  C  C102  1  0.520000  0.546100  0.445600  1.0  -0.2044
  C  C103  1  0.591600  0.568000  0.474900  1.0  -0.0576
  C  C104  1  0.487100  0.591700  0.371900  1.0  0.7603
  S  S105  1  0.700670  0.092400  0.021620  1.0  0.1615
  S  S106  1  0.610140  0.020500  0.522890  1.0  0.1509
  S  S107  1  0.038280  0.958900  0.007870  1.0  0.1631
  S  S108  1  0.299330  0.907600  0.521620  1.0  0.1631
  S  S109  1  0.389860  0.979500  0.022890  1.0  0.1488
  S  S110  1  0.961720  0.041100  0.507870  1.0  0.1645
  S  S111  1  0.200670  0.407600  0.021620  1.0  0.1619
  S  S112  1  0.110140  0.479500  0.522890  1.0  0.1502
  S  S113  1  0.538280  0.541100  0.007870  1.0  0.1631
  S  S114  1  0.799330  0.592400  0.521620  1.0  0.162
  S  S115  1  0.889860  0.520500  0.022890  1.0  0.1494
  S  S116  1  0.461720  0.458900  0.507870  1.0  0.1643
  O  O117  1  0.920800  0.897100  0.195100  1.0  -0.7757
  O  O118  1  0.082900  0.068700  0.860500  1.0  -0.679
  O  O119  1  0.749100  0.962300  0.169400  1.0  -0.653
  O  O120  1  0.696200  0.230300  0.869000  1.0  -0.6387
  O  O121  1  0.715600  0.948000  0.331400  1.0  -0.684
  O  O122  1  0.631700  0.880300  0.196200  1.0  -0.7329
  O  O123  1  0.592100  0.916300  0.363500  1.0  -0.7354
  O  O124  1  0.575600  0.118600  0.672300  1.0  -0.7187
  O  O125  1  0.694300  0.195800  0.703100  1.0  -0.6538
  O  O126  1  0.582100  0.150400  0.833500  1.0  -0.7753
  O  O127  1  0.036000  0.819900  0.160600  1.0  -0.6503
  O  O128  1  0.966700  0.151900  0.827200  1.0  -0.6817
  O  O129  1  0.079200  0.102900  0.695100  1.0  -0.7758
  O  O130  1  0.917100  0.931300  0.360500  1.0  -0.6779
  O  O131  1  0.250900  0.037700  0.669400  1.0  -0.6521
  O  O132  1  0.303800  0.769700  0.369000  1.0  -0.6391
  O  O133  1  0.284400  0.052000  0.831400  1.0  -0.6852
  O  O134  1  0.368300  0.119700  0.696200  1.0  -0.731
  O  O135  1  0.407900  0.083700  0.863500  1.0  -0.7363
  O  O136  1  0.424400  0.881400  0.172300  1.0  -0.719
  O  O137  1  0.305700  0.804200  0.203100  1.0  -0.655
  O  O138  1  0.417900  0.849600  0.333500  1.0  -0.7749
  O  O139  1  0.964000  0.180100  0.660600  1.0  -0.651
  O  O140  1  0.033300  0.848100  0.327200  1.0  -0.6826
  O  O141  1  0.420800  0.602900  0.195100  1.0  -0.7761
  O  O142  1  0.582900  0.431300  0.860500  1.0  -0.6786
  O  O143  1  0.249100  0.537700  0.169400  1.0  -0.6527
  O  O144  1  0.196200  0.269700  0.869000  1.0  -0.639
  O  O145  1  0.215600  0.552000  0.331400  1.0  -0.6848
  O  O146  1  0.131700  0.619700  0.196200  1.0  -0.7331
  O  O147  1  0.092100  0.583700  0.363500  1.0  -0.7359
  O  O148  1  0.075600  0.381400  0.672300  1.0  -0.7177
  O  O149  1  0.194300  0.304200  0.703100  1.0  -0.6545
  O  O150  1  0.082100  0.349600  0.833500  1.0  -0.7746
  O  O151  1  0.536000  0.680100  0.160600  1.0  -0.6501
  O  O152  1  0.466700  0.348100  0.827200  1.0  -0.6831
  O  O153  1  0.579200  0.397100  0.695100  1.0  -0.7757
  O  O154  1  0.417100  0.568700  0.360500  1.0  -0.6789
  O  O155  1  0.750900  0.462300  0.669400  1.0  -0.6523
  O  O156  1  0.803800  0.730300  0.369000  1.0  -0.6382
  O  O157  1  0.784400  0.448000  0.831400  1.0  -0.6845
  O  O158  1  0.868300  0.380300  0.696200  1.0  -0.7338
  O  O159  1  0.907900  0.416300  0.863500  1.0  -0.7363
  O  O160  1  0.924400  0.618600  0.172300  1.0  -0.7196
  O  O161  1  0.805700  0.695800  0.203100  1.0  -0.6544
  O  O162  1  0.917900  0.650400  0.333500  1.0  -0.7757
  O  O163  1  0.464000  0.319900  0.660600  1.0  -0.6511
  O  O164  1  0.533300  0.651900  0.327200  1.0  -0.6818
