# generated using pymatgen
data_Cu3H89C72N38O11
_symmetry_space_group_name_H-M   'P 1'
_cell_length_a   19.30330000
_cell_length_b   19.30330000
_cell_length_c   19.30330000
_cell_angle_alpha   63.12750000
_cell_angle_beta   74.09780000
_cell_angle_gamma   105.90200000
_symmetry_Int_Tables_number   1
_chemical_formula_structural   Cu3H89C72N38O11
_chemical_formula_sum   'Cu6 H178 C144 N76 O22'
_cell_volume   5466.85131687
_cell_formula_units_Z   2
loop_
 _symmetry_equiv_pos_site_id
 _symmetry_equiv_pos_as_xyz
  1  'x, y, z'
loop_
 _atom_site_type_symbol
 _atom_site_label
 _atom_site_symmetry_multiplicity
 _atom_site_fract_x
 _atom_site_fract_y
 _atom_site_fract_z
 _atom_site_occupancy
 _atom_site_charge
  Cu  Cu1  1  0.000000  0.162050  0.837950  1.0  0.6586
  Cu  Cu2  1  0.000000  0.837950  0.162050  1.0  0.6608
  Cu  Cu3  1  0.779050  0.520560  0.741510  1.0  0.8073
  Cu  Cu4  1  0.220950  0.479440  0.258490  1.0  0.8067
  Cu  Cu5  1  0.737930  0.258490  0.520560  1.0  0.8083
  Cu  Cu6  1  0.262070  0.741510  0.479440  1.0  0.8081
  H  H7  1  0.022000  0.902700  0.515100  1.0  0.0871
  H  H8  1  0.964100  0.911600  0.471700  1.0  0.0721
  H  H9  1  0.842200  0.720100  0.682100  1.0  0.1054
  H  H10  1  0.908000  0.971200  0.884000  1.0  0.1064
  H  H11  1  0.858100  0.888700  0.487800  1.0  0.1143
  H  H12  1  0.768400  0.854000  0.553800  1.0  0.1137
  H  H13  1  0.824200  0.954900  0.483300  1.0  0.112
  H  H14  1  0.952300  0.876200  0.788500  1.0  0.1113
  H  H15  1  0.866700  0.864600  0.839300  1.0  0.0905
  H  H16  1  0.670100  0.051900  0.633600  1.0  0.0846
  H  H17  1  0.051800  0.900000  0.606200  1.0  0.1132
  H  H18  1  0.027900  0.895200  0.693300  1.0  0.1035
  H  H19  1  0.989000  0.810600  0.696200  1.0  0.1156
  H  H20  1  0.073000  0.179800  0.655000  1.0  0.0842
  H  H21  1  0.927800  0.636100  0.550500  1.0  0.0847
  H  H22  1  0.781600  0.994700  0.737100  1.0  0.1126
  H  H23  1  0.727800  0.893400  0.806800  1.0  0.1137
  H  H24  1  0.807900  0.942900  0.805600  1.0  0.1022
  H  H25  1  0.885500  0.224700  0.452400  1.0  0.0934
  H  H26  1  0.717800  0.916400  0.608800  1.0  0.0925
  H  H27  1  0.695900  0.911600  0.695900  1.0  0.098
  H  H28  1  0.978000  0.462900  0.119300  1.0  0.0868
  H  H29  1  0.035900  0.564200  0.052500  1.0  0.0716
  H  H30  1  0.157800  0.475700  0.122100  1.0  0.1051
  H  H31  1  0.092000  0.208000  0.936800  1.0  0.1064
  H  H32  1  0.141900  0.654100  0.969400  1.0  0.1152
  H  H33  1  0.231600  0.677800  0.914400  1.0  0.1139
  H  H34  1  0.175800  0.692500  0.869300  1.0  0.1078
  H  H35  1  0.047700  0.259200  0.076100  1.0  0.1093
  H  H36  1  0.133300  0.294000  0.002100  1.0  0.0861
  H  H37  1  0.329900  0.696300  0.618200  1.0  0.0851
  H  H38  1  0.948200  0.342000  0.151800  1.0  0.1097
  H  H39  1  0.972100  0.278800  0.132700  1.0  0.1024
  H  H40  1  0.011000  0.314800  0.178400  1.0  0.1138
  H  H41  1  0.927000  0.272000  0.893200  1.0  0.0833
  H  H42  1  0.072200  0.521700  0.291700  1.0  0.085
  H  H43  1  0.218400  0.481300  0.786900  1.0  0.1087
  H  H44  1  0.272200  0.465400  0.834400  1.0  0.1136
  H  H45  1  0.192100  0.386500  0.865000  1.0  0.1018
  H  H46  1  0.114500  0.662100  0.660800  1.0  0.0914
  H  H47  1  0.282200  0.673400  0.801400  1.0  0.0904
  H  H48  1  0.304100  0.608200  0.784300  1.0  0.0946
  H  H49  1  0.582200  0.484900  0.537100  1.0  0.0864
  H  H50  1  0.616700  0.528300  0.435800  1.0  0.0708
  H  H51  1  0.597800  0.317900  0.524300  1.0  0.1058
  H  H52  1  0.144800  0.116000  0.792000  1.0  0.1075
  H  H53  1  0.623500  0.512200  0.345900  1.0  0.1159
  H  H54  1  0.592200  0.446200  0.322200  1.0  0.1115
  H  H55  1  0.561800  0.516700  0.307500  1.0  0.1072
  H  H56  1  0.335300  0.211500  0.740800  1.0  0.1105
  H  H57  1  0.296100  0.160700  0.706000  1.0  0.0912
  H  H58  1  0.314500  0.366400  0.303700  1.0  0.0857
  H  H59  1  0.493800  0.393800  0.658000  1.0  0.1148
  H  H60  1  0.411500  0.306700  0.721200  1.0  0.1019
  H  H61  1  0.493200  0.303800  0.685200  1.0  0.1156
  H  H62  1  0.165200  0.345000  0.728000  1.0  0.0841
  H  H63  1  0.813400  0.449500  0.478300  1.0  0.0838
  H  H64  1  0.268200  0.262900  0.518700  1.0  0.1094
  H  H65  1  0.299800  0.193200  0.534600  1.0  0.1132
  H  H66  1  0.251500  0.194400  0.613500  1.0  0.0994
  H  H67  1  0.322900  0.547600  0.337900  1.0  0.0942
  H  H68  1  0.474800  0.391200  0.326600  1.0  0.0926
  H  H69  1  0.392500  0.304100  0.391800  1.0  0.0985
  H  H70  1  0.417800  0.880700  0.097300  1.0  0.0855
  H  H71  1  0.383300  0.947500  0.088400  1.0  0.069
  H  H72  1  0.402200  0.877900  0.279900  1.0  0.1046
  H  H73  1  0.855200  0.063200  0.028800  1.0  0.1078
  H  H74  1  0.376500  0.030600  0.111300  1.0  0.1168
  H  H75  1  0.407800  0.085600  0.146000  1.0  0.1118
  H  H76  1  0.438200  0.130700  0.045100  1.0  0.1115
  H  H77  1  0.664700  0.923900  0.123800  1.0  0.113
  H  H78  1  0.703900  0.997900  0.135400  1.0  0.0891
  H  H79  1  0.685500  0.381800  0.948100  1.0  0.0855
  H  H80  1  0.506200  0.848200  0.100000  1.0  0.1122
  H  H81  1  0.588500  0.867300  0.104800  1.0  0.1049
  H  H82  1  0.506800  0.821600  0.189400  1.0  0.1156
  H  H83  1  0.834800  0.106800  0.820200  1.0  0.0821
  H  H84  1  0.186600  0.708300  0.363900  1.0  0.0847
  H  H85  1  0.731800  0.213100  0.005300  1.0  0.1114
  H  H86  1  0.700200  0.165600  0.106600  1.0  0.1145
  H  H87  1  0.748500  0.135000  0.057100  1.0  0.102
  H  H88  1  0.677100  0.339200  0.775300  1.0  0.093
  H  H89  1  0.525200  0.198600  0.083600  1.0  0.092
  H  H90  1  0.607500  0.215700  0.088400  1.0  0.0969
  H  H91  1  0.978000  0.097300  0.484900  1.0  0.0866
  H  H92  1  0.035900  0.088400  0.528300  1.0  0.0709
  H  H93  1  0.157800  0.279900  0.317900  1.0  0.1059
  H  H94  1  0.092000  0.028800  0.116000  1.0  0.107
  H  H95  1  0.141900  0.111300  0.512200  1.0  0.1151
  H  H96  1  0.231600  0.146000  0.446200  1.0  0.1126
  H  H97  1  0.175800  0.045100  0.516700  1.0  0.1105
  H  H98  1  0.047700  0.123800  0.211500  1.0  0.1112
  H  H99  1  0.133300  0.135400  0.160700  1.0  0.09
  H  H100  1  0.329900  0.948100  0.366400  1.0  0.0865
  H  H101  1  0.948200  0.100000  0.393800  1.0  0.1125
  H  H102  1  0.972100  0.104800  0.306700  1.0  0.1031
  H  H103  1  0.011000  0.189400  0.303800  1.0  0.1157
  H  H104  1  0.927000  0.820200  0.345000  1.0  0.0847
  H  H105  1  0.072200  0.363900  0.449500  1.0  0.0853
  H  H106  1  0.218400  0.005300  0.262900  1.0  0.1121
  H  H107  1  0.272200  0.106600  0.193200  1.0  0.1136
  H  H108  1  0.192100  0.057100  0.194400  1.0  0.1016
  H  H109  1  0.114500  0.775300  0.547600  1.0  0.0936
  H  H110  1  0.282200  0.083600  0.391200  1.0  0.0921
  H  H111  1  0.304100  0.088400  0.304100  1.0  0.0982
  H  H112  1  0.022000  0.537100  0.880700  1.0  0.0854
  H  H113  1  0.964100  0.435800  0.947500  1.0  0.0715
  H  H114  1  0.842200  0.524300  0.877900  1.0  0.1048
  H  H115  1  0.908000  0.792000  0.063200  1.0  0.1065
  H  H116  1  0.858100  0.345900  0.030600  1.0  0.1147
  H  H117  1  0.768400  0.322200  0.085600  1.0  0.1147
  H  H118  1  0.824200  0.307500  0.130700  1.0  0.1083
  H  H119  1  0.952300  0.740800  0.923900  1.0  0.109
  H  H120  1  0.866700  0.706000  0.997900  1.0  0.089
  H  H121  1  0.670100  0.303700  0.381800  1.0  0.0855
  H  H122  1  0.051800  0.658000  0.848200  1.0  0.1129
  H  H123  1  0.027900  0.721200  0.867300  1.0  0.1017
  H  H124  1  0.989000  0.685200  0.821600  1.0  0.1132
  H  H125  1  0.073000  0.728000  0.106800  1.0  0.0835
  H  H126  1  0.927800  0.478300  0.708300  1.0  0.0842
  H  H127  1  0.781600  0.518700  0.213100  1.0  0.1094
  H  H128  1  0.727800  0.534600  0.165600  1.0  0.114
  H  H129  1  0.807900  0.613500  0.135000  1.0  0.1027
  H  H130  1  0.885500  0.337900  0.339200  1.0  0.0923
  H  H131  1  0.717800  0.326600  0.198600  1.0  0.0914
  H  H132  1  0.695900  0.391800  0.215700  1.0  0.0959
  H  H133  1  0.417800  0.515100  0.462900  1.0  0.0862
  H  H134  1  0.383300  0.471700  0.564200  1.0  0.0709
  H  H135  1  0.402200  0.682100  0.475700  1.0  0.1061
  H  H136  1  0.855200  0.884000  0.208000  1.0  0.1076
  H  H137  1  0.376500  0.487800  0.654100  1.0  0.1171
  H  H138  1  0.407800  0.553800  0.677800  1.0  0.1113
  H  H139  1  0.438200  0.483300  0.692500  1.0  0.1085
  H  H140  1  0.664700  0.788500  0.259200  1.0  0.1116
  H  H141  1  0.703900  0.839300  0.294000  1.0  0.09
  H  H142  1  0.685500  0.633600  0.696300  1.0  0.0866
  H  H143  1  0.506200  0.606200  0.342000  1.0  0.114
  H  H144  1  0.588500  0.693300  0.278800  1.0  0.1019
  H  H145  1  0.506800  0.696200  0.314800  1.0  0.1148
  H  H146  1  0.834800  0.655000  0.272000  1.0  0.0842
  H  H147  1  0.186600  0.550500  0.521700  1.0  0.0837
  H  H148  1  0.731800  0.737100  0.481300  1.0  0.1098
  H  H149  1  0.700200  0.806800  0.465400  1.0  0.114
  H  H150  1  0.748500  0.805600  0.386500  1.0  0.1009
  H  H151  1  0.677100  0.452400  0.662100  1.0  0.094
  H  H152  1  0.525200  0.608800  0.673400  1.0  0.093
  H  H153  1  0.607500  0.695900  0.608200  1.0  0.0977
  H  H154  1  0.582200  0.119300  0.902700  1.0  0.0851
  H  H155  1  0.616700  0.052500  0.911600  1.0  0.0688
  H  H156  1  0.597800  0.122100  0.720100  1.0  0.1039
  H  H157  1  0.144800  0.936800  0.971200  1.0  0.108
  H  H158  1  0.623500  0.969400  0.888700  1.0  0.1172
  H  H159  1  0.592200  0.914400  0.854000  1.0  0.1134
  H  H160  1  0.561800  0.869300  0.954900  1.0  0.1112
  H  H161  1  0.335300  0.076100  0.876200  1.0  0.1128
  H  H162  1  0.296100  0.002100  0.864600  1.0  0.0886
  H  H163  1  0.314500  0.618200  0.051900  1.0  0.0839
  H  H164  1  0.493800  0.151800  0.900000  1.0  0.1109
  H  H165  1  0.411500  0.132700  0.895200  1.0  0.1068
  H  H166  1  0.493200  0.178400  0.810600  1.0  0.1151
  H  H167  1  0.165200  0.893200  0.179800  1.0  0.0829
  H  H168  1  0.813400  0.291700  0.636100  1.0  0.0848
  H  H169  1  0.268200  0.786900  0.994700  1.0  0.1119
  H  H170  1  0.299800  0.834400  0.893400  1.0  0.1137
  H  H171  1  0.251500  0.865000  0.942900  1.0  0.1018
  H  H172  1  0.322900  0.660800  0.224700  1.0  0.0931
  H  H173  1  0.474800  0.801400  0.916400  1.0  0.0919
  H  H174  1  0.392500  0.784300  0.911600  1.0  0.0979
  H  H175  1  0.000000  0.329220  0.670780  1.0  0.3466
  H  H176  1  0.000000  0.670780  0.329220  1.0  0.3473
  H  H177  1  0.849920  0.464490  0.614570  1.0  0.424
  H  H178  1  0.679840  0.538400  0.858560  1.0  0.4419
  H  H179  1  0.150080  0.535510  0.385430  1.0  0.4248
  H  H180  1  0.320160  0.461600  0.141440  1.0  0.4391
  H  H181  1  0.920940  0.385430  0.464490  1.0  0.4177
  H  H182  1  0.603040  0.141440  0.538400  1.0  0.4364
  H  H183  1  0.079060  0.614570  0.535510  1.0  0.4177
  H  H184  1  0.396960  0.858560  0.461600  1.0  0.4376
  C  C185  1  0.939730  0.892990  0.653840  1.0  0.0609
  C  C186  1  0.895530  0.907440  0.712320  1.0  -0.0284
  C  C187  1  0.917700  0.894320  0.590620  1.0  -0.1006
  C  C188  1  0.965700  0.880010  0.526580  1.0  -0.0498
  C  C189  1  0.808740  0.922830  0.643470  1.0  -0.0961
  C  C190  1  0.851440  0.907280  0.585650  1.0  0.0704
  C  C191  1  0.830370  0.923520  0.706660  1.0  0.0587
  C  C192  1  0.872910  0.717740  0.637510  1.0  0.1504
  C  C193  1  0.944410  0.009800  0.824600  1.0  0.1601
  C  C194  1  0.822870  0.900590  0.521740  1.0  -0.3599
  C  C195  1  0.916080  0.902410  0.783890  1.0  -0.0768
  C  C196  1  0.724290  0.078890  0.592770  1.0  0.1594
  C  C197  1  0.008410  0.872840  0.663260  1.0  -0.3471
  C  C198  1  0.034140  0.122140  0.699570  1.0  0.2816
  C  C199  1  0.920050  0.673410  0.566340  1.0  0.2578
  C  C200  1  0.782460  0.940220  0.769930  1.0  -0.3474
  C  C201  1  0.839860  0.170680  0.495520  1.0  0.2792
  C  C202  1  0.739080  0.940630  0.637290  1.0  -0.056
  C  C203  1  0.060270  0.406430  0.046740  1.0  0.0573
  C  C204  1  0.104470  0.392160  0.988090  1.0  -0.0302
  C  C205  1  0.082300  0.491670  0.023380  1.0  -0.1007
  C  C206  1  0.034300  0.507720  0.085690  1.0  -0.0525
  C  C207  1  0.191260  0.547790  0.885910  1.0  -0.0979
  C  C208  1  0.148560  0.562910  0.944160  1.0  0.0695
  C  C209  1  0.169630  0.462970  0.906850  1.0  0.0594
  C  C210  1  0.127090  0.489580  0.155170  1.0  0.1465
  C  C211  1  0.055590  0.230990  0.934610  1.0  0.1568
  C  C212  1  0.177130  0.655390  0.922280  1.0  -0.3582
  C  C213  1  0.083920  0.300030  0.013670  1.0  -0.0727
  C  C214  1  0.275710  0.682940  0.645400  1.0  0.1613
  C  C215  1  0.991590  0.328330  0.135570  1.0  -0.3465
  C  C216  1  0.965860  0.266300  0.912000  1.0  0.2856
  C  C217  1  0.079950  0.513610  0.246640  1.0  0.2588
  C  C218  1  0.217540  0.447600  0.842250  1.0  -0.3499
  C  C219  1  0.160140  0.664620  0.669180  1.0  0.2775
  C  C220  1  0.260920  0.623620  0.798450  1.0  -0.0541
  C  C221  1  0.453170  0.346160  0.593570  1.0  0.0599
  C  C222  1  0.380250  0.287690  0.607840  1.0  -0.0308
  C  C223  1  0.515060  0.409380  0.508320  1.0  -0.1018
  C  C224  1  0.593410  0.473420  0.492280  1.0  -0.0478
  C  C225  1  0.433700  0.356530  0.452210  1.0  -0.0986
  C  C226  1  0.507070  0.414350  0.437090  1.0  0.0701
  C  C227  1  0.369820  0.293340  0.537030  1.0  0.0573
  C  C228  1  0.644750  0.362490  0.510420  1.0  0.1478
  C  C229  1  0.165600  0.175400  0.769010  1.0  0.1592
  C  C230  1  0.577680  0.478270  0.344600  1.0  -0.3603
  C  C231  1  0.313690  0.216100  0.699980  1.0  -0.0758
  C  C232  1  0.328340  0.407230  0.317060  1.0  0.1624
  C  C233  1  0.463900  0.336740  0.671670  1.0  -0.3501
  C  C234  1  0.178300  0.300440  0.733700  1.0  0.2831
  C  C235  1  0.760260  0.433670  0.486380  1.0  0.2558
  C  C236  1  0.289850  0.230060  0.552390  1.0  -0.3489
  C  C237  1  0.333800  0.504480  0.335380  1.0  0.2778
  C  C238  1  0.422070  0.362700  0.376380  1.0  -0.0553
  C  C239  1  0.546830  0.953260  0.107010  1.0  0.0583
  C  C240  1  0.619750  0.011900  0.092560  1.0  -0.0315
  C  C241  1  0.484940  0.976620  0.105690  1.0  -0.1026
  C  C242  1  0.406590  0.914310  0.119990  1.0  -0.053
  C  C243  1  0.566300  0.114090  0.077170  1.0  -0.0984
  C  C244  1  0.492930  0.055840  0.092720  1.0  0.0673
  C  C245  1  0.630180  0.093150  0.076480  1.0  0.0564
  C  C246  1  0.355250  0.844830  0.282260  1.0  0.1511
  C  C247  1  0.834400  0.065390  0.990200  1.0  0.1585
  C  C248  1  0.422320  0.077710  0.099420  1.0  -0.3625
  C  C249  1  0.686310  0.986340  0.097580  1.0  -0.0758
  C  C250  1  0.671660  0.354600  0.921110  1.0  0.1627
  C  C251  1  0.536100  0.864430  0.127160  1.0  -0.348
  C  C252  1  0.821700  0.087990  0.877860  1.0  0.2869
  C  C253  1  0.239740  0.753350  0.326600  1.0  0.2595
  C  C254  1  0.710150  0.157760  0.059790  1.0  -0.3488
  C  C255  1  0.666200  0.330820  0.829320  1.0  0.2805
  C  C256  1  0.577920  0.201550  0.059380  1.0  -0.0567
  C  C257  1  0.060270  0.107010  0.346160  1.0  0.0591
  C  C258  1  0.104470  0.092560  0.287680  1.0  -0.0297
  C  C259  1  0.082300  0.105680  0.409380  1.0  -0.1003
  C  C260  1  0.034300  0.119990  0.473420  1.0  -0.0485
  C  C261  1  0.191260  0.077170  0.356530  1.0  -0.0963
  C  C262  1  0.148560  0.092720  0.414350  1.0  0.0729
  C  C263  1  0.169630  0.076480  0.293340  1.0  0.0586
  C  C264  1  0.127090  0.282260  0.362490  1.0  0.1494
  C  C265  1  0.055590  0.990200  0.175400  1.0  0.1587
  C  C266  1  0.177130  0.099410  0.478260  1.0  -0.3639
  C  C267  1  0.083920  0.097590  0.216110  1.0  -0.0765
  C  C268  1  0.275710  0.921110  0.407230  1.0  0.1588
  C  C269  1  0.991590  0.127160  0.336740  1.0  -0.3476
  C  C270  1  0.965860  0.877860  0.300430  1.0  0.2828
  C  C271  1  0.079950  0.326590  0.433660  1.0  0.2581
  C  C272  1  0.217540  0.059780  0.230070  1.0  -0.3484
  C  C273  1  0.160140  0.829320  0.504480  1.0  0.2797
  C  C274  1  0.260920  0.059370  0.362710  1.0  -0.0534
  C  C275  1  0.939730  0.593570  0.953260  1.0  0.0578
  C  C276  1  0.895530  0.607840  0.011910  1.0  -0.0305
  C  C277  1  0.917700  0.508330  0.976620  1.0  -0.1011
  C  C278  1  0.965700  0.492280  0.914310  1.0  -0.0488
  C  C279  1  0.808740  0.452210  0.114090  1.0  -0.0968
  C  C280  1  0.851440  0.437090  0.055840  1.0  0.0692
  C  C281  1  0.830370  0.537030  0.093150  1.0  0.0576
  C  C282  1  0.872910  0.510420  0.844830  1.0  0.1468
  C  C283  1  0.944410  0.769010  0.065390  1.0  0.1573
  C  C284  1  0.822870  0.344610  0.077720  1.0  -0.3577
  C  C285  1  0.916080  0.699970  0.986330  1.0  -0.0742
  C  C286  1  0.724290  0.317060  0.354600  1.0  0.1608
  C  C287  1  0.008410  0.671670  0.864430  1.0  -0.3456
  C  C288  1  0.034140  0.733700  0.088000  1.0  0.2856
  C  C289  1  0.920050  0.486390  0.753360  1.0  0.2588
  C  C290  1  0.782460  0.552400  0.157750  1.0  -0.3507
  C  C291  1  0.839860  0.335380  0.330820  1.0  0.2787
  C  C292  1  0.739080  0.376380  0.201550  1.0  -0.0541
  C  C293  1  0.546830  0.653840  0.406430  1.0  0.0591
  C  C294  1  0.619750  0.712310  0.392160  1.0  -0.031
  C  C295  1  0.484940  0.590620  0.491680  1.0  -0.1017
  C  C296  1  0.406590  0.526580  0.507720  1.0  -0.0482
  C  C297  1  0.566300  0.643470  0.547790  1.0  -0.0983
  C  C298  1  0.492930  0.585650  0.562910  1.0  0.0677
  C  C299  1  0.630180  0.706660  0.462970  1.0  0.0588
  C  C300  1  0.355250  0.637510  0.489580  1.0  0.1475
  C  C301  1  0.834400  0.824600  0.230990  1.0  0.1584
  C  C302  1  0.422320  0.521730  0.655400  1.0  -0.3605
  C  C303  1  0.686310  0.783900  0.300020  1.0  -0.0754
  C  C304  1  0.671660  0.592770  0.682940  1.0  0.1635
  C  C305  1  0.536100  0.663260  0.328330  1.0  -0.3494
  C  C306  1  0.821700  0.699560  0.266300  1.0  0.2823
  C  C307  1  0.239740  0.566330  0.513620  1.0  0.2546
  C  C308  1  0.710150  0.769940  0.447610  1.0  -0.3494
  C  C309  1  0.666200  0.495520  0.664620  1.0  0.2767
  C  C310  1  0.577920  0.637290  0.623630  1.0  -0.0571
  C  C311  1  0.453170  0.046740  0.892990  1.0  0.0584
  C  C312  1  0.380250  0.988100  0.907440  1.0  -0.0326
  C  C313  1  0.515060  0.023380  0.894310  1.0  -0.1023
  C  C314  1  0.593410  0.085690  0.880010  1.0  -0.0565
  C  C315  1  0.433700  0.885910  0.922830  1.0  -0.0981
  C  C316  1  0.507070  0.944160  0.907280  1.0  0.0692
  C  C317  1  0.369820  0.906850  0.923520  1.0  0.0553
  C  C318  1  0.644750  0.155170  0.717740  1.0  0.1505
  C  C319  1  0.165600  0.934610  0.009800  1.0  0.1588
  C  C320  1  0.577680  0.922290  0.900580  1.0  -0.3623
  C  C321  1  0.313690  0.013660  0.902420  1.0  -0.076
  C  C322  1  0.328340  0.645400  0.078890  1.0  0.1625
  C  C323  1  0.463900  0.135570  0.872840  1.0  -0.3479
  C  C324  1  0.178300  0.912010  0.122130  1.0  0.2849
  C  C325  1  0.760260  0.246650  0.673400  1.0  0.2616
  C  C326  1  0.289850  0.842240  0.940210  1.0  -0.3476
  C  C327  1  0.333800  0.669180  0.170680  1.0  0.2815
  C  C328  1  0.422070  0.798440  0.940630  1.0  -0.0542
  N  N329  1  0.931800  0.785880  0.562120  1.0  0.1686
  N  N330  1  0.862230  0.645080  0.642860  1.0  -0.3797
  N  N331  1  0.954810  0.988720  0.767990  1.0  0.1118
  N  N332  1  0.993240  0.093890  0.784810  1.0  -0.3853
  N  N333  1  0.763990  0.035730  0.587400  1.0  0.0912
  N  N334  1  0.766440  0.162160  0.536660  1.0  -0.3656
  N  N335  1  0.013310  0.059930  0.686620  1.0  -0.3682
  N  N336  1  0.966020  0.760080  0.514240  1.0  -0.375
  N  N337  1  0.841150  0.095410  0.521940  1.0  -0.3742
  N  N338  1  0.068200  0.506080  0.145910  1.0  0.1708
  N  N339  1  0.137770  0.494910  0.217150  1.0  -0.3784
  N  N340  1  0.045190  0.277190  0.966090  1.0  0.1107
  N  N341  1  0.006760  0.221950  0.899350  1.0  -0.3851
  N  N342  1  0.236010  0.648600  0.728260  1.0  0.0895
  N  N343  1  0.233560  0.696900  0.604280  1.0  -0.3644
  N  N344  1  0.986690  0.300070  0.953380  1.0  -0.3704
  N  N345  1  0.033980  0.519750  0.205940  1.0  -0.3675
  N  N346  1  0.158850  0.636910  0.745740  1.0  -0.3726
  N  N347  1  0.651990  0.437880  0.493930  1.0  0.1678
  N  N348  1  0.712060  0.357140  0.505090  1.0  -0.3739
  N  N349  1  0.243280  0.232000  0.722810  1.0  0.1111
  N  N350  1  0.121300  0.215190  0.778050  1.0  -0.3857
  N  N351  1  0.376860  0.412590  0.351400  1.0  0.0885
  N  N352  1  0.301180  0.463340  0.303100  1.0  -0.364
  N  N353  1  0.253450  0.313380  0.699930  1.0  -0.3706
  N  N354  1  0.725680  0.485760  0.480260  1.0  -0.3728
  N  N355  1  0.382650  0.478060  0.363090  1.0  -0.3731
  N  N356  1  0.348000  0.854080  0.214120  1.0  0.1688
  N  N357  1  0.287940  0.782850  0.354920  1.0  -0.375
  N  N358  1  0.756720  0.033920  0.011270  1.0  0.1113
  N  N359  1  0.878700  0.100650  0.906110  1.0  -0.3857
  N  N360  1  0.623140  0.271750  0.964270  1.0  0.0899
  N  N361  1  0.698820  0.395720  0.837840  1.0  -0.3684
  N  N362  1  0.746550  0.046620  0.940070  1.0  -0.3681
  N  N363  1  0.274320  0.794060  0.239910  1.0  -0.3735
  N  N364  1  0.617350  0.254260  0.904590  1.0  -0.372
  N  N365  1  0.068200  0.214120  0.437880  1.0  0.1686
  N  N366  1  0.137770  0.354920  0.357140  1.0  -0.3805
  N  N367  1  0.045190  0.011280  0.232010  1.0  0.111
  N  N368  1  0.006760  0.906110  0.215190  1.0  -0.384
  N  N369  1  0.236010  0.964270  0.412600  1.0  0.0904
  N  N370  1  0.233560  0.837840  0.463340  1.0  -0.365
  N  N371  1  0.986690  0.940070  0.313380  1.0  -0.3678
  N  N372  1  0.033980  0.239920  0.485760  1.0  -0.3719
  N  N373  1  0.158850  0.904590  0.478060  1.0  -0.3723
  N  N374  1  0.931800  0.493920  0.854090  1.0  0.1677
  N  N375  1  0.862230  0.505090  0.782850  1.0  -0.3776
  N  N376  1  0.954810  0.722800  0.033910  1.0  0.1111
  N  N377  1  0.993240  0.778050  0.100650  1.0  -0.3827
  N  N378  1  0.763990  0.351400  0.271740  1.0  0.089
  N  N379  1  0.766440  0.303100  0.395720  1.0  -0.364
  N  N380  1  0.013310  0.699930  0.046620  1.0  -0.3709
  N  N381  1  0.966020  0.480250  0.794060  1.0  -0.3715
  N  N382  1  0.841150  0.363090  0.254260  1.0  -0.3733
  N  N383  1  0.348000  0.562110  0.506080  1.0  0.1669
  N  N384  1  0.287940  0.642860  0.494910  1.0  -0.3743
  N  N385  1  0.756720  0.768000  0.277190  1.0  0.1095
  N  N386  1  0.878700  0.784810  0.221950  1.0  -0.3861
  N  N387  1  0.623140  0.587410  0.648600  1.0  0.0896
  N  N388  1  0.698820  0.536660  0.696900  1.0  -0.3662
  N  N389  1  0.746550  0.686620  0.300070  1.0  -0.3692
  N  N390  1  0.274320  0.514240  0.519740  1.0  -0.3734
  N  N391  1  0.617350  0.521940  0.636910  1.0  -0.3716
  N  N392  1  0.651990  0.145910  0.785890  1.0  0.1689
  N  N393  1  0.712060  0.217150  0.645080  1.0  -0.375
  N  N394  1  0.243280  0.966080  0.988720  1.0  0.1112
  N  N395  1  0.121300  0.899350  0.093890  1.0  -0.3851
  N  N396  1  0.376860  0.728250  0.035730  1.0  0.0909
  N  N397  1  0.301180  0.604280  0.162160  1.0  -0.3683
  N  N398  1  0.253450  0.953380  0.059930  1.0  -0.3689
  N  N399  1  0.725680  0.205940  0.760090  1.0  -0.3747
  N  N400  1  0.382650  0.745740  0.095410  1.0  -0.3743
  N  N401  1  0.767930  0.827590  0.059660  1.0  0.7897
  N  N402  1  0.232070  0.172410  0.940340  1.0  0.7903
  N  N403  1  0.112750  0.940340  0.827590  1.0  0.7912
  N  N404  1  0.887250  0.059660  0.172410  1.0  0.792
  O  O405  1  0.000000  0.284390  0.715610  1.0  -0.7232
  O  O406  1  0.000000  0.715610  0.284390  1.0  -0.7205
  O  O407  1  0.728970  0.563800  0.834830  1.0  -0.6548
  O  O408  1  0.817580  0.467350  0.649770  1.0  -0.7438
  O  O409  1  0.271030  0.436200  0.165170  1.0  -0.6512
  O  O410  1  0.182420  0.532650  0.350230  1.0  -0.7453
  O  O411  1  0.601380  0.165180  0.563790  1.0  -0.6637
  O  O412  1  0.882880  0.350230  0.467350  1.0  -0.7464
  O  O413  1  0.398620  0.834820  0.436210  1.0  -0.6627
  O  O414  1  0.117120  0.649770  0.532650  1.0  -0.7447
  O  O415  1  0.698710  0.802720  0.104010  1.0  -0.5289
  O  O416  1  0.824750  0.880610  0.055860  1.0  -0.5784
  O  O417  1  0.793430  0.805120  0.011690  1.0  -0.5672
  O  O418  1  0.301290  0.197280  0.895990  1.0  -0.5266
  O  O419  1  0.175250  0.119390  0.944140  1.0  -0.5783
  O  O420  1  0.206570  0.194880  0.988310  1.0  -0.565
  O  O421  1  0.093270  0.895990  0.802720  1.0  -0.5225
  O  O422  1  0.063530  0.944140  0.880610  1.0  -0.578
  O  O423  1  0.183190  0.988310  0.805120  1.0  -0.5649
  O  O424  1  0.906730  0.104010  0.197280  1.0  -0.5224
  O  O425  1  0.936470  0.055860  0.119390  1.0  -0.5776
  O  O426  1  0.816810  0.011690  0.194880  1.0  -0.564
