# generated using pymatgen
data_Cu6H168C144I11N72
_symmetry_space_group_name_H-M   'P 1'
_cell_length_a   19.22660000
_cell_length_b   19.22660000
_cell_length_c   19.22660000
_cell_angle_alpha   63.04630000
_cell_angle_beta   74.13540000
_cell_angle_gamma   105.86500000
_symmetry_Int_Tables_number   1
_chemical_formula_structural   Cu6H168C144I11N72
_chemical_formula_sum   'Cu6 H168 C144 I11 N72'
_cell_volume   5400.36507057
_cell_formula_units_Z   1
loop_
 _symmetry_equiv_pos_site_id
 _symmetry_equiv_pos_as_xyz
  1  'x, y, z'
loop_
 _atom_site_type_symbol
 _atom_site_label
 _atom_site_symmetry_multiplicity
 _atom_site_fract_x
 _atom_site_fract_y
 _atom_site_fract_z
 _atom_site_occupancy
 _atom_site_charge
  Cu  Cu1  1  0.000000  0.840210  0.159790  1.0  0.5729
  Cu  Cu2  1  0.000000  0.159790  0.840210  1.0  0.5727
  Cu  Cu3  1  0.260660  0.742030  0.481370  1.0  0.6105
  Cu  Cu4  1  0.739340  0.257970  0.518630  1.0  0.6103
  Cu  Cu5  1  0.776600  0.518630  0.742030  1.0  0.6004
  Cu  Cu6  1  0.223400  0.481370  0.257970  1.0  0.5999
  H  H7  1  0.112700  0.773700  0.550800  1.0  0.1036
  H  H8  1  0.329100  0.952300  0.358400  1.0  0.1015
  H  H9  1  0.308300  0.094200  0.299500  1.0  0.1183
  H  H10  1  0.288300  0.092200  0.385700  1.0  0.1344
  H  H11  1  0.252000  0.112000  0.175800  1.0  0.1192
  H  H12  1  0.246700  0.031400  0.256100  1.0  0.0961
  H  H13  1  0.177100  0.018700  0.228600  1.0  0.1147
  H  H14  1  0.132800  0.136600  0.159000  1.0  0.0978
  H  H15  1  0.046500  0.124200  0.210700  1.0  0.0885
  H  H16  1  0.930000  0.819700  0.346300  1.0  0.0728
  H  H17  1  0.089700  0.030800  0.114700  1.0  0.1047
  H  H18  1  0.948500  0.079700  0.344400  1.0  0.1015
  H  H19  1  0.964600  0.135000  0.383400  1.0  0.1078
  H  H20  1  0.009200  0.180700  0.281500  1.0  0.1125
  H  H21  1  0.032400  0.088500  0.530500  1.0  0.097
  H  H22  1  0.977100  0.101200  0.483700  1.0  0.0665
  H  H23  1  0.158100  0.281500  0.316200  1.0  0.1012
  H  H24  1  0.068400  0.362800  0.453200  1.0  0.0724
  H  H25  1  0.129000  0.073700  0.534900  1.0  0.1082
  H  H26  1  0.209200  0.071600  0.490200  1.0  0.1114
  H  H27  1  0.207400  0.161700  0.456900  1.0  0.1268
  H  H28  1  0.887300  0.336500  0.339000  1.0  0.1043
  H  H29  1  0.670900  0.312500  0.376800  1.0  0.1018
  H  H30  1  0.691700  0.392200  0.214100  1.0  0.1218
  H  H31  1  0.711700  0.326000  0.196100  1.0  0.1301
  H  H32  1  0.748000  0.572200  0.140000  1.0  0.1205
  H  H33  1  0.753300  0.497200  0.215300  1.0  0.0948
  H  H34  1  0.822900  0.594300  0.158400  1.0  0.1147
  H  H35  1  0.867200  0.708200  0.996200  1.0  0.0969
  H  H36  1  0.953500  0.742800  0.922300  1.0  0.0878
  H  H37  1  0.070000  0.723700  0.110300  1.0  0.0709
  H  H38  1  0.910300  0.795600  0.058900  1.0  0.1056
  H  H39  1  0.051500  0.707100  0.868800  1.0  0.103
  H  H40  1  0.035400  0.652000  0.829600  1.0  0.1078
  H  H41  1  0.990800  0.709300  0.828500  1.0  0.1087
  H  H42  1  0.967600  0.437100  0.943900  1.0  0.0954
  H  H43  1  0.022900  0.539200  0.875900  1.0  0.0657
  H  H44  1  0.841900  0.525700  0.876600  1.0  0.1029
  H  H45  1  0.931600  0.478400  0.705600  1.0  0.0739
  H  H46  1  0.871000  0.336100  0.055300  1.0  0.11
  H  H47  1  0.790800  0.300600  0.137600  1.0  0.1095
  H  H48  1  0.792600  0.335700  0.045700  1.0  0.1235
  H  H49  1  0.675500  0.449200  0.663500  1.0  0.1033
  H  H50  1  0.689300  0.641600  0.687500  1.0  0.0981
  H  H51  1  0.606300  0.700500  0.607800  1.0  0.1195
  H  H52  1  0.522100  0.614300  0.674000  1.0  0.1346
  H  H53  1  0.712200  0.824200  0.427800  1.0  0.1205
  H  H54  1  0.712500  0.743900  0.502800  1.0  0.0942
  H  H55  1  0.752700  0.771400  0.405700  1.0  0.1133
  H  H56  1  0.704400  0.841000  0.291800  1.0  0.0964
  H  H57  1  0.665100  0.789300  0.257200  1.0  0.0894
  H  H58  1  0.834000  0.653700  0.276300  1.0  0.0715
  H  H59  1  0.854500  0.885300  0.204400  1.0  0.1026
  H  H60  1  0.575900  0.655600  0.292900  1.0  0.0996
  H  H61  1  0.481600  0.616600  0.348000  1.0  0.1072
  H  H62  1  0.537800  0.718500  0.290700  1.0  0.1083
  H  H63  1  0.381000  0.469500  0.562900  1.0  0.0987
  H  H64  1  0.415100  0.516300  0.460800  1.0  0.0656
  H  H65  1  0.402300  0.683800  0.474300  1.0  0.1024
  H  H66  1  0.184000  0.546800  0.521600  1.0  0.0764
  H  H67  1  0.391400  0.465100  0.663900  1.0  0.1103
  H  H68  1  0.438200  0.509800  0.699400  1.0  0.1106
  H  H69  1  0.381400  0.543100  0.664300  1.0  0.124
  H  H70  1  0.324500  0.661000  0.226300  1.0  0.1038
  H  H71  1  0.310700  0.623200  0.047700  1.0  0.0979
  H  H72  1  0.393700  0.785900  0.905800  1.0  0.1185
  H  H73  1  0.477900  0.803900  0.907800  1.0  0.1326
  H  H74  1  0.287800  0.860000  0.888000  1.0  0.1208
  H  H75  1  0.287500  0.784700  0.968600  1.0  0.0977
  H  H76  1  0.247300  0.841600  0.981300  1.0  0.114
  H  H77  1  0.295600  0.003800  0.863400  1.0  0.1003
  H  H78  1  0.334900  0.077700  0.875800  1.0  0.0907
  H  H79  1  0.166000  0.889700  0.180300  1.0  0.0716
  H  H80  1  0.145500  0.941100  0.969200  1.0  0.1047
  H  H81  1  0.424100  0.131200  0.920300  1.0  0.1026
  H  H82  1  0.518400  0.170400  0.865000  1.0  0.1074
  H  H83  1  0.462200  0.171500  0.819300  1.0  0.1116
  H  H84  1  0.619000  0.056100  0.911500  1.0  0.0948
  H  H85  1  0.584900  0.124100  0.898800  1.0  0.066
  H  H86  1  0.597700  0.123400  0.718500  1.0  0.1014
  H  H87  1  0.816000  0.294400  0.637200  1.0  0.0746
  H  H88  1  0.608600  0.944700  0.926300  1.0  0.1087
  H  H89  1  0.561800  0.862400  0.928400  1.0  0.1096
  H  H90  1  0.618600  0.954300  0.838300  1.0  0.1236
  H  H91  1  0.887300  0.226300  0.449200  1.0  0.1036
  H  H92  1  0.670900  0.047700  0.641600  1.0  0.1008
  H  H93  1  0.691700  0.905800  0.700500  1.0  0.1184
  H  H94  1  0.711700  0.907800  0.614300  1.0  0.1345
  H  H95  1  0.748000  0.888000  0.824200  1.0  0.1186
  H  H96  1  0.753300  0.968600  0.743900  1.0  0.0951
  H  H97  1  0.822900  0.981300  0.771400  1.0  0.1148
  H  H98  1  0.867200  0.863400  0.841000  1.0  0.0965
  H  H99  1  0.953500  0.875800  0.789300  1.0  0.0886
  H  H100  1  0.070000  0.180300  0.653700  1.0  0.0726
  H  H101  1  0.910300  0.969200  0.885300  1.0  0.1043
  H  H102  1  0.051500  0.920300  0.655600  1.0  0.1018
  H  H103  1  0.035400  0.865000  0.616600  1.0  0.1072
  H  H104  1  0.990800  0.819300  0.718500  1.0  0.1108
  H  H105  1  0.967600  0.911500  0.469500  1.0  0.0975
  H  H106  1  0.022900  0.898800  0.516300  1.0  0.0675
  H  H107  1  0.841900  0.718500  0.683800  1.0  0.1023
  H  H108  1  0.931600  0.637200  0.546800  1.0  0.0709
  H  H109  1  0.871000  0.926300  0.465100  1.0  0.1069
  H  H110  1  0.790800  0.928400  0.509800  1.0  0.1099
  H  H111  1  0.792600  0.838300  0.543100  1.0  0.123
  H  H112  1  0.112700  0.663500  0.661000  1.0  0.1035
  H  H113  1  0.329100  0.687500  0.623200  1.0  0.0989
  H  H114  1  0.308300  0.607800  0.785900  1.0  0.1253
  H  H115  1  0.288300  0.674000  0.803900  1.0  0.1312
  H  H116  1  0.252000  0.427800  0.860000  1.0  0.123
  H  H117  1  0.246700  0.502800  0.784700  1.0  0.0965
  H  H118  1  0.177100  0.405700  0.841600  1.0  0.115
  H  H119  1  0.132800  0.291800  0.003800  1.0  0.0978
  H  H120  1  0.046500  0.257200  0.077700  1.0  0.0875
  H  H121  1  0.930000  0.276300  0.889700  1.0  0.0718
  H  H122  1  0.089700  0.204400  0.941100  1.0  0.1055
  H  H123  1  0.948500  0.292900  0.131200  1.0  0.1034
  H  H124  1  0.964600  0.348000  0.170400  1.0  0.1078
  H  H125  1  0.009200  0.290700  0.171500  1.0  0.1079
  H  H126  1  0.032400  0.562900  0.056100  1.0  0.0969
  H  H127  1  0.977100  0.460800  0.124100  1.0  0.067
  H  H128  1  0.158100  0.474300  0.123400  1.0  0.1034
  H  H129  1  0.068400  0.521600  0.294400  1.0  0.0742
  H  H130  1  0.129000  0.663900  0.944700  1.0  0.1078
  H  H131  1  0.209200  0.699400  0.862400  1.0  0.1101
  H  H132  1  0.207400  0.664300  0.954300  1.0  0.1223
  H  H133  1  0.324500  0.550800  0.336500  1.0  0.103
  H  H134  1  0.310700  0.358400  0.312500  1.0  0.0991
  H  H135  1  0.393700  0.299500  0.392200  1.0  0.1189
  H  H136  1  0.477900  0.385700  0.326000  1.0  0.134
  H  H137  1  0.287800  0.175800  0.572200  1.0  0.1191
  H  H138  1  0.287500  0.256100  0.497200  1.0  0.0945
  H  H139  1  0.247300  0.228600  0.594300  1.0  0.1121
  H  H140  1  0.295600  0.159000  0.708200  1.0  0.0976
  H  H141  1  0.334900  0.210700  0.742800  1.0  0.0881
  H  H142  1  0.166000  0.346300  0.723700  1.0  0.0714
  H  H143  1  0.145500  0.114700  0.795600  1.0  0.1029
  H  H144  1  0.424100  0.344400  0.707100  1.0  0.101
  H  H145  1  0.518400  0.383400  0.652000  1.0  0.1097
  H  H146  1  0.462200  0.281500  0.709300  1.0  0.1076
  H  H147  1  0.619000  0.530500  0.437100  1.0  0.098
  H  H148  1  0.584900  0.483700  0.539200  1.0  0.0671
  H  H149  1  0.597700  0.316200  0.525700  1.0  0.1023
  H  H150  1  0.816000  0.453200  0.478400  1.0  0.0793
  H  H151  1  0.608600  0.534900  0.336100  1.0  0.1106
  H  H152  1  0.561800  0.490200  0.300600  1.0  0.1095
  H  H153  1  0.618600  0.456900  0.335700  1.0  0.1239
  H  H154  1  0.675500  0.339000  0.773700  1.0  0.104
  H  H155  1  0.689300  0.376800  0.952300  1.0  0.0986
  H  H156  1  0.606300  0.214100  0.094200  1.0  0.1206
  H  H157  1  0.522100  0.196100  0.092200  1.0  0.132
  H  H158  1  0.712200  0.140000  0.112000  1.0  0.1222
  H  H159  1  0.712500  0.215300  0.031400  1.0  0.0983
  H  H160  1  0.752700  0.158400  0.018700  1.0  0.1142
  H  H161  1  0.704400  0.996200  0.136600  1.0  0.0992
  H  H162  1  0.665100  0.922300  0.124200  1.0  0.0901
  H  H163  1  0.834000  0.110300  0.819700  1.0  0.0721
  H  H164  1  0.854500  0.058900  0.030800  1.0  0.1044
  H  H165  1  0.575900  0.868800  0.079700  1.0  0.1044
  H  H166  1  0.481600  0.829600  0.135000  1.0  0.1074
  H  H167  1  0.537800  0.828500  0.180700  1.0  0.1101
  H  H168  1  0.381000  0.943900  0.088500  1.0  0.0955
  H  H169  1  0.415100  0.875900  0.101200  1.0  0.0657
  H  H170  1  0.402300  0.876600  0.281500  1.0  0.1023
  H  H171  1  0.184000  0.705600  0.362800  1.0  0.0734
  H  H172  1  0.391400  0.055300  0.073700  1.0  0.1071
  H  H173  1  0.438200  0.137600  0.071600  1.0  0.1108
  H  H174  1  0.381400  0.045700  0.161700  1.0  0.1221
  C  C175  1  0.158520  0.827850  0.507290  1.0  0.2213
  C  C176  1  0.276480  0.924530  0.403360  1.0  0.1321
  C  C177  1  0.266200  0.066540  0.358500  1.0  -0.1331
  C  C178  1  0.191920  0.078650  0.355900  1.0  -0.1111
  C  C179  1  0.171150  0.077750  0.293620  1.0  0.0538
  C  C180  1  0.215770  0.058180  0.233030  1.0  -0.3827
  C  C181  1  0.105010  0.093700  0.288660  1.0  -0.0579
  C  C182  1  0.083510  0.098700  0.215040  1.0  -0.0903
  C  C183  1  0.968200  0.877960  0.301580  1.0  0.2664
  C  C184  1  0.054950  0.991140  0.174830  1.0  0.1336
  C  C185  1  0.060640  0.107400  0.346290  1.0  0.0312
  C  C186  1  0.988850  0.127680  0.338090  1.0  -0.3363
  C  C187  1  0.081820  0.105790  0.410030  1.0  -0.1086
  C  C188  1  0.033030  0.121730  0.474200  1.0  -0.0382
  C  C189  1  0.128470  0.283870  0.361500  1.0  0.1431
  C  C190  1  0.078610  0.326180  0.437370  1.0  0.229
  C  C191  1  0.149430  0.094480  0.414980  1.0  0.0903
  C  C192  1  0.176210  0.100960  0.480310  1.0  -0.3812
  C  C193  1  0.841480  0.334190  0.330670  1.0  0.2258
  C  C194  1  0.723520  0.320150  0.351960  1.0  0.1366
  C  C195  1  0.733800  0.375300  0.199660  1.0  -0.1336
  C  C196  1  0.808080  0.452180  0.113280  1.0  -0.1135
  C  C197  1  0.828850  0.535230  0.093400  1.0  0.057
  C  C198  1  0.784230  0.551200  0.157590  1.0  -0.3823
  C  C199  1  0.894990  0.606330  0.011310  1.0  -0.0574
  C  C200  1  0.916490  0.701450  0.984810  1.0  -0.091
  C  C201  1  0.031800  0.730230  0.090240  1.0  0.2703
  C  C202  1  0.945050  0.770220  0.063810  1.0  0.1333
  C  C203  1  0.939360  0.593070  0.953240  1.0  0.0306
  C  C204  1  0.011150  0.673060  0.861170  1.0  -0.33
  C  C205  1  0.918180  0.508160  0.976020  1.0  -0.1112
  C  C206  1  0.966970  0.492770  0.911300  1.0  -0.0387
  C  C207  1  0.871530  0.510030  0.844600  1.0  0.1447
  C  C208  1  0.921390  0.484020  0.752430  1.0  0.2325
  C  C209  1  0.850570  0.435590  0.054960  1.0  0.0856
  C  C210  1  0.823790  0.343480  0.075250  1.0  -0.3767
  C  C211  1  0.664860  0.492710  0.665810  1.0  0.2261
  C  C212  1  0.672110  0.596630  0.679840  1.0  0.1389
  C  C213  1  0.574960  0.641500  0.624700  1.0  -0.1391
  C  C214  1  0.565450  0.644090  0.547820  1.0  -0.1125
  C  C215  1  0.628630  0.706380  0.464770  1.0  0.0562
  C  C216  1  0.708790  0.766970  0.448800  1.0  -0.3798
  C  C217  1  0.617640  0.711340  0.393670  1.0  -0.0602
  C  C218  1  0.686260  0.784960  0.298550  1.0  -0.0899
  C  C219  1  0.820470  0.698430  0.269770  1.0  0.2673
  C  C220  1  0.834030  0.825170  0.229780  1.0  0.13
  C  C221  1  0.546310  0.653710  0.406930  1.0  0.0316
  C  C222  1  0.534230  0.661910  0.326940  1.0  -0.3334
  C  C223  1  0.484180  0.589980  0.491850  1.0  -0.1097
  C  C224  1  0.404070  0.525800  0.507230  1.0  -0.0397
  C  C225  1  0.354630  0.638500  0.489970  1.0  0.1462
  C  C226  1  0.236450  0.562630  0.515980  1.0  0.2402
  C  C227  1  0.490550  0.585020  0.564400  1.0  0.0855
  C  C228  1  0.418730  0.519690  0.656520  1.0  -0.3778
  C  C229  1  0.335140  0.669330  0.172150  1.0  0.2203
  C  C230  1  0.327890  0.648050  0.075480  1.0  0.13
  C  C231  1  0.425040  0.800340  0.933460  1.0  -0.1328
  C  C232  1  0.434550  0.886730  0.921350  1.0  -0.1135
  C  C233  1  0.371370  0.906600  0.922250  1.0  0.0532
  C  C234  1  0.291210  0.842410  0.941820  1.0  -0.3803
  C  C235  1  0.382360  0.988690  0.906300  1.0  -0.0597
  C  C236  1  0.313740  0.015190  0.901300  1.0  -0.0895
  C  C237  1  0.179530  0.909750  0.122040  1.0  0.2677
  C  C238  1  0.165970  0.936190  0.008860  1.0  0.1313
  C  C239  1  0.453690  0.046760  0.892600  1.0  0.0297
  C  C240  1  0.465770  0.138830  0.872320  1.0  -0.3333
  C  C241  1  0.515820  0.023970  0.894200  1.0  -0.1083
  C  C242  1  0.595930  0.088700  0.878270  1.0  -0.0514
  C  C243  1  0.645370  0.155400  0.716130  1.0  0.1463
  C  C244  1  0.763550  0.247570  0.673820  1.0  0.2201
  C  C245  1  0.509450  0.945040  0.905530  1.0  0.0869
  C  C246  1  0.581270  0.924750  0.899040  1.0  -0.3765
  C  C247  1  0.841480  0.172150  0.492710  1.0  0.2194
  C  C248  1  0.723520  0.075470  0.596640  1.0  0.13
  C  C249  1  0.733800  0.933460  0.641500  1.0  -0.1361
  C  C250  1  0.808080  0.921350  0.644100  1.0  -0.1133
  C  C251  1  0.828850  0.922250  0.706380  1.0  0.0567
  C  C252  1  0.784230  0.941820  0.766970  1.0  -0.383
  C  C253  1  0.894990  0.906300  0.711340  1.0  -0.0555
  C  C254  1  0.916490  0.901300  0.784960  1.0  -0.091
  C  C255  1  0.031800  0.122040  0.698420  1.0  0.2678
  C  C256  1  0.945050  0.008860  0.825170  1.0  0.1357
  C  C257  1  0.939360  0.892600  0.653710  1.0  0.0322
  C  C258  1  0.011150  0.872320  0.661910  1.0  -0.336
  C  C259  1  0.918180  0.894210  0.589970  1.0  -0.1079
  C  C260  1  0.966970  0.878270  0.525800  1.0  -0.0398
  C  C261  1  0.871530  0.716130  0.638500  1.0  0.1439
  C  C262  1  0.921390  0.673820  0.562630  1.0  0.2284
  C  C263  1  0.850570  0.905520  0.585020  1.0  0.0893
  C  C264  1  0.823790  0.899040  0.519690  1.0  -0.3801
  C  C265  1  0.158520  0.665810  0.669330  1.0  0.2253
  C  C266  1  0.276480  0.679850  0.648040  1.0  0.1374
  C  C267  1  0.266200  0.624700  0.800340  1.0  -0.1329
  C  C268  1  0.191920  0.547820  0.886720  1.0  -0.1127
  C  C269  1  0.171150  0.464770  0.906600  1.0  0.058
  C  C270  1  0.215770  0.448800  0.842410  1.0  -0.382
  C  C271  1  0.105010  0.393670  0.988690  1.0  -0.0578
  C  C272  1  0.083510  0.298550  0.015190  1.0  -0.0906
  C  C273  1  0.968200  0.269770  0.909760  1.0  0.2693
  C  C274  1  0.054950  0.229780  0.936190  1.0  0.1322
  C  C275  1  0.060640  0.406930  0.046760  1.0  0.0309
  C  C276  1  0.988850  0.326940  0.138830  1.0  -0.3298
  C  C277  1  0.081820  0.491840  0.023980  1.0  -0.1109
  C  C278  1  0.033030  0.507230  0.088700  1.0  -0.0405
  C  C279  1  0.128470  0.489970  0.155400  1.0  0.1443
  C  C280  1  0.078610  0.515980  0.247570  1.0  0.2316
  C  C281  1  0.149430  0.564410  0.945040  1.0  0.0848
  C  C282  1  0.176210  0.656520  0.924750  1.0  -0.3784
  C  C283  1  0.335140  0.507290  0.334190  1.0  0.2258
  C  C284  1  0.327890  0.403370  0.320160  1.0  0.1377
  C  C285  1  0.425040  0.358500  0.375300  1.0  -0.1335
  C  C286  1  0.434550  0.355910  0.452180  1.0  -0.1121
  C  C287  1  0.371370  0.293620  0.535230  1.0  0.0551
  C  C288  1  0.291210  0.233030  0.551200  1.0  -0.3814
  C  C289  1  0.382360  0.288660  0.606330  1.0  -0.0601
  C  C290  1  0.313740  0.215040  0.701450  1.0  -0.09
  C  C291  1  0.179530  0.301570  0.730230  1.0  0.2677
  C  C292  1  0.165970  0.174830  0.770220  1.0  0.1313
  C  C293  1  0.453690  0.346290  0.593070  1.0  0.0321
  C  C294  1  0.465770  0.338090  0.673060  1.0  -0.3303
  C  C295  1  0.515820  0.410020  0.508150  1.0  -0.1083
  C  C296  1  0.595930  0.474200  0.492770  1.0  -0.0369
  C  C297  1  0.645370  0.361500  0.510030  1.0  0.147
  C  C298  1  0.763550  0.437370  0.484020  1.0  0.2417
  C  C299  1  0.509450  0.414980  0.435600  1.0  0.0861
  C  C300  1  0.581270  0.480310  0.343480  1.0  -0.3776
  C  C301  1  0.664860  0.330670  0.827850  1.0  0.2192
  C  C302  1  0.672110  0.351950  0.924520  1.0  0.1271
  C  C303  1  0.574960  0.199660  0.066540  1.0  -0.1342
  C  C304  1  0.565450  0.113270  0.078650  1.0  -0.1141
  C  C305  1  0.628630  0.093400  0.077750  1.0  0.0559
  C  C306  1  0.708790  0.157590  0.058180  1.0  -0.3825
  C  C307  1  0.617640  0.011310  0.093700  1.0  -0.0608
  C  C308  1  0.686260  0.984810  0.098700  1.0  -0.0891
  C  C309  1  0.820470  0.090250  0.877960  1.0  0.2665
  C  C310  1  0.834030  0.063810  0.991140  1.0  0.1319
  C  C311  1  0.546310  0.953240  0.107400  1.0  0.0292
  C  C312  1  0.534230  0.861170  0.127680  1.0  -0.3349
  C  C313  1  0.484180  0.976030  0.105800  1.0  -0.108
  C  C314  1  0.404070  0.911300  0.121730  1.0  -0.0471
  C  C315  1  0.354630  0.844600  0.283870  1.0  0.1455
  C  C316  1  0.236450  0.752430  0.326180  1.0  0.2205
  C  C317  1  0.490550  0.054960  0.094470  1.0  0.0861
  C  C318  1  0.418730  0.075250  0.100960  1.0  -0.377
  I  I319  1  0.000000  0.676240  0.323760  1.0  -0.4015
  I  I320  1  0.000000  0.323760  0.676240  1.0  -0.3997
  I  I321  1  0.000000  0.000000  0.000000  1.0  -0.3821
  I  I322  1  0.864820  0.056900  0.192080  1.0  -0.3308
  I  I323  1  0.135180  0.943100  0.807920  1.0  -0.3303
  I  I324  1  0.751020  0.807920  0.056900  1.0  -0.3331
  I  I325  1  0.248980  0.192080  0.943100  1.0  -0.3327
  I  I326  1  0.589900  0.913740  0.323840  1.0  -0.3339
  I  I327  1  0.410100  0.086250  0.676160  1.0  -0.3374
  I  I328  1  0.762410  0.676150  0.913750  1.0  -0.3314
  I  I329  1  0.237590  0.323850  0.086250  1.0  -0.3304
  N  N330  1  0.234060  0.839080  0.464410  1.0  -0.4037
  N  N331  1  0.159940  0.904710  0.478210  1.0  -0.2871
  N  N332  1  0.234720  0.964220  0.414720  1.0  0.1312
  N  N333  1  0.007600  0.906270  0.215190  1.0  -0.3927
  N  N334  1  0.988070  0.937870  0.315900  1.0  -0.3759
  N  N335  1  0.045200  0.010770  0.233320  1.0  0.1306
  N  N336  1  0.068750  0.214100  0.439570  1.0  0.1751
  N  N337  1  0.037060  0.241060  0.488180  1.0  -0.3317
  N  N338  1  0.139990  0.357070  0.356920  1.0  -0.417
  N  N339  1  0.765940  0.301530  0.394970  1.0  -0.4151
  N  N340  1  0.840060  0.361850  0.255230  1.0  -0.2866
  N  N341  1  0.765280  0.350560  0.270510  1.0  0.1297
  N  N342  1  0.992400  0.777200  0.101330  1.0  -0.3903
  N  N343  1  0.011930  0.696030  0.050200  1.0  -0.3787
  N  N344  1  0.954800  0.721480  0.034430  1.0  0.1285
  N  N345  1  0.931250  0.491670  0.854660  1.0  0.174
  N  N346  1  0.962940  0.474760  0.796000  1.0  -0.3284
  N  N347  1  0.860010  0.503090  0.782910  1.0  -0.4188
  N  N348  1  0.696510  0.535600  0.698470  1.0  -0.4077
  N  N349  1  0.617080  0.521790  0.638150  1.0  -0.2889
  N  N350  1  0.621070  0.585280  0.649430  1.0  0.1299
  N  N351  1  0.878540  0.784810  0.222790  1.0  -0.3936
  N  N352  1  0.746230  0.684100  0.303970  1.0  -0.3791
  N  N353  1  0.755910  0.766680  0.278520  1.0  0.1275
  N  N354  1  0.346330  0.560420  0.508320  1.0  0.1725
  N  N355  1  0.270760  0.511820  0.525240  1.0  -0.3343
  N  N356  1  0.286000  0.643080  0.496920  1.0  -0.4217
  N  N357  1  0.303500  0.605030  0.160910  1.0  -0.404
  N  N358  1  0.382920  0.744770  0.095290  1.0  -0.2901
  N  N359  1  0.378930  0.729490  0.035790  1.0  0.1296
  N  N360  1  0.121460  0.898670  0.093730  1.0  -0.3927
  N  N361  1  0.253770  0.949800  0.062130  1.0  -0.3782
  N  N362  1  0.244090  0.965570  0.989230  1.0  0.1293
  N  N363  1  0.653670  0.145350  0.785910  1.0  0.1738
  N  N364  1  0.729240  0.204000  0.758940  1.0  -0.3341
  N  N365  1  0.714000  0.217090  0.642920  1.0  -0.4138
  N  N366  1  0.765940  0.160920  0.535590  1.0  -0.4051
  N  N367  1  0.840060  0.095290  0.521790  1.0  -0.2874
  N  N368  1  0.765280  0.035780  0.585280  1.0  0.1295
  N  N369  1  0.992400  0.093730  0.784810  1.0  -0.3919
  N  N370  1  0.011930  0.062130  0.684100  1.0  -0.3787
  N  N371  1  0.954800  0.989230  0.766680  1.0  0.1303
  N  N372  1  0.931250  0.785900  0.560430  1.0  0.1741
  N  N373  1  0.962940  0.758940  0.511820  1.0  -0.3354
  N  N374  1  0.860010  0.642930  0.643080  1.0  -0.4165
  N  N375  1  0.234060  0.698470  0.605030  1.0  -0.4156
  N  N376  1  0.159940  0.638150  0.744770  1.0  -0.2872
  N  N377  1  0.234720  0.649440  0.729490  1.0  0.1303
  N  N378  1  0.007600  0.222790  0.898670  1.0  -0.392
  N  N379  1  0.988070  0.303970  0.949800  1.0  -0.3769
  N  N380  1  0.045200  0.278520  0.965570  1.0  0.128
  N  N381  1  0.068750  0.508320  0.145340  1.0  0.1766
  N  N382  1  0.037060  0.525240  0.204000  1.0  -0.3272
  N  N383  1  0.139990  0.496910  0.217090  1.0  -0.4172
  N  N384  1  0.303490  0.464400  0.301530  1.0  -0.4081
  N  N385  1  0.382920  0.478210  0.361850  1.0  -0.29
  N  N386  1  0.378930  0.414720  0.350570  1.0  0.1304
  N  N387  1  0.121460  0.215190  0.777210  1.0  -0.3931
  N  N388  1  0.253770  0.315900  0.696030  1.0  -0.3787
  N  N389  1  0.244090  0.233320  0.721480  1.0  0.1279
  N  N390  1  0.653670  0.439580  0.491680  1.0  0.1708
  N  N391  1  0.729240  0.488180  0.474760  1.0  -0.3343
  N  N392  1  0.714000  0.356920  0.503080  1.0  -0.4197
  N  N393  1  0.696510  0.394980  0.839080  1.0  -0.4015
  N  N394  1  0.617080  0.255230  0.904710  1.0  -0.2901
  N  N395  1  0.621070  0.270510  0.964210  1.0  0.1295
  N  N396  1  0.878540  0.101330  0.906270  1.0  -0.393
  N  N397  1  0.746230  0.050200  0.937870  1.0  -0.3766
  N  N398  1  0.755910  0.034430  0.010770  1.0  0.1284
  N  N399  1  0.346330  0.854650  0.214100  1.0  0.1724
  N  N400  1  0.270760  0.796000  0.241060  1.0  -0.3314
  N  N401  1  0.286000  0.782910  0.357080  1.0  -0.4155
