# generated using pymatgen
data_CuH2(C3O2)2
_symmetry_space_group_name_H-M   'P 1'
_cell_length_a   26.44600000
_cell_length_b   26.44600000
_cell_length_c   26.44600000
_cell_angle_alpha   90.00000000
_cell_angle_beta   90.00000000
_cell_angle_gamma   90.00000000
_symmetry_Int_Tables_number   1
_chemical_formula_structural   CuH2(C3O2)2
_chemical_formula_sum   'Cu48 H96 C288 O192'
_cell_volume   18496.09216454
_cell_formula_units_Z   48
loop_
 _symmetry_equiv_pos_site_id
 _symmetry_equiv_pos_as_xyz
  1  'x, y, z'
loop_
 _atom_site_type_symbol
 _atom_site_label
 _atom_site_symmetry_multiplicity
 _atom_site_fract_x
 _atom_site_fract_y
 _atom_site_fract_z
 _atom_site_occupancy
 _atom_site_charge
  Cu  Cu1  1  0.214260  0.000000  0.214260  1.0  0.8765
  Cu  Cu2  1  0.214260  0.500000  0.714260  1.0  0.8765
  Cu  Cu3  1  0.714260  0.000000  0.714260  1.0  0.8765
  Cu  Cu4  1  0.714260  0.500000  0.214260  1.0  0.8765
  Cu  Cu5  1  0.785740  0.000000  0.214260  1.0  0.8757
  Cu  Cu6  1  0.785740  0.500000  0.714260  1.0  0.8757
  Cu  Cu7  1  0.285740  0.000000  0.714260  1.0  0.8757
  Cu  Cu8  1  0.285740  0.500000  0.214260  1.0  0.8757
  Cu  Cu9  1  0.785740  0.000000  0.785740  1.0  0.8753
  Cu  Cu10  1  0.785740  0.500000  0.285740  1.0  0.8753
  Cu  Cu11  1  0.285740  0.000000  0.285740  1.0  0.8753
  Cu  Cu12  1  0.285740  0.500000  0.785740  1.0  0.8753
  Cu  Cu13  1  0.214260  0.000000  0.785740  1.0  0.8757
  Cu  Cu14  1  0.214260  0.500000  0.285740  1.0  0.8757
  Cu  Cu15  1  0.714260  0.000000  0.285740  1.0  0.8757
  Cu  Cu16  1  0.714260  0.500000  0.785740  1.0  0.8757
  Cu  Cu17  1  0.214260  0.214260  0.000000  1.0  0.8772
  Cu  Cu18  1  0.214260  0.714260  0.500000  1.0  0.8772
  Cu  Cu19  1  0.714260  0.214260  0.500000  1.0  0.8772
  Cu  Cu20  1  0.714260  0.714260  0.000000  1.0  0.8772
  Cu  Cu21  1  0.214260  0.785740  0.000000  1.0  0.8778
  Cu  Cu22  1  0.214260  0.285740  0.500000  1.0  0.8778
  Cu  Cu23  1  0.714260  0.785740  0.500000  1.0  0.8778
  Cu  Cu24  1  0.714260  0.285740  0.000000  1.0  0.8778
  Cu  Cu25  1  0.785740  0.785740  0.000000  1.0  0.8782
  Cu  Cu26  1  0.785740  0.285740  0.500000  1.0  0.8782
  Cu  Cu27  1  0.285740  0.785740  0.500000  1.0  0.8782
  Cu  Cu28  1  0.285740  0.285740  0.000000  1.0  0.8782
  Cu  Cu29  1  0.785740  0.214260  0.000000  1.0  0.8765
  Cu  Cu30  1  0.785740  0.714260  0.500000  1.0  0.8765
  Cu  Cu31  1  0.285740  0.214260  0.500000  1.0  0.8765
  Cu  Cu32  1  0.285740  0.714260  0.000000  1.0  0.8765
  Cu  Cu33  1  0.000000  0.214260  0.214260  1.0  0.8752
  Cu  Cu34  1  0.000000  0.714260  0.714260  1.0  0.8752
  Cu  Cu35  1  0.500000  0.214260  0.714260  1.0  0.8752
  Cu  Cu36  1  0.500000  0.714260  0.214260  1.0  0.8752
  Cu  Cu37  1  0.000000  0.214260  0.785740  1.0  0.8745
  Cu  Cu38  1  0.000000  0.714260  0.285740  1.0  0.8745
  Cu  Cu39  1  0.500000  0.214260  0.285740  1.0  0.8745
  Cu  Cu40  1  0.500000  0.714260  0.785740  1.0  0.8745
  Cu  Cu41  1  0.000000  0.785740  0.785740  1.0  0.8759
  Cu  Cu42  1  0.000000  0.285740  0.285740  1.0  0.8759
  Cu  Cu43  1  0.500000  0.785740  0.285740  1.0  0.8759
  Cu  Cu44  1  0.500000  0.285740  0.785740  1.0  0.8759
  Cu  Cu45  1  0.000000  0.785740  0.214260  1.0  0.8756
  Cu  Cu46  1  0.000000  0.285740  0.714260  1.0  0.8756
  Cu  Cu47  1  0.500000  0.785740  0.714260  1.0  0.8756
  Cu  Cu48  1  0.500000  0.285740  0.214260  1.0  0.8756
  H  H49  1  0.227900  0.120600  0.379400  1.0  0.1167
  H  H50  1  0.727900  0.120600  0.879400  1.0  0.1167
  H  H51  1  0.772100  0.879400  0.379400  1.0  0.1165
  H  H52  1  0.272100  0.879400  0.879400  1.0  0.1165
  H  H53  1  0.272100  0.379400  0.379400  1.0  0.1165
  H  H54  1  0.772100  0.120600  0.620600  1.0  0.1166
  H  H55  1  0.272100  0.120600  0.120600  1.0  0.1166
  H  H56  1  0.227900  0.879400  0.620600  1.0  0.1166
  H  H57  1  0.227900  0.379400  0.120600  1.0  0.1166
  H  H58  1  0.727900  0.879400  0.120600  1.0  0.1166
  H  H59  1  0.379400  0.227900  0.120600  1.0  0.1163
  H  H60  1  0.379400  0.727900  0.620600  1.0  0.1163
  H  H61  1  0.379400  0.772100  0.879400  1.0  0.1164
  H  H62  1  0.379400  0.272100  0.379400  1.0  0.1164
  H  H63  1  0.620600  0.772100  0.120600  1.0  0.1164
  H  H64  1  0.620600  0.272100  0.620600  1.0  0.1164
  H  H65  1  0.120600  0.272100  0.120600  1.0  0.1164
  H  H66  1  0.620600  0.227900  0.879400  1.0  0.1166
  H  H67  1  0.620600  0.727900  0.379400  1.0  0.1166
  H  H68  1  0.120600  0.227900  0.379400  1.0  0.1166
  H  H69  1  0.120600  0.379400  0.227900  1.0  0.1174
  H  H70  1  0.120600  0.879400  0.727900  1.0  0.1174
  H  H71  1  0.879400  0.379400  0.772100  1.0  0.1174
  H  H72  1  0.879400  0.879400  0.272100  1.0  0.1174
  H  H73  1  0.379400  0.379400  0.272100  1.0  0.1174
  H  H74  1  0.120600  0.620600  0.772100  1.0  0.1171
  H  H75  1  0.120600  0.120600  0.272100  1.0  0.1171
  H  H76  1  0.879400  0.620600  0.227900  1.0  0.1171
  H  H77  1  0.879400  0.120600  0.727900  1.0  0.1171
  H  H78  1  0.379400  0.120600  0.227900  1.0  0.1171
  H  H79  1  0.120600  0.227900  0.620600  1.0  0.1163
  H  H80  1  0.120600  0.727900  0.120600  1.0  0.1163
  H  H81  1  0.879400  0.772100  0.620600  1.0  0.1164
  H  H82  1  0.879400  0.272100  0.120600  1.0  0.1164
  H  H83  1  0.379400  0.772100  0.120600  1.0  0.1164
  H  H84  1  0.120600  0.772100  0.379400  1.0  0.1166
  H  H85  1  0.120600  0.272100  0.879400  1.0  0.1166
  H  H86  1  0.879400  0.227900  0.379400  1.0  0.1164
  H  H87  1  0.879400  0.727900  0.879400  1.0  0.1164
  H  H88  1  0.379400  0.727900  0.379400  1.0  0.1164
  H  H89  1  0.227900  0.379400  0.879400  1.0  0.1167
  H  H90  1  0.727900  0.379400  0.379400  1.0  0.1167
  H  H91  1  0.772100  0.379400  0.120600  1.0  0.1165
  H  H92  1  0.272100  0.379400  0.620600  1.0  0.1165
  H  H93  1  0.772100  0.620600  0.879400  1.0  0.1167
  H  H94  1  0.772100  0.120600  0.379400  1.0  0.1167
  H  H95  1  0.272100  0.620600  0.379400  1.0  0.1167
  H  H96  1  0.227900  0.620600  0.120600  1.0  0.1164
  H  H97  1  0.727900  0.620600  0.620600  1.0  0.1164
  H  H98  1  0.727900  0.120600  0.120600  1.0  0.1164
  H  H99  1  0.379400  0.120600  0.772100  1.0  0.1173
  H  H100  1  0.379400  0.620600  0.272100  1.0  0.1173
  H  H101  1  0.379400  0.879400  0.227900  1.0  0.1175
  H  H102  1  0.379400  0.379400  0.727900  1.0  0.1175
  H  H103  1  0.620600  0.120600  0.227900  1.0  0.1174
  H  H104  1  0.620600  0.620600  0.727900  1.0  0.1174
  H  H105  1  0.120600  0.120600  0.727900  1.0  0.1174
  H  H106  1  0.620600  0.879400  0.772100  1.0  0.117
  H  H107  1  0.620600  0.379400  0.272100  1.0  0.117
  H  H108  1  0.120600  0.379400  0.772100  1.0  0.117
  H  H109  1  0.772100  0.879400  0.620600  1.0  0.1165
  H  H110  1  0.272100  0.879400  0.120600  1.0  0.1165
  H  H111  1  0.227900  0.120600  0.620600  1.0  0.1164
  H  H112  1  0.227900  0.879400  0.379400  1.0  0.1167
  H  H113  1  0.727900  0.879400  0.879400  1.0  0.1167
  H  H114  1  0.272100  0.120600  0.879400  1.0  0.1167
  H  H115  1  0.620600  0.772100  0.879400  1.0  0.1166
  H  H116  1  0.620600  0.272100  0.379400  1.0  0.1166
  H  H117  1  0.620600  0.227900  0.120600  1.0  0.1163
  H  H118  1  0.620600  0.727900  0.620600  1.0  0.1163
  H  H119  1  0.379400  0.227900  0.879400  1.0  0.1164
  H  H120  1  0.379400  0.272100  0.620600  1.0  0.1164
  H  H121  1  0.879400  0.620600  0.772100  1.0  0.1173
  H  H122  1  0.879400  0.120600  0.272100  1.0  0.1173
  H  H123  1  0.120600  0.620600  0.227900  1.0  0.1174
  H  H124  1  0.879400  0.379400  0.227900  1.0  0.1175
  H  H125  1  0.879400  0.879400  0.727900  1.0  0.1175
  H  H126  1  0.120600  0.879400  0.272100  1.0  0.117
  H  H127  1  0.879400  0.772100  0.379400  1.0  0.1164
  H  H128  1  0.879400  0.272100  0.879400  1.0  0.1164
  H  H129  1  0.120600  0.727900  0.879400  1.0  0.1166
  H  H130  1  0.879400  0.227900  0.620600  1.0  0.1163
  H  H131  1  0.879400  0.727900  0.120600  1.0  0.1163
  H  H132  1  0.120600  0.772100  0.620600  1.0  0.1164
  H  H133  1  0.772100  0.620600  0.120600  1.0  0.1166
  H  H134  1  0.272100  0.620600  0.620600  1.0  0.1166
  H  H135  1  0.227900  0.620600  0.879400  1.0  0.1167
  H  H136  1  0.727900  0.620600  0.379400  1.0  0.1167
  H  H137  1  0.727900  0.379400  0.620600  1.0  0.1166
  H  H138  1  0.772100  0.379400  0.879400  1.0  0.1165
  H  H139  1  0.620600  0.879400  0.227900  1.0  0.1174
  H  H140  1  0.620600  0.379400  0.727900  1.0  0.1174
  H  H141  1  0.620600  0.120600  0.772100  1.0  0.1171
  H  H142  1  0.620600  0.620600  0.272100  1.0  0.1171
  H  H143  1  0.379400  0.879400  0.772100  1.0  0.1174
  H  H144  1  0.379400  0.620600  0.727900  1.0  0.1171
  C  C145  1  0.203380  0.069470  0.296620  1.0  0.6923
  C  C146  1  0.178220  0.113740  0.321780  1.0  -0.1625
  C  C147  1  0.203380  0.569470  0.796620  1.0  0.6923
  C  C148  1  0.178220  0.613740  0.821780  1.0  -0.1625
  C  C149  1  0.796620  0.930530  0.296620  1.0  0.692
  C  C150  1  0.821780  0.886260  0.321780  1.0  -0.1629
  C  C151  1  0.796620  0.430530  0.796620  1.0  0.692
  C  C152  1  0.821780  0.386260  0.821780  1.0  -0.1629
  C  C153  1  0.296620  0.430530  0.296620  1.0  0.692
  C  C154  1  0.321780  0.386260  0.321780  1.0  -0.1629
  C  C155  1  0.796620  0.069470  0.703380  1.0  0.6919
  C  C156  1  0.821780  0.113740  0.678220  1.0  -0.1627
  C  C157  1  0.796620  0.569470  0.203380  1.0  0.6919
  C  C158  1  0.821780  0.613740  0.178220  1.0  -0.1627
  C  C159  1  0.296620  0.069470  0.203380  1.0  0.6919
  C  C160  1  0.321780  0.113740  0.178220  1.0  -0.1627
  C  C161  1  0.203380  0.930530  0.703380  1.0  0.6923
  C  C162  1  0.178220  0.886260  0.678220  1.0  -0.1622
  C  C163  1  0.203380  0.430530  0.203380  1.0  0.6923
  C  C164  1  0.178220  0.386260  0.178220  1.0  -0.1622
  C  C165  1  0.296620  0.203380  0.069470  1.0  0.6934
  C  C166  1  0.321780  0.178220  0.113740  1.0  -0.1635
  C  C167  1  0.296620  0.703380  0.569470  1.0  0.6934
  C  C168  1  0.321780  0.678220  0.613740  1.0  -0.1635
  C  C169  1  0.296620  0.796620  0.930530  1.0  0.6932
  C  C170  1  0.321780  0.821780  0.886260  1.0  -0.1646
  C  C171  1  0.296620  0.296620  0.430530  1.0  0.6932
  C  C172  1  0.321780  0.321780  0.386260  1.0  -0.1646
  C  C173  1  0.703380  0.796620  0.069470  1.0  0.6936
  C  C174  1  0.678220  0.821780  0.113740  1.0  -0.1631
  C  C175  1  0.703380  0.296620  0.569470  1.0  0.6936
  C  C176  1  0.678220  0.321780  0.613740  1.0  -0.1631
  C  C177  1  0.203380  0.296620  0.069470  1.0  0.6936
  C  C178  1  0.178220  0.321780  0.113740  1.0  -0.1631
  C  C179  1  0.703380  0.203380  0.930530  1.0  0.6937
  C  C180  1  0.678220  0.178220  0.886260  1.0  -0.1642
  C  C181  1  0.703380  0.703380  0.430530  1.0  0.6937
  C  C182  1  0.678220  0.678220  0.386260  1.0  -0.1642
  C  C183  1  0.203380  0.203380  0.430530  1.0  0.6937
  C  C184  1  0.178220  0.178220  0.386260  1.0  -0.1642
  C  C185  1  0.069470  0.296620  0.203380  1.0  0.6918
  C  C186  1  0.113740  0.321780  0.178220  1.0  -0.1629
  C  C187  1  0.569470  0.296620  0.703380  1.0  0.6918
  C  C188  1  0.613740  0.321780  0.678220  1.0  -0.1629
  C  C189  1  0.930530  0.296620  0.796620  1.0  0.6922
  C  C190  1  0.886260  0.321780  0.821780  1.0  -0.1628
  C  C191  1  0.430530  0.296620  0.296620  1.0  0.6922
  C  C192  1  0.386260  0.321780  0.321780  1.0  -0.1628
  C  C193  1  0.069470  0.703380  0.796620  1.0  0.6918
  C  C194  1  0.113740  0.678220  0.821780  1.0  -0.163
  C  C195  1  0.069470  0.203380  0.296620  1.0  0.6918
  C  C196  1  0.113740  0.178220  0.321780  1.0  -0.163
  C  C197  1  0.569470  0.703380  0.296620  1.0  0.6918
  C  C198  1  0.613740  0.678220  0.321780  1.0  -0.163
  C  C199  1  0.930530  0.703380  0.203380  1.0  0.6925
  C  C200  1  0.886260  0.678220  0.178220  1.0  -0.1625
  C  C201  1  0.430530  0.703380  0.703380  1.0  0.6925
  C  C202  1  0.386260  0.678220  0.678220  1.0  -0.1625
  C  C203  1  0.430530  0.203380  0.203380  1.0  0.6925
  C  C204  1  0.386260  0.178220  0.178220  1.0  -0.1625
  C  C205  1  0.069470  0.203380  0.703380  1.0  0.6919
  C  C206  1  0.113740  0.178220  0.678220  1.0  -0.1628
  C  C207  1  0.569470  0.203380  0.203380  1.0  0.6919
  C  C208  1  0.613740  0.178220  0.178220  1.0  -0.1628
  C  C209  1  0.930530  0.796620  0.703380  1.0  0.6923
  C  C210  1  0.886260  0.821780  0.678220  1.0  -0.1627
  C  C211  1  0.930530  0.296620  0.203380  1.0  0.6923
  C  C212  1  0.886260  0.321780  0.178220  1.0  -0.1627
  C  C213  1  0.430530  0.796620  0.203380  1.0  0.6923
  C  C214  1  0.386260  0.821780  0.178220  1.0  -0.1627
  C  C215  1  0.069470  0.796620  0.296620  1.0  0.6917
  C  C216  1  0.113740  0.821780  0.321780  1.0  -0.1631
  C  C217  1  0.569470  0.796620  0.796620  1.0  0.6917
  C  C218  1  0.613740  0.821780  0.821780  1.0  -0.1631
  C  C219  1  0.569470  0.296620  0.296620  1.0  0.6917
  C  C220  1  0.613740  0.321780  0.321780  1.0  -0.1631
  C  C221  1  0.930530  0.203380  0.296620  1.0  0.6924
  C  C222  1  0.886260  0.178220  0.321780  1.0  -0.1626
  C  C223  1  0.430530  0.203380  0.796620  1.0  0.6924
  C  C224  1  0.386260  0.178220  0.821780  1.0  -0.1626
  C  C225  1  0.203380  0.296620  0.930530  1.0  0.6936
  C  C226  1  0.178220  0.321780  0.886260  1.0  -0.1642
  C  C227  1  0.203380  0.796620  0.430530  1.0  0.6936
  C  C228  1  0.178220  0.821780  0.386260  1.0  -0.1642
  C  C229  1  0.796620  0.296620  0.069470  1.0  0.6932
  C  C230  1  0.821780  0.321780  0.113740  1.0  -0.1636
  C  C231  1  0.796620  0.796620  0.569470  1.0  0.6932
  C  C232  1  0.821780  0.821780  0.613740  1.0  -0.1636
  C  C233  1  0.296620  0.296620  0.569470  1.0  0.6932
  C  C234  1  0.321780  0.321780  0.613740  1.0  -0.1636
  C  C235  1  0.796620  0.703380  0.930530  1.0  0.6935
  C  C236  1  0.821780  0.678220  0.886260  1.0  -0.1646
  C  C237  1  0.796620  0.203380  0.430530  1.0  0.6935
  C  C238  1  0.821780  0.178220  0.386260  1.0  -0.1646
  C  C239  1  0.296620  0.203380  0.930530  1.0  0.6935
  C  C240  1  0.321780  0.178220  0.886260  1.0  -0.1646
  C  C241  1  0.203380  0.703380  0.069470  1.0  0.6936
  C  C242  1  0.178220  0.678220  0.113740  1.0  -0.1628
  C  C243  1  0.203380  0.203380  0.569470  1.0  0.6936
  C  C244  1  0.178220  0.178220  0.613740  1.0  -0.1628
  C  C245  1  0.296620  0.069470  0.796620  1.0  0.6918
  C  C246  1  0.321780  0.113740  0.821780  1.0  -0.163
  C  C247  1  0.296620  0.569470  0.296620  1.0  0.6918
  C  C248  1  0.321780  0.613740  0.321780  1.0  -0.163
  C  C249  1  0.296620  0.930530  0.203380  1.0  0.6921
  C  C250  1  0.321780  0.886260  0.178220  1.0  -0.1628
  C  C251  1  0.296620  0.430530  0.703380  1.0  0.6921
  C  C252  1  0.321780  0.386260  0.678220  1.0  -0.1628
  C  C253  1  0.703380  0.069470  0.203380  1.0  0.6922
  C  C254  1  0.678220  0.113740  0.178220  1.0  -0.1621
  C  C255  1  0.703380  0.569470  0.703380  1.0  0.6922
  C  C256  1  0.678220  0.613740  0.678220  1.0  -0.1621
  C  C257  1  0.203380  0.569470  0.203380  1.0  0.6922
  C  C258  1  0.178220  0.613740  0.178220  1.0  -0.1621
  C  C259  1  0.703380  0.930530  0.796620  1.0  0.6924
  C  C260  1  0.678220  0.886260  0.821780  1.0  -0.1623
  C  C261  1  0.703380  0.430530  0.296620  1.0  0.6924
  C  C262  1  0.678220  0.386260  0.321780  1.0  -0.1623
  C  C263  1  0.203380  0.930530  0.296620  1.0  0.6924
  C  C264  1  0.178220  0.886260  0.321780  1.0  -0.1623
  C  C265  1  0.796620  0.930530  0.703380  1.0  0.6921
  C  C266  1  0.821780  0.886260  0.678220  1.0  -0.1628
  C  C267  1  0.796620  0.430530  0.203380  1.0  0.6921
  C  C268  1  0.821780  0.386260  0.178220  1.0  -0.1628
  C  C269  1  0.203380  0.069470  0.703380  1.0  0.6922
  C  C270  1  0.178220  0.113740  0.678220  1.0  -0.1621
  C  C271  1  0.203380  0.430530  0.796620  1.0  0.6924
  C  C272  1  0.178220  0.386260  0.821780  1.0  -0.1623
  C  C273  1  0.796620  0.069470  0.296620  1.0  0.6918
  C  C274  1  0.821780  0.113740  0.321780  1.0  -0.163
  C  C275  1  0.796620  0.569470  0.796620  1.0  0.6918
  C  C276  1  0.821780  0.613740  0.821780  1.0  -0.163
  C  C277  1  0.703380  0.796620  0.930530  1.0  0.6936
  C  C278  1  0.678220  0.821780  0.886260  1.0  -0.1642
  C  C279  1  0.703380  0.296620  0.430530  1.0  0.6936
  C  C280  1  0.678220  0.321780  0.386260  1.0  -0.1642
  C  C281  1  0.703380  0.203380  0.069470  1.0  0.6936
  C  C282  1  0.678220  0.178220  0.113740  1.0  -0.1628
  C  C283  1  0.703380  0.703380  0.569470  1.0  0.6936
  C  C284  1  0.678220  0.678220  0.613740  1.0  -0.1628
  C  C285  1  0.296620  0.703380  0.430530  1.0  0.6935
  C  C286  1  0.321780  0.678220  0.386260  1.0  -0.1646
  C  C287  1  0.296620  0.796620  0.069470  1.0  0.6932
  C  C288  1  0.321780  0.821780  0.113740  1.0  -0.1636
  C  C289  1  0.930530  0.703380  0.796620  1.0  0.6924
  C  C290  1  0.886260  0.678220  0.821780  1.0  -0.1626
  C  C291  1  0.430530  0.703380  0.296620  1.0  0.6924
  C  C292  1  0.386260  0.678220  0.321780  1.0  -0.1626
  C  C293  1  0.069470  0.703380  0.203380  1.0  0.6919
  C  C294  1  0.113740  0.678220  0.178220  1.0  -0.1628
  C  C295  1  0.569470  0.703380  0.703380  1.0  0.6919
  C  C296  1  0.613740  0.678220  0.678220  1.0  -0.1628
  C  C297  1  0.430530  0.296620  0.703380  1.0  0.6923
  C  C298  1  0.386260  0.321780  0.678220  1.0  -0.1627
  C  C299  1  0.069470  0.296620  0.796620  1.0  0.6917
  C  C300  1  0.113740  0.321780  0.821780  1.0  -0.1631
  C  C301  1  0.930530  0.796620  0.296620  1.0  0.6922
  C  C302  1  0.886260  0.821780  0.321780  1.0  -0.1628
  C  C303  1  0.430530  0.796620  0.796620  1.0  0.6922
  C  C304  1  0.386260  0.821780  0.821780  1.0  -0.1628
  C  C305  1  0.569470  0.203380  0.796620  1.0  0.6918
  C  C306  1  0.613740  0.178220  0.821780  1.0  -0.163
  C  C307  1  0.930530  0.203380  0.703380  1.0  0.6925
  C  C308  1  0.886260  0.178220  0.678220  1.0  -0.1625
  C  C309  1  0.069470  0.796620  0.703380  1.0  0.6918
  C  C310  1  0.113740  0.821780  0.678220  1.0  -0.1629
  C  C311  1  0.569470  0.796620  0.203380  1.0  0.6918
  C  C312  1  0.613740  0.821780  0.178220  1.0  -0.1629
  C  C313  1  0.796620  0.703380  0.069470  1.0  0.6934
  C  C314  1  0.821780  0.678220  0.113740  1.0  -0.1635
  C  C315  1  0.796620  0.203380  0.569470  1.0  0.6934
  C  C316  1  0.821780  0.178220  0.613740  1.0  -0.1635
  C  C317  1  0.203380  0.703380  0.930530  1.0  0.6937
  C  C318  1  0.178220  0.678220  0.886260  1.0  -0.1642
  C  C319  1  0.203380  0.796620  0.569470  1.0  0.6936
  C  C320  1  0.178220  0.821780  0.613740  1.0  -0.1631
  C  C321  1  0.796620  0.296620  0.930530  1.0  0.6932
  C  C322  1  0.821780  0.321780  0.886260  1.0  -0.1646
  C  C323  1  0.796620  0.796620  0.430530  1.0  0.6932
  C  C324  1  0.821780  0.821780  0.386260  1.0  -0.1646
  C  C325  1  0.703380  0.930530  0.203380  1.0  0.6923
  C  C326  1  0.678220  0.886260  0.178220  1.0  -0.1622
  C  C327  1  0.703380  0.430530  0.703380  1.0  0.6923
  C  C328  1  0.678220  0.386260  0.678220  1.0  -0.1622
  C  C329  1  0.703380  0.069470  0.796620  1.0  0.6923
  C  C330  1  0.678220  0.113740  0.821780  1.0  -0.1625
  C  C331  1  0.703380  0.569470  0.296620  1.0  0.6923
  C  C332  1  0.678220  0.613740  0.321780  1.0  -0.1625
  C  C333  1  0.296620  0.930530  0.796620  1.0  0.692
  C  C334  1  0.321780  0.886260  0.821780  1.0  -0.1629
  C  C335  1  0.296620  0.569470  0.703380  1.0  0.6919
  C  C336  1  0.321780  0.613740  0.678220  1.0  -0.1627
  C  C337  1  0.199390  0.135170  0.364830  1.0  0.0404
  C  C338  1  0.699390  0.135170  0.864830  1.0  0.0404
  C  C339  1  0.800610  0.864830  0.364830  1.0  0.0401
  C  C340  1  0.300610  0.864830  0.864830  1.0  0.0401
  C  C341  1  0.300610  0.364830  0.364830  1.0  0.0401
  C  C342  1  0.800610  0.135170  0.635170  1.0  0.039
  C  C343  1  0.300610  0.135170  0.135170  1.0  0.039
  C  C344  1  0.199390  0.864830  0.635170  1.0  0.0391
  C  C345  1  0.199390  0.364830  0.135170  1.0  0.0391
  C  C346  1  0.699390  0.864830  0.135170  1.0  0.0391
  C  C347  1  0.364830  0.199390  0.135170  1.0  0.0407
  C  C348  1  0.364830  0.699390  0.635170  1.0  0.0407
  C  C349  1  0.364830  0.800610  0.864830  1.0  0.0419
  C  C350  1  0.364830  0.300610  0.364830  1.0  0.0419
  C  C351  1  0.635170  0.800610  0.135170  1.0  0.0405
  C  C352  1  0.635170  0.300610  0.635170  1.0  0.0405
  C  C353  1  0.135170  0.300610  0.135170  1.0  0.0405
  C  C354  1  0.635170  0.199390  0.864830  1.0  0.0413
  C  C355  1  0.635170  0.699390  0.364830  1.0  0.0413
  C  C356  1  0.135170  0.199390  0.364830  1.0  0.0413
  C  C357  1  0.135170  0.364830  0.199390  1.0  0.041
  C  C358  1  0.135170  0.864830  0.699390  1.0  0.041
  C  C359  1  0.864830  0.364830  0.800610  1.0  0.041
  C  C360  1  0.864830  0.864830  0.300610  1.0  0.041
  C  C361  1  0.364830  0.364830  0.300610  1.0  0.041
  C  C362  1  0.135170  0.635170  0.800610  1.0  0.0407
  C  C363  1  0.135170  0.135170  0.300610  1.0  0.0407
  C  C364  1  0.864830  0.635170  0.199390  1.0  0.0415
  C  C365  1  0.864830  0.135170  0.699390  1.0  0.0415
  C  C366  1  0.364830  0.135170  0.199390  1.0  0.0415
  C  C367  1  0.135170  0.199390  0.635170  1.0  0.0407
  C  C368  1  0.135170  0.699390  0.135170  1.0  0.0407
  C  C369  1  0.864830  0.800610  0.635170  1.0  0.0406
  C  C370  1  0.864830  0.300610  0.135170  1.0  0.0406
  C  C371  1  0.364830  0.800610  0.135170  1.0  0.0406
  C  C372  1  0.135170  0.800610  0.364830  1.0  0.042
  C  C373  1  0.135170  0.300610  0.864830  1.0  0.042
  C  C374  1  0.864830  0.199390  0.364830  1.0  0.0412
  C  C375  1  0.864830  0.699390  0.864830  1.0  0.0412
  C  C376  1  0.364830  0.699390  0.364830  1.0  0.0412
  C  C377  1  0.199390  0.364830  0.864830  1.0  0.0398
  C  C378  1  0.699390  0.364830  0.364830  1.0  0.0398
  C  C379  1  0.800610  0.364830  0.135170  1.0  0.039
  C  C380  1  0.300610  0.364830  0.635170  1.0  0.039
  C  C381  1  0.800610  0.635170  0.864830  1.0  0.0406
  C  C382  1  0.800610  0.135170  0.364830  1.0  0.0406
  C  C383  1  0.300610  0.635170  0.364830  1.0  0.0406
  C  C384  1  0.199390  0.635170  0.135170  1.0  0.0391
  C  C385  1  0.699390  0.635170  0.635170  1.0  0.0391
  C  C386  1  0.699390  0.135170  0.135170  1.0  0.0391
  C  C387  1  0.364830  0.135170  0.800610  1.0  0.0408
  C  C388  1  0.364830  0.635170  0.300610  1.0  0.0408
  C  C389  1  0.364830  0.864830  0.199390  1.0  0.041
  C  C390  1  0.364830  0.364830  0.699390  1.0  0.041
  C  C391  1  0.635170  0.135170  0.199390  1.0  0.0414
  C  C392  1  0.635170  0.635170  0.699390  1.0  0.0414
  C  C393  1  0.135170  0.135170  0.699390  1.0  0.0414
  C  C394  1  0.635170  0.864830  0.800610  1.0  0.041
  C  C395  1  0.635170  0.364830  0.300610  1.0  0.041
  C  C396  1  0.135170  0.364830  0.800610  1.0  0.041
  C  C397  1  0.800610  0.864830  0.635170  1.0  0.039
  C  C398  1  0.300610  0.864830  0.135170  1.0  0.039
  C  C399  1  0.199390  0.135170  0.635170  1.0  0.0391
  C  C400  1  0.199390  0.864830  0.364830  1.0  0.0398
  C  C401  1  0.699390  0.864830  0.864830  1.0  0.0398
  C  C402  1  0.300610  0.135170  0.864830  1.0  0.0406
  C  C403  1  0.635170  0.800610  0.864830  1.0  0.042
  C  C404  1  0.635170  0.300610  0.364830  1.0  0.042
  C  C405  1  0.635170  0.199390  0.135170  1.0  0.0407
  C  C406  1  0.635170  0.699390  0.635170  1.0  0.0407
  C  C407  1  0.364830  0.199390  0.864830  1.0  0.0412
  C  C408  1  0.364830  0.300610  0.635170  1.0  0.0406
  C  C409  1  0.864830  0.635170  0.800610  1.0  0.0408
  C  C410  1  0.864830  0.135170  0.300610  1.0  0.0408
  C  C411  1  0.135170  0.635170  0.199390  1.0  0.0414
  C  C412  1  0.864830  0.364830  0.199390  1.0  0.041
  C  C413  1  0.864830  0.864830  0.699390  1.0  0.041
  C  C414  1  0.135170  0.864830  0.300610  1.0  0.041
  C  C415  1  0.864830  0.800610  0.364830  1.0  0.0419
  C  C416  1  0.864830  0.300610  0.864830  1.0  0.0419
  C  C417  1  0.135170  0.699390  0.864830  1.0  0.0413
  C  C418  1  0.864830  0.199390  0.635170  1.0  0.0407
  C  C419  1  0.864830  0.699390  0.135170  1.0  0.0407
  C  C420  1  0.135170  0.800610  0.635170  1.0  0.0405
  C  C421  1  0.800610  0.635170  0.135170  1.0  0.039
  C  C422  1  0.300610  0.635170  0.635170  1.0  0.039
  C  C423  1  0.199390  0.635170  0.864830  1.0  0.0404
  C  C424  1  0.699390  0.635170  0.364830  1.0  0.0404
  C  C425  1  0.699390  0.364830  0.635170  1.0  0.0391
  C  C426  1  0.800610  0.364830  0.864830  1.0  0.0401
  C  C427  1  0.635170  0.864830  0.199390  1.0  0.041
  C  C428  1  0.635170  0.364830  0.699390  1.0  0.041
  C  C429  1  0.635170  0.135170  0.800610  1.0  0.0407
  C  C430  1  0.635170  0.635170  0.300610  1.0  0.0407
  C  C431  1  0.364830  0.864830  0.800610  1.0  0.041
  C  C432  1  0.364830  0.635170  0.699390  1.0  0.0415
  O  O433  1  0.183330  0.052680  0.256790  1.0  -0.5616
  O  O434  1  0.183330  0.552680  0.756790  1.0  -0.5616
  O  O435  1  0.683330  0.052680  0.756790  1.0  -0.5616
  O  O436  1  0.683330  0.552680  0.256790  1.0  -0.5616
  O  O437  1  0.816670  0.947320  0.256790  1.0  -0.5615
  O  O438  1  0.816670  0.447320  0.756790  1.0  -0.5615
  O  O439  1  0.316670  0.947320  0.756790  1.0  -0.5609
  O  O440  1  0.316670  0.447320  0.256790  1.0  -0.5608
  O  O441  1  0.816670  0.052680  0.743210  1.0  -0.5624
  O  O442  1  0.816670  0.552680  0.243210  1.0  -0.5624
  O  O443  1  0.316670  0.052680  0.243210  1.0  -0.5617
  O  O444  1  0.316670  0.552680  0.743210  1.0  -0.5619
  O  O445  1  0.183330  0.947320  0.743210  1.0  -0.5618
  O  O446  1  0.183330  0.447320  0.243210  1.0  -0.5618
  O  O447  1  0.683330  0.947320  0.243210  1.0  -0.5618
  O  O448  1  0.683330  0.447320  0.743210  1.0  -0.5618
  O  O449  1  0.256790  0.183330  0.052680  1.0  -0.5628
  O  O450  1  0.256790  0.683330  0.552680  1.0  -0.563
  O  O451  1  0.756790  0.183330  0.552680  1.0  -0.563
  O  O452  1  0.756790  0.683330  0.052680  1.0  -0.563
  O  O453  1  0.256790  0.816670  0.947320  1.0  -0.5638
  O  O454  1  0.256790  0.316670  0.447320  1.0  -0.5632
  O  O455  1  0.756790  0.816670  0.447320  1.0  -0.5638
  O  O456  1  0.756790  0.316670  0.947320  1.0  -0.5635
  O  O457  1  0.743210  0.816670  0.052680  1.0  -0.5638
  O  O458  1  0.743210  0.316670  0.552680  1.0  -0.5634
  O  O459  1  0.243210  0.816670  0.552680  1.0  -0.5638
  O  O460  1  0.243210  0.316670  0.052680  1.0  -0.5634
  O  O461  1  0.743210  0.183330  0.947320  1.0  -0.5632
  O  O462  1  0.743210  0.683330  0.447320  1.0  -0.5632
  O  O463  1  0.243210  0.183330  0.447320  1.0  -0.5632
  O  O464  1  0.243210  0.683330  0.947320  1.0  -0.5632
  O  O465  1  0.052680  0.256790  0.183330  1.0  -0.5626
  O  O466  1  0.052680  0.756790  0.683330  1.0  -0.5628
  O  O467  1  0.552680  0.256790  0.683330  1.0  -0.5632
  O  O468  1  0.552680  0.756790  0.183330  1.0  -0.5632
  O  O469  1  0.947320  0.256790  0.816670  1.0  -0.5629
  O  O470  1  0.947320  0.756790  0.316670  1.0  -0.5628
  O  O471  1  0.447320  0.256790  0.316670  1.0  -0.5626
  O  O472  1  0.447320  0.756790  0.816670  1.0  -0.5629
  O  O473  1  0.052680  0.743210  0.816670  1.0  -0.5629
  O  O474  1  0.052680  0.243210  0.316670  1.0  -0.5629
  O  O475  1  0.552680  0.743210  0.316670  1.0  -0.5631
  O  O476  1  0.552680  0.243210  0.816670  1.0  -0.5632
  O  O477  1  0.947320  0.743210  0.183330  1.0  -0.5629
  O  O478  1  0.947320  0.243210  0.683330  1.0  -0.5629
  O  O479  1  0.447320  0.743210  0.683330  1.0  -0.5629
  O  O480  1  0.447320  0.243210  0.183330  1.0  -0.5625
  O  O481  1  0.052680  0.183330  0.743210  1.0  -0.5623
  O  O482  1  0.052680  0.683330  0.243210  1.0  -0.5623
  O  O483  1  0.552680  0.183330  0.243210  1.0  -0.5623
  O  O484  1  0.552680  0.683330  0.743210  1.0  -0.5623
  O  O485  1  0.947320  0.816670  0.743210  1.0  -0.5621
  O  O486  1  0.947320  0.316670  0.243210  1.0  -0.5621
  O  O487  1  0.447320  0.816670  0.243210  1.0  -0.5621
  O  O488  1  0.447320  0.316670  0.743210  1.0  -0.5621
  O  O489  1  0.052680  0.816670  0.256790  1.0  -0.5622
  O  O490  1  0.052680  0.316670  0.756790  1.0  -0.5622
  O  O491  1  0.552680  0.816670  0.756790  1.0  -0.5622
  O  O492  1  0.552680  0.316670  0.256790  1.0  -0.5622
  O  O493  1  0.947320  0.183330  0.256790  1.0  -0.5616
  O  O494  1  0.947320  0.683330  0.756790  1.0  -0.5616
  O  O495  1  0.447320  0.183330  0.756790  1.0  -0.5616
  O  O496  1  0.447320  0.683330  0.256790  1.0  -0.5616
  O  O497  1  0.183330  0.256790  0.947320  1.0  -0.562
  O  O498  1  0.183330  0.756790  0.447320  1.0  -0.562
  O  O499  1  0.683330  0.256790  0.447320  1.0  -0.562
  O  O500  1  0.683330  0.756790  0.947320  1.0  -0.562
  O  O501  1  0.816670  0.256790  0.052680  1.0  -0.5623
  O  O502  1  0.816670  0.756790  0.552680  1.0  -0.5623
  O  O503  1  0.316670  0.256790  0.552680  1.0  -0.5623
  O  O504  1  0.316670  0.756790  0.052680  1.0  -0.5623
  O  O505  1  0.816670  0.743210  0.947320  1.0  -0.5627
  O  O506  1  0.816670  0.243210  0.447320  1.0  -0.5627
  O  O507  1  0.316670  0.743210  0.447320  1.0  -0.5627
  O  O508  1  0.316670  0.243210  0.947320  1.0  -0.5627
  O  O509  1  0.183330  0.743210  0.052680  1.0  -0.5624
  O  O510  1  0.183330  0.243210  0.552680  1.0  -0.5626
  O  O511  1  0.683330  0.743210  0.552680  1.0  -0.5624
  O  O512  1  0.683330  0.243210  0.052680  1.0  -0.5626
  O  O513  1  0.256790  0.052680  0.816670  1.0  -0.5624
  O  O514  1  0.256790  0.552680  0.316670  1.0  -0.5626
  O  O515  1  0.756790  0.052680  0.316670  1.0  -0.5624
  O  O516  1  0.756790  0.552680  0.816670  1.0  -0.5624
  O  O517  1  0.256790  0.947320  0.183330  1.0  -0.5619
  O  O518  1  0.256790  0.447320  0.683330  1.0  -0.562
  O  O519  1  0.756790  0.947320  0.683330  1.0  -0.5619
  O  O520  1  0.756790  0.447320  0.183330  1.0  -0.5619
  O  O521  1  0.743210  0.052680  0.183330  1.0  -0.5631
  O  O522  1  0.743210  0.552680  0.683330  1.0  -0.5631
  O  O523  1  0.243210  0.052680  0.683330  1.0  -0.5631
  O  O524  1  0.243210  0.552680  0.183330  1.0  -0.5632
  O  O525  1  0.743210  0.947320  0.816670  1.0  -0.5625
  O  O526  1  0.743210  0.447320  0.316670  1.0  -0.5625
  O  O527  1  0.243210  0.947320  0.316670  1.0  -0.5625
  O  O528  1  0.243210  0.447320  0.816670  1.0  -0.5627
  O  O529  1  0.816670  0.947320  0.743210  1.0  -0.5616
  O  O530  1  0.816670  0.447320  0.243210  1.0  -0.5616
  O  O531  1  0.316670  0.947320  0.243210  1.0  -0.5615
  O  O532  1  0.316670  0.447320  0.743210  1.0  -0.5617
  O  O533  1  0.183330  0.052680  0.743210  1.0  -0.5622
  O  O534  1  0.183330  0.552680  0.243210  1.0  -0.5617
  O  O535  1  0.683330  0.052680  0.243210  1.0  -0.5622
  O  O536  1  0.683330  0.552680  0.743210  1.0  -0.5622
  O  O537  1  0.183330  0.947320  0.256790  1.0  -0.5618
  O  O538  1  0.183330  0.447320  0.756790  1.0  -0.5618
  O  O539  1  0.683330  0.947320  0.756790  1.0  -0.5618
  O  O540  1  0.683330  0.447320  0.256790  1.0  -0.5618
  O  O541  1  0.816670  0.052680  0.256790  1.0  -0.5613
  O  O542  1  0.816670  0.552680  0.756790  1.0  -0.5615
  O  O543  1  0.316670  0.052680  0.756790  1.0  -0.5615
  O  O544  1  0.316670  0.552680  0.256790  1.0  -0.5613
  O  O545  1  0.743210  0.816670  0.947320  1.0  -0.5636
  O  O546  1  0.743210  0.316670  0.447320  1.0  -0.5637
  O  O547  1  0.243210  0.816670  0.447320  1.0  -0.5636
  O  O548  1  0.243210  0.316670  0.947320  1.0  -0.5637
  O  O549  1  0.743210  0.183330  0.052680  1.0  -0.5629
  O  O550  1  0.743210  0.683330  0.552680  1.0  -0.5636
  O  O551  1  0.243210  0.183330  0.552680  1.0  -0.5629
  O  O552  1  0.243210  0.683330  0.052680  1.0  -0.5629
  O  O553  1  0.256790  0.183330  0.947320  1.0  -0.5634
  O  O554  1  0.256790  0.683330  0.447320  1.0  -0.5634
  O  O555  1  0.756790  0.183330  0.447320  1.0  -0.5634
  O  O556  1  0.756790  0.683330  0.947320  1.0  -0.5634
  O  O557  1  0.256790  0.816670  0.052680  1.0  -0.5632
  O  O558  1  0.256790  0.316670  0.552680  1.0  -0.5632
  O  O559  1  0.756790  0.816670  0.552680  1.0  -0.5632
  O  O560  1  0.756790  0.316670  0.052680  1.0  -0.5632
  O  O561  1  0.947320  0.743210  0.816670  1.0  -0.563
  O  O562  1  0.947320  0.243210  0.316670  1.0  -0.5626
  O  O563  1  0.447320  0.743210  0.316670  1.0  -0.5626
  O  O564  1  0.447320  0.243210  0.816670  1.0  -0.5626
  O  O565  1  0.052680  0.743210  0.183330  1.0  -0.5626
  O  O566  1  0.052680  0.243210  0.683330  1.0  -0.5626
  O  O567  1  0.552680  0.743210  0.683330  1.0  -0.5628
  O  O568  1  0.552680  0.243210  0.183330  1.0  -0.5628
  O  O569  1  0.947320  0.256790  0.183330  1.0  -0.5625
  O  O570  1  0.947320  0.756790  0.683330  1.0  -0.5625
  O  O571  1  0.447320  0.256790  0.683330  1.0  -0.5622
  O  O572  1  0.447320  0.756790  0.183330  1.0  -0.5625
  O  O573  1  0.052680  0.256790  0.816670  1.0  -0.5632
  O  O574  1  0.052680  0.756790  0.316670  1.0  -0.5629
  O  O575  1  0.552680  0.256790  0.316670  1.0  -0.5632
  O  O576  1  0.552680  0.756790  0.816670  1.0  -0.5636
  O  O577  1  0.947320  0.816670  0.256790  1.0  -0.5618
  O  O578  1  0.947320  0.316670  0.756790  1.0  -0.5618
  O  O579  1  0.447320  0.816670  0.756790  1.0  -0.5618
  O  O580  1  0.447320  0.316670  0.256790  1.0  -0.5618
  O  O581  1  0.052680  0.183330  0.256790  1.0  -0.562
  O  O582  1  0.052680  0.683330  0.756790  1.0  -0.562
  O  O583  1  0.552680  0.183330  0.756790  1.0  -0.562
  O  O584  1  0.552680  0.683330  0.256790  1.0  -0.562
  O  O585  1  0.947320  0.183330  0.743210  1.0  -0.5623
  O  O586  1  0.947320  0.683330  0.243210  1.0  -0.5623
  O  O587  1  0.447320  0.183330  0.243210  1.0  -0.5623
  O  O588  1  0.447320  0.683330  0.743210  1.0  -0.5623
  O  O589  1  0.052680  0.816670  0.743210  1.0  -0.5627
  O  O590  1  0.052680  0.316670  0.243210  1.0  -0.5627
  O  O591  1  0.552680  0.816670  0.243210  1.0  -0.5627
  O  O592  1  0.552680  0.316670  0.743210  1.0  -0.5627
  O  O593  1  0.816670  0.743210  0.052680  1.0  -0.5622
  O  O594  1  0.816670  0.243210  0.552680  1.0  -0.5622
  O  O595  1  0.316670  0.743210  0.552680  1.0  -0.5622
  O  O596  1  0.316670  0.243210  0.052680  1.0  -0.5622
  O  O597  1  0.183330  0.743210  0.947320  1.0  -0.5626
  O  O598  1  0.183330  0.243210  0.447320  1.0  -0.5626
  O  O599  1  0.683330  0.743210  0.447320  1.0  -0.5626
  O  O600  1  0.683330  0.243210  0.947320  1.0  -0.5626
  O  O601  1  0.183330  0.256790  0.052680  1.0  -0.5623
  O  O602  1  0.183330  0.756790  0.552680  1.0  -0.5621
  O  O603  1  0.683330  0.256790  0.552680  1.0  -0.5621
  O  O604  1  0.683330  0.756790  0.052680  1.0  -0.5621
  O  O605  1  0.816670  0.256790  0.947320  1.0  -0.5624
  O  O606  1  0.816670  0.756790  0.447320  1.0  -0.5624
  O  O607  1  0.316670  0.256790  0.447320  1.0  -0.5624
  O  O608  1  0.316670  0.756790  0.947320  1.0  -0.5625
  O  O609  1  0.743210  0.947320  0.183330  1.0  -0.5626
  O  O610  1  0.743210  0.447320  0.683330  1.0  -0.5626
  O  O611  1  0.243210  0.947320  0.683330  1.0  -0.5626
  O  O612  1  0.243210  0.447320  0.183330  1.0  -0.5629
  O  O613  1  0.743210  0.052680  0.816670  1.0  -0.5627
  O  O614  1  0.743210  0.552680  0.316670  1.0  -0.5627
  O  O615  1  0.243210  0.052680  0.316670  1.0  -0.5627
  O  O616  1  0.243210  0.552680  0.816670  1.0  -0.5629
  O  O617  1  0.256790  0.947320  0.816670  1.0  -0.5623
  O  O618  1  0.256790  0.447320  0.316670  1.0  -0.5625
  O  O619  1  0.756790  0.947320  0.316670  1.0  -0.5623
  O  O620  1  0.756790  0.447320  0.816670  1.0  -0.5623
  O  O621  1  0.256790  0.052680  0.183330  1.0  -0.5622
  O  O622  1  0.256790  0.552680  0.683330  1.0  -0.5624
  O  O623  1  0.756790  0.052680  0.683330  1.0  -0.5622
  O  O624  1  0.756790  0.552680  0.183330  1.0  -0.5622
