# generated using pymatgen
data_AlC8O5
_symmetry_space_group_name_H-M   'P 1'
_cell_length_a   21.29280000
_cell_length_b   21.29280000
_cell_length_c   10.73040000
_cell_angle_alpha   90.00000000
_cell_angle_beta   90.00000000
_cell_angle_gamma   90.00000000
_symmetry_Int_Tables_number   1
_chemical_formula_structural   AlC8O5
_chemical_formula_sum   'Al16 C128 O80'
_cell_volume   4864.98450398
_cell_formula_units_Z   16
loop_
 _symmetry_equiv_pos_site_id
 _symmetry_equiv_pos_as_xyz
  1  'x, y, z'
loop_
 _atom_site_type_symbol
 _atom_site_label
 _atom_site_symmetry_multiplicity
 _atom_site_fract_x
 _atom_site_fract_y
 _atom_site_fract_z
 _atom_site_occupancy
 _atom_site_charge
  Al  Al1  1  0.255400  0.313800  0.244300  1.0  1.8074
  Al  Al2  1  0.745700  0.319800  0.243300  1.0  1.7579
  Al  Al3  1  0.755400  0.813800  0.744300  1.0  1.8074
  Al  Al4  1  0.245700  0.819800  0.743300  1.0  1.7579
  Al  Al5  1  0.244600  0.186200  0.744300  1.0  1.8061
  Al  Al6  1  0.754300  0.180200  0.743300  1.0  1.7581
  Al  Al7  1  0.744600  0.686200  0.244300  1.0  1.8061
  Al  Al8  1  0.254300  0.680200  0.243300  1.0  1.7581
  Al  Al9  1  0.686200  0.755400  0.494300  1.0  1.806
  Al  Al10  1  0.680200  0.245700  0.493300  1.0  1.7598
  Al  Al11  1  0.186200  0.255400  0.994300  1.0  1.806
  Al  Al12  1  0.180200  0.745700  0.993300  1.0  1.7598
  Al  Al13  1  0.813800  0.744600  0.994300  1.0  1.8047
  Al  Al14  1  0.819800  0.254300  0.993300  1.0  1.7587
  Al  Al15  1  0.313800  0.244600  0.494300  1.0  1.8047
  Al  Al16  1  0.319800  0.754300  0.493300  1.0  1.7587
  C  C17  1  0.056400  0.332400  0.258600  1.0  -0.118
  C  C18  1  0.939500  0.374900  0.345300  1.0  0.0195
  C  C19  1  0.118800  0.314100  0.210300  1.0  0.6902
  C  C20  1  0.052400  0.375600  0.358500  1.0  0.0215
  C  C21  1  0.000800  0.310000  0.203000  1.0  0.028
  C  C22  1  0.883100  0.312600  0.182600  1.0  0.6802
  C  C23  1  0.942000  0.331700  0.245200  1.0  -0.0643
  C  C24  1  0.994300  0.396400  0.401500  1.0  0.0014
  C  C25  1  0.557800  0.268800  0.205100  1.0  -0.0497
  C  C26  1  0.445200  0.273000  0.070700  1.0  0.0254
  C  C27  1  0.616400  0.275200  0.275600  1.0  0.69
  C  C28  1  0.558200  0.277800  0.074500  1.0  0.0311
  C  C29  1  0.500700  0.260200  0.267700  1.0  -0.0055
  C  C30  1  0.384000  0.265200  0.267800  1.0  0.7069
  C  C31  1  0.444200  0.263900  0.201300  1.0  -0.1049
  C  C32  1  0.502100  0.279700  0.007800  1.0  -0.0058
  C  C33  1  0.556400  0.832400  0.758600  1.0  -0.118
  C  C34  1  0.439500  0.874900  0.845300  1.0  0.0195
  C  C35  1  0.618800  0.814100  0.710300  1.0  0.6902
  C  C36  1  0.552400  0.875600  0.858500  1.0  0.0215
  C  C37  1  0.500800  0.810000  0.703000  1.0  0.028
  C  C38  1  0.383100  0.812600  0.682600  1.0  0.6802
  C  C39  1  0.442000  0.831700  0.745200  1.0  -0.0643
  C  C40  1  0.494300  0.896400  0.901500  1.0  0.0014
  C  C41  1  0.057800  0.768800  0.705100  1.0  -0.0497
  C  C42  1  0.945200  0.773000  0.570700  1.0  0.0254
  C  C43  1  0.116400  0.775200  0.775600  1.0  0.69
  C  C44  1  0.058200  0.777800  0.574500  1.0  0.0311
  C  C45  1  0.000700  0.760200  0.767700  1.0  -0.0055
  C  C46  1  0.884000  0.765200  0.767800  1.0  0.7069
  C  C47  1  0.944200  0.763900  0.701300  1.0  -0.1049
  C  C48  1  0.002100  0.779700  0.507800  1.0  -0.0058
  C  C49  1  0.443600  0.167600  0.758600  1.0  -0.117
  C  C50  1  0.560500  0.125100  0.845300  1.0  0.0184
  C  C51  1  0.381200  0.185900  0.710300  1.0  0.688
  C  C52  1  0.447600  0.124400  0.858500  1.0  0.0191
  C  C53  1  0.499200  0.190000  0.703000  1.0  0.0273
  C  C54  1  0.616900  0.187400  0.682600  1.0  0.6807
  C  C55  1  0.558000  0.168300  0.745200  1.0  -0.0641
  C  C56  1  0.505700  0.103600  0.901500  1.0  0.0023
  C  C57  1  0.942200  0.231200  0.705100  1.0  -0.0497
  C  C58  1  0.054800  0.227000  0.570700  1.0  0.0235
  C  C59  1  0.883600  0.224800  0.775600  1.0  0.6898
  C  C60  1  0.941800  0.222200  0.574500  1.0  0.0297
  C  C61  1  0.999300  0.239800  0.767700  1.0  -0.0057
  C  C62  1  0.116000  0.234800  0.767800  1.0  0.7078
  C  C63  1  0.055800  0.236100  0.701300  1.0  -0.1038
  C  C64  1  0.997900  0.220300  0.507800  1.0  -0.0068
  C  C65  1  0.943600  0.667600  0.258600  1.0  -0.117
  C  C66  1  0.060500  0.625100  0.345300  1.0  0.0184
  C  C67  1  0.881200  0.685900  0.210300  1.0  0.688
  C  C68  1  0.947600  0.624400  0.358500  1.0  0.0191
  C  C69  1  0.999200  0.690000  0.203000  1.0  0.0273
  C  C70  1  0.116900  0.687400  0.182600  1.0  0.6807
  C  C71  1  0.058000  0.668300  0.245200  1.0  -0.0641
  C  C72  1  0.005700  0.603600  0.401500  1.0  0.0023
  C  C73  1  0.442200  0.731200  0.205100  1.0  -0.0497
  C  C74  1  0.554800  0.727000  0.070700  1.0  0.0235
  C  C75  1  0.383600  0.724800  0.275600  1.0  0.6898
  C  C76  1  0.441800  0.722200  0.074500  1.0  0.0297
  C  C77  1  0.499300  0.739800  0.267700  1.0  -0.0057
  C  C78  1  0.616000  0.734800  0.267800  1.0  0.7078
  C  C79  1  0.555800  0.736100  0.201300  1.0  -0.1038
  C  C80  1  0.497900  0.720300  0.007800  1.0  -0.0068
  C  C81  1  0.667600  0.556400  0.508600  1.0  -0.1179
  C  C82  1  0.625100  0.439500  0.595300  1.0  0.0175
  C  C83  1  0.685900  0.618800  0.460300  1.0  0.6888
  C  C84  1  0.624400  0.552400  0.608500  1.0  0.0196
  C  C85  1  0.690000  0.500800  0.453000  1.0  0.0291
  C  C86  1  0.687400  0.383100  0.432600  1.0  0.678
  C  C87  1  0.668300  0.442000  0.495200  1.0  -0.0636
  C  C88  1  0.603600  0.494300  0.651500  1.0  0.0022
  C  C89  1  0.731200  0.057800  0.455100  1.0  -0.0494
  C  C90  1  0.727000  0.945200  0.320700  1.0  0.0225
  C  C91  1  0.724800  0.116400  0.525600  1.0  0.6889
  C  C92  1  0.722200  0.058200  0.324500  1.0  0.027
  C  C93  1  0.739800  0.000700  0.517700  1.0  -0.006
  C  C94  1  0.734800  0.884000  0.517800  1.0  0.7078
  C  C95  1  0.736100  0.944200  0.451300  1.0  -0.1044
  C  C96  1  0.720300  0.002100  0.257800  1.0  -0.0055
  C  C97  1  0.167600  0.056400  0.008600  1.0  -0.1179
  C  C98  1  0.125100  0.939500  0.095300  1.0  0.0175
  C  C99  1  0.185900  0.118800  0.960300  1.0  0.6888
  C  C100  1  0.124400  0.052400  0.108500  1.0  0.0196
  C  C101  1  0.190000  0.000800  0.953000  1.0  0.0291
  C  C102  1  0.187400  0.883100  0.932600  1.0  0.678
  C  C103  1  0.168300  0.942000  0.995200  1.0  -0.0636
  C  C104  1  0.103600  0.994300  0.151500  1.0  0.0022
  C  C105  1  0.231200  0.557800  0.955100  1.0  -0.0494
  C  C106  1  0.227000  0.445200  0.820700  1.0  0.0225
  C  C107  1  0.224800  0.616400  0.025600  1.0  0.6889
  C  C108  1  0.222200  0.558200  0.824500  1.0  0.027
  C  C109  1  0.239800  0.500700  0.017700  1.0  -0.006
  C  C110  1  0.234800  0.384000  0.017800  1.0  0.7078
  C  C111  1  0.236100  0.444200  0.951300  1.0  -0.1044
  C  C112  1  0.220300  0.502100  0.757800  1.0  -0.0055
  C  C113  1  0.832400  0.943600  0.008600  1.0  -0.118
  C  C114  1  0.874900  0.060500  0.095300  1.0  0.0158
  C  C115  1  0.814100  0.881200  0.960300  1.0  0.6889
  C  C116  1  0.875600  0.947600  0.108500  1.0  0.0203
  C  C117  1  0.810000  0.999200  0.953000  1.0  0.0292
  C  C118  1  0.812600  0.116900  0.932600  1.0  0.6782
  C  C119  1  0.831700  0.058000  0.995200  1.0  -0.0641
  C  C120  1  0.896400  0.005700  0.151500  1.0  0.0029
  C  C121  1  0.768800  0.442200  0.955100  1.0  -0.049
  C  C122  1  0.773000  0.554800  0.820700  1.0  0.0221
  C  C123  1  0.775200  0.383600  0.025600  1.0  0.6895
  C  C124  1  0.777800  0.441800  0.824500  1.0  0.0277
  C  C125  1  0.760200  0.499300  0.017700  1.0  -0.0055
  C  C126  1  0.765200  0.616000  0.017800  1.0  0.7071
  C  C127  1  0.763900  0.555800  0.951300  1.0  -0.1041
  C  C128  1  0.779700  0.497900  0.757800  1.0  -0.0045
  C  C129  1  0.332400  0.443600  0.508600  1.0  -0.118
  C  C130  1  0.374900  0.560500  0.595300  1.0  0.0158
  C  C131  1  0.314100  0.381200  0.460300  1.0  0.6889
  C  C132  1  0.375600  0.447600  0.608500  1.0  0.0203
  C  C133  1  0.310000  0.499200  0.453000  1.0  0.0292
  C  C134  1  0.312600  0.616900  0.432600  1.0  0.6782
  C  C135  1  0.331700  0.558000  0.495200  1.0  -0.0641
  C  C136  1  0.396400  0.505700  0.651500  1.0  0.0029
  C  C137  1  0.268800  0.942200  0.455100  1.0  -0.049
  C  C138  1  0.273000  0.054800  0.320700  1.0  0.0221
  C  C139  1  0.275200  0.883600  0.525600  1.0  0.6895
  C  C140  1  0.277800  0.941800  0.324500  1.0  0.0277
  C  C141  1  0.260200  0.999300  0.517700  1.0  -0.0055
  C  C142  1  0.265200  0.116000  0.517800  1.0  0.7071
  C  C143  1  0.263900  0.055800  0.451300  1.0  -0.1041
  C  C144  1  0.279700  0.997900  0.257800  1.0  -0.0045
  O  O145  1  0.248700  0.259400  0.380500  1.0  -0.7042
  O  O146  1  0.168500  0.331800  0.259000  1.0  -0.5834
  O  O147  1  0.835300  0.329600  0.249900  1.0  -0.6235
  O  O148  1  0.884900  0.266500  0.114900  1.0  -0.552
  O  O149  1  0.120500  0.277300  0.115700  1.0  -0.604
  O  O150  1  0.657500  0.310900  0.235000  1.0  -0.6081
  O  O151  1  0.343000  0.299100  0.221300  1.0  -0.599
  O  O152  1  0.376900  0.236200  0.369500  1.0  -0.5794
  O  O153  1  0.615200  0.238300  0.364300  1.0  -0.5688
  O  O154  1  0.745600  0.258400  0.374800  1.0  -0.6817
  O  O155  1  0.748700  0.759400  0.880500  1.0  -0.7042
  O  O156  1  0.668500  0.831800  0.759000  1.0  -0.5834
  O  O157  1  0.335300  0.829600  0.749900  1.0  -0.6235
  O  O158  1  0.384900  0.766500  0.614900  1.0  -0.552
  O  O159  1  0.620500  0.777300  0.615700  1.0  -0.604
  O  O160  1  0.157500  0.810900  0.735000  1.0  -0.6081
  O  O161  1  0.843000  0.799100  0.721300  1.0  -0.599
  O  O162  1  0.876900  0.736200  0.869500  1.0  -0.5794
  O  O163  1  0.115200  0.738300  0.864300  1.0  -0.5688
  O  O164  1  0.245600  0.758400  0.874800  1.0  -0.6817
  O  O165  1  0.251300  0.240600  0.880500  1.0  -0.7036
  O  O166  1  0.331500  0.168200  0.759000  1.0  -0.5825
  O  O167  1  0.664700  0.170400  0.749900  1.0  -0.6236
  O  O168  1  0.615100  0.233500  0.614900  1.0  -0.5519
  O  O169  1  0.379500  0.222700  0.615700  1.0  -0.6019
  O  O170  1  0.842500  0.189100  0.735000  1.0  -0.6086
  O  O171  1  0.157000  0.200900  0.721300  1.0  -0.6001
  O  O172  1  0.123100  0.263800  0.869500  1.0  -0.5805
  O  O173  1  0.884800  0.261700  0.864300  1.0  -0.5683
  O  O174  1  0.754400  0.241600  0.874800  1.0  -0.6793
  O  O175  1  0.751300  0.740600  0.380500  1.0  -0.7036
  O  O176  1  0.831500  0.668200  0.259000  1.0  -0.5825
  O  O177  1  0.164700  0.670400  0.249900  1.0  -0.6236
  O  O178  1  0.115100  0.733500  0.114900  1.0  -0.5519
  O  O179  1  0.879500  0.722700  0.115700  1.0  -0.6019
  O  O180  1  0.342500  0.689100  0.235000  1.0  -0.6086
  O  O181  1  0.657000  0.700900  0.221300  1.0  -0.6001
  O  O182  1  0.623100  0.763800  0.369500  1.0  -0.5805
  O  O183  1  0.384800  0.761700  0.364300  1.0  -0.5683
  O  O184  1  0.254400  0.741600  0.374800  1.0  -0.6793
  O  O185  1  0.740600  0.748700  0.630500  1.0  -0.7048
  O  O186  1  0.668200  0.668500  0.509000  1.0  -0.581
  O  O187  1  0.670400  0.335300  0.499900  1.0  -0.625
  O  O188  1  0.733500  0.384900  0.364900  1.0  -0.5539
  O  O189  1  0.722700  0.620500  0.365700  1.0  -0.6028
  O  O190  1  0.689100  0.157500  0.485000  1.0  -0.6081
  O  O191  1  0.700900  0.843000  0.471300  1.0  -0.6015
  O  O192  1  0.763800  0.876900  0.619500  1.0  -0.5804
  O  O193  1  0.761700  0.115200  0.614300  1.0  -0.5686
  O  O194  1  0.741600  0.245600  0.624800  1.0  -0.6808
  O  O195  1  0.240600  0.248700  0.130500  1.0  -0.7048
  O  O196  1  0.168200  0.168500  0.009000  1.0  -0.581
  O  O197  1  0.170400  0.835300  0.999900  1.0  -0.625
  O  O198  1  0.233500  0.884900  0.864900  1.0  -0.5539
  O  O199  1  0.222700  0.120500  0.865700  1.0  -0.6028
  O  O200  1  0.189100  0.657500  0.985000  1.0  -0.6081
  O  O201  1  0.200900  0.343000  0.971300  1.0  -0.6015
  O  O202  1  0.263800  0.376900  0.119500  1.0  -0.5804
  O  O203  1  0.261700  0.615200  0.114300  1.0  -0.5686
  O  O204  1  0.241600  0.745600  0.124800  1.0  -0.6808
  O  O205  1  0.759400  0.751300  0.130500  1.0  -0.7044
  O  O206  1  0.831800  0.831500  0.009000  1.0  -0.5812
  O  O207  1  0.829600  0.164700  0.999900  1.0  -0.6229
  O  O208  1  0.766500  0.115100  0.864900  1.0  -0.5528
  O  O209  1  0.777300  0.879500  0.865700  1.0  -0.603
  O  O210  1  0.810900  0.342500  0.985000  1.0  -0.6089
  O  O211  1  0.799100  0.657000  0.971300  1.0  -0.6002
  O  O212  1  0.736200  0.623100  0.119500  1.0  -0.5794
  O  O213  1  0.738300  0.384800  0.114300  1.0  -0.569
  O  O214  1  0.758400  0.254400  0.124800  1.0  -0.6822
  O  O215  1  0.259400  0.251300  0.630500  1.0  -0.7044
  O  O216  1  0.331800  0.331500  0.509000  1.0  -0.5812
  O  O217  1  0.329600  0.664700  0.499900  1.0  -0.6229
  O  O218  1  0.266500  0.615100  0.364900  1.0  -0.5528
  O  O219  1  0.277300  0.379500  0.365700  1.0  -0.603
  O  O220  1  0.310900  0.842500  0.485000  1.0  -0.6089
  O  O221  1  0.299100  0.157000  0.471300  1.0  -0.6002
  O  O222  1  0.236200  0.123100  0.619500  1.0  -0.5794
  O  O223  1  0.238300  0.884800  0.614300  1.0  -0.569
  O  O224  1  0.258400  0.754400  0.624800  1.0  -0.6822
