# generated using pymatgen
data_LiH49(C15O4)2
_symmetry_space_group_name_H-M   'P 1'
_cell_length_a   8.31040000
_cell_length_b   12.45460000
_cell_length_c   33.58520000
_cell_angle_alpha   90.00000000
_cell_angle_beta   90.00000000
_cell_angle_gamma   90.00000000
_symmetry_Int_Tables_number   1
_chemical_formula_structural   LiH49(C15O4)2
_chemical_formula_sum   'Li4 H196 C120 O32'
_cell_volume   3476.15914335
_cell_formula_units_Z   4
loop_
 _symmetry_equiv_pos_site_id
 _symmetry_equiv_pos_as_xyz
  1  'x, y, z'
loop_
 _atom_site_type_symbol
 _atom_site_label
 _atom_site_symmetry_multiplicity
 _atom_site_fract_x
 _atom_site_fract_y
 _atom_site_fract_z
 _atom_site_occupancy
 _atom_site_charge
  Li  Li1  1  0.009800  0.828700  0.031300  1.0  0.8878
  Li  Li2  1  0.490200  0.171300  0.531300  1.0  0.8893
  Li  Li3  1  0.990200  0.328700  0.468700  1.0  0.8878
  Li  Li4  1  0.509800  0.671300  0.968700  1.0  0.8891
  H  H5  1  0.315700  0.520700  0.203400  1.0  0.1241
  H  H6  1  0.445000  0.430900  0.155000  1.0  0.09
  H  H7  1  0.505700  0.538200  0.133000  1.0  0.0659
  H  H8  1  0.682200  0.422500  0.186900  1.0  0.081
  H  H9  1  0.735900  0.536200  0.168100  1.0  0.0735
  H  H10  1  0.550500  0.499600  0.238300  1.0  0.0847
  H  H11  1  0.810900  0.647500  0.232800  1.0  0.0939
  H  H12  1  0.800400  0.437800  0.268400  1.0  0.0634
  H  H13  1  0.914400  0.472800  0.232300  1.0  0.0729
  H  H14  1  0.071100  0.579100  0.273800  1.0  0.0689
  H  H15  1  0.056600  0.463400  0.294200  1.0  0.093
  H  H16  1  0.022200  0.609400  0.340000  1.0  0.0805
  H  H17  1  0.756000  0.464400  0.336000  1.0  0.0783
  H  H18  1  0.922000  0.441800  0.358500  1.0  0.0658
  H  H19  1  0.865100  0.575300  0.405800  1.0  0.0788
  H  H20  1  0.621500  0.672100  0.404300  1.0  0.0634
  H  H21  1  0.567000  0.611300  0.364400  1.0  0.0784
  H  H22  1  0.841300  0.750400  0.370500  1.0  0.0866
  H  H23  1  0.677200  0.782100  0.348700  1.0  0.0889
  H  H24  1  0.358200  0.629300  0.263700  1.0  0.0784
  H  H25  1  0.344900  0.745900  0.243900  1.0  0.0771
  H  H26  1  0.607200  0.789400  0.264600  1.0  0.079
  H  H27  1  0.506200  0.751500  0.302700  1.0  0.0667
  H  H28  1  0.624400  0.581900  0.300500  1.0  0.0718
  H  H29  1  0.291100  0.664200  0.137300  1.0  0.0834
  H  H30  1  0.209800  0.484300  0.126000  1.0  0.0782
  H  H31  1  0.087800  0.490700  0.162700  1.0  0.08
  H  H32  1  0.941200  0.504000  0.104100  1.0  0.1022
  H  H33  1  0.927600  0.615700  0.127300  1.0  0.0901
  H  H34  1  0.044500  0.726800  0.165200  1.0  0.0973
  H  H35  1  0.195700  0.762200  0.191700  1.0  0.0956
  H  H36  1  0.085000  0.664000  0.205600  1.0  0.0964
  H  H37  1  0.959700  0.746100  0.270300  1.0  0.096
  H  H38  1  0.009200  0.786600  0.313800  1.0  0.1045
  H  H39  1  0.851000  0.833100  0.292800  1.0  0.0996
  H  H40  1  0.596400  0.701800  0.159900  1.0  0.0977
  H  H41  1  0.651800  0.762900  0.199500  1.0  0.1055
  H  H42  1  0.478800  0.786900  0.180500  1.0  0.094
  H  H43  1  0.651700  0.550100  0.455900  1.0  0.0849
  H  H44  1  0.556100  0.405100  0.496400  1.0  0.0762
  H  H45  1  0.635700  0.274200  0.428200  1.0  0.091
  H  H46  1  0.328700  0.311800  0.466100  1.0  0.0866
  H  H47  1  0.433400  0.390300  0.389400  1.0  0.0739
  H  H48  1  0.802300  0.419400  0.505800  1.0  0.3045
  H  H49  1  0.668500  0.161300  0.472400  1.0  0.4073
  H  H50  1  0.239100  0.204000  0.423700  1.0  0.3402
  H  H51  1  0.196800  0.495800  0.390700  1.0  0.0748
  H  H52  1  0.153700  0.370500  0.391200  1.0  0.0673
  H  H53  1  0.144700  0.499800  0.454300  1.0  0.3402
  H  H54  1  0.184300  0.479300  0.703400  1.0  0.125
  H  H55  1  0.055000  0.569100  0.655000  1.0  0.09
  H  H56  1  0.994300  0.461800  0.633000  1.0  0.0651
  H  H57  1  0.817800  0.577500  0.686900  1.0  0.0818
  H  H58  1  0.764100  0.463800  0.668100  1.0  0.0746
  H  H59  1  0.949500  0.500400  0.738300  1.0  0.0837
  H  H60  1  0.689100  0.352500  0.732800  1.0  0.0931
  H  H61  1  0.699600  0.562200  0.768400  1.0  0.0619
  H  H62  1  0.585600  0.527200  0.732300  1.0  0.0733
  H  H63  1  0.428900  0.420900  0.773800  1.0  0.0687
  H  H64  1  0.443400  0.536600  0.794200  1.0  0.0906
  H  H65  1  0.477800  0.390600  0.840000  1.0  0.08
  H  H66  1  0.744000  0.535600  0.836000  1.0  0.077
  H  H67  1  0.578000  0.558200  0.858500  1.0  0.0666
  H  H68  1  0.634900  0.424700  0.905800  1.0  0.0802
  H  H69  1  0.878500  0.327900  0.904300  1.0  0.0635
  H  H70  1  0.933000  0.388700  0.864400  1.0  0.0777
  H  H71  1  0.658700  0.249600  0.870500  1.0  0.088
  H  H72  1  0.822800  0.217900  0.848700  1.0  0.0895
  H  H73  1  0.141800  0.370700  0.763700  1.0  0.0769
  H  H74  1  0.155100  0.254100  0.743900  1.0  0.0777
  H  H75  1  0.892800  0.210600  0.764600  1.0  0.0802
  H  H76  1  0.993800  0.248500  0.802700  1.0  0.0677
  H  H77  1  0.875600  0.418100  0.800500  1.0  0.072
  H  H78  1  0.208900  0.335800  0.637300  1.0  0.0839
  H  H79  1  0.290200  0.515700  0.626000  1.0  0.0799
  H  H80  1  0.412200  0.509300  0.662700  1.0  0.0806
  H  H81  1  0.558800  0.496000  0.604100  1.0  0.1016
  H  H82  1  0.572400  0.384300  0.627300  1.0  0.0909
  H  H83  1  0.455500  0.273200  0.665200  1.0  0.0972
  H  H84  1  0.304300  0.237800  0.691700  1.0  0.0963
  H  H85  1  0.415000  0.336000  0.705600  1.0  0.0959
  H  H86  1  0.540300  0.253900  0.770300  1.0  0.097
  H  H87  1  0.490800  0.213400  0.813800  1.0  0.108
  H  H88  1  0.649000  0.166900  0.792800  1.0  0.0976
  H  H89  1  0.903600  0.298200  0.659900  1.0  0.0974
  H  H90  1  0.848200  0.237100  0.699500  1.0  0.1034
  H  H91  1  0.021200  0.213100  0.680500  1.0  0.0928
  H  H92  1  0.848300  0.449900  0.955900  1.0  0.0868
  H  H93  1  0.943900  0.594900  0.996400  1.0  0.0775
  H  H94  1  0.864300  0.725800  0.928200  1.0  0.0918
  H  H95  1  0.171300  0.688200  0.966100  1.0  0.0873
  H  H96  1  0.066600  0.609700  0.889400  1.0  0.0727
  H  H97  1  0.697700  0.580600  0.005800  1.0  0.3064
  H  H98  1  0.831500  0.838700  0.972400  1.0  0.4053
  H  H99  1  0.260900  0.796000  0.923700  1.0  0.3388
  H  H100  1  0.303200  0.504200  0.890700  1.0  0.0749
  H  H101  1  0.346300  0.629500  0.891200  1.0  0.066
  H  H102  1  0.355300  0.500200  0.954300  1.0  0.3434
  H  H103  1  0.684300  0.020700  0.296600  1.0  0.1251
  H  H104  1  0.555000  0.930900  0.345000  1.0  0.0888
  H  H105  1  0.494300  0.038200  0.367000  1.0  0.0649
  H  H106  1  0.317800  0.922500  0.313100  1.0  0.0783
  H  H107  1  0.264100  0.036200  0.331900  1.0  0.0744
  H  H108  1  0.449500  0.999600  0.261700  1.0  0.0835
  H  H109  1  0.189100  0.147500  0.267200  1.0  0.0904
  H  H110  1  0.199600  0.937800  0.231600  1.0  0.0622
  H  H111  1  0.085600  0.972800  0.267700  1.0  0.073
  H  H112  1  0.928900  0.079100  0.226200  1.0  0.0677
  H  H113  1  0.943400  0.963400  0.205800  1.0  0.0901
  H  H114  1  0.977800  0.109400  0.160000  1.0  0.0791
  H  H115  1  0.244000  0.964400  0.164000  1.0  0.0767
  H  H116  1  0.078000  0.941800  0.141500  1.0  0.0655
  H  H117  1  0.134900  0.075300  0.094200  1.0  0.0802
  H  H118  1  0.378500  0.172100  0.095700  1.0  0.0647
  H  H119  1  0.433000  0.111300  0.135600  1.0  0.0768
  H  H120  1  0.158700  0.250400  0.129500  1.0  0.0874
  H  H121  1  0.322800  0.282100  0.151300  1.0  0.0889
  H  H122  1  0.641800  0.129300  0.236300  1.0  0.0776
  H  H123  1  0.655100  0.245900  0.256100  1.0  0.0779
  H  H124  1  0.392800  0.289400  0.235400  1.0  0.0788
  H  H125  1  0.493800  0.251500  0.197300  1.0  0.0686
  H  H126  1  0.375600  0.081900  0.199500  1.0  0.0717
  H  H127  1  0.708900  0.164200  0.362700  1.0  0.0846
  H  H128  1  0.790200  0.984300  0.374000  1.0  0.0797
  H  H129  1  0.912200  0.990700  0.337300  1.0  0.0788
  H  H130  1  0.058800  0.004000  0.395900  1.0  0.1048
  H  H131  1  0.072400  0.115700  0.372700  1.0  0.091
  H  H132  1  0.955500  0.226800  0.334800  1.0  0.0969
  H  H133  1  0.804300  0.262200  0.308300  1.0  0.0965
  H  H134  1  0.915000  0.164000  0.294400  1.0  0.096
  H  H135  1  0.040300  0.246100  0.229700  1.0  0.0958
  H  H136  1  0.990800  0.286600  0.186200  1.0  0.108
  H  H137  1  0.149000  0.333100  0.207200  1.0  0.097
  H  H138  1  0.403600  0.201800  0.340100  1.0  0.0974
  H  H139  1  0.348200  0.262900  0.300500  1.0  0.1054
  H  H140  1  0.521200  0.286900  0.319500  1.0  0.0926
  H  H141  1  0.348300  0.050100  0.044100  1.0  0.0853
  H  H142  1  0.443900  0.905100  0.003600  1.0  0.0773
  H  H143  1  0.364300  0.774200  0.071800  1.0  0.0923
  H  H144  1  0.671300  0.811800  0.033900  1.0  0.0871
  H  H145  1  0.566600  0.890300  0.110600  1.0  0.074
  H  H146  1  0.197700  0.919400  0.994200  1.0  0.3086
  H  H147  1  0.331500  0.661300  0.027600  1.0  0.4101
  H  H148  1  0.760900  0.704000  0.076300  1.0  0.3395
  H  H149  1  0.803200  0.995800  0.109300  1.0  0.0733
  H  H150  1  0.846300  0.870500  0.108800  1.0  0.067
  H  H151  1  0.855300  0.999800  0.045700  1.0  0.3407
  H  H152  1  0.815700  0.979300  0.796600  1.0  0.1245
  H  H153  1  0.945000  0.069100  0.845000  1.0  0.0894
  H  H154  1  0.005700  0.961800  0.867000  1.0  0.0636
  H  H155  1  0.182200  0.077500  0.813100  1.0  0.079
  H  H156  1  0.235900  0.963800  0.831900  1.0  0.0739
  H  H157  1  0.050500  0.000400  0.761700  1.0  0.0844
  H  H158  1  0.310900  0.852500  0.767200  1.0  0.0924
  H  H159  1  0.300400  0.062200  0.731600  1.0  0.0625
  H  H160  1  0.414400  0.027200  0.767700  1.0  0.0729
  H  H161  1  0.571100  0.920900  0.726200  1.0  0.0675
  H  H162  1  0.556600  0.036600  0.705800  1.0  0.0908
  H  H163  1  0.522200  0.890600  0.660000  1.0  0.0811
  H  H164  1  0.256000  0.035600  0.664000  1.0  0.0782
  H  H165  1  0.422000  0.058200  0.641500  1.0  0.0665
  H  H166  1  0.365100  0.924700  0.594200  1.0  0.0789
  H  H167  1  0.121500  0.827900  0.595700  1.0  0.0633
  H  H168  1  0.067000  0.888700  0.635600  1.0  0.0758
  H  H169  1  0.341300  0.749600  0.629500  1.0  0.0859
  H  H170  1  0.177200  0.717900  0.651300  1.0  0.088
  H  H171  1  0.858200  0.870700  0.736300  1.0  0.0782
  H  H172  1  0.844900  0.754100  0.756100  1.0  0.0769
  H  H173  1  0.107200  0.710600  0.735400  1.0  0.0804
  H  H174  1  0.006200  0.748500  0.697300  1.0  0.0689
  H  H175  1  0.124400  0.918100  0.699500  1.0  0.0724
  H  H176  1  0.791100  0.835800  0.862700  1.0  0.0839
  H  H177  1  0.709800  0.015700  0.874000  1.0  0.0772
  H  H178  1  0.587800  0.009300  0.837300  1.0  0.0802
  H  H179  1  0.441200  0.996000  0.895900  1.0  0.1036
  H  H180  1  0.427600  0.884300  0.872700  1.0  0.0916
  H  H181  1  0.544500  0.773200  0.834800  1.0  0.0972
  H  H182  1  0.695700  0.737800  0.808300  1.0  0.0957
  H  H183  1  0.585000  0.836000  0.794400  1.0  0.0965
  H  H184  1  0.459700  0.753900  0.729700  1.0  0.0956
  H  H185  1  0.509200  0.713400  0.686200  1.0  0.105
  H  H186  1  0.351000  0.666900  0.707200  1.0  0.0985
  H  H187  1  0.096400  0.798200  0.840100  1.0  0.0971
  H  H188  1  0.151800  0.737100  0.800500  1.0  0.1077
  H  H189  1  0.978800  0.713100  0.819500  1.0  0.094
  H  H190  1  0.151700  0.949900  0.544100  1.0  0.0861
  H  H191  1  0.056100  0.094900  0.503600  1.0  0.077
  H  H192  1  0.135700  0.225800  0.571800  1.0  0.0929
  H  H193  1  0.828700  0.188200  0.533900  1.0  0.0861
  H  H194  1  0.933400  0.109700  0.610600  1.0  0.0744
  H  H195  1  0.302300  0.080600  0.494200  1.0  0.3121
  H  H196  1  0.168500  0.338700  0.527600  1.0  0.4056
  H  H197  1  0.739100  0.296000  0.576300  1.0  0.3396
  H  H198  1  0.696800  0.004200  0.609300  1.0  0.0755
  H  H199  1  0.653700  0.129500  0.608800  1.0  0.0662
  H  H200  1  0.644700  0.000200  0.545700  1.0  0.3424
  C  C201  1  0.370600  0.571720  0.184860  1.0  -0.0323
  C  C202  1  0.488800  0.503870  0.159280  1.0  -0.1825
  C  C203  1  0.649100  0.497980  0.182510  1.0  -0.165
  C  C204  1  0.610400  0.553510  0.222020  1.0  -0.0436
  C  C205  1  0.749700  0.591200  0.247680  1.0  -0.0779
  C  C206  1  0.863700  0.498030  0.257280  1.0  -0.157
  C  C207  1  0.995500  0.528640  0.286820  1.0  -0.1675
  C  C208  1  0.928300  0.581060  0.324680  1.0  -0.0939
  C  C209  1  0.844000  0.498600  0.351260  1.0  -0.1539
  C  C210  1  0.774800  0.547050  0.389110  1.0  0.1109
  C  C211  1  0.660900  0.638730  0.379430  1.0  -0.1531
  C  C212  1  0.750900  0.721670  0.354540  1.0  -0.167
  C  C213  1  0.818100  0.678250  0.314910  1.0  0.1163
  C  C214  1  0.419700  0.686130  0.249830  1.0  -0.2215
  C  C215  1  0.554400  0.726850  0.277300  1.0  -0.1794
  C  C216  1  0.682100  0.641230  0.286350  1.0  -0.0515
  C  C217  1  0.486300  0.641300  0.210770  1.0  0.1472
  C  C218  1  0.238300  0.623480  0.159340  1.0  0.037
  C  C219  1  0.136700  0.532840  0.140790  1.0  -0.1622
  C  C220  1  0.002500  0.568200  0.112570  1.0  -0.2744
  C  C221  1  0.061700  0.626930  0.075820  1.0  0.7409
  C  C222  1  0.131300  0.701000  0.182530  1.0  -0.363
  C  C223  1  0.918700  0.769310  0.296250  1.0  -0.3761
  C  C224  1  0.560000  0.731390  0.185350  1.0  -0.3675
  C  C225  1  0.609600  0.482720  0.443520  1.0  -0.0357
  C  C226  1  0.626000  0.390650  0.472760  1.0  0.0969
  C  C227  1  0.570500  0.286890  0.452820  1.0  0.0742
  C  C228  1  0.394900  0.303080  0.441410  1.0  0.0856
  C  C229  1  0.376900  0.403090  0.415230  1.0  0.0854
  C  C230  1  0.202300  0.429500  0.406900  1.0  0.057
  C  C231  1  0.129400  0.428280  0.684860  1.0  -0.0324
  C  C232  1  0.011200  0.496130  0.659280  1.0  -0.1814
  C  C233  1  0.850900  0.502020  0.682510  1.0  -0.1613
  C  C234  1  0.889600  0.446490  0.722020  1.0  -0.044
  C  C235  1  0.750300  0.408800  0.747680  1.0  -0.0782
  C  C236  1  0.636300  0.501970  0.757280  1.0  -0.1579
  C  C237  1  0.504500  0.471360  0.786820  1.0  -0.1693
  C  C238  1  0.571700  0.418940  0.824680  1.0  -0.0963
  C  C239  1  0.656000  0.501400  0.851260  1.0  -0.1532
  C  C240  1  0.725200  0.452950  0.889110  1.0  0.1098
  C  C241  1  0.839100  0.361270  0.879430  1.0  -0.1517
  C  C242  1  0.749100  0.278330  0.854540  1.0  -0.1626
  C  C243  1  0.681900  0.321750  0.814910  1.0  0.1169
  C  C244  1  0.080300  0.313870  0.749830  1.0  -0.2182
  C  C245  1  0.945600  0.273150  0.777300  1.0  -0.1791
  C  C246  1  0.817900  0.358770  0.786350  1.0  -0.0508
  C  C247  1  0.013700  0.358700  0.710770  1.0  0.1471
  C  C248  1  0.261700  0.376520  0.659340  1.0  0.0357
  C  C249  1  0.363300  0.467160  0.640790  1.0  -0.1616
  C  C250  1  0.497500  0.431800  0.612570  1.0  -0.2728
  C  C251  1  0.438300  0.373070  0.575820  1.0  0.7407
  C  C252  1  0.368700  0.299000  0.682530  1.0  -0.3638
  C  C253  1  0.581300  0.230690  0.796250  1.0  -0.3776
  C  C254  1  0.940000  0.268610  0.685350  1.0  -0.3648
  C  C255  1  0.890400  0.517280  0.943520  1.0  -0.0333
  C  C256  1  0.874000  0.609350  0.972760  1.0  0.0975
  C  C257  1  0.929500  0.713110  0.952820  1.0  0.0736
  C  C258  1  0.105100  0.696920  0.941410  1.0  0.087
  C  C259  1  0.123100  0.596910  0.915230  1.0  0.0831
  C  C260  1  0.297700  0.570500  0.906900  1.0  0.0567
  C  C261  1  0.629400  0.071720  0.315140  1.0  -0.0299
  C  C262  1  0.511200  0.003870  0.340720  1.0  -0.1794
  C  C263  1  0.350900  0.997980  0.317490  1.0  -0.1616
  C  C264  1  0.389600  0.053510  0.277980  1.0  -0.043
  C  C265  1  0.250300  0.091200  0.252320  1.0  -0.0782
  C  C266  1  0.136300  0.998030  0.242720  1.0  -0.1566
  C  C267  1  0.004500  0.028640  0.213180  1.0  -0.1697
  C  C268  1  0.071700  0.081060  0.175320  1.0  -0.0961
  C  C269  1  0.156000  0.998600  0.148740  1.0  -0.1543
  C  C270  1  0.225200  0.047050  0.110890  1.0  0.1113
  C  C271  1  0.339100  0.138730  0.120570  1.0  -0.1509
  C  C272  1  0.249100  0.221670  0.145460  1.0  -0.1621
  C  C273  1  0.181900  0.178250  0.185090  1.0  0.1175
  C  C274  1  0.580300  0.186130  0.250170  1.0  -0.2181
  C  C275  1  0.445600  0.226850  0.222700  1.0  -0.1796
  C  C276  1  0.317900  0.141230  0.213650  1.0  -0.051
  C  C277  1  0.513700  0.141300  0.289230  1.0  0.1475
  C  C278  1  0.761700  0.123480  0.340660  1.0  0.0353
  C  C279  1  0.863300  0.032840  0.359210  1.0  -0.1609
  C  C280  1  0.997500  0.068200  0.387430  1.0  -0.2734
  C  C281  1  0.938300  0.126930  0.424180  1.0  0.741
  C  C282  1  0.868700  0.201000  0.317470  1.0  -0.3628
  C  C283  1  0.081300  0.269310  0.203750  1.0  -0.3763
  C  C284  1  0.440000  0.231390  0.314650  1.0  -0.3652
  C  C285  1  0.390400  0.982720  0.056480  1.0  -0.0355
  C  C286  1  0.374000  0.890650  0.027240  1.0  0.0975
  C  C287  1  0.429500  0.786890  0.047180  1.0  0.0744
  C  C288  1  0.605100  0.803080  0.058590  1.0  0.0865
  C  C289  1  0.623100  0.903090  0.084770  1.0  0.0848
  C  C290  1  0.797700  0.929500  0.093100  1.0  0.0567
  C  C291  1  0.870600  0.928280  0.815140  1.0  -0.0301
  C  C292  1  0.988800  0.996130  0.840720  1.0  -0.182
  C  C293  1  0.149100  0.002020  0.817490  1.0  -0.1641
  C  C294  1  0.110400  0.946490  0.777980  1.0  -0.0442
  C  C295  1  0.249700  0.908800  0.752320  1.0  -0.0786
  C  C296  1  0.363700  0.001970  0.742720  1.0  -0.1595
  C  C297  1  0.495500  0.971360  0.713180  1.0  -0.1678
  C  C298  1  0.428300  0.918940  0.675320  1.0  -0.0931
  C  C299  1  0.344000  0.001400  0.648740  1.0  -0.1532
  C  C300  1  0.274800  0.952950  0.610890  1.0  0.1105
  C  C301  1  0.160900  0.861270  0.620570  1.0  -0.1537
  C  C302  1  0.250900  0.778330  0.645460  1.0  -0.1632
  C  C303  1  0.318100  0.821750  0.685090  1.0  0.1157
  C  C304  1  0.919700  0.813870  0.750170  1.0  -0.22
  C  C305  1  0.054400  0.773150  0.722700  1.0  -0.1797
  C  C306  1  0.182100  0.858770  0.713650  1.0  -0.0522
  C  C307  1  0.986300  0.858700  0.789230  1.0  0.1472
  C  C308  1  0.738300  0.876520  0.840660  1.0  0.0362
  C  C309  1  0.636700  0.967160  0.859210  1.0  -0.162
  C  C310  1  0.502500  0.931800  0.887430  1.0  -0.2764
  C  C311  1  0.561700  0.873070  0.924180  1.0  0.7413
  C  C312  1  0.631300  0.799000  0.817470  1.0  -0.3632
  C  C313  1  0.418700  0.730690  0.703750  1.0  -0.3767
  C  C314  1  0.060000  0.768610  0.814650  1.0  -0.3676
  C  C315  1  0.109600  0.017280  0.556480  1.0  -0.0343
  C  C316  1  0.126000  0.109350  0.527240  1.0  0.0953
  C  C317  1  0.070500  0.213110  0.547180  1.0  0.0736
  C  C318  1  0.894900  0.196920  0.558590  1.0  0.085
  C  C319  1  0.876900  0.096910  0.584770  1.0  0.0863
  C  C320  1  0.702300  0.070500  0.593100  1.0  0.0553
  O  O321  1  0.986750  0.710480  0.065780  1.0  -0.6302
  O  O322  1  0.179570  0.588720  0.057070  1.0  -0.6271
  O  O323  1  0.700740  0.458260  0.409550  1.0  -0.2819
  O  O324  1  0.444460  0.496450  0.433840  1.0  -0.2946
  O  O325  1  0.787690  0.380710  0.485660  1.0  -0.5887
  O  O326  1  0.587290  0.197280  0.479000  1.0  -0.6187
  O  O327  1  0.337690  0.212760  0.419280  1.0  -0.5553
  O  O328  1  0.111760  0.444610  0.442450  1.0  -0.6
  O  O329  1  0.513250  0.289520  0.565780  1.0  -0.6309
  O  O330  1  0.320430  0.411280  0.557070  1.0  -0.6253
  O  O331  1  0.799260  0.541740  0.909550  1.0  -0.2819
  O  O332  1  0.055540  0.503550  0.933840  1.0  -0.2939
  O  O333  1  0.712310  0.619290  0.985660  1.0  -0.5859
  O  O334  1  0.912710  0.802720  0.979000  1.0  -0.6187
  O  O335  1  0.162310  0.787240  0.919280  1.0  -0.5556
  O  O336  1  0.388240  0.555390  0.942450  1.0  -0.6023
  O  O337  1  0.013250  0.210480  0.434220  1.0  -0.6304
  O  O338  1  0.820430  0.088720  0.442930  1.0  -0.6267
  O  O339  1  0.299260  0.958260  0.090450  1.0  -0.2813
  O  O340  1  0.555540  0.996450  0.066160  1.0  -0.2926
  O  O341  1  0.212310  0.880710  0.014340  1.0  -0.5882
  O  O342  1  0.412710  0.697280  0.021000  1.0  -0.6195
  O  O343  1  0.662310  0.712760  0.080720  1.0  -0.5577
  O  O344  1  0.888240  0.944610  0.057550  1.0  -0.5996
  O  O345  1  0.486750  0.789520  0.934220  1.0  -0.6311
  O  O346  1  0.679570  0.911280  0.942930  1.0  -0.6266
  O  O347  1  0.200740  0.041740  0.590450  1.0  -0.2818
  O  O348  1  0.944460  0.003550  0.566160  1.0  -0.2948
  O  O349  1  0.287690  0.119290  0.514340  1.0  -0.5886
  O  O350  1  0.087290  0.302720  0.521000  1.0  -0.6213
  O  O351  1  0.837690  0.287240  0.580720  1.0  -0.5552
  O  O352  1  0.611760  0.055390  0.557550  1.0  -0.6039
