# generated using pymatgen
data_ZnH2CN5F
_symmetry_space_group_name_H-M   'P 1'
_cell_length_a   6.58730000
_cell_length_b   12.93960000
_cell_length_c   13.01410000
_cell_angle_alpha   90.00000000
_cell_angle_beta   90.02300000
_cell_angle_gamma   90.00000000
_symmetry_Int_Tables_number   1
_chemical_formula_structural   ZnH2CN5F
_chemical_formula_sum   'Zn8 H16 C8 N40 F8'
_cell_volume   1109.28310475
_cell_formula_units_Z   8
loop_
 _symmetry_equiv_pos_site_id
 _symmetry_equiv_pos_as_xyz
  1  'x, y, z'
loop_
 _atom_site_type_symbol
 _atom_site_label
 _atom_site_symmetry_multiplicity
 _atom_site_fract_x
 _atom_site_fract_y
 _atom_site_fract_z
 _atom_site_occupancy
 _atom_site_charge
  Zn  Zn1  1  0.202940  0.457750  0.951980  1.0  0.9283
  Zn  Zn2  1  0.797060  0.957750  0.548020  1.0  0.928
  Zn  Zn3  1  0.797060  0.542250  0.048020  1.0  0.9274
  Zn  Zn4  1  0.202940  0.042250  0.451980  1.0  0.9277
  Zn  Zn5  1  0.000000  0.000000  0.000000  1.0  1.0017
  Zn  Zn6  1  0.000000  0.500000  0.500000  1.0  1.0017
  Zn  Zn7  1  0.500000  0.000000  0.000000  1.0  1.0515
  Zn  Zn8  1  0.500000  0.500000  0.500000  1.0  1.0515
  H  H9  1  0.701700  0.233100  0.973200  1.0  0.3319
  H  H10  1  0.629700  0.342200  0.970000  1.0  0.3313
  H  H11  1  0.700900  0.512100  0.734500  1.0  0.3338
  H  H12  1  0.628000  0.502500  0.842400  1.0  0.3356
  H  H13  1  0.298300  0.733100  0.526800  1.0  0.332
  H  H14  1  0.370300  0.842200  0.530000  1.0  0.3315
  H  H15  1  0.299100  0.012100  0.765500  1.0  0.3344
  H  H16  1  0.372000  0.002500  0.657600  1.0  0.3344
  H  H17  1  0.298300  0.766900  0.026800  1.0  0.3317
  H  H18  1  0.370300  0.657800  0.030000  1.0  0.333
  H  H19  1  0.299100  0.487900  0.265500  1.0  0.3347
  H  H20  1  0.372000  0.497500  0.157600  1.0  0.3344
  H  H21  1  0.701700  0.266900  0.473200  1.0  0.3315
  H  H22  1  0.629700  0.157800  0.470000  1.0  0.3333
  H  H23  1  0.700900  0.987900  0.234500  1.0  0.3341
  H  H24  1  0.628000  0.997500  0.342400  1.0  0.3356
  C  C25  1  0.409800  0.244100  0.979800  1.0  0.634
  C  C26  1  0.406600  0.509700  0.744000  1.0  0.455
  C  C27  1  0.590200  0.744100  0.520200  1.0  0.6346
  C  C28  1  0.593400  0.009700  0.756000  1.0  0.4552
  C  C29  1  0.590200  0.755900  0.020200  1.0  0.6349
  C  C30  1  0.593400  0.490300  0.256000  1.0  0.4551
  C  C31  1  0.409800  0.255900  0.479800  1.0  0.6343
  C  C32  1  0.406600  0.990300  0.244000  1.0  0.455
  N  N33  1  0.245900  0.305100  0.974800  1.0  -0.3617
  N  N34  1  0.082500  0.240800  0.978800  1.0  -0.2051
  N  N35  1  0.150400  0.147600  0.985000  1.0  -0.0131
  N  N36  1  0.353400  0.145900  0.985600  1.0  -0.3678
  N  N37  1  0.603900  0.277200  0.973600  1.0  -0.7646
  N  N38  1  0.244800  0.501800  0.805200  1.0  -0.4164
  N  N39  1  0.081100  0.505800  0.740400  1.0  -0.2283
  N  N40  1  0.152100  0.514300  0.646100  1.0  -0.0128
  N  N41  1  0.353600  0.517700  0.647900  1.0  -0.3114
  N  N42  1  0.602700  0.507900  0.777800  1.0  -0.7645
  N  N43  1  0.754100  0.805100  0.525200  1.0  -0.3616
  N  N44  1  0.917500  0.740800  0.521200  1.0  -0.2063
  N  N45  1  0.849600  0.647600  0.515000  1.0  -0.0122
  N  N46  1  0.646600  0.645900  0.514400  1.0  -0.3668
  N  N47  1  0.396100  0.777200  0.526400  1.0  -0.7647
  N  N48  1  0.755200  0.001800  0.694800  1.0  -0.4159
  N  N49  1  0.918900  0.005800  0.759600  1.0  -0.2303
  N  N50  1  0.847900  0.014300  0.853900  1.0  -0.0124
  N  N51  1  0.646400  0.017700  0.852100  1.0  -0.3122
  N  N52  1  0.397300  0.007900  0.722200  1.0  -0.7646
  N  N53  1  0.754100  0.694900  0.025200  1.0  -0.3598
  N  N54  1  0.917500  0.759200  0.021200  1.0  -0.2059
  N  N55  1  0.849600  0.852400  0.015000  1.0  -0.0121
  N  N56  1  0.646600  0.854100  0.014400  1.0  -0.3669
  N  N57  1  0.396100  0.722800  0.026400  1.0  -0.765
  N  N58  1  0.755200  0.498200  0.194800  1.0  -0.4158
  N  N59  1  0.918900  0.494200  0.259600  1.0  -0.2301
  N  N60  1  0.847900  0.485700  0.353900  1.0  -0.0125
  N  N61  1  0.646400  0.482300  0.352100  1.0  -0.3123
  N  N62  1  0.397300  0.492100  0.222200  1.0  -0.7642
  N  N63  1  0.245900  0.194900  0.474800  1.0  -0.36
  N  N64  1  0.082500  0.259200  0.478800  1.0  -0.2058
  N  N65  1  0.150400  0.352400  0.485000  1.0  -0.0134
  N  N66  1  0.353400  0.354100  0.485600  1.0  -0.3681
  N  N67  1  0.603900  0.222800  0.473600  1.0  -0.7648
  N  N68  1  0.244800  0.998200  0.305200  1.0  -0.4164
  N  N69  1  0.081100  0.994200  0.240400  1.0  -0.2282
  N  N70  1  0.152100  0.985700  0.146100  1.0  -0.0131
  N  N71  1  0.353600  0.982300  0.147900  1.0  -0.3118
  N  N72  1  0.602700  0.992100  0.277800  1.0  -0.7644
  F  F73  1  0.111000  0.551700  0.060300  1.0  -0.5145
  F  F74  1  0.246800  0.934600  0.935600  1.0  -0.4165
  F  F75  1  0.889000  0.051700  0.439700  1.0  -0.5157
  F  F76  1  0.753200  0.434600  0.564400  1.0  -0.4174
  F  F77  1  0.889000  0.448300  0.939700  1.0  -0.5161
  F  F78  1  0.753200  0.065400  0.064400  1.0  -0.4158
  F  F79  1  0.111000  0.948300  0.560300  1.0  -0.5149
  F  F80  1  0.246800  0.565400  0.435600  1.0  -0.4148
