# generated using pymatgen
data_Cd3H28(C11O7)4
_symmetry_space_group_name_H-M   'P 1'
_cell_length_a   25.64330000
_cell_length_b   13.39040000
_cell_length_c   15.12090000
_cell_angle_alpha   90.00000000
_cell_angle_beta   92.75300000
_cell_angle_gamma   90.00000000
_symmetry_Int_Tables_number   1
_chemical_formula_structural   Cd3H28(C11O7)4
_chemical_formula_sum   'Cd6 H56 C88 O56'
_cell_volume   5186.13221552
_cell_formula_units_Z   2
loop_
 _symmetry_equiv_pos_site_id
 _symmetry_equiv_pos_as_xyz
  1  'x, y, z'
loop_
 _atom_site_type_symbol
 _atom_site_label
 _atom_site_symmetry_multiplicity
 _atom_site_fract_x
 _atom_site_fract_y
 _atom_site_fract_z
 _atom_site_occupancy
 _atom_site_charge
  Cd  Cd1  1  0.761360  0.049730  0.997700  1.0  1.0978
  Cd  Cd2  1  0.261360  0.549730  0.997700  1.0  1.0978
  Cd  Cd3  1  0.238640  0.049730  0.002300  1.0  1.0995
  Cd  Cd4  1  0.738640  0.549730  0.002300  1.0  1.0995
  Cd  Cd5  1  0.500000  0.993420  0.500000  1.0  1.0478
  Cd  Cd6  1  0.000000  0.493420  0.500000  1.0  1.0478
  H  H7  1  0.580000  0.271800  0.361000  1.0  0.1549
  H  H8  1  0.623700  0.018100  0.246300  1.0  0.1357
  H  H9  1  0.674500  0.282400  0.157100  1.0  0.1461
  H  H10  1  0.690000  0.439000  0.220100  1.0  0.113
  H  H11  1  0.786300  0.239700  0.172600  1.0  0.1432
  H  H12  1  0.892700  0.243900  0.380700  1.0  0.1559
  H  H13  1  0.861700  0.493100  0.240100  1.0  0.1483
  H  H14  1  0.747500  0.946500  0.287000  1.0  0.1475
  H  H15  1  0.796600  0.953800  0.352700  1.0  0.1497
  H  H16  1  0.749700  0.027700  0.361800  1.0  0.1504
  H  H17  1  0.767300  0.101000  0.227300  1.0  0.1088
  H  H18  1  0.667000  0.610400  0.215000  1.0  0.1581
  H  H19  1  0.611400  0.583500  0.246700  1.0  0.1602
  H  H20  1  0.660800  0.567300  0.310300  1.0  0.16
  H  H21  1  0.080000  0.771800  0.361000  1.0  0.1549
  H  H22  1  0.123700  0.518100  0.246300  1.0  0.1357
  H  H23  1  0.174500  0.782400  0.157100  1.0  0.1461
  H  H24  1  0.190000  0.939000  0.220100  1.0  0.113
  H  H25  1  0.286300  0.739700  0.172600  1.0  0.1432
  H  H26  1  0.392700  0.743900  0.380700  1.0  0.1559
  H  H27  1  0.361700  0.993100  0.240100  1.0  0.1483
  H  H28  1  0.247500  0.446500  0.287000  1.0  0.1475
  H  H29  1  0.296600  0.453800  0.352700  1.0  0.1497
  H  H30  1  0.249700  0.527700  0.361800  1.0  0.1504
  H  H31  1  0.267300  0.601000  0.227300  1.0  0.1088
  H  H32  1  0.167000  0.110400  0.215000  1.0  0.1581
  H  H33  1  0.111400  0.083500  0.246700  1.0  0.1602
  H  H34  1  0.160800  0.067300  0.310300  1.0  0.16
  H  H35  1  0.420000  0.271800  0.639000  1.0  0.1541
  H  H36  1  0.376300  0.018100  0.753700  1.0  0.1365
  H  H37  1  0.325500  0.282400  0.842900  1.0  0.1454
  H  H38  1  0.310000  0.439000  0.779900  1.0  0.1149
  H  H39  1  0.213700  0.239700  0.827400  1.0  0.1432
  H  H40  1  0.107300  0.243900  0.619300  1.0  0.1565
  H  H41  1  0.138300  0.493100  0.759900  1.0  0.1488
  H  H42  1  0.252500  0.946500  0.713000  1.0  0.1475
  H  H43  1  0.203400  0.953800  0.647300  1.0  0.1483
  H  H44  1  0.250300  0.027700  0.638200  1.0  0.1484
  H  H45  1  0.232700  0.101000  0.772700  1.0  0.1082
  H  H46  1  0.333000  0.610400  0.785000  1.0  0.1584
  H  H47  1  0.388600  0.583500  0.753300  1.0  0.1625
  H  H48  1  0.339200  0.567300  0.689700  1.0  0.1594
  H  H49  1  0.920000  0.771800  0.639000  1.0  0.1541
  H  H50  1  0.876300  0.518100  0.753700  1.0  0.1365
  H  H51  1  0.825500  0.782400  0.842900  1.0  0.1454
  H  H52  1  0.810000  0.939000  0.779900  1.0  0.1149
  H  H53  1  0.713700  0.739700  0.827400  1.0  0.1432
  H  H54  1  0.607300  0.743900  0.619300  1.0  0.1565
  H  H55  1  0.638300  0.993100  0.759900  1.0  0.1488
  H  H56  1  0.752500  0.446500  0.713000  1.0  0.1475
  H  H57  1  0.703400  0.453800  0.647300  1.0  0.1483
  H  H58  1  0.750300  0.527700  0.638200  1.0  0.1484
  H  H59  1  0.732700  0.601000  0.772700  1.0  0.1082
  H  H60  1  0.833000  0.110400  0.785000  1.0  0.1584
  H  H61  1  0.888600  0.083500  0.753300  1.0  0.1625
  H  H62  1  0.839200  0.067300  0.689700  1.0  0.1594
  C  C63  1  0.683900  0.093100  0.122100  1.0  0.7384
  C  C64  1  0.565200  0.077200  0.376400  1.0  0.7293
  C  C65  1  0.826900  0.004300  0.193900  1.0  0.707
  C  C66  1  0.598300  0.239100  0.317800  1.0  -0.0247
  C  C67  1  0.624600  0.087400  0.249800  1.0  0.0288
  C  C68  1  0.635600  0.455400  0.117200  1.0  0.7286
  C  C69  1  0.791900  0.428900  0.122400  1.0  0.7233
  C  C70  1  0.654600  0.246000  0.195600  1.0  -0.1459
  C  C71  1  0.653000  0.141400  0.190900  1.0  -0.1259
  C  C72  1  0.836100  0.223600  0.280700  1.0  0.1986
  C  C73  1  0.821200  0.374700  0.195600  1.0  -0.0991
  C  C74  1  0.625800  0.294600  0.258800  1.0  0.2887
  C  C75  1  0.653300  0.458900  0.213900  1.0  0.1323
  C  C76  1  0.884400  0.373600  0.317800  1.0  -0.1186
  C  C77  1  0.810300  0.273400  0.209800  1.0  -0.0466
  C  C78  1  0.874600  0.276400  0.334500  1.0  -0.0372
  C  C79  1  0.924200  0.427100  0.376700  1.0  0.7505
  C  C80  1  0.856200  0.425200  0.248800  1.0  0.0098
  C  C81  1  0.769900  0.991300  0.320800  1.0  -0.3047
  C  C82  1  0.597200  0.136000  0.314200  1.0  -0.1333
  C  C83  1  0.794600  0.062600  0.259800  1.0  0.1351
  C  C84  1  0.647600  0.564900  0.249800  1.0  -0.2987
  C  C85  1  0.183900  0.593100  0.122100  1.0  0.7384
  C  C86  1  0.065200  0.577200  0.376400  1.0  0.7293
  C  C87  1  0.326900  0.504300  0.193900  1.0  0.707
  C  C88  1  0.098300  0.739100  0.317800  1.0  -0.0247
  C  C89  1  0.124600  0.587400  0.249800  1.0  0.0288
  C  C90  1  0.135600  0.955400  0.117200  1.0  0.7286
  C  C91  1  0.291900  0.928900  0.122400  1.0  0.7233
  C  C92  1  0.154600  0.746000  0.195600  1.0  -0.1459
  C  C93  1  0.153000  0.641400  0.190900  1.0  -0.1259
  C  C94  1  0.336100  0.723600  0.280700  1.0  0.1986
  C  C95  1  0.321200  0.874700  0.195600  1.0  -0.0991
  C  C96  1  0.125800  0.794600  0.258800  1.0  0.2887
  C  C97  1  0.153300  0.958900  0.213900  1.0  0.1323
  C  C98  1  0.384400  0.873600  0.317800  1.0  -0.1186
  C  C99  1  0.310300  0.773400  0.209800  1.0  -0.0466
  C  C100  1  0.374600  0.776400  0.334500  1.0  -0.0372
  C  C101  1  0.424200  0.927100  0.376700  1.0  0.7505
  C  C102  1  0.356200  0.925200  0.248800  1.0  0.0098
  C  C103  1  0.269900  0.491300  0.320800  1.0  -0.3047
  C  C104  1  0.097200  0.636000  0.314200  1.0  -0.1333
  C  C105  1  0.294600  0.562600  0.259800  1.0  0.1351
  C  C106  1  0.147600  0.064900  0.249800  1.0  -0.2987
  C  C107  1  0.316100  0.093100  0.877900  1.0  0.7392
  C  C108  1  0.434800  0.077200  0.623600  1.0  0.7279
  C  C109  1  0.173100  0.004300  0.806100  1.0  0.7031
  C  C110  1  0.401700  0.239100  0.682200  1.0  -0.0238
  C  C111  1  0.375400  0.087400  0.750200  1.0  0.0292
  C  C112  1  0.364400  0.455400  0.882800  1.0  0.7344
  C  C113  1  0.208100  0.428900  0.877600  1.0  0.7248
  C  C114  1  0.345400  0.246000  0.804400  1.0  -0.1446
  C  C115  1  0.347000  0.141400  0.809100  1.0  -0.1258
  C  C116  1  0.163900  0.223600  0.719300  1.0  0.1989
  C  C117  1  0.178800  0.374700  0.804400  1.0  -0.1002
  C  C118  1  0.374200  0.294600  0.741200  1.0  0.2889
  C  C119  1  0.346700  0.458900  0.786100  1.0  0.134
  C  C120  1  0.115600  0.373600  0.682200  1.0  -0.118
  C  C121  1  0.189700  0.273400  0.790200  1.0  -0.0487
  C  C122  1  0.125400  0.276400  0.665500  1.0  -0.0376
  C  C123  1  0.075800  0.427100  0.623300  1.0  0.7507
  C  C124  1  0.143800  0.425200  0.751200  1.0  0.0095
  C  C125  1  0.230100  0.991300  0.679200  1.0  -0.3019
  C  C126  1  0.402800  0.136000  0.685800  1.0  -0.1353
  C  C127  1  0.205400  0.062600  0.740200  1.0  0.133
  C  C128  1  0.352400  0.564900  0.750200  1.0  -0.2983
  C  C129  1  0.816100  0.593100  0.877900  1.0  0.7392
  C  C130  1  0.934800  0.577200  0.623600  1.0  0.7279
  C  C131  1  0.673100  0.504300  0.806100  1.0  0.7031
  C  C132  1  0.901700  0.739100  0.682200  1.0  -0.0238
  C  C133  1  0.875400  0.587400  0.750200  1.0  0.0292
  C  C134  1  0.864400  0.955400  0.882800  1.0  0.7344
  C  C135  1  0.708100  0.928900  0.877600  1.0  0.7248
  C  C136  1  0.845400  0.746000  0.804400  1.0  -0.1446
  C  C137  1  0.847000  0.641400  0.809100  1.0  -0.1258
  C  C138  1  0.663900  0.723600  0.719300  1.0  0.1989
  C  C139  1  0.678800  0.874700  0.804400  1.0  -0.1002
  C  C140  1  0.874200  0.794600  0.741200  1.0  0.2889
  C  C141  1  0.846700  0.958900  0.786100  1.0  0.134
  C  C142  1  0.615600  0.873600  0.682200  1.0  -0.118
  C  C143  1  0.689700  0.773400  0.790200  1.0  -0.0487
  C  C144  1  0.625400  0.776400  0.665500  1.0  -0.0376
  C  C145  1  0.575800  0.927100  0.623300  1.0  0.7507
  C  C146  1  0.643800  0.925200  0.751200  1.0  0.0095
  C  C147  1  0.730100  0.491300  0.679200  1.0  -0.3019
  C  C148  1  0.902800  0.636000  0.685800  1.0  -0.1353
  C  C149  1  0.705400  0.562600  0.740200  1.0  0.133
  C  C150  1  0.852400  0.064900  0.750200  1.0  -0.2983
  O  O151  1  0.686300  0.001000  0.115700  1.0  -0.5805
  O  O152  1  0.817300  0.018700  0.113100  1.0  -0.6826
  O  O153  1  0.595500  0.410400  0.093000  1.0  -0.4325
  O  O154  1  0.561900  0.986400  0.370300  1.0  -0.5852
  O  O155  1  0.769100  0.380200  0.060300  1.0  -0.6346
  O  O156  1  0.707600  0.148700  0.069300  1.0  -0.623
  O  O157  1  0.951500  0.376900  0.428600  1.0  -0.5266
  O  O158  1  0.929000  0.520300  0.371200  1.0  -0.6117
  O  O159  1  0.623300  0.396500  0.269500  1.0  -0.2861
  O  O160  1  0.827400  0.128400  0.309600  1.0  -0.2984
  O  O161  1  0.541700  0.127000  0.434300  1.0  -0.5714
  O  O162  1  0.862000  0.947900  0.220900  1.0  -0.3729
  O  O163  1  0.790200  0.523500  0.126000  1.0  -0.5561
  O  O164  1  0.663800  0.499100  0.064300  1.0  -0.727
  O  O165  1  0.186300  0.501000  0.115700  1.0  -0.5805
  O  O166  1  0.317300  0.518700  0.113100  1.0  -0.6826
  O  O167  1  0.095500  0.910400  0.093000  1.0  -0.4325
  O  O168  1  0.061900  0.486400  0.370300  1.0  -0.5852
  O  O169  1  0.269100  0.880200  0.060300  1.0  -0.6346
  O  O170  1  0.207600  0.648700  0.069300  1.0  -0.623
  O  O171  1  0.451500  0.876900  0.428600  1.0  -0.5268
  O  O172  1  0.429000  0.020300  0.371200  1.0  -0.6117
  O  O173  1  0.123300  0.896500  0.269500  1.0  -0.2861
  O  O174  1  0.327400  0.628400  0.309600  1.0  -0.2984
  O  O175  1  0.041700  0.627000  0.434300  1.0  -0.5714
  O  O176  1  0.362000  0.447900  0.220900  1.0  -0.3729
  O  O177  1  0.290200  0.023500  0.126000  1.0  -0.5561
  O  O178  1  0.163800  0.999100  0.064300  1.0  -0.727
  O  O179  1  0.313700  0.001000  0.884300  1.0  -0.5803
  O  O180  1  0.182700  0.018700  0.886900  1.0  -0.6854
  O  O181  1  0.404500  0.410400  0.907000  1.0  -0.4341
  O  O182  1  0.438100  0.986400  0.629700  1.0  -0.5849
  O  O183  1  0.230900  0.380200  0.939700  1.0  -0.6329
  O  O184  1  0.292400  0.148700  0.930700  1.0  -0.6214
  O  O185  1  0.048500  0.376900  0.571400  1.0  -0.5274
  O  O186  1  0.071000  0.520300  0.628800  1.0  -0.6118
  O  O187  1  0.376700  0.396500  0.730500  1.0  -0.2891
  O  O188  1  0.172600  0.128400  0.690400  1.0  -0.3037
  O  O189  1  0.458300  0.127000  0.565700  1.0  -0.5718
  O  O190  1  0.138000  0.947900  0.779100  1.0  -0.3697
  O  O191  1  0.209800  0.523500  0.874000  1.0  -0.5578
  O  O192  1  0.336200  0.499100  0.935700  1.0  -0.7248
  O  O193  1  0.813700  0.501000  0.884300  1.0  -0.5803
  O  O194  1  0.682700  0.518700  0.886900  1.0  -0.6854
  O  O195  1  0.904500  0.910400  0.907000  1.0  -0.4341
  O  O196  1  0.938100  0.486400  0.629700  1.0  -0.5849
  O  O197  1  0.730900  0.880200  0.939700  1.0  -0.6329
  O  O198  1  0.792400  0.648700  0.930700  1.0  -0.6214
  O  O199  1  0.548500  0.876900  0.571400  1.0  -0.5278
  O  O200  1  0.571000  0.020300  0.628800  1.0  -0.6118
  O  O201  1  0.876700  0.896500  0.730500  1.0  -0.2891
  O  O202  1  0.672600  0.628400  0.690400  1.0  -0.3037
  O  O203  1  0.958300  0.627000  0.565700  1.0  -0.5718
  O  O204  1  0.638000  0.447900  0.779100  1.0  -0.3697
  O  O205  1  0.709800  0.023500  0.874000  1.0  -0.5578
  O  O206  1  0.836200  0.999100  0.935700  1.0  -0.7248
