# generated using pymatgen
data_Zr3H16C36(OF2)12
_symmetry_space_group_name_H-M   'P 1'
_cell_length_a   24.39360000
_cell_length_b   24.39360000
_cell_length_c   14.57100000
_cell_angle_alpha   90.00000000
_cell_angle_beta   90.00000000
_cell_angle_gamma   90.00000000
_symmetry_Int_Tables_number   1
_chemical_formula_structural   Zr3H16C36(OF2)12
_chemical_formula_sum   'Zr12 H64 C144 O48 F96'
_cell_volume   8670.44034211
_cell_formula_units_Z   4
loop_
 _symmetry_equiv_pos_site_id
 _symmetry_equiv_pos_as_xyz
  1  'x, y, z'
loop_
 _atom_site_type_symbol
 _atom_site_label
 _atom_site_symmetry_multiplicity
 _atom_site_fract_x
 _atom_site_fract_y
 _atom_site_fract_z
 _atom_site_occupancy
 _atom_site_charge
  Zr  Zr1  1  0.500000  0.099860  0.000000  1.0  2.1963
  Zr  Zr2  1  0.500000  0.900140  0.000000  1.0  2.1996
  Zr  Zr3  1  0.900140  0.500000  0.500000  1.0  2.1972
  Zr  Zr4  1  0.099860  0.500000  0.500000  1.0  2.1963
  Zr  Zr5  1  0.427640  0.000000  0.121820  1.0  2.1854
  Zr  Zr6  1  0.572360  0.000000  0.121820  1.0  2.1823
  Zr  Zr7  1  0.000000  0.427640  0.621820  1.0  2.1854
  Zr  Zr8  1  0.000000  0.572360  0.621820  1.0  2.1881
  Zr  Zr9  1  0.572360  0.000000  0.878180  1.0  2.1815
  Zr  Zr10  1  0.427640  0.000000  0.878180  1.0  2.1846
  Zr  Zr11  1  0.000000  0.427640  0.378180  1.0  2.1853
  Zr  Zr12  1  0.000000  0.572360  0.378180  1.0  2.1857
  H  H13  1  0.398900  0.235000  0.094400  1.0  0.2373
  H  H14  1  0.331000  0.125800  0.272800  1.0  0.2264
  H  H15  1  0.268800  0.192800  0.320300  1.0  0.3322
  H  H16  1  0.336100  0.300600  0.143600  1.0  0.3494
  H  H17  1  0.601100  0.765000  0.094400  1.0  0.2369
  H  H18  1  0.669000  0.874200  0.272800  1.0  0.2265
  H  H19  1  0.731200  0.807200  0.320300  1.0  0.3321
  H  H20  1  0.663900  0.699400  0.143600  1.0  0.3519
  H  H21  1  0.765000  0.398900  0.594400  1.0  0.2375
  H  H22  1  0.874200  0.331000  0.772800  1.0  0.2256
  H  H23  1  0.807200  0.268800  0.820300  1.0  0.3353
  H  H24  1  0.699400  0.336100  0.643600  1.0  0.3487
  H  H25  1  0.235000  0.601100  0.594400  1.0  0.2368
  H  H26  1  0.125800  0.669000  0.772800  1.0  0.2255
  H  H27  1  0.192800  0.731200  0.820300  1.0  0.3363
  H  H28  1  0.300600  0.663900  0.643600  1.0  0.3485
  H  H29  1  0.601100  0.235000  0.905600  1.0  0.2366
  H  H30  1  0.669000  0.125800  0.727200  1.0  0.2264
  H  H31  1  0.731200  0.192800  0.679700  1.0  0.3308
  H  H32  1  0.663900  0.300600  0.856400  1.0  0.3496
  H  H33  1  0.398900  0.765000  0.905600  1.0  0.2374
  H  H34  1  0.331000  0.874200  0.727200  1.0  0.2269
  H  H35  1  0.268800  0.807200  0.679700  1.0  0.3322
  H  H36  1  0.336100  0.699400  0.856400  1.0  0.3506
  H  H37  1  0.235000  0.398900  0.405600  1.0  0.2371
  H  H38  1  0.125800  0.331000  0.227200  1.0  0.2257
  H  H39  1  0.192800  0.268800  0.179700  1.0  0.3344
  H  H40  1  0.300600  0.336100  0.356400  1.0  0.3486
  H  H41  1  0.765000  0.601100  0.405600  1.0  0.2371
  H  H42  1  0.874200  0.669000  0.227200  1.0  0.2259
  H  H43  1  0.807200  0.731200  0.179700  1.0  0.3349
  H  H44  1  0.699400  0.663900  0.356400  1.0  0.3488
  H  H45  1  0.601100  0.765000  0.905600  1.0  0.2368
  H  H46  1  0.669000  0.874200  0.727200  1.0  0.2269
  H  H47  1  0.731200  0.807200  0.679700  1.0  0.332
  H  H48  1  0.663900  0.699400  0.856400  1.0  0.3519
  H  H49  1  0.398900  0.235000  0.905600  1.0  0.237
  H  H50  1  0.331000  0.125800  0.727200  1.0  0.2266
  H  H51  1  0.268800  0.192800  0.679700  1.0  0.3304
  H  H52  1  0.336100  0.300600  0.856400  1.0  0.3486
  H  H53  1  0.235000  0.601100  0.405600  1.0  0.2371
  H  H54  1  0.125800  0.669000  0.227200  1.0  0.2257
  H  H55  1  0.192800  0.731200  0.179700  1.0  0.3344
  H  H56  1  0.300600  0.663900  0.356400  1.0  0.3482
  H  H57  1  0.765000  0.398900  0.405600  1.0  0.2371
  H  H58  1  0.874200  0.331000  0.227200  1.0  0.2262
  H  H59  1  0.807200  0.268800  0.179700  1.0  0.3349
  H  H60  1  0.699400  0.336100  0.356400  1.0  0.3485
  H  H61  1  0.398900  0.765000  0.094400  1.0  0.2374
  H  H62  1  0.331000  0.874200  0.272800  1.0  0.2263
  H  H63  1  0.268800  0.807200  0.320300  1.0  0.3326
  H  H64  1  0.336100  0.699400  0.143600  1.0  0.351
  H  H65  1  0.601100  0.235000  0.094400  1.0  0.2369
  H  H66  1  0.669000  0.125800  0.272800  1.0  0.2266
  H  H67  1  0.731200  0.192800  0.320300  1.0  0.3327
  H  H68  1  0.663900  0.300600  0.143600  1.0  0.35
  H  H69  1  0.765000  0.601100  0.594400  1.0  0.2369
  H  H70  1  0.874200  0.669000  0.772800  1.0  0.2258
  H  H71  1  0.807200  0.731200  0.820300  1.0  0.3354
  H  H72  1  0.699400  0.663900  0.643600  1.0  0.3488
  H  H73  1  0.235000  0.398900  0.594400  1.0  0.2373
  H  H74  1  0.125800  0.331000  0.772800  1.0  0.2252
  H  H75  1  0.192800  0.268800  0.820300  1.0  0.3363
  H  H76  1  0.300600  0.336100  0.643600  1.0  0.349
  C  C77  1  0.296000  0.253700  0.237000  1.0  0.0953
  C  C78  1  0.335100  0.265000  0.169900  1.0  -0.0194
  C  C79  1  0.372500  0.226500  0.140100  1.0  -0.1331
  C  C80  1  0.369800  0.173800  0.180500  1.0  -0.0289
  C  C81  1  0.332100  0.161400  0.246400  1.0  -0.0965
  C  C82  1  0.295100  0.201400  0.274500  1.0  -0.0051
  C  C83  1  0.407600  0.132600  0.138600  1.0  0.8364
  C  C84  1  0.340600  0.319700  0.123400  1.0  0.0583
  C  C85  1  0.256200  0.181900  0.347400  1.0  0.1143
  C  C86  1  0.704000  0.746300  0.237000  1.0  0.0947
  C  C87  1  0.664900  0.735000  0.169900  1.0  -0.0198
  C  C88  1  0.627500  0.773500  0.140100  1.0  -0.1349
  C  C89  1  0.630200  0.826200  0.180500  1.0  -0.0309
  C  C90  1  0.667900  0.838600  0.246400  1.0  -0.0939
  C  C91  1  0.704900  0.798600  0.274500  1.0  -0.0098
  C  C92  1  0.592400  0.867400  0.138600  1.0  0.8361
  C  C93  1  0.659400  0.680300  0.123400  1.0  0.0604
  C  C94  1  0.743800  0.818100  0.347400  1.0  0.114
  C  C95  1  0.746300  0.296000  0.737000  1.0  0.0955
  C  C96  1  0.735000  0.335100  0.669900  1.0  -0.0142
  C  C97  1  0.773500  0.372500  0.640100  1.0  -0.1339
  C  C98  1  0.826200  0.369800  0.680500  1.0  -0.0302
  C  C99  1  0.838600  0.332100  0.746400  1.0  -0.095
  C  C100  1  0.798600  0.295100  0.774500  1.0  -0.0076
  C  C101  1  0.867400  0.407600  0.638600  1.0  0.8362
  C  C102  1  0.680300  0.340600  0.623400  1.0  0.0567
  C  C103  1  0.818100  0.256200  0.847400  1.0  0.1153
  C  C104  1  0.253700  0.704000  0.737000  1.0  0.0948
  C  C105  1  0.265000  0.664900  0.669900  1.0  -0.0191
  C  C106  1  0.226500  0.627500  0.640100  1.0  -0.1344
  C  C107  1  0.173800  0.630200  0.680500  1.0  -0.0309
  C  C108  1  0.161400  0.667900  0.746400  1.0  -0.0973
  C  C109  1  0.201400  0.704900  0.774500  1.0  -0.0088
  C  C110  1  0.132600  0.592400  0.638600  1.0  0.8369
  C  C111  1  0.319700  0.659400  0.623400  1.0  0.0601
  C  C112  1  0.181900  0.743800  0.847400  1.0  0.1093
  C  C113  1  0.704000  0.253700  0.763000  1.0  0.0951
  C  C114  1  0.664900  0.265000  0.830100  1.0  -0.0182
  C  C115  1  0.627500  0.226500  0.859900  1.0  -0.1352
  C  C116  1  0.630200  0.173800  0.819500  1.0  -0.0306
  C  C117  1  0.667900  0.161400  0.753600  1.0  -0.0938
  C  C118  1  0.704900  0.201400  0.725500  1.0  -0.0085
  C  C119  1  0.592400  0.132600  0.861400  1.0  0.837
  C  C120  1  0.659400  0.319700  0.876600  1.0  0.0558
  C  C121  1  0.743800  0.181900  0.652600  1.0  0.1192
  C  C122  1  0.296000  0.746300  0.763000  1.0  0.0956
  C  C123  1  0.335100  0.735000  0.830100  1.0  -0.0193
  C  C124  1  0.372500  0.773500  0.859900  1.0  -0.1334
  C  C125  1  0.369800  0.826200  0.819500  1.0  -0.0304
  C  C126  1  0.332100  0.838600  0.753600  1.0  -0.0937
  C  C127  1  0.295100  0.798600  0.725500  1.0  -0.0054
  C  C128  1  0.407600  0.867400  0.861400  1.0  0.8372
  C  C129  1  0.340600  0.680300  0.876600  1.0  0.0588
  C  C130  1  0.256200  0.818100  0.652600  1.0  0.1142
  C  C131  1  0.253700  0.296000  0.263000  1.0  0.0953
  C  C132  1  0.265000  0.335100  0.330100  1.0  -0.018
  C  C133  1  0.226500  0.372500  0.359900  1.0  -0.1336
  C  C134  1  0.173800  0.369800  0.319500  1.0  -0.031
  C  C135  1  0.161400  0.332100  0.253600  1.0  -0.0949
  C  C136  1  0.201400  0.295100  0.225500  1.0  -0.0086
  C  C137  1  0.132600  0.407600  0.361400  1.0  0.8379
  C  C138  1  0.319700  0.340600  0.376600  1.0  0.0582
  C  C139  1  0.181900  0.256200  0.152600  1.0  0.1151
  C  C140  1  0.746300  0.704000  0.263000  1.0  0.0957
  C  C141  1  0.735000  0.664900  0.330100  1.0  -0.0123
  C  C142  1  0.773500  0.627500  0.359900  1.0  -0.1336
  C  C143  1  0.826200  0.630200  0.319500  1.0  -0.029
  C  C144  1  0.838600  0.667900  0.253600  1.0  -0.0947
  C  C145  1  0.798600  0.704900  0.225500  1.0  -0.0076
  C  C146  1  0.867400  0.592400  0.361400  1.0  0.8371
  C  C147  1  0.680300  0.659400  0.376600  1.0  0.0567
  C  C148  1  0.818100  0.743800  0.152600  1.0  0.116
  C  C149  1  0.704000  0.746300  0.763000  1.0  0.095
  C  C150  1  0.664900  0.735000  0.830100  1.0  -0.0193
  C  C151  1  0.627500  0.773500  0.859900  1.0  -0.1341
  C  C152  1  0.630200  0.826200  0.819500  1.0  -0.0311
  C  C153  1  0.667900  0.838600  0.753600  1.0  -0.0926
  C  C154  1  0.704900  0.798600  0.725500  1.0  -0.0106
  C  C155  1  0.592400  0.867400  0.861400  1.0  0.8368
  C  C156  1  0.659400  0.680300  0.876600  1.0  0.0589
  C  C157  1  0.743800  0.818100  0.652600  1.0  0.1186
  C  C158  1  0.296000  0.253700  0.763000  1.0  0.0958
  C  C159  1  0.335100  0.265000  0.830100  1.0  -0.0189
  C  C160  1  0.372500  0.226500  0.859900  1.0  -0.1333
  C  C161  1  0.369800  0.173800  0.819500  1.0  -0.0288
  C  C162  1  0.332100  0.161400  0.753600  1.0  -0.0956
  C  C163  1  0.295100  0.201400  0.725500  1.0  -0.0036
  C  C164  1  0.407600  0.132600  0.861400  1.0  0.8371
  C  C165  1  0.340600  0.319700  0.876600  1.0  0.0558
  C  C166  1  0.256200  0.181900  0.652600  1.0  0.1159
  C  C167  1  0.253700  0.704000  0.263000  1.0  0.0953
  C  C168  1  0.265000  0.664900  0.330100  1.0  -0.0178
  C  C169  1  0.226500  0.627500  0.359900  1.0  -0.1342
  C  C170  1  0.173800  0.630200  0.319500  1.0  -0.0312
  C  C171  1  0.161400  0.667900  0.253600  1.0  -0.0964
  C  C172  1  0.201400  0.704900  0.225500  1.0  -0.0083
  C  C173  1  0.132600  0.592400  0.361400  1.0  0.8379
  C  C174  1  0.319700  0.659400  0.376600  1.0  0.0603
  C  C175  1  0.181900  0.743800  0.152600  1.0  0.1124
  C  C176  1  0.746300  0.296000  0.263000  1.0  0.0958
  C  C177  1  0.735000  0.335100  0.330100  1.0  -0.014
  C  C178  1  0.773500  0.372500  0.359900  1.0  -0.1338
  C  C179  1  0.826200  0.369800  0.319500  1.0  -0.0302
  C  C180  1  0.838600  0.332100  0.253600  1.0  -0.0951
  C  C181  1  0.798600  0.295100  0.225500  1.0  -0.0075
  C  C182  1  0.867400  0.407600  0.361400  1.0  0.837
  C  C183  1  0.680300  0.340600  0.376600  1.0  0.0551
  C  C184  1  0.818100  0.256200  0.152600  1.0  0.1171
  C  C185  1  0.296000  0.746300  0.237000  1.0  0.0953
  C  C186  1  0.335100  0.735000  0.169900  1.0  -0.0192
  C  C187  1  0.372500  0.773500  0.140100  1.0  -0.1339
  C  C188  1  0.369800  0.826200  0.180500  1.0  -0.0301
  C  C189  1  0.332100  0.838600  0.246400  1.0  -0.0948
  C  C190  1  0.295100  0.798600  0.274500  1.0  -0.0058
  C  C191  1  0.407600  0.867400  0.138600  1.0  0.8366
  C  C192  1  0.340600  0.680300  0.123400  1.0  0.0617
  C  C193  1  0.256200  0.818100  0.347400  1.0  0.1107
  C  C194  1  0.704000  0.253700  0.237000  1.0  0.0946
  C  C195  1  0.664900  0.265000  0.169900  1.0  -0.0194
  C  C196  1  0.627500  0.226500  0.140100  1.0  -0.135
  C  C197  1  0.630200  0.173800  0.180500  1.0  -0.0304
  C  C198  1  0.667900  0.161400  0.246400  1.0  -0.0953
  C  C199  1  0.704900  0.201400  0.274500  1.0  -0.0087
  C  C200  1  0.592400  0.132600  0.138600  1.0  0.8361
  C  C201  1  0.659400  0.319700  0.123400  1.0  0.0584
  C  C202  1  0.743800  0.181900  0.347400  1.0  0.1165
  C  C203  1  0.746300  0.704000  0.737000  1.0  0.0952
  C  C204  1  0.735000  0.664900  0.669900  1.0  -0.0134
  C  C205  1  0.773500  0.627500  0.640100  1.0  -0.1339
  C  C206  1  0.826200  0.630200  0.680500  1.0  -0.029
  C  C207  1  0.838600  0.667900  0.746400  1.0  -0.0947
  C  C208  1  0.798600  0.704900  0.774500  1.0  -0.008
  C  C209  1  0.867400  0.592400  0.638600  1.0  0.8361
  C  C210  1  0.680300  0.659400  0.623400  1.0  0.0561
  C  C211  1  0.818100  0.743800  0.847400  1.0  0.1136
  C  C212  1  0.253700  0.296000  0.737000  1.0  0.095
  C  C213  1  0.265000  0.335100  0.669900  1.0  -0.0188
  C  C214  1  0.226500  0.372500  0.640100  1.0  -0.1338
  C  C215  1  0.173800  0.369800  0.680500  1.0  -0.0311
  C  C216  1  0.161400  0.332100  0.746400  1.0  -0.0959
  C  C217  1  0.201400  0.295100  0.774500  1.0  -0.0084
  C  C218  1  0.132600  0.407600  0.638600  1.0  0.8372
  C  C219  1  0.319700  0.340600  0.623400  1.0  0.0605
  C  C220  1  0.181900  0.256200  0.847400  1.0  0.1139
  O  O221  1  0.445800  0.146300  0.092300  1.0  -0.5006
  O  O222  1  0.397800  0.083100  0.169300  1.0  -0.5821
  O  O223  1  0.554200  0.853700  0.092300  1.0  -0.5
  O  O224  1  0.602200  0.916900  0.169300  1.0  -0.5793
  O  O225  1  0.853700  0.445800  0.592300  1.0  -0.4996
  O  O226  1  0.916900  0.397800  0.669300  1.0  -0.5769
  O  O227  1  0.146300  0.554200  0.592300  1.0  -0.5001
  O  O228  1  0.083100  0.602200  0.669300  1.0  -0.5808
  O  O229  1  0.554200  0.146300  0.907700  1.0  -0.5027
  O  O230  1  0.602200  0.083100  0.830700  1.0  -0.5789
  O  O231  1  0.445800  0.853700  0.907700  1.0  -0.5031
  O  O232  1  0.397800  0.916900  0.830700  1.0  -0.5816
  O  O233  1  0.146300  0.445800  0.407700  1.0  -0.5018
  O  O234  1  0.083100  0.397800  0.330700  1.0  -0.5795
  O  O235  1  0.853700  0.554200  0.407700  1.0  -0.5019
  O  O236  1  0.916900  0.602200  0.330700  1.0  -0.5767
  O  O237  1  0.554200  0.853700  0.907700  1.0  -0.5029
  O  O238  1  0.602200  0.916900  0.830700  1.0  -0.5795
  O  O239  1  0.445800  0.146300  0.907700  1.0  -0.5028
  O  O240  1  0.397800  0.083100  0.830700  1.0  -0.5806
  O  O241  1  0.146300  0.554200  0.407700  1.0  -0.5018
  O  O242  1  0.083100  0.602200  0.330700  1.0  -0.5798
  O  O243  1  0.853700  0.445800  0.407700  1.0  -0.5017
  O  O244  1  0.916900  0.397800  0.330700  1.0  -0.5762
  O  O245  1  0.445800  0.853700  0.092300  1.0  -0.5007
  O  O246  1  0.397800  0.916900  0.169300  1.0  -0.582
  O  O247  1  0.554200  0.146300  0.092300  1.0  -0.5001
  O  O248  1  0.602200  0.083100  0.169300  1.0  -0.5802
  O  O249  1  0.853700  0.554200  0.592300  1.0  -0.4998
  O  O250  1  0.916900  0.602200  0.669300  1.0  -0.5771
  O  O251  1  0.146300  0.445800  0.592300  1.0  -0.4999
  O  O252  1  0.083100  0.397800  0.669300  1.0  -0.5806
  O  O253  1  0.428600  0.049800  0.000000  1.0  -1.0266
  O  O254  1  0.571400  0.950200  0.000000  1.0  -1.0248
  O  O255  1  0.950200  0.428600  0.500000  1.0  -1.0254
  O  O256  1  0.049800  0.571400  0.500000  1.0  -1.0294
  O  O257  1  0.571400  0.049800  0.000000  1.0  -1.0245
  O  O258  1  0.428600  0.950200  0.000000  1.0  -1.0268
  O  O259  1  0.049800  0.428600  0.500000  1.0  -1.0254
  O  O260  1  0.950200  0.571400  0.500000  1.0  -1.0287
  O  O261  1  0.500000  0.047900  0.119600  1.0  -1.1024
  O  O262  1  0.500000  0.952100  0.119600  1.0  -1.1022
  O  O263  1  0.952100  0.500000  0.619600  1.0  -1.1027
  O  O264  1  0.047900  0.500000  0.619600  1.0  -1.1017
  O  O265  1  0.500000  0.047900  0.880400  1.0  -1.1079
  O  O266  1  0.500000  0.952100  0.880400  1.0  -1.1079
  O  O267  1  0.047900  0.500000  0.380400  1.0  -1.1073
  O  O268  1  0.952100  0.500000  0.380400  1.0  -1.1077
  F  F269  1  0.291300  0.338700  0.071500  1.0  -0.2366
  F  F270  1  0.349400  0.366900  0.184400  1.0  -0.2293
  F  F271  1  0.382000  0.327200  0.052900  1.0  -0.308
  F  F272  1  0.198500  0.176000  0.324000  1.0  -0.1864
  F  F273  1  0.253000  0.216900  0.431000  1.0  -0.2757
  F  F274  1  0.269000  0.128500  0.391000  1.0  -0.2367
  F  F275  1  0.708700  0.661300  0.071500  1.0  -0.2367
  F  F276  1  0.650600  0.633100  0.184400  1.0  -0.2288
  F  F277  1  0.618000  0.672800  0.052900  1.0  -0.3042
  F  F278  1  0.801500  0.824000  0.324000  1.0  -0.1854
  F  F279  1  0.747000  0.783100  0.431000  1.0  -0.2731
  F  F280  1  0.731000  0.871500  0.391000  1.0  -0.2321
  F  F281  1  0.661300  0.291300  0.571500  1.0  -0.243
  F  F282  1  0.633100  0.349400  0.684400  1.0  -0.2238
  F  F283  1  0.672800  0.382000  0.552900  1.0  -0.3057
  F  F284  1  0.824000  0.198500  0.824000  1.0  -0.1874
  F  F285  1  0.783100  0.253000  0.931000  1.0  -0.2743
  F  F286  1  0.871500  0.269000  0.891000  1.0  -0.2243
  F  F287  1  0.338700  0.708700  0.571500  1.0  -0.2399
  F  F288  1  0.366900  0.650600  0.684400  1.0  -0.2244
  F  F289  1  0.327200  0.618000  0.552900  1.0  -0.3066
  F  F290  1  0.176000  0.801500  0.824000  1.0  -0.1869
  F  F291  1  0.216900  0.747000  0.931000  1.0  -0.2739
  F  F292  1  0.128500  0.731000  0.891000  1.0  -0.2222
  F  F293  1  0.708700  0.338700  0.928500  1.0  -0.2352
  F  F294  1  0.650600  0.366900  0.815600  1.0  -0.2287
  F  F295  1  0.618000  0.327200  0.947100  1.0  -0.3026
  F  F296  1  0.801500  0.176000  0.676000  1.0  -0.1876
  F  F297  1  0.747000  0.216900  0.569000  1.0  -0.2753
  F  F298  1  0.731000  0.128500  0.609000  1.0  -0.2336
  F  F299  1  0.291300  0.661300  0.928500  1.0  -0.2424
  F  F300  1  0.349400  0.633100  0.815600  1.0  -0.2292
  F  F301  1  0.382000  0.672800  0.947100  1.0  -0.3086
  F  F302  1  0.198500  0.824000  0.676000  1.0  -0.1834
  F  F303  1  0.253000  0.783100  0.569000  1.0  -0.2745
  F  F304  1  0.269000  0.871500  0.609000  1.0  -0.2349
  F  F305  1  0.338700  0.291300  0.428500  1.0  -0.2433
  F  F306  1  0.366900  0.349400  0.315600  1.0  -0.2275
  F  F307  1  0.327200  0.382000  0.447100  1.0  -0.3096
  F  F308  1  0.176000  0.198500  0.176000  1.0  -0.186
  F  F309  1  0.216900  0.253000  0.069000  1.0  -0.275
  F  F310  1  0.128500  0.269000  0.109000  1.0  -0.2231
  F  F311  1  0.661300  0.708700  0.428500  1.0  -0.2413
  F  F312  1  0.633100  0.650600  0.315600  1.0  -0.2229
  F  F313  1  0.672800  0.618000  0.447100  1.0  -0.3038
  F  F314  1  0.824000  0.801500  0.176000  1.0  -0.1885
  F  F315  1  0.783100  0.747000  0.069000  1.0  -0.2721
  F  F316  1  0.871500  0.731000  0.109000  1.0  -0.2237
  F  F317  1  0.708700  0.661300  0.928500  1.0  -0.2383
  F  F318  1  0.650600  0.633100  0.815600  1.0  -0.2294
  F  F319  1  0.618000  0.672800  0.947100  1.0  -0.3051
  F  F320  1  0.801500  0.824000  0.676000  1.0  -0.1854
  F  F321  1  0.747000  0.783100  0.569000  1.0  -0.2757
  F  F322  1  0.731000  0.871500  0.609000  1.0  -0.2336
  F  F323  1  0.291300  0.338700  0.928500  1.0  -0.2376
  F  F324  1  0.349400  0.366900  0.815600  1.0  -0.2292
  F  F325  1  0.382000  0.327200  0.947100  1.0  -0.3082
  F  F326  1  0.198500  0.176000  0.676000  1.0  -0.1866
  F  F327  1  0.253000  0.216900  0.569000  1.0  -0.2739
  F  F328  1  0.269000  0.128500  0.609000  1.0  -0.234
  F  F329  1  0.338700  0.708700  0.428500  1.0  -0.2403
  F  F330  1  0.366900  0.650600  0.315600  1.0  -0.225
  F  F331  1  0.327200  0.618000  0.447100  1.0  -0.3073
  F  F332  1  0.176000  0.801500  0.176000  1.0  -0.1865
  F  F333  1  0.216900  0.747000  0.069000  1.0  -0.2746
  F  F334  1  0.128500  0.731000  0.109000  1.0  -0.2231
  F  F335  1  0.661300  0.291300  0.428500  1.0  -0.2425
  F  F336  1  0.633100  0.349400  0.315600  1.0  -0.2238
  F  F337  1  0.672800  0.382000  0.447100  1.0  -0.3057
  F  F338  1  0.824000  0.198500  0.176000  1.0  -0.1875
  F  F339  1  0.783100  0.253000  0.069000  1.0  -0.274
  F  F340  1  0.871500  0.269000  0.109000  1.0  -0.224
  F  F341  1  0.291300  0.661300  0.071500  1.0  -0.2419
  F  F342  1  0.349400  0.633100  0.184400  1.0  -0.229
  F  F343  1  0.382000  0.672800  0.052900  1.0  -0.3079
  F  F344  1  0.198500  0.824000  0.324000  1.0  -0.184
  F  F345  1  0.253000  0.783100  0.431000  1.0  -0.2741
  F  F346  1  0.269000  0.871500  0.391000  1.0  -0.2343
  F  F347  1  0.708700  0.338700  0.071500  1.0  -0.2331
  F  F348  1  0.650600  0.366900  0.184400  1.0  -0.2284
  F  F349  1  0.618000  0.327200  0.052900  1.0  -0.3025
  F  F350  1  0.801500  0.176000  0.324000  1.0  -0.1876
  F  F351  1  0.747000  0.216900  0.431000  1.0  -0.2754
  F  F352  1  0.731000  0.128500  0.391000  1.0  -0.2351
  F  F353  1  0.661300  0.708700  0.571500  1.0  -0.241
  F  F354  1  0.633100  0.650600  0.684400  1.0  -0.2226
  F  F355  1  0.672800  0.618000  0.552900  1.0  -0.3031
  F  F356  1  0.824000  0.801500  0.824000  1.0  -0.1883
  F  F357  1  0.783100  0.747000  0.931000  1.0  -0.2729
  F  F358  1  0.871500  0.731000  0.891000  1.0  -0.2241
  F  F359  1  0.338700  0.291300  0.571500  1.0  -0.2431
  F  F360  1  0.366900  0.349400  0.684400  1.0  -0.2268
  F  F361  1  0.327200  0.382000  0.552900  1.0  -0.309
  F  F362  1  0.176000  0.198500  0.824000  1.0  -0.1856
  F  F363  1  0.216900  0.253000  0.931000  1.0  -0.2737
  F  F364  1  0.128500  0.269000  0.891000  1.0  -0.2226
