# generated using pymatgen
data_Zr3H16C36(OF2)12
_symmetry_space_group_name_H-M   'P 1'
_cell_length_a   24.26030000
_cell_length_b   24.26030000
_cell_length_c   15.14650000
_cell_angle_alpha   90.00000000
_cell_angle_beta   90.00000000
_cell_angle_gamma   90.00000000
_symmetry_Int_Tables_number   1
_chemical_formula_structural   Zr3H16C36(OF2)12
_chemical_formula_sum   'Zr12 H64 C144 O48 F96'
_cell_volume   8914.65669722
_cell_formula_units_Z   4
loop_
 _symmetry_equiv_pos_site_id
 _symmetry_equiv_pos_as_xyz
  1  'x, y, z'
loop_
 _atom_site_type_symbol
 _atom_site_label
 _atom_site_symmetry_multiplicity
 _atom_site_fract_x
 _atom_site_fract_y
 _atom_site_fract_z
 _atom_site_occupancy
 _atom_site_charge
  Zr  Zr1  1  0.500000  0.100580  0.000000  1.0  2.2304
  Zr  Zr2  1  0.500000  0.899420  0.000000  1.0  2.2329
  Zr  Zr3  1  0.899420  0.500000  0.500000  1.0  2.2302
  Zr  Zr4  1  0.100580  0.500000  0.500000  1.0  2.2293
  Zr  Zr5  1  0.427190  0.000000  0.116080  1.0  2.2084
  Zr  Zr6  1  0.572810  0.000000  0.116080  1.0  2.2083
  Zr  Zr7  1  0.000000  0.427190  0.616080  1.0  2.2098
  Zr  Zr8  1  0.000000  0.572810  0.616080  1.0  2.211
  Zr  Zr9  1  0.572810  0.000000  0.883920  1.0  2.2064
  Zr  Zr10  1  0.427190  0.000000  0.883920  1.0  2.2059
  Zr  Zr11  1  0.000000  0.427190  0.383920  1.0  2.2076
  Zr  Zr12  1  0.000000  0.572810  0.383920  1.0  2.2078
  H  H13  1  0.333800  0.301900  0.142300  1.0  0.2897
  H  H14  1  0.401700  0.239500  0.101700  1.0  0.2137
  H  H15  1  0.333100  0.128600  0.261700  1.0  0.1939
  H  H16  1  0.270600  0.195000  0.316300  1.0  0.3061
  H  H17  1  0.666200  0.698100  0.142300  1.0  0.289
  H  H18  1  0.598300  0.760500  0.101700  1.0  0.2128
  H  H19  1  0.666900  0.871400  0.261700  1.0  0.1943
  H  H20  1  0.729400  0.805000  0.316300  1.0  0.3065
  H  H21  1  0.698100  0.333800  0.642300  1.0  0.2899
  H  H22  1  0.760500  0.401700  0.601700  1.0  0.2147
  H  H23  1  0.871400  0.333100  0.761700  1.0  0.196
  H  H24  1  0.805000  0.270600  0.816300  1.0  0.3079
  H  H25  1  0.301900  0.666200  0.642300  1.0  0.2885
  H  H26  1  0.239500  0.598300  0.601700  1.0  0.2141
  H  H27  1  0.128600  0.666900  0.761700  1.0  0.1966
  H  H28  1  0.195000  0.729400  0.816300  1.0  0.3043
  H  H29  1  0.666200  0.301900  0.857700  1.0  0.2907
  H  H30  1  0.598300  0.239500  0.898300  1.0  0.2129
  H  H31  1  0.666900  0.128600  0.738300  1.0  0.1947
  H  H32  1  0.729400  0.195000  0.683700  1.0  0.3034
  H  H33  1  0.333800  0.698100  0.857700  1.0  0.291
  H  H34  1  0.401700  0.760500  0.898300  1.0  0.2135
  H  H35  1  0.333100  0.871400  0.738300  1.0  0.1932
  H  H36  1  0.270600  0.805000  0.683700  1.0  0.3052
  H  H37  1  0.301900  0.333800  0.357700  1.0  0.291
  H  H38  1  0.239500  0.401700  0.398300  1.0  0.2145
  H  H39  1  0.128600  0.333100  0.238300  1.0  0.1959
  H  H40  1  0.195000  0.270600  0.183700  1.0  0.3041
  H  H41  1  0.698100  0.666200  0.357700  1.0  0.2904
  H  H42  1  0.760500  0.598300  0.398300  1.0  0.214
  H  H43  1  0.871400  0.666900  0.238300  1.0  0.1963
  H  H44  1  0.805000  0.729400  0.183700  1.0  0.3064
  H  H45  1  0.666200  0.698100  0.857700  1.0  0.2909
  H  H46  1  0.598300  0.760500  0.898300  1.0  0.2131
  H  H47  1  0.666900  0.871400  0.738300  1.0  0.1939
  H  H48  1  0.729400  0.805000  0.683700  1.0  0.3054
  H  H49  1  0.333800  0.301900  0.857700  1.0  0.291
  H  H50  1  0.401700  0.239500  0.898300  1.0  0.2133
  H  H51  1  0.333100  0.128600  0.738300  1.0  0.194
  H  H52  1  0.270600  0.195000  0.683700  1.0  0.304
  H  H53  1  0.301900  0.666200  0.357700  1.0  0.2906
  H  H54  1  0.239500  0.598300  0.398300  1.0  0.2143
  H  H55  1  0.128600  0.666900  0.238300  1.0  0.1962
  H  H56  1  0.195000  0.729400  0.183700  1.0  0.3035
  H  H57  1  0.698100  0.333800  0.357700  1.0  0.2909
  H  H58  1  0.760500  0.401700  0.398300  1.0  0.2143
  H  H59  1  0.871400  0.333100  0.238300  1.0  0.1962
  H  H60  1  0.805000  0.270600  0.183700  1.0  0.3066
  H  H61  1  0.333800  0.698100  0.142300  1.0  0.289
  H  H62  1  0.401700  0.760500  0.101700  1.0  0.2135
  H  H63  1  0.333100  0.871400  0.261700  1.0  0.1933
  H  H64  1  0.270600  0.805000  0.316300  1.0  0.3066
  H  H65  1  0.666200  0.301900  0.142300  1.0  0.2896
  H  H66  1  0.598300  0.239500  0.101700  1.0  0.213
  H  H67  1  0.666900  0.128600  0.261700  1.0  0.1948
  H  H68  1  0.729400  0.195000  0.316300  1.0  0.3053
  H  H69  1  0.698100  0.666200  0.642300  1.0  0.2886
  H  H70  1  0.760500  0.598300  0.601700  1.0  0.2139
  H  H71  1  0.871400  0.666900  0.761700  1.0  0.1964
  H  H72  1  0.805000  0.729400  0.816300  1.0  0.3077
  H  H73  1  0.301900  0.333800  0.642300  1.0  0.2897
  H  H74  1  0.239500  0.401700  0.601700  1.0  0.2148
  H  H75  1  0.128600  0.333100  0.761700  1.0  0.1961
  H  H76  1  0.195000  0.270600  0.816300  1.0  0.305
  C  C77  1  0.297200  0.255600  0.233700  1.0  0.1417
  C  C78  1  0.334400  0.266600  0.169300  1.0  -0.0085
  C  C79  1  0.373200  0.228800  0.141100  1.0  -0.0913
  C  C80  1  0.369900  0.175600  0.171100  1.0  -0.0215
  C  C81  1  0.333400  0.164600  0.236900  1.0  -0.0686
  C  C82  1  0.295800  0.203900  0.270400  1.0  0.0039
  C  C83  1  0.406800  0.133500  0.138900  1.0  0.8411
  C  C84  1  0.247400  0.176700  0.354500  1.0  0.0348
  C  C85  1  0.333000  0.331900  0.108800  1.0  0.0562
  C  C86  1  0.702800  0.744400  0.233700  1.0  0.1412
  C  C87  1  0.665600  0.733400  0.169300  1.0  -0.0107
  C  C88  1  0.626800  0.771200  0.141100  1.0  -0.093
  C  C89  1  0.630100  0.824400  0.171100  1.0  -0.0324
  C  C90  1  0.666667  0.835400  0.236900  1.0  -0.0399
  C  C91  1  0.704200  0.796100  0.270400  1.0  0.0023
  C  C92  1  0.593200  0.866500  0.138900  1.0  0.8427
  C  C93  1  0.752600  0.823300  0.354500  1.0  0.0353
  C  C94  1  0.667000  0.668100  0.108800  1.0  0.0563
  C  C95  1  0.744400  0.297200  0.733700  1.0  0.1422
  C  C96  1  0.733400  0.334400  0.669300  1.0  -0.0072
  C  C97  1  0.771200  0.373200  0.641100  1.0  -0.0936
  C  C98  1  0.824400  0.369900  0.671100  1.0  -0.0208
  C  C99  1  0.835400  0.333400  0.736900  1.0  -0.0638
  C  C100  1  0.796100  0.295800  0.770400  1.0  0.0017
  C  C101  1  0.866500  0.406800  0.638900  1.0  0.8414
  C  C102  1  0.823300  0.247400  0.854500  1.0  0.0354
  C  C103  1  0.668100  0.333000  0.608800  1.0  0.0539
  C  C104  1  0.255600  0.702800  0.733700  1.0  0.1414
  C  C105  1  0.266600  0.665600  0.669300  1.0  -0.0085
  C  C106  1  0.228800  0.626800  0.641100  1.0  -0.0945
  C  C107  1  0.175600  0.630100  0.671100  1.0  -0.0339
  C  C108  1  0.164600  0.666667  0.736900  1.0  -0.0384
  C  C109  1  0.203900  0.704200  0.770400  1.0  0.0014
  C  C110  1  0.133500  0.593200  0.638900  1.0  0.8412
  C  C111  1  0.176700  0.752600  0.854500  1.0  0.0356
  C  C112  1  0.331900  0.667000  0.608800  1.0  0.055
  C  C113  1  0.702800  0.255600  0.766300  1.0  0.1406
  C  C114  1  0.665600  0.266600  0.830700  1.0  -0.0088
  C  C115  1  0.626800  0.228800  0.858900  1.0  -0.0927
  C  C116  1  0.630100  0.175600  0.828900  1.0  -0.0329
  C  C117  1  0.666667  0.164600  0.763100  1.0  -0.0415
  C  C118  1  0.704200  0.203900  0.729600  1.0  0.0009
  C  C119  1  0.593200  0.133500  0.861100  1.0  0.8426
  C  C120  1  0.752600  0.176700  0.645500  1.0  0.0347
  C  C121  1  0.667000  0.331900  0.891200  1.0  0.0583
  C  C122  1  0.297200  0.744400  0.766300  1.0  0.1414
  C  C123  1  0.334400  0.733400  0.830700  1.0  -0.0091
  C  C124  1  0.373200  0.771200  0.858900  1.0  -0.0904
  C  C125  1  0.369900  0.824400  0.828900  1.0  -0.0212
  C  C126  1  0.333400  0.835400  0.763100  1.0  -0.0662
  C  C127  1  0.295800  0.796100  0.729600  1.0  0.003
  C  C128  1  0.406800  0.866500  0.861100  1.0  0.8419
  C  C129  1  0.247400  0.823300  0.645500  1.0  0.0364
  C  C130  1  0.333000  0.668100  0.891200  1.0  0.0556
  C  C131  1  0.255600  0.297200  0.266300  1.0  0.1409
  C  C132  1  0.266600  0.334400  0.330700  1.0  -0.0088
  C  C133  1  0.228800  0.373200  0.358900  1.0  -0.0936
  C  C134  1  0.175600  0.369900  0.328900  1.0  -0.0216
  C  C135  1  0.164600  0.333400  0.263100  1.0  -0.0635
  C  C136  1  0.203900  0.295800  0.229600  1.0  0.0009
  C  C137  1  0.133500  0.406800  0.361100  1.0  0.8423
  C  C138  1  0.176700  0.247400  0.145500  1.0  0.0333
  C  C139  1  0.331900  0.333000  0.391200  1.0  0.0542
  C  C140  1  0.744400  0.702800  0.266300  1.0  0.1418
  C  C141  1  0.733400  0.665600  0.330700  1.0  -0.0072
  C  C142  1  0.771200  0.626800  0.358900  1.0  -0.0952
  C  C143  1  0.824400  0.630100  0.328900  1.0  -0.0324
  C  C144  1  0.835400  0.666667  0.263100  1.0  -0.0378
  C  C145  1  0.796100  0.704200  0.229600  1.0  0.0012
  C  C146  1  0.866500  0.593200  0.361100  1.0  0.841
  C  C147  1  0.823300  0.752600  0.145500  1.0  0.0339
  C  C148  1  0.668100  0.667000  0.391200  1.0  0.0543
  C  C149  1  0.702800  0.744400  0.766300  1.0  0.1409
  C  C150  1  0.665600  0.733400  0.830700  1.0  -0.0101
  C  C151  1  0.626800  0.771200  0.858900  1.0  -0.093
  C  C152  1  0.630100  0.824400  0.828900  1.0  -0.0321
  C  C153  1  0.666667  0.835400  0.763100  1.0  -0.0391
  C  C154  1  0.704200  0.796100  0.729600  1.0  0.0008
  C  C155  1  0.593200  0.866500  0.861100  1.0  0.8427
  C  C156  1  0.752600  0.823300  0.645500  1.0  0.0349
  C  C157  1  0.667000  0.668100  0.891200  1.0  0.0572
  C  C158  1  0.297200  0.255600  0.766300  1.0  0.1416
  C  C159  1  0.334400  0.266600  0.830700  1.0  -0.0088
  C  C160  1  0.373200  0.228800  0.858900  1.0  -0.091
  C  C161  1  0.369900  0.175600  0.828900  1.0  -0.0208
  C  C162  1  0.333400  0.164600  0.763100  1.0  -0.0676
  C  C163  1  0.295800  0.203900  0.729600  1.0  0.0038
  C  C164  1  0.406800  0.133500  0.861100  1.0  0.8414
  C  C165  1  0.247400  0.176700  0.645500  1.0  0.0355
  C  C166  1  0.333000  0.331900  0.891200  1.0  0.0568
  C  C167  1  0.255600  0.702800  0.266300  1.0  0.1413
  C  C168  1  0.266600  0.665600  0.330700  1.0  -0.0091
  C  C169  1  0.228800  0.626800  0.358900  1.0  -0.0946
  C  C170  1  0.175600  0.630100  0.328900  1.0  -0.0332
  C  C171  1  0.164600  0.666667  0.263100  1.0  -0.038
  C  C172  1  0.203900  0.704200  0.229600  1.0  0.0003
  C  C173  1  0.133500  0.593200  0.361100  1.0  0.8418
  C  C174  1  0.176700  0.752600  0.145500  1.0  0.0355
  C  C175  1  0.331900  0.667000  0.391200  1.0  0.0551
  C  C176  1  0.744400  0.297200  0.266300  1.0  0.142
  C  C177  1  0.733400  0.334400  0.330700  1.0  -0.0076
  C  C178  1  0.771200  0.373200  0.358900  1.0  -0.0943
  C  C179  1  0.824400  0.369900  0.328900  1.0  -0.0206
  C  C180  1  0.835400  0.333400  0.263100  1.0  -0.064
  C  C181  1  0.796100  0.295800  0.229600  1.0  0.0015
  C  C182  1  0.866500  0.406800  0.361100  1.0  0.8413
  C  C183  1  0.823300  0.247400  0.145500  1.0  0.0333
  C  C184  1  0.668100  0.333000  0.391200  1.0  0.054
  C  C185  1  0.297200  0.744400  0.233700  1.0  0.1416
  C  C186  1  0.334400  0.733400  0.169300  1.0  -0.0092
  C  C187  1  0.373200  0.771200  0.141100  1.0  -0.0909
  C  C188  1  0.369900  0.824400  0.171100  1.0  -0.0215
  C  C189  1  0.333400  0.835400  0.236900  1.0  -0.0672
  C  C190  1  0.295800  0.796100  0.270400  1.0  0.0042
  C  C191  1  0.406800  0.866500  0.138900  1.0  0.8416
  C  C192  1  0.247400  0.823300  0.354500  1.0  0.0346
  C  C193  1  0.333000  0.668100  0.108800  1.0  0.0553
  C  C194  1  0.702800  0.255600  0.233700  1.0  0.1408
  C  C195  1  0.665600  0.266600  0.169300  1.0  -0.0095
  C  C196  1  0.626800  0.228800  0.141100  1.0  -0.0923
  C  C197  1  0.630100  0.175600  0.171100  1.0  -0.0334
  C  C198  1  0.666667  0.164600  0.236900  1.0  -0.042
  C  C199  1  0.704200  0.203900  0.270400  1.0  0.0012
  C  C200  1  0.593200  0.133500  0.138900  1.0  0.8425
  C  C201  1  0.752600  0.176700  0.354500  1.0  0.0364
  C  C202  1  0.667000  0.331900  0.108800  1.0  0.0576
  C  C203  1  0.744400  0.702800  0.733700  1.0  0.1418
  C  C204  1  0.733400  0.665600  0.669300  1.0  -0.0067
  C  C205  1  0.771200  0.626800  0.641100  1.0  -0.095
  C  C206  1  0.824400  0.630100  0.671100  1.0  -0.0325
  C  C207  1  0.835400  0.666667  0.736900  1.0  -0.0376
  C  C208  1  0.796100  0.704200  0.770400  1.0  0.002
  C  C209  1  0.866500  0.593200  0.638900  1.0  0.8409
  C  C210  1  0.823300  0.752600  0.854500  1.0  0.0357
  C  C211  1  0.668100  0.667000  0.608800  1.0  0.0538
  C  C212  1  0.255600  0.297200  0.733700  1.0  0.1412
  C  C213  1  0.266600  0.334400  0.669300  1.0  -0.0084
  C  C214  1  0.228800  0.373200  0.641100  1.0  -0.0933
  C  C215  1  0.175600  0.369900  0.671100  1.0  -0.0223
  C  C216  1  0.164600  0.333400  0.736900  1.0  -0.0645
  C  C217  1  0.203900  0.295800  0.770400  1.0  0.0016
  C  C218  1  0.133500  0.406800  0.638900  1.0  0.8422
  C  C219  1  0.176700  0.247400  0.854500  1.0  0.0331
  C  C220  1  0.331900  0.333000  0.608800  1.0  0.0544
  O  O221  1  0.444900  0.148810  0.085900  1.0  -0.5041
  O  O222  1  0.397000  0.083100  0.161500  1.0  -0.5932
  O  O223  1  0.555100  0.851190  0.085900  1.0  -0.5027
  O  O224  1  0.603000  0.916900  0.161500  1.0  -0.5909
  O  O225  1  0.851190  0.444900  0.585900  1.0  -0.5039
  O  O226  1  0.916900  0.397000  0.661500  1.0  -0.5899
  O  O227  1  0.148810  0.555100  0.585900  1.0  -0.5042
  O  O228  1  0.083100  0.603000  0.661500  1.0  -0.5916
  O  O229  1  0.555100  0.148810  0.914100  1.0  -0.503
  O  O230  1  0.603000  0.083100  0.838500  1.0  -0.5925
  O  O231  1  0.444900  0.851190  0.914100  1.0  -0.5045
  O  O232  1  0.397000  0.916900  0.838500  1.0  -0.5944
  O  O233  1  0.148810  0.444900  0.414100  1.0  -0.5042
  O  O234  1  0.083100  0.397000  0.338500  1.0  -0.5918
  O  O235  1  0.851190  0.555100  0.414100  1.0  -0.504
  O  O236  1  0.916900  0.603000  0.338500  1.0  -0.5909
  O  O237  1  0.555100  0.851190  0.914100  1.0  -0.5031
  O  O238  1  0.603000  0.916900  0.838500  1.0  -0.5925
  O  O239  1  0.444900  0.148810  0.914100  1.0  -0.5041
  O  O240  1  0.397000  0.083100  0.838500  1.0  -0.5935
  O  O241  1  0.148810  0.555100  0.414100  1.0  -0.5045
  O  O242  1  0.083100  0.603000  0.338500  1.0  -0.5912
  O  O243  1  0.851190  0.444900  0.414100  1.0  -0.5036
  O  O244  1  0.916900  0.397000  0.338500  1.0  -0.5908
  O  O245  1  0.444900  0.851190  0.085900  1.0  -0.5042
  O  O246  1  0.397000  0.916900  0.161500  1.0  -0.5941
  O  O247  1  0.555100  0.148810  0.085900  1.0  -0.503
  O  O248  1  0.603000  0.083100  0.161500  1.0  -0.5911
  O  O249  1  0.851190  0.555100  0.585900  1.0  -0.504
  O  O250  1  0.916900  0.603000  0.661500  1.0  -0.5904
  O  O251  1  0.148810  0.444900  0.585900  1.0  -0.5041
  O  O252  1  0.083100  0.397000  0.661500  1.0  -0.5915
  O  O253  1  0.426100  0.050100  0.000000  1.0  -1.0101
  O  O254  1  0.573900  0.949900  0.000000  1.0  -1.0086
  O  O255  1  0.949900  0.426100  0.500000  1.0  -1.0101
  O  O256  1  0.050100  0.573900  0.500000  1.0  -1.0097
  O  O257  1  0.573900  0.050100  0.000000  1.0  -1.0081
  O  O258  1  0.426100  0.949900  0.000000  1.0  -1.0104
  O  O259  1  0.050100  0.426100  0.500000  1.0  -1.0086
  O  O260  1  0.949900  0.573900  0.500000  1.0  -1.0104
  O  O261  1  0.500000  0.048500  0.114400  1.0  -1.0707
  O  O262  1  0.500000  0.951500  0.114400  1.0  -1.0704
  O  O263  1  0.951500  0.500000  0.614400  1.0  -1.0709
  O  O264  1  0.048500  0.500000  0.614400  1.0  -1.07
  O  O265  1  0.500000  0.048500  0.885600  1.0  -1.0751
  O  O266  1  0.500000  0.951500  0.885600  1.0  -1.075
  O  O267  1  0.048500  0.500000  0.385600  1.0  -1.0748
  O  O268  1  0.951500  0.500000  0.385600  1.0  -1.0751
  F  F269  1  0.267700  0.126700  0.370000  1.0  -0.1866
  F  F270  1  0.254100  0.213300  0.419100  1.0  -0.2706
  F  F271  1  0.199900  0.177800  0.311000  1.0  -0.1916
  F  F272  1  0.373900  0.325400  0.049900  1.0  -0.2982
  F  F273  1  0.283000  0.332100  0.073300  1.0  -0.237
  F  F274  1  0.342500  0.367600  0.173500  1.0  -0.251
  F  F275  1  0.732300  0.873300  0.370000  1.0  -0.1841
  F  F276  1  0.745900  0.786700  0.419100  1.0  -0.2703
  F  F277  1  0.800100  0.822200  0.311000  1.0  -0.195
  F  F278  1  0.626100  0.674600  0.049900  1.0  -0.2909
  F  F279  1  0.717000  0.667900  0.073300  1.0  -0.2356
  F  F280  1  0.657500  0.632400  0.173500  1.0  -0.2531
  F  F281  1  0.873300  0.267700  0.870000  1.0  -0.1796
  F  F282  1  0.786700  0.254100  0.919100  1.0  -0.2708
  F  F283  1  0.822200  0.199900  0.811000  1.0  -0.1946
  F  F284  1  0.674600  0.373900  0.549900  1.0  -0.2905
  F  F285  1  0.667900  0.283000  0.573300  1.0  -0.2355
  F  F286  1  0.632400  0.342500  0.673500  1.0  -0.2389
  F  F287  1  0.126700  0.732300  0.870000  1.0  -0.181
  F  F288  1  0.213300  0.745900  0.919100  1.0  -0.27
  F  F289  1  0.177800  0.800100  0.811000  1.0  -0.1922
  F  F290  1  0.325400  0.626100  0.549900  1.0  -0.297
  F  F291  1  0.332100  0.717000  0.573300  1.0  -0.2384
  F  F292  1  0.367600  0.657500  0.673500  1.0  -0.2463
  F  F293  1  0.732300  0.126700  0.630000  1.0  -0.1853
  F  F294  1  0.745900  0.213300  0.580900  1.0  -0.2687
  F  F295  1  0.800100  0.177800  0.689000  1.0  -0.1937
  F  F296  1  0.626100  0.325400  0.950100  1.0  -0.2885
  F  F297  1  0.717000  0.332100  0.926700  1.0  -0.2343
  F  F298  1  0.657500  0.367600  0.826500  1.0  -0.2518
  F  F299  1  0.267700  0.873300  0.630000  1.0  -0.1862
  F  F300  1  0.254100  0.786700  0.580900  1.0  -0.2694
  F  F301  1  0.199900  0.822200  0.689000  1.0  -0.1914
  F  F302  1  0.373900  0.674600  0.950100  1.0  -0.297
  F  F303  1  0.283000  0.667900  0.926700  1.0  -0.2372
  F  F304  1  0.342500  0.632400  0.826500  1.0  -0.2535
  F  F305  1  0.126700  0.267700  0.130000  1.0  -0.1805
  F  F306  1  0.213300  0.254100  0.080900  1.0  -0.2685
  F  F307  1  0.177800  0.199900  0.189000  1.0  -0.1932
  F  F308  1  0.325400  0.373900  0.450100  1.0  -0.296
  F  F309  1  0.332100  0.283000  0.426700  1.0  -0.2399
  F  F310  1  0.367600  0.342500  0.326500  1.0  -0.2462
  F  F311  1  0.873300  0.732300  0.130000  1.0  -0.18
  F  F312  1  0.786700  0.745900  0.080900  1.0  -0.2687
  F  F313  1  0.822200  0.800100  0.189000  1.0  -0.1941
  F  F314  1  0.674600  0.626100  0.450100  1.0  -0.2903
  F  F315  1  0.667900  0.717000  0.426700  1.0  -0.2363
  F  F316  1  0.632400  0.657500  0.326500  1.0  -0.2397
  F  F317  1  0.732300  0.873300  0.630000  1.0  -0.1845
  F  F318  1  0.745900  0.786700  0.580900  1.0  -0.2691
  F  F319  1  0.800100  0.822200  0.689000  1.0  -0.1951
  F  F320  1  0.626100  0.674600  0.950100  1.0  -0.2906
  F  F321  1  0.717000  0.667900  0.926700  1.0  -0.2347
  F  F322  1  0.657500  0.632400  0.826500  1.0  -0.2526
  F  F323  1  0.267700  0.126700  0.630000  1.0  -0.1864
  F  F324  1  0.254100  0.213300  0.580900  1.0  -0.2688
  F  F325  1  0.199900  0.177800  0.689000  1.0  -0.1921
  F  F326  1  0.373900  0.325400  0.950100  1.0  -0.2967
  F  F327  1  0.283000  0.332100  0.926700  1.0  -0.2369
  F  F328  1  0.342500  0.367600  0.826500  1.0  -0.2508
  F  F329  1  0.126700  0.732300  0.130000  1.0  -0.1813
  F  F330  1  0.213300  0.745900  0.080900  1.0  -0.2688
  F  F331  1  0.177800  0.800100  0.189000  1.0  -0.1917
  F  F332  1  0.325400  0.626100  0.450100  1.0  -0.2967
  F  F333  1  0.332100  0.717000  0.426700  1.0  -0.2383
  F  F334  1  0.367600  0.657500  0.326500  1.0  -0.2456
  F  F335  1  0.873300  0.267700  0.130000  1.0  -0.1793
  F  F336  1  0.786700  0.254100  0.080900  1.0  -0.2689
  F  F337  1  0.822200  0.199900  0.189000  1.0  -0.1957
  F  F338  1  0.674600  0.373900  0.450100  1.0  -0.2894
  F  F339  1  0.667900  0.283000  0.426700  1.0  -0.2338
  F  F340  1  0.632400  0.342500  0.326500  1.0  -0.2395
  F  F341  1  0.267700  0.873300  0.370000  1.0  -0.1865
  F  F342  1  0.254100  0.786700  0.419100  1.0  -0.2704
  F  F343  1  0.199900  0.822200  0.311000  1.0  -0.1919
  F  F344  1  0.373900  0.674600  0.049900  1.0  -0.2976
  F  F345  1  0.283000  0.667900  0.073300  1.0  -0.2377
  F  F346  1  0.342500  0.632400  0.173500  1.0  -0.2544
  F  F347  1  0.732300  0.126700  0.370000  1.0  -0.1852
  F  F348  1  0.745900  0.213300  0.419100  1.0  -0.2705
  F  F349  1  0.800100  0.177800  0.311000  1.0  -0.193
  F  F350  1  0.626100  0.325400  0.049900  1.0  -0.2898
  F  F351  1  0.717000  0.332100  0.073300  1.0  -0.2354
  F  F352  1  0.657500  0.367600  0.173500  1.0  -0.2516
  F  F353  1  0.873300  0.732300  0.870000  1.0  -0.1799
  F  F354  1  0.786700  0.745900  0.919100  1.0  -0.2714
  F  F355  1  0.822200  0.800100  0.811000  1.0  -0.1937
  F  F356  1  0.674600  0.626100  0.549900  1.0  -0.291
  F  F357  1  0.667900  0.717000  0.573300  1.0  -0.2366
  F  F358  1  0.632400  0.657500  0.673500  1.0  -0.2401
  F  F359  1  0.126700  0.267700  0.870000  1.0  -0.1803
  F  F360  1  0.213300  0.254100  0.919100  1.0  -0.2687
  F  F361  1  0.177800  0.199900  0.811000  1.0  -0.1921
  F  F362  1  0.325400  0.373900  0.549900  1.0  -0.2967
  F  F363  1  0.332100  0.283000  0.573300  1.0  -0.2412
  F  F364  1  0.367600  0.342500  0.673500  1.0  -0.2457
