# generated using pymatgen
data_Zr3H22C43(O2F3)8
_symmetry_space_group_name_H-M   'P 1'
_cell_length_a   22.89950000
_cell_length_b   22.89950000
_cell_length_c   19.02010000
_cell_angle_alpha   90.00000000
_cell_angle_beta   90.00000000
_cell_angle_gamma   90.00000000
_symmetry_Int_Tables_number   1
_chemical_formula_structural   Zr3H22C43(O2F3)8
_chemical_formula_sum   'Zr12 H88 C172 O64 F96'
_cell_volume   9973.89508547
_cell_formula_units_Z   4
loop_
 _symmetry_equiv_pos_site_id
 _symmetry_equiv_pos_as_xyz
  1  'x, y, z'
loop_
 _atom_site_type_symbol
 _atom_site_label
 _atom_site_symmetry_multiplicity
 _atom_site_fract_x
 _atom_site_fract_y
 _atom_site_fract_z
 _atom_site_occupancy
 _atom_site_charge
  Zr  Zr1  1  0.000000  0.423940  0.092830  1.0  2.1727
  Zr  Zr2  1  0.000000  0.576060  0.092830  1.0  2.1712
  Zr  Zr3  1  0.576060  0.000000  0.592830  1.0  2.1567
  Zr  Zr4  1  0.423940  0.000000  0.592830  1.0  2.1708
  Zr  Zr5  1  0.000000  0.423940  0.907170  1.0  2.1732
  Zr  Zr6  1  0.000000  0.576060  0.907170  1.0  2.1719
  Zr  Zr7  1  0.423940  0.000000  0.407170  1.0  2.1716
  Zr  Zr8  1  0.576060  0.000000  0.407170  1.0  2.1571
  Zr  Zr9  1  0.107880  0.500000  0.000000  1.0  2.1947
  Zr  Zr10  1  0.892120  0.500000  0.000000  1.0  2.1947
  Zr  Zr11  1  0.500000  0.107880  0.500000  1.0  2.1933
  Zr  Zr12  1  0.500000  0.892120  0.500000  1.0  2.1984
  H  H13  1  0.255400  0.402300  0.106700  1.0  0.2035
  H  H14  1  0.191300  0.287800  0.291300  1.0  0.3129
  H  H15  1  0.124500  0.337600  0.220800  1.0  0.203
  H  H16  1  0.322200  0.346500  0.173100  1.0  0.2938
  H  H17  1  0.744600  0.597700  0.106700  1.0  0.203
  H  H18  1  0.808700  0.712200  0.291300  1.0  0.3133
  H  H19  1  0.875500  0.662400  0.220800  1.0  0.2032
  H  H20  1  0.677800  0.653500  0.173100  1.0  0.2924
  H  H21  1  0.597700  0.255400  0.606700  1.0  0.204
  H  H22  1  0.712200  0.191300  0.791300  1.0  0.3084
  H  H23  1  0.662400  0.124500  0.720800  1.0  0.205
  H  H24  1  0.653500  0.322200  0.673100  1.0  0.2947
  H  H25  1  0.402300  0.744600  0.606700  1.0  0.2037
  H  H26  1  0.287800  0.808700  0.791300  1.0  0.3121
  H  H27  1  0.337600  0.875500  0.720800  1.0  0.2052
  H  H28  1  0.346500  0.677800  0.673100  1.0  0.2937
  H  H29  1  0.744600  0.402300  0.893300  1.0  0.2039
  H  H30  1  0.808700  0.287800  0.708700  1.0  0.3142
  H  H31  1  0.875500  0.337600  0.779200  1.0  0.2036
  H  H32  1  0.677800  0.346500  0.826900  1.0  0.2933
  H  H33  1  0.255400  0.597700  0.893300  1.0  0.2034
  H  H34  1  0.191300  0.712200  0.708700  1.0  0.3127
  H  H35  1  0.124500  0.662400  0.779200  1.0  0.2037
  H  H36  1  0.322200  0.653500  0.826900  1.0  0.2916
  H  H37  1  0.402300  0.255400  0.393300  1.0  0.2038
  H  H38  1  0.287800  0.191300  0.208700  1.0  0.3104
  H  H39  1  0.337600  0.124500  0.279200  1.0  0.2055
  H  H40  1  0.346500  0.322200  0.326900  1.0  0.2938
  H  H41  1  0.597700  0.744600  0.393300  1.0  0.2036
  H  H42  1  0.712200  0.808700  0.208700  1.0  0.3114
  H  H43  1  0.662400  0.875500  0.279200  1.0  0.205
  H  H44  1  0.653500  0.677800  0.326900  1.0  0.2936
  H  H45  1  0.744600  0.597700  0.893300  1.0  0.2034
  H  H46  1  0.808700  0.712200  0.708700  1.0  0.3124
  H  H47  1  0.875500  0.662400  0.779200  1.0  0.2037
  H  H48  1  0.677800  0.653500  0.826900  1.0  0.2942
  H  H49  1  0.255400  0.402300  0.893300  1.0  0.2037
  H  H50  1  0.191300  0.287800  0.708700  1.0  0.314
  H  H51  1  0.124500  0.337600  0.779200  1.0  0.2033
  H  H52  1  0.322200  0.346500  0.826900  1.0  0.2922
  H  H53  1  0.402300  0.744600  0.393300  1.0  0.2037
  H  H54  1  0.287800  0.808700  0.208700  1.0  0.3123
  H  H55  1  0.337600  0.875500  0.279200  1.0  0.2053
  H  H56  1  0.346500  0.677800  0.326900  1.0  0.2933
  H  H57  1  0.597700  0.255400  0.393300  1.0  0.2037
  H  H58  1  0.712200  0.191300  0.208700  1.0  0.3089
  H  H59  1  0.662400  0.124500  0.279200  1.0  0.2051
  H  H60  1  0.653500  0.322200  0.326900  1.0  0.2937
  H  H61  1  0.255400  0.597700  0.106700  1.0  0.2031
  H  H62  1  0.191300  0.712200  0.291300  1.0  0.312
  H  H63  1  0.124500  0.662400  0.220800  1.0  0.2034
  H  H64  1  0.322200  0.653500  0.173100  1.0  0.2905
  H  H65  1  0.744600  0.402300  0.106700  1.0  0.2038
  H  H66  1  0.808700  0.287800  0.291300  1.0  0.315
  H  H67  1  0.875500  0.337600  0.220800  1.0  0.2031
  H  H68  1  0.677800  0.346500  0.173100  1.0  0.2946
  H  H69  1  0.597700  0.744600  0.606700  1.0  0.2035
  H  H70  1  0.712200  0.808700  0.791300  1.0  0.3111
  H  H71  1  0.662400  0.875500  0.720800  1.0  0.2049
  H  H72  1  0.653500  0.677800  0.673100  1.0  0.2929
  H  H73  1  0.402300  0.255400  0.606700  1.0  0.2039
  H  H74  1  0.287800  0.191300  0.791300  1.0  0.3095
  H  H75  1  0.337600  0.124500  0.720800  1.0  0.2053
  H  H76  1  0.346500  0.322200  0.673100  1.0  0.2962
  H  H77  1  0.000000  0.411500  0.324200  1.0  0.2022
  H  H78  1  0.000000  0.362500  0.443500  1.0  0.3156
  H  H79  1  0.000000  0.411400  0.447000  1.0  0.3299
  H  H80  1  0.000000  0.588500  0.324200  1.0  0.2019
  H  H81  1  0.000000  0.637500  0.443500  1.0  0.3255
  H  H82  1  0.000000  0.588600  0.447000  1.0  0.3277
  H  H83  1  0.588500  0.000000  0.824200  1.0  0.2005
  H  H84  1  0.637500  0.000000  0.943500  1.0  0.3265
  H  H85  1  0.588600  0.000000  0.947000  1.0  0.3288
  H  H86  1  0.411500  0.000000  0.824200  1.0  0.2004
  H  H87  1  0.362500  0.000000  0.943500  1.0  0.3231
  H  H88  1  0.411400  0.000000  0.947000  1.0  0.329
  H  H89  1  0.000000  0.411500  0.675800  1.0  0.2019
  H  H90  1  0.000000  0.362500  0.556500  1.0  0.3136
  H  H91  1  0.000000  0.411400  0.553000  1.0  0.3302
  H  H92  1  0.000000  0.588500  0.675800  1.0  0.2016
  H  H93  1  0.000000  0.637500  0.556500  1.0  0.3227
  H  H94  1  0.000000  0.588600  0.553000  1.0  0.3286
  H  H95  1  0.411500  0.000000  0.175800  1.0  0.1999
  H  H96  1  0.362500  0.000000  0.056500  1.0  0.3204
  H  H97  1  0.411400  0.000000  0.053000  1.0  0.3306
  H  H98  1  0.588500  0.000000  0.175800  1.0  0.2
  H  H99  1  0.637500  0.000000  0.056500  1.0  0.3237
  H  H100  1  0.588600  0.000000  0.053000  1.0  0.3286
  C  C101  1  0.140000  0.404800  0.115200  1.0  0.8268
  C  C102  1  0.184900  0.371900  0.156500  1.0  -0.0135
  C  C103  1  0.241900  0.376600  0.142400  1.0  -0.0734
  C  C104  1  0.281600  0.342500  0.181700  1.0  0.0132
  C  C105  1  0.263000  0.303500  0.232100  1.0  0.1392
  C  C106  1  0.204600  0.307400  0.250300  1.0  -0.0105
  C  C107  1  0.165000  0.339000  0.210400  1.0  -0.0879
  C  C108  1  0.342200  0.341000  0.156200  1.0  0.0648
  C  C109  1  0.179400  0.270700  0.306400  1.0  0.0778
  C  C110  1  0.860000  0.595200  0.115200  1.0  0.8274
  C  C111  1  0.815100  0.628100  0.156500  1.0  -0.0147
  C  C112  1  0.758100  0.623400  0.142400  1.0  -0.0769
  C  C113  1  0.718400  0.657500  0.181700  1.0  0.015
  C  C114  1  0.737000  0.696500  0.232100  1.0  0.1391
  C  C115  1  0.795400  0.692600  0.250300  1.0  -0.011
  C  C116  1  0.835000  0.661000  0.210400  1.0  -0.0807
  C  C117  1  0.657800  0.659000  0.156200  1.0  0.0633
  C  C118  1  0.820600  0.729300  0.306400  1.0  0.0754
  C  C119  1  0.595200  0.140000  0.615200  1.0  0.8259
  C  C120  1  0.628100  0.184900  0.656500  1.0  -0.014
  C  C121  1  0.623400  0.241900  0.642400  1.0  -0.0756
  C  C122  1  0.657500  0.281600  0.681700  1.0  0.0121
  C  C123  1  0.696500  0.263000  0.732100  1.0  0.1379
  C  C124  1  0.692600  0.204600  0.750300  1.0  -0.0103
  C  C125  1  0.661000  0.165000  0.710400  1.0  -0.0883
  C  C126  1  0.659000  0.342200  0.656200  1.0  0.0647
  C  C127  1  0.729300  0.179400  0.806400  1.0  0.0799
  C  C128  1  0.404800  0.860000  0.615200  1.0  0.8254
  C  C129  1  0.371900  0.815100  0.656500  1.0  -0.015
  C  C130  1  0.376600  0.758100  0.642400  1.0  -0.0723
  C  C131  1  0.342500  0.718400  0.681700  1.0  0.0089
  C  C132  1  0.303500  0.737000  0.732100  1.0  0.1386
  C  C133  1  0.307400  0.795400  0.750300  1.0  -0.0119
  C  C134  1  0.339000  0.835000  0.710400  1.0  -0.0844
  C  C135  1  0.341000  0.657800  0.656200  1.0  0.0702
  C  C136  1  0.270700  0.820600  0.806400  1.0  0.0769
  C  C137  1  0.860000  0.404800  0.884800  1.0  0.8283
  C  C138  1  0.815100  0.371900  0.843500  1.0  -0.015
  C  C139  1  0.758100  0.376600  0.857600  1.0  -0.0753
  C  C140  1  0.718400  0.342500  0.818300  1.0  0.0145
  C  C141  1  0.737000  0.303500  0.767900  1.0  0.1392
  C  C142  1  0.795400  0.307400  0.749700  1.0  -0.013
  C  C143  1  0.835000  0.339000  0.789600  1.0  -0.0815
  C  C144  1  0.657800  0.341000  0.843800  1.0  0.0595
  C  C145  1  0.820600  0.270700  0.693600  1.0  0.0824
  C  C146  1  0.140000  0.595200  0.884800  1.0  0.8275
  C  C147  1  0.184900  0.628100  0.843500  1.0  -0.0133
  C  C148  1  0.241900  0.623400  0.857600  1.0  -0.0758
  C  C149  1  0.281600  0.657500  0.818300  1.0  0.0133
  C  C150  1  0.263000  0.696500  0.767900  1.0  0.1387
  C  C151  1  0.204600  0.692600  0.749700  1.0  -0.0151
  C  C152  1  0.165000  0.661000  0.789600  1.0  -0.0858
  C  C153  1  0.342200  0.659000  0.843800  1.0  0.0629
  C  C154  1  0.179400  0.729300  0.693600  1.0  0.0781
  C  C155  1  0.404800  0.140000  0.384800  1.0  0.826
  C  C156  1  0.371900  0.184900  0.343500  1.0  -0.0134
  C  C157  1  0.376600  0.241900  0.357600  1.0  -0.0722
  C  C158  1  0.342500  0.281600  0.318300  1.0  0.0132
  C  C159  1  0.303500  0.263000  0.267900  1.0  0.1384
  C  C160  1  0.307400  0.204600  0.249700  1.0  -0.013
  C  C161  1  0.339000  0.165000  0.289600  1.0  -0.0869
  C  C162  1  0.341000  0.342200  0.343800  1.0  0.0613
  C  C163  1  0.270700  0.179400  0.193600  1.0  0.0837
  C  C164  1  0.595200  0.860000  0.384800  1.0  0.8272
  C  C165  1  0.628100  0.815100  0.343500  1.0  -0.0137
  C  C166  1  0.623400  0.758100  0.357600  1.0  -0.0768
  C  C167  1  0.657500  0.718400  0.318300  1.0  0.0093
  C  C168  1  0.696500  0.737000  0.267900  1.0  0.138
  C  C169  1  0.692600  0.795400  0.249700  1.0  -0.0168
  C  C170  1  0.661000  0.835000  0.289600  1.0  -0.0846
  C  C171  1  0.659000  0.657800  0.343800  1.0  0.0649
  C  C172  1  0.729300  0.820600  0.193600  1.0  0.0792
  C  C173  1  0.860000  0.595200  0.884800  1.0  0.8281
  C  C174  1  0.815100  0.628100  0.843500  1.0  -0.014
  C  C175  1  0.758100  0.623400  0.857600  1.0  -0.0773
  C  C176  1  0.718400  0.657500  0.818300  1.0  0.0169
  C  C177  1  0.737000  0.696500  0.767900  1.0  0.1391
  C  C178  1  0.795400  0.692600  0.749700  1.0  -0.0131
  C  C179  1  0.835000  0.661000  0.789600  1.0  -0.0808
  C  C180  1  0.657800  0.659000  0.843800  1.0  0.06
  C  C181  1  0.820600  0.729300  0.693600  1.0  0.0798
  C  C182  1  0.140000  0.404800  0.884800  1.0  0.8277
  C  C183  1  0.184900  0.371900  0.843500  1.0  -0.0136
  C  C184  1  0.241900  0.376600  0.857600  1.0  -0.0734
  C  C185  1  0.281600  0.342500  0.818300  1.0  0.0123
  C  C186  1  0.263000  0.303500  0.767900  1.0  0.1391
  C  C187  1  0.204600  0.307400  0.749700  1.0  -0.014
  C  C188  1  0.165000  0.339000  0.789600  1.0  -0.0872
  C  C189  1  0.342200  0.341000  0.843800  1.0  0.0622
  C  C190  1  0.179400  0.270700  0.693600  1.0  0.0812
  C  C191  1  0.404800  0.860000  0.384800  1.0  0.8263
  C  C192  1  0.371900  0.815100  0.343500  1.0  -0.015
  C  C193  1  0.376600  0.758100  0.357600  1.0  -0.0722
  C  C194  1  0.342500  0.718400  0.318300  1.0  0.0102
  C  C195  1  0.303500  0.737000  0.267900  1.0  0.1385
  C  C196  1  0.307400  0.795400  0.249700  1.0  -0.0148
  C  C197  1  0.339000  0.835000  0.289600  1.0  -0.0839
  C  C198  1  0.341000  0.657800  0.343800  1.0  0.0644
  C  C199  1  0.270700  0.820600  0.193600  1.0  0.0793
  C  C200  1  0.595200  0.140000  0.384800  1.0  0.8268
  C  C201  1  0.628100  0.184900  0.343500  1.0  -0.0128
  C  C202  1  0.623400  0.241900  0.357600  1.0  -0.0764
  C  C203  1  0.657500  0.281600  0.318300  1.0  0.0129
  C  C204  1  0.696500  0.263000  0.267900  1.0  0.1377
  C  C205  1  0.692600  0.204600  0.249700  1.0  -0.014
  C  C206  1  0.661000  0.165000  0.289600  1.0  -0.0873
  C  C207  1  0.659000  0.342200  0.343800  1.0  0.0613
  C  C208  1  0.729300  0.179400  0.193600  1.0  0.0844
  C  C209  1  0.140000  0.595200  0.115200  1.0  0.8268
  C  C210  1  0.184900  0.628100  0.156500  1.0  -0.0146
  C  C211  1  0.241900  0.623400  0.142400  1.0  -0.0761
  C  C212  1  0.281600  0.657500  0.181700  1.0  0.0116
  C  C213  1  0.263000  0.696500  0.232100  1.0  0.1387
  C  C214  1  0.204600  0.692600  0.250300  1.0  -0.0116
  C  C215  1  0.165000  0.661000  0.210400  1.0  -0.0867
  C  C216  1  0.342200  0.659000  0.156200  1.0  0.0657
  C  C217  1  0.179400  0.729300  0.306400  1.0  0.0752
  C  C218  1  0.860000  0.404800  0.115200  1.0  0.8275
  C  C219  1  0.815100  0.371900  0.156500  1.0  -0.0147
  C  C220  1  0.758100  0.376600  0.142400  1.0  -0.0749
  C  C221  1  0.718400  0.342500  0.181700  1.0  0.0143
  C  C222  1  0.737000  0.303500  0.232100  1.0  0.1393
  C  C223  1  0.795400  0.307400  0.250300  1.0  -0.0109
  C  C224  1  0.835000  0.339000  0.210400  1.0  -0.0815
  C  C225  1  0.657800  0.341000  0.156200  1.0  0.0629
  C  C226  1  0.820600  0.270700  0.306400  1.0  0.0784
  C  C227  1  0.595200  0.860000  0.615200  1.0  0.8263
  C  C228  1  0.628100  0.815100  0.656500  1.0  -0.0133
  C  C229  1  0.623400  0.758100  0.642400  1.0  -0.0757
  C  C230  1  0.657500  0.718400  0.681700  1.0  0.0087
  C  C231  1  0.696500  0.737000  0.732100  1.0  0.1382
  C  C232  1  0.692600  0.795400  0.750300  1.0  -0.0132
  C  C233  1  0.661000  0.835000  0.710400  1.0  -0.0854
  C  C234  1  0.659000  0.657800  0.656200  1.0  0.0699
  C  C235  1  0.729300  0.820600  0.806400  1.0  0.0743
  C  C236  1  0.404800  0.140000  0.615200  1.0  0.825
  C  C237  1  0.371900  0.184900  0.656500  1.0  -0.0148
  C  C238  1  0.376600  0.241900  0.642400  1.0  -0.0728
  C  C239  1  0.342500  0.281600  0.681700  1.0  0.012
  C  C240  1  0.303500  0.263000  0.732100  1.0  0.1384
  C  C241  1  0.307400  0.204600  0.750300  1.0  -0.0097
  C  C242  1  0.339000  0.165000  0.710400  1.0  -0.0874
  C  C243  1  0.341000  0.342200  0.656200  1.0  0.0646
  C  C244  1  0.270700  0.179400  0.806400  1.0  0.08
  C  C245  1  0.000000  0.447390  0.349200  1.0  -0.1273
  C  C246  1  0.000000  0.447440  0.422300  1.0  0.0078
  C  C247  1  0.000000  0.552610  0.349200  1.0  -0.1286
  C  C248  1  0.000000  0.552560  0.422300  1.0  0.0065
  C  C249  1  0.552610  0.000000  0.849200  1.0  -0.1314
  C  C250  1  0.552560  0.000000  0.922300  1.0  0.0073
  C  C251  1  0.447390  0.000000  0.849200  1.0  -0.1345
  C  C252  1  0.447440  0.000000  0.922300  1.0  0.0097
  C  C253  1  0.000000  0.447390  0.650800  1.0  -0.1264
  C  C254  1  0.000000  0.447440  0.577700  1.0  0.0087
  C  C255  1  0.000000  0.552610  0.650800  1.0  -0.1282
  C  C256  1  0.000000  0.552560  0.577700  1.0  0.0079
  C  C257  1  0.447390  0.000000  0.150800  1.0  -0.132
  C  C258  1  0.447440  0.000000  0.077700  1.0  0.0115
  C  C259  1  0.552610  0.000000  0.150800  1.0  -0.1313
  C  C260  1  0.552560  0.000000  0.077700  1.0  0.009
  C  C261  1  0.000000  0.500000  0.233000  1.0  0.5426
  C  C262  1  0.000000  0.500000  0.312600  1.0  -0.0262
  C  C263  1  0.000000  0.500000  0.459900  1.0  0.0174
  C  C264  1  0.500000  0.000000  0.733000  1.0  0.5426
  C  C265  1  0.500000  0.000000  0.812600  1.0  -0.0262
  C  C266  1  0.500000  0.000000  0.959900  1.0  0.0174
  C  C267  1  0.000000  0.500000  0.767000  1.0  0.5432
  C  C268  1  0.000000  0.500000  0.687400  1.0  -0.0271
  C  C269  1  0.000000  0.500000  0.540100  1.0  0.0164
  C  C270  1  0.500000  0.000000  0.267000  1.0  0.5432
  C  C271  1  0.500000  0.000000  0.187400  1.0  -0.0271
  C  C272  1  0.500000  0.000000  0.040100  1.0  0.0164
  O  O273  1  0.158100  0.441600  0.070000  1.0  -0.5143
  O  O274  1  0.086900  0.394400  0.130400  1.0  -0.5357
  O  O275  1  0.841900  0.558400  0.070000  1.0  -0.514
  O  O276  1  0.913100  0.605600  0.130400  1.0  -0.5349
  O  O277  1  0.558400  0.158100  0.570000  1.0  -0.5139
  O  O278  1  0.605600  0.086900  0.630400  1.0  -0.5388
  O  O279  1  0.441600  0.841900  0.570000  1.0  -0.5149
  O  O280  1  0.394400  0.913100  0.630400  1.0  -0.5392
  O  O281  1  0.841900  0.441600  0.930000  1.0  -0.5151
  O  O282  1  0.913100  0.394400  0.869600  1.0  -0.5355
  O  O283  1  0.158100  0.558400  0.930000  1.0  -0.5163
  O  O284  1  0.086900  0.605600  0.869600  1.0  -0.5351
  O  O285  1  0.441600  0.158100  0.430000  1.0  -0.5167
  O  O286  1  0.394400  0.086900  0.369600  1.0  -0.5381
  O  O287  1  0.558400  0.841900  0.430000  1.0  -0.5156
  O  O288  1  0.605600  0.913100  0.369600  1.0  -0.537
  O  O289  1  0.841900  0.558400  0.930000  1.0  -0.5156
  O  O290  1  0.913100  0.605600  0.869600  1.0  -0.5347
  O  O291  1  0.158100  0.441600  0.930000  1.0  -0.5155
  O  O292  1  0.086900  0.394400  0.869600  1.0  -0.5354
  O  O293  1  0.441600  0.841900  0.430000  1.0  -0.5162
  O  O294  1  0.394400  0.913100  0.369600  1.0  -0.5391
  O  O295  1  0.558400  0.158100  0.430000  1.0  -0.5159
  O  O296  1  0.605600  0.086900  0.369600  1.0  -0.5383
  O  O297  1  0.158100  0.558400  0.070000  1.0  -0.5149
  O  O298  1  0.086900  0.605600  0.130400  1.0  -0.5352
  O  O299  1  0.841900  0.441600  0.070000  1.0  -0.5137
  O  O300  1  0.913100  0.394400  0.130400  1.0  -0.5357
  O  O301  1  0.558400  0.841900  0.570000  1.0  -0.514
  O  O302  1  0.605600  0.913100  0.630400  1.0  -0.5378
  O  O303  1  0.441600  0.158100  0.570000  1.0  -0.515
  O  O304  1  0.394400  0.086900  0.630400  1.0  -0.538
  O  O305  1  0.000000  0.444100  0.207900  1.0  -0.4969
  O  O306  1  0.000000  0.396900  0.458800  1.0  -0.5722
  O  O307  1  0.000000  0.555900  0.207900  1.0  -0.4961
  O  O308  1  0.000000  0.603100  0.458800  1.0  -0.5697
  O  O309  1  0.555900  0.000000  0.707900  1.0  -0.4951
  O  O310  1  0.603100  0.000000  0.958800  1.0  -0.573
  O  O311  1  0.444100  0.000000  0.707900  1.0  -0.4947
  O  O312  1  0.396900  0.000000  0.958800  1.0  -0.5751
  O  O313  1  0.000000  0.444100  0.792100  1.0  -0.4973
  O  O314  1  0.000000  0.396900  0.541200  1.0  -0.5735
  O  O315  1  0.000000  0.555900  0.792100  1.0  -0.4964
  O  O316  1  0.000000  0.603100  0.541200  1.0  -0.5715
  O  O317  1  0.444100  0.000000  0.292100  1.0  -0.4954
  O  O318  1  0.396900  0.000000  0.041200  1.0  -0.5778
  O  O319  1  0.555900  0.000000  0.292100  1.0  -0.4958
  O  O320  1  0.603100  0.000000  0.041200  1.0  -0.5757
  O  O321  1  0.054100  0.421200  0.000000  1.0  -0.9685
  O  O322  1  0.945900  0.578800  0.000000  1.0  -0.9688
  O  O323  1  0.578800  0.054100  0.500000  1.0  -0.968
  O  O324  1  0.421200  0.945900  0.500000  1.0  -0.969
  O  O325  1  0.945900  0.421200  0.000000  1.0  -0.9683
  O  O326  1  0.054100  0.578800  0.000000  1.0  -0.9684
  O  O327  1  0.421200  0.054100  0.500000  1.0  -0.9691
  O  O328  1  0.578800  0.945900  0.500000  1.0  -0.9679
  O  O329  1  0.948300  0.500000  0.090500  1.0  -0.8962
  O  O330  1  0.051700  0.500000  0.090500  1.0  -0.8955
  O  O331  1  0.500000  0.948300  0.590500  1.0  -0.8946
  O  O332  1  0.500000  0.051700  0.590500  1.0  -0.8946
  O  O333  1  0.051700  0.500000  0.909500  1.0  -0.8953
  O  O334  1  0.948300  0.500000  0.909500  1.0  -0.8958
  O  O335  1  0.500000  0.948300  0.409500  1.0  -0.894
  O  O336  1  0.500000  0.051700  0.409500  1.0  -0.8939
  F  F337  1  0.357700  0.373000  0.089700  1.0  -0.2726
  F  F338  1  0.390900  0.363200  0.199600  1.0  -0.2603
  F  F339  1  0.368700  0.283700  0.135500  1.0  -0.2681
  F  F340  1  0.173200  0.206400  0.297100  1.0  -0.2449
  F  F341  1  0.116100  0.281400  0.326600  1.0  -0.258
  F  F342  1  0.203900  0.271300  0.378300  1.0  -0.258
  F  F343  1  0.642300  0.627000  0.089700  1.0  -0.2686
  F  F344  1  0.609100  0.636800  0.199600  1.0  -0.2548
  F  F345  1  0.631300  0.716300  0.135500  1.0  -0.2702
  F  F346  1  0.826800  0.793600  0.297100  1.0  -0.2416
  F  F347  1  0.883900  0.718600  0.326600  1.0  -0.2603
  F  F348  1  0.796100  0.728700  0.378300  1.0  -0.2594
  F  F349  1  0.627000  0.357700  0.589700  1.0  -0.2715
  F  F350  1  0.636800  0.390900  0.699600  1.0  -0.2607
  F  F351  1  0.716300  0.368700  0.635500  1.0  -0.27
  F  F352  1  0.793600  0.173200  0.797100  1.0  -0.2414
  F  F353  1  0.718600  0.116100  0.826600  1.0  -0.2663
  F  F354  1  0.728700  0.203900  0.878300  1.0  -0.2574
  F  F355  1  0.373000  0.642300  0.589700  1.0  -0.2719
  F  F356  1  0.363200  0.609100  0.699600  1.0  -0.2644
  F  F357  1  0.283700  0.631300  0.635500  1.0  -0.2635
  F  F358  1  0.206400  0.826800  0.797100  1.0  -0.2356
  F  F359  1  0.281400  0.883900  0.826600  1.0  -0.2676
  F  F360  1  0.271300  0.796100  0.878300  1.0  -0.2552
  F  F361  1  0.642300  0.373000  0.910300  1.0  -0.2693
  F  F362  1  0.609100  0.363200  0.800400  1.0  -0.2532
  F  F363  1  0.631300  0.283700  0.864500  1.0  -0.2672
  F  F364  1  0.826800  0.206400  0.702900  1.0  -0.2449
  F  F365  1  0.883900  0.281400  0.673400  1.0  -0.2602
  F  F366  1  0.796100  0.271300  0.621700  1.0  -0.2551
  F  F367  1  0.357700  0.627000  0.910300  1.0  -0.2722
  F  F368  1  0.390900  0.636800  0.800400  1.0  -0.2586
  F  F369  1  0.368700  0.716300  0.864500  1.0  -0.2719
  F  F370  1  0.173200  0.793600  0.702900  1.0  -0.2436
  F  F371  1  0.116100  0.718600  0.673400  1.0  -0.2608
  F  F372  1  0.203900  0.728700  0.621700  1.0  -0.2583
  F  F373  1  0.373000  0.357700  0.410300  1.0  -0.2713
  F  F374  1  0.363200  0.390900  0.300400  1.0  -0.2635
  F  F375  1  0.283700  0.368700  0.364500  1.0  -0.2629
  F  F376  1  0.206400  0.173200  0.202900  1.0  -0.2379
  F  F377  1  0.281400  0.116100  0.173400  1.0  -0.2659
  F  F378  1  0.271300  0.203900  0.121700  1.0  -0.2552
  F  F379  1  0.627000  0.642300  0.410300  1.0  -0.2725
  F  F380  1  0.636800  0.609100  0.300400  1.0  -0.2622
  F  F381  1  0.716300  0.631300  0.364500  1.0  -0.271
  F  F382  1  0.793600  0.826800  0.202900  1.0  -0.2412
  F  F383  1  0.718600  0.883900  0.173400  1.0  -0.2683
  F  F384  1  0.728700  0.796100  0.121700  1.0  -0.2533
  F  F385  1  0.642300  0.627000  0.910300  1.0  -0.269
  F  F386  1  0.609100  0.636800  0.800400  1.0  -0.2554
  F  F387  1  0.631300  0.716300  0.864500  1.0  -0.269
  F  F388  1  0.826800  0.793600  0.702900  1.0  -0.2421
  F  F389  1  0.883900  0.718600  0.673400  1.0  -0.2605
  F  F390  1  0.796100  0.728700  0.621700  1.0  -0.2543
  F  F391  1  0.357700  0.373000  0.910300  1.0  -0.2717
  F  F392  1  0.390900  0.363200  0.800400  1.0  -0.2601
  F  F393  1  0.368700  0.283700  0.864500  1.0  -0.2712
  F  F394  1  0.173200  0.206400  0.702900  1.0  -0.2462
  F  F395  1  0.116100  0.281400  0.673400  1.0  -0.2597
  F  F396  1  0.203900  0.271300  0.621700  1.0  -0.259
  F  F397  1  0.373000  0.642300  0.410300  1.0  -0.2735
  F  F398  1  0.363200  0.609100  0.300400  1.0  -0.2647
  F  F399  1  0.283700  0.631300  0.364500  1.0  -0.2662
  F  F400  1  0.206400  0.826800  0.202900  1.0  -0.2362
  F  F401  1  0.281400  0.883900  0.173400  1.0  -0.269
  F  F402  1  0.271300  0.796100  0.121700  1.0  -0.2553
  F  F403  1  0.627000  0.357700  0.410300  1.0  -0.2701
  F  F404  1  0.636800  0.390900  0.300400  1.0  -0.2616
  F  F405  1  0.716300  0.368700  0.364500  1.0  -0.2688
  F  F406  1  0.793600  0.173200  0.202900  1.0  -0.241
  F  F407  1  0.718600  0.116100  0.173400  1.0  -0.2656
  F  F408  1  0.728700  0.203900  0.121700  1.0  -0.2534
  F  F409  1  0.357700  0.627000  0.089700  1.0  -0.2714
  F  F410  1  0.390900  0.636800  0.199600  1.0  -0.2583
  F  F411  1  0.368700  0.716300  0.135500  1.0  -0.2707
  F  F412  1  0.173200  0.793600  0.297100  1.0  -0.242
  F  F413  1  0.116100  0.718600  0.326600  1.0  -0.258
  F  F414  1  0.203900  0.728700  0.378300  1.0  -0.2581
  F  F415  1  0.642300  0.373000  0.089700  1.0  -0.2698
  F  F416  1  0.609100  0.363200  0.199600  1.0  -0.2532
  F  F417  1  0.631300  0.283700  0.135500  1.0  -0.2669
  F  F418  1  0.826800  0.206400  0.297100  1.0  -0.245
  F  F419  1  0.883900  0.281400  0.326600  1.0  -0.2605
  F  F420  1  0.796100  0.271300  0.378300  1.0  -0.2598
  F  F421  1  0.627000  0.642300  0.589700  1.0  -0.2703
  F  F422  1  0.636800  0.609100  0.699600  1.0  -0.2614
  F  F423  1  0.716300  0.631300  0.635500  1.0  -0.2667
  F  F424  1  0.793600  0.826800  0.797100  1.0  -0.2405
  F  F425  1  0.718600  0.883900  0.826600  1.0  -0.2664
  F  F426  1  0.728700  0.796100  0.878300  1.0  -0.2568
  F  F427  1  0.373000  0.357700  0.589700  1.0  -0.2733
  F  F428  1  0.363200  0.390900  0.699600  1.0  -0.264
  F  F429  1  0.283700  0.368700  0.635500  1.0  -0.2654
  F  F430  1  0.206400  0.173200  0.797100  1.0  -0.238
  F  F431  1  0.281400  0.116100  0.826600  1.0  -0.2664
  F  F432  1  0.271300  0.203900  0.878300  1.0  -0.256
