# generated using pymatgen
data_Co2BH20W12C24(N4O17)2
_symmetry_space_group_name_H-M   'P 1'
_cell_length_a   26.78000000
_cell_length_b   19.96300000
_cell_length_c   12.98000000
_cell_angle_alpha   90.00000000
_cell_angle_beta   90.00000000
_cell_angle_gamma   90.00000000
_symmetry_Int_Tables_number   1
_chemical_formula_structural   Co2BH20W12C24(N4O17)2
_chemical_formula_sum   'Co8 B4 H80 W48 C96 N32 O136'
_cell_volume   6939.22663720
_cell_formula_units_Z   4
loop_
 _symmetry_equiv_pos_site_id
 _symmetry_equiv_pos_as_xyz
  1  'x, y, z'
loop_
 _atom_site_type_symbol
 _atom_site_label
 _atom_site_symmetry_multiplicity
 _atom_site_fract_x
 _atom_site_fract_y
 _atom_site_fract_z
 _atom_site_occupancy
 _atom_site_charge
  Co  Co1  1  0.240850  0.891050  0.399100  1.0  0.9601
  Co  Co2  1  0.259150  0.108950  0.899100  1.0  0.9578
  Co  Co3  1  0.759150  0.391050  0.600900  1.0  0.958
  Co  Co4  1  0.740850  0.608950  0.100900  1.0  0.9605
  Co  Co5  1  0.759150  0.108950  0.600900  1.0  0.9582
  Co  Co6  1  0.740850  0.891050  0.100900  1.0  0.9601
  Co  Co7  1  0.240850  0.608950  0.399100  1.0  0.9603
  Co  Co8  1  0.259150  0.391050  0.899100  1.0  0.9577
  B  B9  1  0.262800  0.250000  0.401000  1.0  0.7239
  B  B10  1  0.237200  0.750000  0.901000  1.0  0.724
  B  B11  1  0.737200  0.750000  0.599000  1.0  0.7238
  B  B12  1  0.762800  0.250000  0.099000  1.0  0.7237
  H  H13  1  0.050100  0.822400  0.264700  1.0  0.1192
  H  H14  1  0.003500  0.006900  0.350400  1.0  0.1143
  H  H15  1  0.063000  0.990800  0.477300  1.0  0.1082
  H  H16  1  0.152500  0.985600  0.524900  1.0  0.0905
  H  H17  1  0.129200  0.875200  0.274600  1.0  0.096
  H  H18  1  0.976300  0.810700  0.166700  1.0  0.0816
  H  H19  1  0.927900  0.988800  0.254500  1.0  0.1069
  H  H20  1  0.844700  0.925800  0.238500  1.0  0.0954
  H  H21  1  0.923900  0.824000  0.029300  1.0  0.1548
  H  H22  1  0.834000  0.820900  0.987400  1.0  0.102
  H  H23  1  0.449900  0.177600  0.764700  1.0  0.1191
  H  H24  1  0.496500  0.993100  0.850400  1.0  0.1145
  H  H25  1  0.437000  0.009200  0.977300  1.0  0.1081
  H  H26  1  0.347500  0.014400  0.024900  1.0  0.0909
  H  H27  1  0.370800  0.124800  0.774600  1.0  0.0956
  H  H28  1  0.523700  0.189300  0.666667  1.0  0.0824
  H  H29  1  0.572100  0.011200  0.754500  1.0  0.1068
  H  H30  1  0.655300  0.074200  0.738500  1.0  0.0958
  H  H31  1  0.576100  0.176000  0.529300  1.0  0.1549
  H  H32  1  0.666000  0.179100  0.487400  1.0  0.1018
  H  H33  1  0.949900  0.322400  0.735300  1.0  0.1187
  H  H34  1  0.996500  0.506900  0.649600  1.0  0.1142
  H  H35  1  0.937000  0.490800  0.522700  1.0  0.1085
  H  H36  1  0.847500  0.485600  0.475100  1.0  0.0902
  H  H37  1  0.870800  0.375200  0.725400  1.0  0.0934
  H  H38  1  0.023700  0.310700  0.833300  1.0  0.0826
  H  H39  1  0.072100  0.488800  0.745500  1.0  0.1073
  H  H40  1  0.155300  0.425800  0.761500  1.0  0.0953
  H  H41  1  0.076100  0.324000  0.970700  1.0  0.1547
  H  H42  1  0.166000  0.320900  0.012600  1.0  0.1021
  H  H43  1  0.550100  0.677600  0.235300  1.0  0.1193
  H  H44  1  0.503500  0.493100  0.149600  1.0  0.1144
  H  H45  1  0.563000  0.509200  0.022700  1.0  0.1081
  H  H46  1  0.652500  0.514400  0.975100  1.0  0.0906
  H  H47  1  0.629200  0.624800  0.225400  1.0  0.096
  H  H48  1  0.476300  0.689300  0.333333  1.0  0.082
  H  H49  1  0.427900  0.511200  0.245500  1.0  0.1064
  H  H50  1  0.344700  0.574200  0.261500  1.0  0.095
  H  H51  1  0.423900  0.676000  0.470700  1.0  0.1539
  H  H52  1  0.334000  0.679100  0.512600  1.0  0.1019
  H  H53  1  0.949900  0.177600  0.735300  1.0  0.119
  H  H54  1  0.996500  0.993100  0.649600  1.0  0.1144
  H  H55  1  0.937000  0.009200  0.522700  1.0  0.1082
  H  H56  1  0.847500  0.014400  0.475100  1.0  0.0903
  H  H57  1  0.870800  0.124800  0.725400  1.0  0.0933
  H  H58  1  0.023700  0.189300  0.833300  1.0  0.0825
  H  H59  1  0.072100  0.011200  0.745500  1.0  0.107
  H  H60  1  0.155300  0.074200  0.761500  1.0  0.0952
  H  H61  1  0.076100  0.176000  0.970700  1.0  0.1546
  H  H62  1  0.166000  0.179100  0.012600  1.0  0.1019
  H  H63  1  0.550100  0.822400  0.235300  1.0  0.119
  H  H64  1  0.503500  0.006900  0.149600  1.0  0.1141
  H  H65  1  0.563000  0.990800  0.022700  1.0  0.1088
  H  H66  1  0.652500  0.985600  0.975100  1.0  0.0902
  H  H67  1  0.629200  0.875200  0.225400  1.0  0.096
  H  H68  1  0.476300  0.810700  0.333333  1.0  0.0824
  H  H69  1  0.427900  0.988800  0.245500  1.0  0.1072
  H  H70  1  0.344700  0.925800  0.261500  1.0  0.0951
  H  H71  1  0.423900  0.824000  0.470700  1.0  0.1541
  H  H72  1  0.334000  0.820900  0.512600  1.0  0.1023
  H  H73  1  0.050100  0.677600  0.264700  1.0  0.1194
  H  H74  1  0.003500  0.493100  0.350400  1.0  0.1145
  H  H75  1  0.063000  0.509200  0.477300  1.0  0.1081
  H  H76  1  0.152500  0.514400  0.524900  1.0  0.0909
  H  H77  1  0.129200  0.624800  0.274600  1.0  0.0961
  H  H78  1  0.976300  0.689300  0.166700  1.0  0.0819
  H  H79  1  0.927900  0.511200  0.254500  1.0  0.106
  H  H80  1  0.844700  0.574200  0.238500  1.0  0.0956
  H  H81  1  0.923900  0.676000  0.029300  1.0  0.1549
  H  H82  1  0.834000  0.679100  0.987400  1.0  0.1018
  H  H83  1  0.449900  0.322400  0.764700  1.0  0.119
  H  H84  1  0.496500  0.506900  0.850400  1.0  0.1143
  H  H85  1  0.437000  0.490800  0.977300  1.0  0.1079
  H  H86  1  0.347500  0.485600  0.024900  1.0  0.0906
  H  H87  1  0.370800  0.375200  0.774600  1.0  0.0954
  H  H88  1  0.523700  0.310700  0.666667  1.0  0.082
  H  H89  1  0.572100  0.488800  0.754500  1.0  0.107
  H  H90  1  0.655300  0.425800  0.738500  1.0  0.0956
  H  H91  1  0.576100  0.324000  0.529300  1.0  0.1549
  H  H92  1  0.666000  0.320900  0.487400  1.0  0.1021
  W  W93  1  0.154360  0.167260  0.477660  1.0  1.3153
  W  W94  1  0.265230  0.076940  0.392630  1.0  2.3966
  W  W95  1  0.266610  0.167610  0.634580  1.0  2.3381
  W  W96  1  0.265030  0.159320  0.173220  1.0  2.3021
  W  W97  1  0.366670  0.158710  0.317690  1.0  1.4067
  W  W98  1  0.345640  0.832740  0.977660  1.0  1.3181
  W  W99  1  0.234770  0.923060  0.892630  1.0  2.3972
  W  W100  1  0.233390  0.832390  0.134580  1.0  2.339
  W  W101  1  0.234970  0.840680  0.673220  1.0  2.3026
  W  W102  1  0.133330  0.841290  0.817690  1.0  1.4056
  W  W103  1  0.845640  0.667260  0.522340  1.0  1.3145
  W  W104  1  0.734770  0.576940  0.607370  1.0  2.3955
  W  W105  1  0.733390  0.667610  0.365420  1.0  2.3371
  W  W106  1  0.734970  0.659320  0.826780  1.0  2.3038
  W  W107  1  0.633330  0.658710  0.682310  1.0  1.4051
  W  W108  1  0.654360  0.332740  0.022340  1.0  1.3173
  W  W109  1  0.765230  0.423060  0.107370  1.0  2.396
  W  W110  1  0.766610  0.332390  0.865420  1.0  2.3364
  W  W111  1  0.765030  0.340680  0.326780  1.0  2.3037
  W  W112  1  0.866670  0.341290  0.182310  1.0  1.407
  W  W113  1  0.845640  0.832740  0.522340  1.0  1.3188
  W  W114  1  0.734770  0.923060  0.607370  1.0  2.3961
  W  W115  1  0.733390  0.832390  0.365420  1.0  2.3373
  W  W116  1  0.734970  0.840680  0.826780  1.0  2.3039
  W  W117  1  0.633330  0.841290  0.682310  1.0  1.4055
  W  W118  1  0.654360  0.167260  0.022340  1.0  1.314
  W  W119  1  0.765230  0.076940  0.107370  1.0  2.3954
  W  W120  1  0.766610  0.167610  0.865420  1.0  2.3362
  W  W121  1  0.765030  0.159320  0.326780  1.0  2.3035
  W  W122  1  0.866670  0.158710  0.182310  1.0  1.4062
  W  W123  1  0.154360  0.332740  0.477660  1.0  1.3166
  W  W124  1  0.265230  0.423060  0.392630  1.0  2.3973
  W  W125  1  0.266610  0.332390  0.634580  1.0  2.3384
  W  W126  1  0.265030  0.340680  0.173220  1.0  2.3022
  W  W127  1  0.366670  0.341290  0.317690  1.0  1.408
  W  W128  1  0.345640  0.667260  0.977660  1.0  1.3154
  W  W129  1  0.234770  0.576940  0.892630  1.0  2.3967
  W  W130  1  0.233390  0.667610  0.134580  1.0  2.3388
  W  W131  1  0.234970  0.659320  0.673220  1.0  2.3023
  W  W132  1  0.133330  0.658710  0.817690  1.0  1.4046
  W  W133  1  0.153670  0.250000  0.256510  1.0  1.3207
  W  W134  1  0.367560  0.250000  0.560140  1.0  1.3039
  W  W135  1  0.346330  0.750000  0.756510  1.0  1.3245
  W  W136  1  0.132440  0.750000  0.060140  1.0  1.3046
  W  W137  1  0.846330  0.750000  0.743490  1.0  1.3245
  W  W138  1  0.632440  0.750000  0.439860  1.0  1.3058
  W  W139  1  0.653670  0.250000  0.243490  1.0  1.3216
  W  W140  1  0.867560  0.250000  0.939860  1.0  1.3053
  C  C141  1  0.034100  0.917300  0.314300  1.0  0.1351
  C  C142  1  0.026400  0.856500  0.262400  1.0  -0.1899
  C  C143  1  0.998300  0.967100  0.314700  1.0  -0.1482
  C  C144  1  0.087300  0.965900  0.444000  1.0  -0.0793
  C  C145  1  0.137800  0.962000  0.471000  1.0  0.0354
  C  C146  1  0.124700  0.901100  0.333400  1.0  0.0735
  C  C147  1  0.981200  0.849000  0.206000  1.0  -0.1846
  C  C148  1  0.952400  0.955800  0.257800  1.0  -0.1707
  C  C149  1  0.945800  0.895400  0.209100  1.0  0.185
  C  C150  1  0.853300  0.901500  0.180000  1.0  0.0884
  C  C151  1  0.898100  0.844700  0.065100  1.0  -0.1022
  C  C152  1  0.847200  0.843900  0.043500  1.0  0.0646
  C  C153  1  0.465900  0.082700  0.814300  1.0  0.1347
  C  C154  1  0.473600  0.143500  0.762400  1.0  -0.1907
  C  C155  1  0.501700  0.032900  0.814700  1.0  -0.1488
  C  C156  1  0.412700  0.034100  0.944000  1.0  -0.0787
  C  C157  1  0.362200  0.038000  0.971000  1.0  0.0339
  C  C158  1  0.375300  0.098900  0.833400  1.0  0.073
  C  C159  1  0.518800  0.151000  0.706000  1.0  -0.1867
  C  C160  1  0.547600  0.044200  0.757800  1.0  -0.1682
  C  C161  1  0.554200  0.104600  0.709100  1.0  0.1855
  C  C162  1  0.646700  0.098500  0.680000  1.0  0.0891
  C  C163  1  0.601900  0.155300  0.565100  1.0  -0.1025
  C  C164  1  0.652800  0.156100  0.543500  1.0  0.0658
  C  C165  1  0.965900  0.417300  0.685700  1.0  0.1349
  C  C166  1  0.973600  0.356500  0.737600  1.0  -0.1897
  C  C167  1  0.001700  0.467100  0.685300  1.0  -0.1498
  C  C168  1  0.912700  0.465900  0.556000  1.0  -0.0794
  C  C169  1  0.862200  0.462000  0.529000  1.0  0.0358
  C  C170  1  0.875300  0.401100  0.666667  1.0  0.0735
  C  C171  1  0.018800  0.349000  0.794000  1.0  -0.1851
  C  C172  1  0.047600  0.455800  0.742200  1.0  -0.1688
  C  C173  1  0.054200  0.395400  0.790900  1.0  0.1856
  C  C174  1  0.146700  0.401500  0.820000  1.0  0.0883
  C  C175  1  0.101900  0.344700  0.934900  1.0  -0.1038
  C  C176  1  0.152800  0.343900  0.956500  1.0  0.0653
  C  C177  1  0.534100  0.582700  0.185700  1.0  0.1349
  C  C178  1  0.526400  0.643500  0.237600  1.0  -0.1916
  C  C179  1  0.498300  0.532900  0.185300  1.0  -0.1479
  C  C180  1  0.587300  0.534100  0.056000  1.0  -0.08
  C  C181  1  0.637800  0.538000  0.029000  1.0  0.035
  C  C182  1  0.624700  0.598900  0.166600  1.0  0.0741
  C  C183  1  0.481200  0.651000  0.294000  1.0  -0.1867
  C  C184  1  0.452400  0.544200  0.242200  1.0  -0.1698
  C  C185  1  0.445800  0.604600  0.290900  1.0  0.1852
  C  C186  1  0.353300  0.598500  0.320000  1.0  0.0894
  C  C187  1  0.398100  0.655300  0.434900  1.0  -0.1026
  C  C188  1  0.347200  0.656100  0.456500  1.0  0.0641
  C  C189  1  0.965900  0.082700  0.685700  1.0  0.1347
  C  C190  1  0.973600  0.143500  0.737600  1.0  -0.1914
  C  C191  1  0.001700  0.032900  0.685300  1.0  -0.1492
  C  C192  1  0.912700  0.034100  0.556000  1.0  -0.0797
  C  C193  1  0.862200  0.038000  0.529000  1.0  0.0351
  C  C194  1  0.875300  0.098900  0.666667  1.0  0.0729
  C  C195  1  0.018800  0.151000  0.794000  1.0  -0.186
  C  C196  1  0.047600  0.044200  0.742200  1.0  -0.1682
  C  C197  1  0.054200  0.104600  0.790900  1.0  0.1858
  C  C198  1  0.146700  0.098500  0.820000  1.0  0.089
  C  C199  1  0.101900  0.155300  0.934900  1.0  -0.1035
  C  C200  1  0.152800  0.156100  0.956500  1.0  0.0656
  C  C201  1  0.534100  0.917300  0.185700  1.0  0.1351
  C  C202  1  0.526400  0.856500  0.237600  1.0  -0.1904
  C  C203  1  0.498300  0.967100  0.185300  1.0  -0.1482
  C  C204  1  0.587300  0.965900  0.056000  1.0  -0.0798
  C  C205  1  0.637800  0.962000  0.029000  1.0  0.0357
  C  C206  1  0.624700  0.901100  0.166600  1.0  0.0747
  C  C207  1  0.481200  0.849000  0.294000  1.0  -0.1858
  C  C208  1  0.452400  0.955800  0.242200  1.0  -0.1709
  C  C209  1  0.445800  0.895400  0.290900  1.0  0.1852
  C  C210  1  0.353300  0.901500  0.320000  1.0  0.0889
  C  C211  1  0.398100  0.844700  0.434900  1.0  -0.1027
  C  C212  1  0.347200  0.843900  0.456500  1.0  0.0636
  C  C213  1  0.034100  0.582700  0.314300  1.0  0.1349
  C  C214  1  0.026400  0.643500  0.262400  1.0  -0.1911
  C  C215  1  0.998300  0.532900  0.314700  1.0  -0.1474
  C  C216  1  0.087300  0.534100  0.444000  1.0  -0.0792
  C  C217  1  0.137800  0.538000  0.471000  1.0  0.0347
  C  C218  1  0.124700  0.598900  0.333400  1.0  0.0733
  C  C219  1  0.981200  0.651000  0.206000  1.0  -0.1854
  C  C220  1  0.952400  0.544200  0.257800  1.0  -0.1696
  C  C221  1  0.945800  0.604600  0.209100  1.0  0.185
  C  C222  1  0.853300  0.598500  0.180000  1.0  0.0892
  C  C223  1  0.898100  0.655300  0.065100  1.0  -0.1024
  C  C224  1  0.847200  0.656100  0.043500  1.0  0.0652
  C  C225  1  0.465900  0.417300  0.814300  1.0  0.1348
  C  C226  1  0.473600  0.356500  0.762400  1.0  -0.1892
  C  C227  1  0.501700  0.467100  0.814700  1.0  -0.1498
  C  C228  1  0.412700  0.465900  0.944000  1.0  -0.0788
  C  C229  1  0.362200  0.462000  0.971000  1.0  0.0347
  C  C230  1  0.375300  0.401100  0.833400  1.0  0.0732
  C  C231  1  0.518800  0.349000  0.706000  1.0  -0.1857
  C  C232  1  0.547600  0.455800  0.757800  1.0  -0.1686
  C  C233  1  0.554200  0.395400  0.709100  1.0  0.1852
  C  C234  1  0.646700  0.401500  0.680000  1.0  0.0882
  C  C235  1  0.601900  0.344700  0.565100  1.0  -0.1023
  C  C236  1  0.652800  0.343900  0.543500  1.0  0.0654
  N  N237  1  0.819000  0.878100  0.107900  1.0  -0.4128
  N  N238  1  0.900900  0.884400  0.154500  1.0  -0.0342
  N  N239  1  0.163100  0.918100  0.406300  1.0  -0.3722
  N  N240  1  0.080500  0.928800  0.364000  1.0  0.1168
  N  N241  1  0.681000  0.121900  0.607900  1.0  -0.4133
  N  N242  1  0.599100  0.115600  0.654500  1.0  -0.0336
  N  N243  1  0.336900  0.081900  0.906300  1.0  -0.3731
  N  N244  1  0.419500  0.071200  0.864000  1.0  0.1167
  N  N245  1  0.181000  0.378100  0.892100  1.0  -0.413
  N  N246  1  0.099100  0.384400  0.845500  1.0  -0.0334
  N  N247  1  0.836900  0.418100  0.593700  1.0  -0.3716
  N  N248  1  0.919500  0.428800  0.636000  1.0  0.1172
  N  N249  1  0.319000  0.621900  0.392100  1.0  -0.4122
  N  N250  1  0.400900  0.615600  0.345500  1.0  -0.0348
  N  N251  1  0.663100  0.581900  0.093700  1.0  -0.3737
  N  N252  1  0.580500  0.571200  0.136000  1.0  0.1174
  N  N253  1  0.181000  0.121900  0.892100  1.0  -0.4127
  N  N254  1  0.099100  0.115600  0.845500  1.0  -0.0334
  N  N255  1  0.836900  0.081900  0.593700  1.0  -0.3726
  N  N256  1  0.919500  0.071200  0.636000  1.0  0.1173
  N  N257  1  0.319000  0.878100  0.392100  1.0  -0.4125
  N  N258  1  0.400900  0.884400  0.345500  1.0  -0.0348
  N  N259  1  0.663100  0.918100  0.093700  1.0  -0.372
  N  N260  1  0.580500  0.928800  0.136000  1.0  0.1172
  N  N261  1  0.819000  0.621900  0.107900  1.0  -0.4127
  N  N262  1  0.900900  0.615600  0.154500  1.0  -0.0346
  N  N263  1  0.163100  0.581900  0.406300  1.0  -0.3739
  N  N264  1  0.080500  0.571200  0.364000  1.0  0.117
  N  N265  1  0.681000  0.378100  0.607900  1.0  -0.4134
  N  N266  1  0.599100  0.384400  0.654500  1.0  -0.0331
  N  N267  1  0.336900  0.418100  0.906300  1.0  -0.3721
  N  N268  1  0.419500  0.428800  0.864000  1.0  0.1165
  O  O269  1  0.198800  0.106200  0.411500  1.0  -0.7521
  O  O270  1  0.375900  0.182400  0.455900  1.0  -0.74
  O  O271  1  0.238900  0.884100  0.237400  1.0  -0.7642
  O  O272  1  0.242500  0.871900  0.553000  1.0  -0.8473
  O  O273  1  0.200600  0.169500  0.588300  1.0  -0.7063
  O  O274  1  0.336500  0.184300  0.644300  1.0  -0.7052
  O  O275  1  0.336300  0.077900  0.365000  1.0  -0.6667
  O  O276  1  0.199200  0.184800  0.203000  1.0  -0.739
  O  O277  1  0.126200  0.182300  0.343800  1.0  -0.6807
  O  O278  1  0.335500  0.145200  0.188000  1.0  -0.6836
  O  O279  1  0.278200  0.105700  0.529700  1.0  -0.7493
  O  O280  1  0.254300  0.078000  0.248000  1.0  -0.6876
  O  O281  1  0.281400  0.186800  0.345000  1.0  -0.7824
  O  O282  1  0.258000  0.992200  0.410800  1.0  -0.7852
  O  O283  1  0.301200  0.893800  0.911500  1.0  -0.7515
  O  O284  1  0.124100  0.817600  0.955900  1.0  -0.7407
  O  O285  1  0.261100  0.115900  0.737400  1.0  -0.7649
  O  O286  1  0.257500  0.128100  0.053000  1.0  -0.8477
  O  O287  1  0.299400  0.830500  0.088300  1.0  -0.7044
  O  O288  1  0.163500  0.815700  0.144300  1.0  -0.704
  O  O289  1  0.163700  0.922100  0.865000  1.0  -0.664
  O  O290  1  0.300800  0.815200  0.703000  1.0  -0.7385
  O  O291  1  0.373800  0.817700  0.843800  1.0  -0.6787
  O  O292  1  0.164500  0.854800  0.688000  1.0  -0.6825
  O  O293  1  0.221800  0.894300  0.029700  1.0  -0.7556
  O  O294  1  0.245700  0.922000  0.748000  1.0  -0.6862
  O  O295  1  0.218600  0.813200  0.845000  1.0  -0.7812
  O  O296  1  0.242000  0.007800  0.910800  1.0  -0.7848
  O  O297  1  0.801200  0.606200  0.588500  1.0  -0.7501
  O  O298  1  0.624100  0.682400  0.544100  1.0  -0.7408
  O  O299  1  0.761100  0.384100  0.762600  1.0  -0.764
  O  O300  1  0.757500  0.371900  0.447000  1.0  -0.8475
  O  O301  1  0.799400  0.669500  0.411700  1.0  -0.7036
  O  O302  1  0.663500  0.684300  0.355700  1.0  -0.7053
  O  O303  1  0.663700  0.577900  0.635000  1.0  -0.6661
  O  O304  1  0.800800  0.684800  0.797000  1.0  -0.7384
  O  O305  1  0.873800  0.682300  0.656200  1.0  -0.6798
  O  O306  1  0.664500  0.645200  0.812000  1.0  -0.6818
  O  O307  1  0.721800  0.605700  0.470300  1.0  -0.7488
  O  O308  1  0.745700  0.578000  0.752000  1.0  -0.6884
  O  O309  1  0.718600  0.686800  0.655000  1.0  -0.7822
  O  O310  1  0.742000  0.492200  0.589200  1.0  -0.7857
  O  O311  1  0.698800  0.393800  0.088500  1.0  -0.7547
  O  O312  1  0.875900  0.317600  0.044100  1.0  -0.739
  O  O313  1  0.738900  0.615900  0.262600  1.0  -0.7641
  O  O314  1  0.742500  0.628100  0.947000  1.0  -0.8483
  O  O315  1  0.700600  0.330500  0.911700  1.0  -0.7059
  O  O316  1  0.836500  0.315700  0.855700  1.0  -0.7064
  O  O317  1  0.836300  0.422100  0.135000  1.0  -0.6654
  O  O318  1  0.699200  0.315200  0.297000  1.0  -0.7392
  O  O319  1  0.626200  0.317700  0.156200  1.0  -0.6785
  O  O320  1  0.835500  0.354800  0.312000  1.0  -0.6839
  O  O321  1  0.778200  0.394300  0.970300  1.0  -0.7535
  O  O322  1  0.754300  0.422000  0.252000  1.0  -0.6849
  O  O323  1  0.781400  0.313200  0.155000  1.0  -0.7827
  O  O324  1  0.758000  0.507800  0.089200  1.0  -0.7846
  O  O325  1  0.801200  0.893800  0.588500  1.0  -0.7523
  O  O326  1  0.624100  0.817600  0.544100  1.0  -0.7408
  O  O327  1  0.761100  0.115900  0.762600  1.0  -0.7645
  O  O328  1  0.757500  0.128100  0.447000  1.0  -0.8482
  O  O329  1  0.799400  0.830500  0.411700  1.0  -0.7037
  O  O330  1  0.663500  0.815700  0.355700  1.0  -0.7061
  O  O331  1  0.663700  0.922100  0.635000  1.0  -0.6643
  O  O332  1  0.800800  0.815200  0.797000  1.0  -0.7375
  O  O333  1  0.873800  0.817700  0.656200  1.0  -0.6791
  O  O334  1  0.664500  0.854800  0.812000  1.0  -0.682
  O  O335  1  0.721800  0.894300  0.470300  1.0  -0.7553
  O  O336  1  0.745700  0.922000  0.752000  1.0  -0.6839
  O  O337  1  0.718600  0.813200  0.655000  1.0  -0.782
  O  O338  1  0.742000  0.007800  0.589200  1.0  -0.7851
  O  O339  1  0.698800  0.106200  0.088500  1.0  -0.7524
  O  O340  1  0.875900  0.182400  0.044100  1.0  -0.7393
  O  O341  1  0.738900  0.884100  0.262600  1.0  -0.7637
  O  O342  1  0.742500  0.871900  0.947000  1.0  -0.8476
  O  O343  1  0.700600  0.169500  0.911700  1.0  -0.7062
  O  O344  1  0.836500  0.184300  0.855700  1.0  -0.7059
  O  O345  1  0.836300  0.077900  0.135000  1.0  -0.6664
  O  O346  1  0.699200  0.184800  0.297000  1.0  -0.7357
  O  O347  1  0.626200  0.182300  0.156200  1.0  -0.6797
  O  O348  1  0.835500  0.145200  0.312000  1.0  -0.6838
  O  O349  1  0.778200  0.105700  0.970300  1.0  -0.7476
  O  O350  1  0.754300  0.078000  0.252000  1.0  -0.6882
  O  O351  1  0.781400  0.186800  0.155000  1.0  -0.783
  O  O352  1  0.758000  0.992200  0.089200  1.0  -0.7854
  O  O353  1  0.198800  0.393800  0.411500  1.0  -0.7542
  O  O354  1  0.375900  0.317600  0.455900  1.0  -0.7393
  O  O355  1  0.238900  0.615900  0.237400  1.0  -0.7645
  O  O356  1  0.242500  0.628100  0.553000  1.0  -0.8479
  O  O357  1  0.200600  0.330500  0.588300  1.0  -0.7065
  O  O358  1  0.336500  0.315700  0.644300  1.0  -0.7047
  O  O359  1  0.336300  0.422100  0.365000  1.0  -0.6654
  O  O360  1  0.199200  0.315200  0.203000  1.0  -0.7384
  O  O361  1  0.126200  0.317700  0.343800  1.0  -0.6795
  O  O362  1  0.335500  0.354800  0.188000  1.0  -0.6832
  O  O363  1  0.278200  0.394300  0.529700  1.0  -0.754
  O  O364  1  0.254300  0.422000  0.248000  1.0  -0.6868
  O  O365  1  0.281400  0.313200  0.345000  1.0  -0.7817
  O  O366  1  0.258000  0.507800  0.410800  1.0  -0.7846
  O  O367  1  0.301200  0.606200  0.911500  1.0  -0.7497
  O  O368  1  0.124100  0.682400  0.955900  1.0  -0.7411
  O  O369  1  0.261100  0.384100  0.737400  1.0  -0.7645
  O  O370  1  0.257500  0.371900  0.053000  1.0  -0.8471
  O  O371  1  0.299400  0.669500  0.088300  1.0  -0.7039
  O  O372  1  0.163500  0.684300  0.144300  1.0  -0.7044
  O  O373  1  0.163700  0.577900  0.865000  1.0  -0.6661
  O  O374  1  0.300800  0.684800  0.703000  1.0  -0.7361
  O  O375  1  0.373800  0.682300  0.843800  1.0  -0.6797
  O  O376  1  0.164500  0.645200  0.688000  1.0  -0.6828
  O  O377  1  0.221800  0.605700  0.029700  1.0  -0.7503
  O  O378  1  0.245700  0.578000  0.748000  1.0  -0.6876
  O  O379  1  0.218600  0.686800  0.845000  1.0  -0.7817
  O  O380  1  0.242000  0.492200  0.910800  1.0  -0.7856
  O  O381  1  0.125800  0.250000  0.520600  1.0  -0.5902
  O  O382  1  0.255200  0.250000  0.707100  1.0  -0.714
  O  O383  1  0.282500  0.250000  0.513300  1.0  -0.7709
  O  O384  1  0.206300  0.250000  0.402800  1.0  -0.7637
  O  O385  1  0.375800  0.250000  0.282000  1.0  -0.7166
  O  O386  1  0.277700  0.250000  0.142800  1.0  -0.8021
  O  O387  1  0.374200  0.750000  0.020600  1.0  -0.5912
  O  O388  1  0.244800  0.750000  0.207100  1.0  -0.7143
  O  O389  1  0.217500  0.750000  0.013300  1.0  -0.7696
  O  O390  1  0.293700  0.750000  0.902800  1.0  -0.7668
  O  O391  1  0.124200  0.750000  0.782000  1.0  -0.721
  O  O392  1  0.222300  0.750000  0.642800  1.0  -0.8027
  O  O393  1  0.874200  0.750000  0.479400  1.0  -0.5914
  O  O394  1  0.744800  0.750000  0.292900  1.0  -0.7123
  O  O395  1  0.717500  0.750000  0.486700  1.0  -0.7699
  O  O396  1  0.793700  0.750000  0.597200  1.0  -0.7665
  O  O397  1  0.624200  0.750000  0.718000  1.0  -0.7201
  O  O398  1  0.722300  0.750000  0.857200  1.0  -0.8019
  O  O399  1  0.625800  0.250000  0.979400  1.0  -0.5906
  O  O400  1  0.755200  0.250000  0.792900  1.0  -0.7126
  O  O401  1  0.782500  0.250000  0.986700  1.0  -0.7709
  O  O402  1  0.706300  0.250000  0.097200  1.0  -0.7634
  O  O403  1  0.875800  0.250000  0.218000  1.0  -0.7173
  O  O404  1  0.777700  0.250000  0.357200  1.0  -0.8008
