# generated using pymatgen
data_CoH10W6C12N4O17
_symmetry_space_group_name_H-M   'P 1'
_cell_length_a   26.54800000
_cell_length_b   20.07600000
_cell_length_c   12.96400000
_cell_angle_alpha   90.00000000
_cell_angle_beta   90.00000000
_cell_angle_gamma   90.00000000
_symmetry_Int_Tables_number   1
_chemical_formula_structural   CoH10W6C12N4O17
_chemical_formula_sum   'Co8 H80 W48 C96 N32 O136'
_cell_volume   6909.52222867
_cell_formula_units_Z   8
loop_
 _symmetry_equiv_pos_site_id
 _symmetry_equiv_pos_as_xyz
  1  'x, y, z'
loop_
 _atom_site_type_symbol
 _atom_site_label
 _atom_site_symmetry_multiplicity
 _atom_site_fract_x
 _atom_site_fract_y
 _atom_site_fract_z
 _atom_site_occupancy
 _atom_site_charge
  Co  Co1  1  0.740750  0.106940  0.596600  1.0  0.9732
  Co  Co2  1  0.759250  0.893060  0.096600  1.0  0.9726
  Co  Co3  1  0.259250  0.606940  0.403400  1.0  0.9723
  Co  Co4  1  0.240750  0.393060  0.903400  1.0  0.9729
  Co  Co5  1  0.259250  0.893060  0.403400  1.0  0.9721
  Co  Co6  1  0.240750  0.106940  0.903400  1.0  0.973
  Co  Co7  1  0.740750  0.393060  0.596600  1.0  0.9731
  Co  Co8  1  0.759250  0.606940  0.096600  1.0  0.9728
  H  H9  1  0.654600  0.012000  0.470700  1.0  0.0963
  H  H10  1  0.427900  0.011900  0.740300  1.0  0.1242
  H  H11  1  0.503800  0.992500  0.653000  1.0  0.123
  H  H12  1  0.631300  0.128300  0.708600  1.0  0.0998
  H  H13  1  0.474100  0.192900  0.815200  1.0  0.1
  H  H14  1  0.552200  0.174200  0.731800  1.0  0.1224
  H  H15  1  0.566500  0.002600  0.514500  1.0  0.115
  H  H16  1  0.335500  0.178600  0.019900  1.0  0.1107
  H  H17  1  0.424500  0.178600  0.968100  1.0  0.1416
  H  H18  1  0.343900  0.073400  0.766700  1.0  0.1038
  H  H19  1  0.845400  0.988000  0.970700  1.0  0.0967
  H  H20  1  0.072100  0.988100  0.240300  1.0  0.1245
  H  H21  1  0.996200  0.007500  0.153000  1.0  0.1236
  H  H22  1  0.868700  0.871700  0.208600  1.0  0.0997
  H  H23  1  0.025900  0.807100  0.315200  1.0  0.0998
  H  H24  1  0.947800  0.825800  0.231800  1.0  0.1223
  H  H25  1  0.933500  0.997400  0.014500  1.0  0.1157
  H  H26  1  0.164500  0.821400  0.519900  1.0  0.1116
  H  H27  1  0.075500  0.821400  0.468100  1.0  0.1415
  H  H28  1  0.156100  0.926600  0.266700  1.0  0.1039
  H  H29  1  0.345400  0.512000  0.529300  1.0  0.097
  H  H30  1  0.572100  0.511900  0.259700  1.0  0.1244
  H  H31  1  0.496200  0.492500  0.347000  1.0  0.123
  H  H32  1  0.368700  0.628300  0.291400  1.0  0.0997
  H  H33  1  0.525900  0.692900  0.184800  1.0  0.0998
  H  H34  1  0.447800  0.674200  0.268200  1.0  0.122
  H  H35  1  0.433500  0.502600  0.485500  1.0  0.1153
  H  H36  1  0.664500  0.678600  0.980100  1.0  0.1109
  H  H37  1  0.575500  0.678600  0.031900  1.0  0.1417
  H  H38  1  0.656100  0.573400  0.233300  1.0  0.1041
  H  H39  1  0.154600  0.488000  0.029300  1.0  0.0968
  H  H40  1  0.927900  0.488100  0.759700  1.0  0.1246
  H  H41  1  0.003800  0.507500  0.847000  1.0  0.1231
  H  H42  1  0.131300  0.371700  0.791400  1.0  0.1
  H  H43  1  0.974100  0.307100  0.684800  1.0  0.099
  H  H44  1  0.052200  0.325800  0.768200  1.0  0.1224
  H  H45  1  0.066500  0.497400  0.985500  1.0  0.1152
  H  H46  1  0.835500  0.321400  0.480100  1.0  0.1108
  H  H47  1  0.924500  0.321400  0.531900  1.0  0.142
  H  H48  1  0.843900  0.426600  0.733300  1.0  0.1042
  H  H49  1  0.345400  0.988000  0.529300  1.0  0.0969
  H  H50  1  0.572100  0.988100  0.259700  1.0  0.1245
  H  H51  1  0.496200  0.007500  0.347000  1.0  0.1232
  H  H52  1  0.368700  0.871700  0.291400  1.0  0.0997
  H  H53  1  0.525900  0.807100  0.184800  1.0  0.0989
  H  H54  1  0.447800  0.825800  0.268200  1.0  0.1221
  H  H55  1  0.433500  0.997400  0.485500  1.0  0.1154
  H  H56  1  0.664500  0.821400  0.980100  1.0  0.1113
  H  H57  1  0.575500  0.821400  0.031900  1.0  0.1416
  H  H58  1  0.656100  0.926600  0.233300  1.0  0.104
  H  H59  1  0.154600  0.012000  0.029300  1.0  0.0969
  H  H60  1  0.927900  0.011900  0.759700  1.0  0.1241
  H  H61  1  0.003800  0.992500  0.847000  1.0  0.1228
  H  H62  1  0.131300  0.128300  0.791400  1.0  0.1001
  H  H63  1  0.974100  0.192900  0.684800  1.0  0.0995
  H  H64  1  0.052200  0.174200  0.768200  1.0  0.1222
  H  H65  1  0.066500  0.002600  0.985500  1.0  0.1151
  H  H66  1  0.835500  0.178600  0.480100  1.0  0.1104
  H  H67  1  0.924500  0.178600  0.531900  1.0  0.1419
  H  H68  1  0.843900  0.073400  0.733300  1.0  0.1042
  H  H69  1  0.654600  0.488000  0.470700  1.0  0.0966
  H  H70  1  0.427900  0.488100  0.740300  1.0  0.1247
  H  H71  1  0.503800  0.507500  0.653000  1.0  0.1233
  H  H72  1  0.631300  0.371700  0.708600  1.0  0.1
  H  H73  1  0.474100  0.307100  0.815200  1.0  0.0996
  H  H74  1  0.552200  0.325800  0.731800  1.0  0.1225
  H  H75  1  0.566500  0.497400  0.514500  1.0  0.1155
  H  H76  1  0.335500  0.321400  0.019900  1.0  0.1111
  H  H77  1  0.424500  0.321400  0.968100  1.0  0.1417
  H  H78  1  0.343900  0.426600  0.766700  1.0  0.1039
  H  H79  1  0.845400  0.512000  0.970700  1.0  0.0962
  H  H80  1  0.072100  0.511900  0.240300  1.0  0.1244
  H  H81  1  0.996200  0.492500  0.153000  1.0  0.1233
  H  H82  1  0.868700  0.628300  0.208600  1.0  0.0993
  H  H83  1  0.025900  0.692900  0.315200  1.0  0.1004
  H  H84  1  0.947800  0.674200  0.231800  1.0  0.1222
  H  H85  1  0.933500  0.502600  0.014500  1.0  0.1151
  H  H86  1  0.164500  0.678600  0.519900  1.0  0.1111
  H  H87  1  0.075500  0.678600  0.468100  1.0  0.1414
  H  H88  1  0.156100  0.573400  0.266700  1.0  0.1037
  W  W89  1  0.847080  0.167180  0.015670  1.0  1.3222
  W  W90  1  0.733050  0.077040  0.104930  1.0  2.4534
  W  W91  1  0.731070  0.169450  0.859360  1.0  2.4232
  W  W92  1  0.631820  0.157820  0.181440  1.0  1.3265
  W  W93  1  0.733800  0.158140  0.323710  1.0  2.4166
  W  W94  1  0.652920  0.832820  0.515670  1.0  1.3235
  W  W95  1  0.766950  0.922960  0.604930  1.0  2.4518
  W  W96  1  0.768930  0.830550  0.359360  1.0  2.4216
  W  W97  1  0.868180  0.842180  0.681440  1.0  1.3285
  W  W98  1  0.766200  0.841860  0.823710  1.0  2.4162
  W  W99  1  0.152920  0.667180  0.984330  1.0  1.3238
  W  W100  1  0.266950  0.577040  0.895070  1.0  2.4536
  W  W101  1  0.268930  0.669450  0.140640  1.0  2.4238
  W  W102  1  0.368180  0.657820  0.818560  1.0  1.3288
  W  W103  1  0.266200  0.658140  0.676290  1.0  2.4144
  W  W104  1  0.347080  0.332820  0.484330  1.0  1.3248
  W  W105  1  0.233050  0.422960  0.395070  1.0  2.4536
  W  W106  1  0.231070  0.330550  0.640640  1.0  2.4244
  W  W107  1  0.131820  0.342180  0.318560  1.0  1.3272
  W  W108  1  0.233800  0.341860  0.176290  1.0  2.4153
  W  W109  1  0.152920  0.832820  0.984330  1.0  1.324
  W  W110  1  0.266950  0.922960  0.895070  1.0  2.453
  W  W111  1  0.268930  0.830550  0.140640  1.0  2.4235
  W  W112  1  0.368180  0.842180  0.818560  1.0  1.329
  W  W113  1  0.266200  0.841860  0.676290  1.0  2.4147
  W  W114  1  0.347080  0.167180  0.484330  1.0  1.3234
  W  W115  1  0.233050  0.077040  0.395070  1.0  2.4541
  W  W116  1  0.231070  0.169450  0.640640  1.0  2.4246
  W  W117  1  0.131820  0.157820  0.318560  1.0  1.3266
  W  W118  1  0.233800  0.158140  0.176290  1.0  2.4153
  W  W119  1  0.847080  0.332820  0.015670  1.0  1.3246
  W  W120  1  0.733050  0.422960  0.104930  1.0  2.4524
  W  W121  1  0.731070  0.330550  0.859360  1.0  2.4227
  W  W122  1  0.631820  0.342180  0.181440  1.0  1.327
  W  W123  1  0.733800  0.341860  0.323710  1.0  2.4171
  W  W124  1  0.652920  0.667180  0.515670  1.0  1.3224
  W  W125  1  0.766950  0.577040  0.604930  1.0  2.4529
  W  W126  1  0.768930  0.669450  0.359360  1.0  2.4221
  W  W127  1  0.868180  0.657820  0.681440  1.0  1.3284
  W  W128  1  0.766200  0.658140  0.823710  1.0  2.416
  W  W129  1  0.847660  0.250000  0.239560  1.0  1.3419
  W  W130  1  0.631040  0.250000  0.934490  1.0  1.3245
  W  W131  1  0.652340  0.750000  0.739560  1.0  1.3403
  W  W132  1  0.868960  0.750000  0.434490  1.0  1.3222
  W  W133  1  0.152340  0.750000  0.760440  1.0  1.3409
  W  W134  1  0.368960  0.750000  0.065510  1.0  1.3218
  W  W135  1  0.347660  0.250000  0.260440  1.0  1.3431
  W  W136  1  0.131040  0.250000  0.565510  1.0  1.3247
  C  C137  1  0.638500  0.035500  0.523100  1.0  0.0109
  C  C138  1  0.534200  0.083400  0.681900  1.0  0.1751
  C  C139  1  0.452800  0.044400  0.738300  1.0  -0.1642
  C  C140  1  0.498000  0.033100  0.685400  1.0  -0.1657
  C  C141  1  0.445900  0.104100  0.787100  1.0  0.2036
  C  C142  1  0.625900  0.099900  0.653000  1.0  0.1558
  C  C143  1  0.480500  0.152200  0.784000  1.0  -0.181
  C  C144  1  0.527300  0.141700  0.731000  1.0  -0.1615
  C  C145  1  0.589900  0.030100  0.547000  1.0  -0.0737
  C  C146  1  0.348200  0.156800  0.962200  1.0  0.0481
  C  C147  1  0.398200  0.157200  0.934400  1.0  -0.1416
  C  C148  1  0.353000  0.098900  0.823600  1.0  0.1801
  C  C149  1  0.861500  0.964500  0.023100  1.0  0.0101
  C  C150  1  0.965800  0.916600  0.181900  1.0  0.1755
  C  C151  1  0.047200  0.955600  0.238300  1.0  -0.1644
  C  C152  1  0.002000  0.966900  0.185400  1.0  -0.1644
  C  C153  1  0.054100  0.895900  0.287100  1.0  0.2033
  C  C154  1  0.874100  0.900100  0.153000  1.0  0.155
  C  C155  1  0.019500  0.847800  0.284000  1.0  -0.181
  C  C156  1  0.972700  0.858300  0.231000  1.0  -0.1618
  C  C157  1  0.910100  0.969900  0.047000  1.0  -0.0727
  C  C158  1  0.151800  0.843200  0.462200  1.0  0.0484
  C  C159  1  0.101800  0.842800  0.434400  1.0  -0.1423
  C  C160  1  0.147000  0.901100  0.323600  1.0  0.1799
  C  C161  1  0.361500  0.535500  0.476900  1.0  0.0099
  C  C162  1  0.465800  0.583400  0.318100  1.0  0.1751
  C  C163  1  0.547200  0.544400  0.261700  1.0  -0.1652
  C  C164  1  0.502000  0.533100  0.314600  1.0  -0.1652
  C  C165  1  0.554100  0.604100  0.212900  1.0  0.2034
  C  C166  1  0.374100  0.599900  0.347000  1.0  0.1541
  C  C167  1  0.519500  0.652200  0.216000  1.0  -0.1811
  C  C168  1  0.472700  0.641700  0.269000  1.0  -0.162
  C  C169  1  0.410100  0.530100  0.453000  1.0  -0.0728
  C  C170  1  0.651800  0.656800  0.037800  1.0  0.048
  C  C171  1  0.601800  0.657200  0.065600  1.0  -0.141
  C  C172  1  0.647000  0.598900  0.176400  1.0  0.1809
  C  C173  1  0.138500  0.464500  0.976900  1.0  0.0112
  C  C174  1  0.034200  0.416600  0.818100  1.0  0.1747
  C  C175  1  0.952800  0.455600  0.761700  1.0  -0.166
  C  C176  1  0.998000  0.466900  0.814600  1.0  -0.1647
  C  C177  1  0.945900  0.395900  0.712900  1.0  0.2038
  C  C178  1  0.125900  0.400100  0.847000  1.0  0.1554
  C  C179  1  0.980500  0.347800  0.716000  1.0  -0.1809
  C  C180  1  0.027300  0.358300  0.769000  1.0  -0.162
  C  C181  1  0.089900  0.469900  0.953000  1.0  -0.0746
  C  C182  1  0.848200  0.343200  0.537800  1.0  0.0477
  C  C183  1  0.898200  0.342800  0.565600  1.0  -0.1412
  C  C184  1  0.853000  0.401100  0.676400  1.0  0.1806
  C  C185  1  0.361500  0.964500  0.476900  1.0  0.0099
  C  C186  1  0.465800  0.916600  0.318100  1.0  0.1751
  C  C187  1  0.547200  0.955600  0.261700  1.0  -0.165
  C  C188  1  0.502000  0.966900  0.314600  1.0  -0.1645
  C  C189  1  0.554100  0.895900  0.212900  1.0  0.2031
  C  C190  1  0.374100  0.900100  0.347000  1.0  0.1542
  C  C191  1  0.519500  0.847800  0.216000  1.0  -0.1812
  C  C192  1  0.472700  0.858300  0.269000  1.0  -0.1618
  C  C193  1  0.410100  0.969900  0.453000  1.0  -0.0734
  C  C194  1  0.651800  0.843200  0.037800  1.0  0.0479
  C  C195  1  0.601800  0.842800  0.065600  1.0  -0.1408
  C  C196  1  0.647000  0.901100  0.176400  1.0  0.1807
  C  C197  1  0.138500  0.035500  0.976900  1.0  0.0112
  C  C198  1  0.034200  0.083400  0.818100  1.0  0.1747
  C  C199  1  0.952800  0.044400  0.761700  1.0  -0.1646
  C  C200  1  0.998000  0.033100  0.814600  1.0  -0.1658
  C  C201  1  0.945900  0.104100  0.712900  1.0  0.2037
  C  C202  1  0.125900  0.099900  0.847000  1.0  0.1551
  C  C203  1  0.980500  0.152200  0.716000  1.0  -0.1808
  C  C204  1  0.027300  0.141700  0.769000  1.0  -0.1613
  C  C205  1  0.089900  0.030100  0.953000  1.0  -0.0738
  C  C206  1  0.848200  0.156800  0.537800  1.0  0.0477
  C  C207  1  0.898200  0.157200  0.565600  1.0  -0.1416
  C  C208  1  0.853000  0.098900  0.676400  1.0  0.1809
  C  C209  1  0.638500  0.464500  0.523100  1.0  0.0107
  C  C210  1  0.534200  0.416600  0.681900  1.0  0.175
  C  C211  1  0.452800  0.455600  0.738300  1.0  -0.1653
  C  C212  1  0.498000  0.466900  0.685400  1.0  -0.1646
  C  C213  1  0.445900  0.395900  0.787100  1.0  0.2038
  C  C214  1  0.625900  0.400100  0.653000  1.0  0.1564
  C  C215  1  0.480500  0.347800  0.784000  1.0  -0.1808
  C  C216  1  0.527300  0.358300  0.731000  1.0  -0.162
  C  C217  1  0.589900  0.469900  0.547000  1.0  -0.0737
  C  C218  1  0.348200  0.343200  0.962200  1.0  0.0478
  C  C219  1  0.398200  0.342800  0.934400  1.0  -0.1418
  C  C220  1  0.353000  0.401100  0.823600  1.0  0.18
  C  C221  1  0.861500  0.535500  0.023100  1.0  0.0103
  C  C222  1  0.965800  0.583400  0.181900  1.0  0.1754
  C  C223  1  0.047200  0.544400  0.238300  1.0  -0.1649
  C  C224  1  0.002000  0.533100  0.185400  1.0  -0.165
  C  C225  1  0.054100  0.604100  0.287100  1.0  0.2033
  C  C226  1  0.874100  0.599900  0.153000  1.0  0.1545
  C  C227  1  0.019500  0.652200  0.284000  1.0  -0.1812
  C  C228  1  0.972700  0.641700  0.231000  1.0  -0.1622
  C  C229  1  0.910100  0.530100  0.047000  1.0  -0.0728
  C  C230  1  0.151800  0.656800  0.462200  1.0  0.0488
  C  C231  1  0.101800  0.657200  0.434400  1.0  -0.1418
  C  C232  1  0.147000  0.598900  0.323600  1.0  0.1798
  N  N233  1  0.661600  0.081100  0.587600  1.0  -0.3834
  N  N234  1  0.580300  0.072400  0.628600  1.0  0.0296
  N  N235  1  0.401100  0.118600  0.844500  1.0  -0.0204
  N  N236  1  0.319800  0.120800  0.895700  1.0  -0.4064
  N  N237  1  0.838400  0.918900  0.087600  1.0  -0.3825
  N  N238  1  0.919700  0.927600  0.128600  1.0  0.0303
  N  N239  1  0.098900  0.881400  0.344500  1.0  -0.0218
  N  N240  1  0.180200  0.879200  0.395700  1.0  -0.4086
  N  N241  1  0.338400  0.581100  0.412400  1.0  -0.3829
  N  N242  1  0.419700  0.572400  0.371400  1.0  0.0305
  N  N243  1  0.598900  0.618600  0.155500  1.0  -0.0219
  N  N244  1  0.680200  0.620800  0.104300  1.0  -0.408
  N  N245  1  0.161600  0.418900  0.912400  1.0  -0.383
  N  N246  1  0.080300  0.427600  0.871400  1.0  0.0298
  N  N247  1  0.901100  0.381400  0.655500  1.0  -0.0206
  N  N248  1  0.819800  0.379200  0.604300  1.0  -0.4067
  N  N249  1  0.338400  0.918900  0.412400  1.0  -0.3827
  N  N250  1  0.419700  0.927600  0.371400  1.0  0.0306
  N  N251  1  0.598900  0.881400  0.155500  1.0  -0.0218
  N  N252  1  0.680200  0.879200  0.104300  1.0  -0.4086
  N  N253  1  0.161600  0.081100  0.912400  1.0  -0.3836
  N  N254  1  0.080300  0.072400  0.871400  1.0  0.0298
  N  N255  1  0.901100  0.118600  0.655500  1.0  -0.0204
  N  N256  1  0.819800  0.120800  0.604300  1.0  -0.4066
  N  N257  1  0.661600  0.418900  0.587600  1.0  -0.3831
  N  N258  1  0.580300  0.427600  0.628600  1.0  0.0296
  N  N259  1  0.401100  0.381400  0.844500  1.0  -0.0207
  N  N260  1  0.319800  0.379200  0.895700  1.0  -0.4067
  N  N261  1  0.838400  0.581100  0.087600  1.0  -0.3826
  N  N262  1  0.919700  0.572400  0.128600  1.0  0.0303
  N  N263  1  0.098900  0.618600  0.344500  1.0  -0.0218
  N  N264  1  0.180200  0.620800  0.395700  1.0  -0.4078
  O  O265  1  0.745700  0.074900  0.248300  1.0  -0.7064
  O  O266  1  0.800200  0.107500  0.084200  1.0  -0.7002
  O  O267  1  0.800500  0.315300  0.289000  1.0  -0.7029
  O  O268  1  0.662400  0.141500  0.314500  1.0  -0.7015
  O  O269  1  0.876100  0.182600  0.151100  1.0  -0.6737
  O  O270  1  0.659200  0.182100  0.845900  1.0  -0.7055
  O  O271  1  0.661700  0.075200  0.132900  1.0  -0.6822
  O  O272  1  0.714200  0.178300  0.161000  1.0  -0.9328
  O  O273  1  0.798900  0.172200  0.907400  1.0  -0.7144
  O  O274  1  0.743200  0.127800  0.445400  1.0  -0.7674
  O  O275  1  0.719600  0.108500  0.969300  1.0  -0.7379
  O  O276  1  0.623900  0.184800  0.040900  1.0  -0.6757
  O  O277  1  0.741500  0.992900  0.084500  1.0  -0.7697
  O  O278  1  0.737200  0.114800  0.755800  1.0  -0.7186
  O  O279  1  0.754300  0.925100  0.748300  1.0  -0.7055
  O  O280  1  0.699800  0.892500  0.584200  1.0  -0.7012
  O  O281  1  0.699500  0.684700  0.789000  1.0  -0.7046
  O  O282  1  0.837600  0.858500  0.814500  1.0  -0.7015
  O  O283  1  0.623900  0.817400  0.651100  1.0  -0.6705
  O  O284  1  0.840800  0.817900  0.345900  1.0  -0.7055
  O  O285  1  0.838300  0.924800  0.632900  1.0  -0.6805
  O  O286  1  0.785800  0.821700  0.661000  1.0  -0.9335
  O  O287  1  0.701100  0.827800  0.407400  1.0  -0.716
  O  O288  1  0.756800  0.872200  0.945400  1.0  -0.7672
  O  O289  1  0.780400  0.891500  0.469300  1.0  -0.737
  O  O290  1  0.876100  0.815200  0.540900  1.0  -0.6745
  O  O291  1  0.758500  0.007100  0.584500  1.0  -0.7684
  O  O292  1  0.762800  0.885200  0.255800  1.0  -0.7176
  O  O293  1  0.254300  0.574900  0.751700  1.0  -0.7059
  O  O294  1  0.199800  0.607500  0.915800  1.0  -0.7008
  O  O295  1  0.199500  0.815300  0.711000  1.0  -0.7044
  O  O296  1  0.337600  0.641500  0.685500  1.0  -0.7016
  O  O297  1  0.123900  0.682600  0.848900  1.0  -0.6712
  O  O298  1  0.340800  0.682100  0.154100  1.0  -0.7055
  O  O299  1  0.338300  0.575200  0.867100  1.0  -0.6801
  O  O300  1  0.285800  0.678300  0.839000  1.0  -0.9313
  O  O301  1  0.201100  0.672200  0.092600  1.0  -0.714
  O  O302  1  0.256800  0.627800  0.554600  1.0  -0.7663
  O  O303  1  0.280400  0.608500  0.030700  1.0  -0.7375
  O  O304  1  0.376100  0.684800  0.959100  1.0  -0.6744
  O  O305  1  0.258500  0.492900  0.915500  1.0  -0.7688
  O  O306  1  0.262800  0.614800  0.244200  1.0  -0.7186
  O  O307  1  0.245700  0.425100  0.251700  1.0  -0.7053
  O  O308  1  0.300200  0.392500  0.415800  1.0  -0.7002
  O  O309  1  0.300500  0.184700  0.211000  1.0  -0.7033
  O  O310  1  0.162400  0.358500  0.185500  1.0  -0.7002
  O  O311  1  0.376100  0.317400  0.348900  1.0  -0.6727
  O  O312  1  0.159200  0.317900  0.654100  1.0  -0.7051
  O  O313  1  0.161700  0.424800  0.367100  1.0  -0.6804
  O  O314  1  0.214200  0.321700  0.339000  1.0  -0.9326
  O  O315  1  0.298900  0.327800  0.592600  1.0  -0.7129
  O  O316  1  0.243200  0.372200  0.054600  1.0  -0.7667
  O  O317  1  0.219600  0.391500  0.530700  1.0  -0.7377
  O  O318  1  0.123900  0.315200  0.459100  1.0  -0.6762
  O  O319  1  0.241500  0.507100  0.415500  1.0  -0.7692
  O  O320  1  0.237200  0.385200  0.744200  1.0  -0.7177
  O  O321  1  0.254300  0.925100  0.751700  1.0  -0.7057
  O  O322  1  0.199800  0.892500  0.915800  1.0  -0.7007
  O  O323  1  0.199500  0.684700  0.711000  1.0  -0.7048
  O  O324  1  0.337600  0.858500  0.685500  1.0  -0.7015
  O  O325  1  0.123900  0.817400  0.848900  1.0  -0.6709
  O  O326  1  0.340800  0.817900  0.154100  1.0  -0.7054
  O  O327  1  0.338300  0.924800  0.867100  1.0  -0.6796
  O  O328  1  0.285800  0.821700  0.839000  1.0  -0.932
  O  O329  1  0.201100  0.827800  0.092600  1.0  -0.7139
  O  O330  1  0.256800  0.872200  0.554600  1.0  -0.7665
  O  O331  1  0.280400  0.891500  0.030700  1.0  -0.7369
  O  O332  1  0.376100  0.815200  0.959100  1.0  -0.6747
  O  O333  1  0.258500  0.007100  0.915500  1.0  -0.768
  O  O334  1  0.262800  0.885200  0.244200  1.0  -0.7177
  O  O335  1  0.245700  0.074900  0.251700  1.0  -0.7052
  O  O336  1  0.300200  0.107500  0.415800  1.0  -0.6997
  O  O337  1  0.300500  0.315300  0.211000  1.0  -0.703
  O  O338  1  0.162400  0.141500  0.185500  1.0  -0.7008
  O  O339  1  0.376100  0.182600  0.348900  1.0  -0.6726
  O  O340  1  0.159200  0.182100  0.654100  1.0  -0.7052
  O  O341  1  0.161700  0.075200  0.367100  1.0  -0.6812
  O  O342  1  0.214200  0.178300  0.339000  1.0  -0.9315
  O  O343  1  0.298900  0.172200  0.592600  1.0  -0.7127
  O  O344  1  0.243200  0.127800  0.054600  1.0  -0.7667
  O  O345  1  0.219600  0.108500  0.530700  1.0  -0.7372
  O  O346  1  0.123900  0.184800  0.459100  1.0  -0.6756
  O  O347  1  0.241500  0.992900  0.415500  1.0  -0.7691
  O  O348  1  0.237200  0.114800  0.744200  1.0  -0.7186
  O  O349  1  0.745700  0.425100  0.248300  1.0  -0.7051
  O  O350  1  0.800200  0.392500  0.084200  1.0  -0.7007
  O  O351  1  0.800500  0.184700  0.289000  1.0  -0.7033
  O  O352  1  0.662400  0.358500  0.314500  1.0  -0.701
  O  O353  1  0.876100  0.317400  0.151100  1.0  -0.6734
  O  O354  1  0.659200  0.317900  0.845900  1.0  -0.7053
  O  O355  1  0.661700  0.424800  0.132900  1.0  -0.6812
  O  O356  1  0.714200  0.321700  0.161000  1.0  -0.9341
  O  O357  1  0.798900  0.327800  0.907400  1.0  -0.7146
  O  O358  1  0.743200  0.372200  0.445400  1.0  -0.7674
  O  O359  1  0.719600  0.391500  0.969300  1.0  -0.7388
  O  O360  1  0.623900  0.315200  0.040900  1.0  -0.6763
  O  O361  1  0.741500  0.507100  0.084500  1.0  -0.7689
  O  O362  1  0.737200  0.385200  0.755800  1.0  -0.7177
  O  O363  1  0.754300  0.574900  0.748300  1.0  -0.707
  O  O364  1  0.699800  0.607500  0.584200  1.0  -0.7012
  O  O365  1  0.699500  0.815300  0.789000  1.0  -0.704
  O  O366  1  0.837600  0.641500  0.814500  1.0  -0.7017
  O  O367  1  0.623900  0.682600  0.651100  1.0  -0.6712
  O  O368  1  0.840800  0.682100  0.345900  1.0  -0.7057
  O  O369  1  0.838300  0.575200  0.632900  1.0  -0.681
  O  O370  1  0.785800  0.678300  0.661000  1.0  -0.9325
  O  O371  1  0.701100  0.672200  0.407400  1.0  -0.7161
  O  O372  1  0.756800  0.627800  0.945400  1.0  -0.7672
  O  O373  1  0.780400  0.608500  0.469300  1.0  -0.7375
  O  O374  1  0.876100  0.684800  0.540900  1.0  -0.6742
  O  O375  1  0.758500  0.492900  0.584500  1.0  -0.7683
  O  O376  1  0.762800  0.614800  0.255800  1.0  -0.7185
  O  O377  1  0.877300  0.250000  0.973100  1.0  -0.6366
  O  O378  1  0.721400  0.250000  0.349300  1.0  -0.748
  O  O379  1  0.801700  0.250000  0.089100  1.0  -0.9954
  O  O380  1  0.713800  0.250000  0.964800  1.0  -0.8665
  O  O381  1  0.743700  0.250000  0.779100  1.0  -0.6804
  O  O382  1  0.625100  0.250000  0.213900  1.0  -0.6839
  O  O383  1  0.622700  0.750000  0.473100  1.0  -0.6376
  O  O384  1  0.778600  0.750000  0.849300  1.0  -0.7467
  O  O385  1  0.698300  0.750000  0.589100  1.0  -0.9962
  O  O386  1  0.786200  0.750000  0.464800  1.0  -0.866
  O  O387  1  0.756300  0.750000  0.279100  1.0  -0.6805
  O  O388  1  0.874900  0.750000  0.713900  1.0  -0.6846
  O  O389  1  0.122700  0.750000  0.026900  1.0  -0.6363
  O  O390  1  0.278600  0.750000  0.650700  1.0  -0.7495
  O  O391  1  0.198300  0.750000  0.910900  1.0  -0.9965
  O  O392  1  0.286200  0.750000  0.035200  1.0  -0.8674
  O  O393  1  0.256300  0.750000  0.220900  1.0  -0.6819
  O  O394  1  0.374900  0.750000  0.786100  1.0  -0.6834
  O  O395  1  0.377300  0.250000  0.526900  1.0  -0.6356
  O  O396  1  0.221400  0.250000  0.150700  1.0  -0.7501
  O  O397  1  0.301700  0.250000  0.410900  1.0  -0.9956
  O  O398  1  0.213800  0.250000  0.535200  1.0  -0.868
  O  O399  1  0.243700  0.250000  0.720900  1.0  -0.6821
  O  O400  1  0.125100  0.250000  0.286100  1.0  -0.6846
