# generated using pymatgen
data_Co2GeH20W12C24(N4O17)2
_symmetry_space_group_name_H-M   'P 1'
_cell_length_a   26.86350000
_cell_length_b   20.06270000
_cell_length_c   13.11070000
_cell_angle_alpha   90.00000000
_cell_angle_beta   90.00000000
_cell_angle_gamma   90.00000000
_symmetry_Int_Tables_number   1
_chemical_formula_structural   Co2GeH20W12C24(N4O17)2
_chemical_formula_sum   'Co8 Ge4 H80 W48 C96 N32 O136'
_cell_volume   7066.06868445
_cell_formula_units_Z   4
loop_
 _symmetry_equiv_pos_site_id
 _symmetry_equiv_pos_as_xyz
  1  'x, y, z'
loop_
 _atom_site_type_symbol
 _atom_site_label
 _atom_site_symmetry_multiplicity
 _atom_site_fract_x
 _atom_site_fract_y
 _atom_site_fract_z
 _atom_site_occupancy
 _atom_site_charge
  Co  Co1  1  0.258680  0.109720  0.613500  1.0  0.9458
  Co  Co2  1  0.241320  0.890280  0.113500  1.0  0.9462
  Co  Co3  1  0.741320  0.609720  0.386500  1.0  0.9463
  Co  Co4  1  0.758680  0.390280  0.886500  1.0  0.9459
  Co  Co5  1  0.741320  0.890280  0.386500  1.0  0.9465
  Co  Co6  1  0.758680  0.109720  0.886500  1.0  0.9458
  Co  Co7  1  0.258680  0.390280  0.613500  1.0  0.9457
  Co  Co8  1  0.241320  0.609720  0.113500  1.0  0.9463
  Ge  Ge9  1  0.264130  0.250000  0.111950  1.0  1.4177
  Ge  Ge10  1  0.235870  0.750000  0.611950  1.0  1.4179
  Ge  Ge11  1  0.735870  0.750000  0.888050  1.0  1.418
  Ge  Ge12  1  0.764130  0.250000  0.388050  1.0  1.4178
  H  H13  1  0.368000  0.125600  0.731100  1.0  0.087
  H  H14  1  0.446700  0.169600  0.750700  1.0  0.0982
  H  H15  1  0.431200  0.006200  0.528000  1.0  0.0951
  H  H16  1  0.343000  0.011700  0.493800  1.0  0.0842
  H  H17  1  0.497000  0.996400  0.660100  1.0  0.1083
  H  H18  1  0.652600  0.077500  0.758100  1.0  0.082
  H  H19  1  0.667500  0.175100  0.020200  1.0  0.0862
  H  H20  1  0.574200  0.019700  0.730500  1.0  0.1092
  H  H21  1  0.520300  0.188100  0.836400  1.0  0.0804
  H  H22  1  0.579300  0.174700  0.978300  1.0  0.1132
  H  H23  1  0.132000  0.874400  0.231100  1.0  0.088
  H  H24  1  0.053300  0.830400  0.250700  1.0  0.0979
  H  H25  1  0.068800  0.993800  0.028000  1.0  0.0953
  H  H26  1  0.157000  0.988300  0.993800  1.0  0.0845
  H  H27  1  0.003000  0.003600  0.160100  1.0  0.1085
  H  H28  1  0.847400  0.922500  0.258100  1.0  0.0817
  H  H29  1  0.832500  0.824900  0.520200  1.0  0.0865
  H  H30  1  0.925800  0.980300  0.230500  1.0  0.1094
  H  H31  1  0.979700  0.811900  0.336400  1.0  0.0806
  H  H32  1  0.920700  0.825300  0.478300  1.0  0.1132
  H  H33  1  0.632000  0.625600  0.268900  1.0  0.0876
  H  H34  1  0.553300  0.669600  0.249300  1.0  0.0982
  H  H35  1  0.568800  0.506200  0.472000  1.0  0.0951
  H  H36  1  0.657000  0.511700  0.506200  1.0  0.0852
  H  H37  1  0.503000  0.496400  0.339900  1.0  0.1082
  H  H38  1  0.347400  0.577500  0.241900  1.0  0.0824
  H  H39  1  0.332500  0.675100  0.979800  1.0  0.0855
  H  H40  1  0.425800  0.519700  0.269500  1.0  0.1089
  H  H41  1  0.479700  0.688100  0.163600  1.0  0.0805
  H  H42  1  0.420700  0.674700  0.021700  1.0  0.1124
  H  H43  1  0.868000  0.374400  0.768900  1.0  0.0877
  H  H44  1  0.946700  0.330400  0.749300  1.0  0.0975
  H  H45  1  0.931200  0.493800  0.972000  1.0  0.0945
  H  H46  1  0.843000  0.488300  0.006200  1.0  0.0848
  H  H47  1  0.997000  0.503600  0.839900  1.0  0.1085
  H  H48  1  0.152600  0.422500  0.741900  1.0  0.0827
  H  H49  1  0.167500  0.324900  0.479800  1.0  0.086
  H  H50  1  0.074200  0.480300  0.769500  1.0  0.1092
  H  H51  1  0.020300  0.311900  0.663600  1.0  0.0806
  H  H52  1  0.079300  0.325300  0.521700  1.0  0.1127
  H  H53  1  0.632000  0.874400  0.268900  1.0  0.088
  H  H54  1  0.553300  0.830400  0.249300  1.0  0.0979
  H  H55  1  0.568800  0.993800  0.472000  1.0  0.0948
  H  H56  1  0.657000  0.988300  0.506200  1.0  0.0849
  H  H57  1  0.503000  0.003600  0.339900  1.0  0.1084
  H  H58  1  0.347400  0.922500  0.241900  1.0  0.0823
  H  H59  1  0.332500  0.824900  0.979800  1.0  0.0861
  H  H60  1  0.425800  0.980300  0.269500  1.0  0.1094
  H  H61  1  0.479700  0.811900  0.163600  1.0  0.0806
  H  H62  1  0.420700  0.825300  0.021700  1.0  0.1125
  H  H63  1  0.868000  0.125600  0.768900  1.0  0.0872
  H  H64  1  0.946700  0.169600  0.749300  1.0  0.0981
  H  H65  1  0.931200  0.006200  0.972000  1.0  0.0949
  H  H66  1  0.843000  0.011700  0.006200  1.0  0.0849
  H  H67  1  0.997000  0.996400  0.839900  1.0  0.1083
  H  H68  1  0.152600  0.077500  0.741900  1.0  0.0829
  H  H69  1  0.167500  0.175100  0.479800  1.0  0.0856
  H  H70  1  0.074200  0.019700  0.769500  1.0  0.1092
  H  H71  1  0.020300  0.188100  0.663600  1.0  0.0806
  H  H72  1  0.079300  0.174700  0.521700  1.0  0.1126
  H  H73  1  0.368000  0.374400  0.731100  1.0  0.0877
  H  H74  1  0.446700  0.330400  0.750700  1.0  0.0976
  H  H75  1  0.431200  0.493800  0.528000  1.0  0.0951
  H  H76  1  0.343000  0.488300  0.493800  1.0  0.0844
  H  H77  1  0.497000  0.503600  0.660100  1.0  0.1088
  H  H78  1  0.652600  0.422500  0.758100  1.0  0.0819
  H  H79  1  0.667500  0.324900  0.020200  1.0  0.0866
  H  H80  1  0.574200  0.480300  0.730500  1.0  0.1093
  H  H81  1  0.520300  0.311900  0.836400  1.0  0.0806
  H  H82  1  0.579300  0.325300  0.978300  1.0  0.1133
  H  H83  1  0.132000  0.625600  0.231100  1.0  0.0875
  H  H84  1  0.053300  0.669600  0.250700  1.0  0.0983
  H  H85  1  0.068800  0.506200  0.028000  1.0  0.0952
  H  H86  1  0.157000  0.511700  0.993800  1.0  0.0845
  H  H87  1  0.003000  0.496400  0.160100  1.0  0.1081
  H  H88  1  0.847400  0.577500  0.258100  1.0  0.0817
  H  H89  1  0.832500  0.675100  0.520200  1.0  0.0863
  H  H90  1  0.925800  0.519700  0.230500  1.0  0.1089
  H  H91  1  0.979700  0.688100  0.336400  1.0  0.0802
  H  H92  1  0.920700  0.674700  0.478300  1.0  0.113
  W  W93  1  0.266750  0.166990  0.876310  1.0  2.476
  W  W94  1  0.267030  0.074660  0.120060  1.0  2.2602
  W  W95  1  0.268190  0.157990  0.339970  1.0  2.4064
  W  W96  1  0.369290  0.157590  0.191550  1.0  1.334
  W  W97  1  0.154420  0.166490  0.038390  1.0  1.3218
  W  W98  1  0.233250  0.833010  0.376310  1.0  2.4755
  W  W99  1  0.232970  0.925340  0.620060  1.0  2.2612
  W  W100  1  0.231810  0.842010  0.839970  1.0  2.4049
  W  W101  1  0.130710  0.842410  0.691550  1.0  1.3351
  W  W102  1  0.345580  0.833510  0.538390  1.0  1.327
  W  W103  1  0.733250  0.666990  0.123690  1.0  2.478
  W  W104  1  0.732970  0.574660  0.879940  1.0  2.2617
  W  W105  1  0.731810  0.657990  0.660030  1.0  2.406
  W  W106  1  0.630710  0.657590  0.808450  1.0  1.334
  W  W107  1  0.845580  0.666490  0.961610  1.0  1.324
  W  W108  1  0.766750  0.333010  0.623690  1.0  2.4767
  W  W109  1  0.767030  0.425340  0.379940  1.0  2.2615
  W  W110  1  0.768190  0.342010  0.160030  1.0  2.4061
  W  W111  1  0.869290  0.342410  0.308450  1.0  1.336
  W  W112  1  0.654420  0.333510  0.461610  1.0  1.3252
  W  W113  1  0.733250  0.833010  0.123690  1.0  2.4766
  W  W114  1  0.732970  0.925340  0.879940  1.0  2.2621
  W  W115  1  0.731810  0.842010  0.660030  1.0  2.4057
  W  W116  1  0.630710  0.842410  0.808450  1.0  1.3352
  W  W117  1  0.845580  0.833510  0.961610  1.0  1.327
  W  W118  1  0.766750  0.166990  0.623690  1.0  2.4777
  W  W119  1  0.767030  0.074660  0.379940  1.0  2.2611
  W  W120  1  0.768190  0.157990  0.160030  1.0  2.4066
  W  W121  1  0.869290  0.157590  0.308450  1.0  1.3341
  W  W122  1  0.654420  0.166490  0.461610  1.0  1.3239
  W  W123  1  0.266750  0.333010  0.876310  1.0  2.4752
  W  W124  1  0.267030  0.425340  0.120060  1.0  2.2606
  W  W125  1  0.268190  0.342010  0.339970  1.0  2.4062
  W  W126  1  0.369290  0.342410  0.191550  1.0  1.3354
  W  W127  1  0.154420  0.333510  0.038390  1.0  1.3248
  W  W128  1  0.233250  0.666990  0.376310  1.0  2.4766
  W  W129  1  0.232970  0.574660  0.620060  1.0  2.2607
  W  W130  1  0.231810  0.657990  0.839970  1.0  2.4053
  W  W131  1  0.130710  0.657590  0.691550  1.0  1.3341
  W  W132  1  0.345580  0.666490  0.538390  1.0  1.3225
  W  W133  1  0.155140  0.250000  0.259690  1.0  1.2761
  W  W134  1  0.368510  0.250000  0.947820  1.0  1.2775
  W  W135  1  0.344860  0.750000  0.759690  1.0  1.2781
  W  W136  1  0.131490  0.750000  0.447820  1.0  1.277
  W  W137  1  0.844860  0.750000  0.740310  1.0  1.2787
  W  W138  1  0.631490  0.750000  0.052180  1.0  1.2758
  W  W139  1  0.655140  0.250000  0.240310  1.0  1.2757
  W  W140  1  0.868510  0.250000  0.552180  1.0  1.2764
  C  C141  1  0.372700  0.098400  0.674000  1.0  0.1893
  C  C142  1  0.465700  0.082500  0.700000  1.0  0.1257
  C  C143  1  0.471900  0.137800  0.749000  1.0  -0.2011
  C  C144  1  0.408100  0.031300  0.564000  1.0  -0.1038
  C  C145  1  0.359400  0.035700  0.544000  1.0  -0.0063
  C  C146  1  0.502400  0.036500  0.694000  1.0  -0.156
  C  C147  1  0.645300  0.101600  0.817000  1.0  0.1641
  C  C148  1  0.653500  0.156200  0.962000  1.0  0.0039
  C  C149  1  0.547900  0.049300  0.739000  1.0  -0.1759
  C  C150  1  0.554000  0.105400  0.795000  1.0  0.133
  C  C151  1  0.516300  0.149200  0.799000  1.0  -0.1402
  C  C152  1  0.604700  0.155500  0.940300  1.0  -0.1135
  C  C153  1  0.127300  0.901600  0.174000  1.0  0.1902
  C  C154  1  0.034300  0.917500  0.200000  1.0  0.1255
  C  C155  1  0.028100  0.862200  0.249000  1.0  -0.1976
  C  C156  1  0.091900  0.968700  0.064000  1.0  -0.1058
  C  C157  1  0.140600  0.964300  0.044000  1.0  -0.0061
  C  C158  1  0.997600  0.963500  0.194000  1.0  -0.1556
  C  C159  1  0.854700  0.898400  0.317000  1.0  0.1641
  C  C160  1  0.846500  0.843800  0.462000  1.0  0.0021
  C  C161  1  0.952100  0.950700  0.239000  1.0  -0.1759
  C  C162  1  0.946000  0.894600  0.295000  1.0  0.1334
  C  C163  1  0.983700  0.850800  0.299000  1.0  -0.1397
  C  C164  1  0.895300  0.844500  0.440300  1.0  -0.1125
  C  C165  1  0.627300  0.598400  0.326000  1.0  0.1899
  C  C166  1  0.534300  0.582500  0.300000  1.0  0.1254
  C  C167  1  0.528100  0.637800  0.251000  1.0  -0.1988
  C  C168  1  0.591900  0.531300  0.436000  1.0  -0.1039
  C  C169  1  0.640600  0.535700  0.456000  1.0  -0.006
  C  C170  1  0.497600  0.536500  0.306000  1.0  -0.1564
  C  C171  1  0.354700  0.601600  0.183000  1.0  0.1633
  C  C172  1  0.346500  0.656200  0.038000  1.0  0.002
  C  C173  1  0.452100  0.549300  0.261000  1.0  -0.1762
  C  C174  1  0.446000  0.605400  0.205000  1.0  0.1338
  C  C175  1  0.483700  0.649200  0.201000  1.0  -0.1412
  C  C176  1  0.395300  0.655500  0.059700  1.0  -0.1117
  C  C177  1  0.872700  0.401600  0.826000  1.0  0.1904
  C  C178  1  0.965700  0.417500  0.800000  1.0  0.1243
  C  C179  1  0.971900  0.362200  0.751000  1.0  -0.1989
  C  C180  1  0.908100  0.468700  0.936000  1.0  -0.1023
  C  C181  1  0.859400  0.464300  0.956000  1.0  -0.0071
  C  C182  1  0.002400  0.463500  0.806000  1.0  -0.1561
  C  C183  1  0.145300  0.398400  0.683000  1.0  0.1637
  C  C184  1  0.153500  0.343800  0.538000  1.0  0.0029
  C  C185  1  0.047900  0.450700  0.761000  1.0  -0.1764
  C  C186  1  0.054000  0.394600  0.705000  1.0  0.1348
  C  C187  1  0.016300  0.350800  0.701000  1.0  -0.1392
  C  C188  1  0.104700  0.344500  0.559700  1.0  -0.1121
  C  C189  1  0.627300  0.901600  0.326000  1.0  0.19
  C  C190  1  0.534300  0.917500  0.300000  1.0  0.1247
  C  C191  1  0.528100  0.862200  0.251000  1.0  -0.1975
  C  C192  1  0.591900  0.968700  0.436000  1.0  -0.1048
  C  C193  1  0.640600  0.964300  0.456000  1.0  -0.006
  C  C194  1  0.497600  0.963500  0.306000  1.0  -0.1555
  C  C195  1  0.354700  0.898400  0.183000  1.0  0.1633
  C  C196  1  0.346500  0.843800  0.038000  1.0  0.0021
  C  C197  1  0.452100  0.950700  0.261000  1.0  -0.1763
  C  C198  1  0.446000  0.894600  0.205000  1.0  0.1343
  C  C199  1  0.483700  0.850800  0.201000  1.0  -0.1398
  C  C200  1  0.395300  0.844500  0.059700  1.0  -0.1118
  C  C201  1  0.872700  0.098400  0.826000  1.0  0.1897
  C  C202  1  0.965700  0.082500  0.800000  1.0  0.1249
  C  C203  1  0.971900  0.137800  0.751000  1.0  -0.2006
  C  C204  1  0.908100  0.031300  0.936000  1.0  -0.1019
  C  C205  1  0.859400  0.035700  0.956000  1.0  -0.0073
  C  C206  1  0.002400  0.036500  0.806000  1.0  -0.1564
  C  C207  1  0.145300  0.101600  0.683000  1.0  0.164
  C  C208  1  0.153500  0.156200  0.538000  1.0  0.0029
  C  C209  1  0.047900  0.049300  0.761000  1.0  -0.1763
  C  C210  1  0.054000  0.105400  0.705000  1.0  0.1345
  C  C211  1  0.016300  0.149200  0.701000  1.0  -0.1404
  C  C212  1  0.104700  0.155500  0.559700  1.0  -0.1118
  C  C213  1  0.372700  0.401600  0.674000  1.0  0.19
  C  C214  1  0.465700  0.417500  0.700000  1.0  0.1251
  C  C215  1  0.471900  0.362200  0.749000  1.0  -0.1992
  C  C216  1  0.408100  0.468700  0.564000  1.0  -0.104
  C  C217  1  0.359400  0.464300  0.544000  1.0  -0.0066
  C  C218  1  0.502400  0.463500  0.694000  1.0  -0.156
  C  C219  1  0.645300  0.398400  0.817000  1.0  0.164
  C  C220  1  0.653500  0.343800  0.962000  1.0  0.0035
  C  C221  1  0.547900  0.450700  0.739000  1.0  -0.1759
  C  C222  1  0.554000  0.394600  0.795000  1.0  0.1335
  C  C223  1  0.516300  0.350800  0.799000  1.0  -0.1391
  C  C224  1  0.604700  0.344500  0.940300  1.0  -0.114
  C  C225  1  0.127300  0.598400  0.174000  1.0  0.1899
  C  C226  1  0.034300  0.582500  0.200000  1.0  0.1262
  C  C227  1  0.028100  0.637800  0.249000  1.0  -0.1991
  C  C228  1  0.091900  0.531300  0.064000  1.0  -0.1053
  C  C229  1  0.140600  0.535700  0.044000  1.0  -0.0057
  C  C230  1  0.997600  0.536500  0.194000  1.0  -0.1561
  C  C231  1  0.854700  0.601600  0.317000  1.0  0.1638
  C  C232  1  0.846500  0.656200  0.462000  1.0  0.0024
  C  C233  1  0.952100  0.549300  0.239000  1.0  -0.1759
  C  C234  1  0.946000  0.605400  0.295000  1.0  0.1328
  C  C235  1  0.983700  0.649200  0.299000  1.0  -0.141
  C  C236  1  0.895300  0.655500  0.440300  1.0  -0.1123
  N  N237  1  0.336300  0.082000  0.610600  1.0  -0.4232
  N  N238  1  0.680400  0.124000  0.884500  1.0  -0.4068
  N  N239  1  0.418200  0.070900  0.648400  1.0  -0.119
  N  N240  1  0.599600  0.118800  0.845300  1.0  -0.0041
  N  N241  1  0.163700  0.918000  0.110600  1.0  -0.4229
  N  N242  1  0.819600  0.876000  0.384500  1.0  -0.4059
  N  N243  1  0.081800  0.929100  0.148400  1.0  -0.119
  N  N244  1  0.900400  0.881200  0.345300  1.0  -0.0043
  N  N245  1  0.663700  0.582000  0.389400  1.0  -0.4238
  N  N246  1  0.319600  0.624000  0.115500  1.0  -0.4058
  N  N247  1  0.581800  0.570900  0.351600  1.0  -0.1193
  N  N248  1  0.400400  0.618800  0.154700  1.0  -0.0037
  N  N249  1  0.836300  0.418000  0.889400  1.0  -0.4237
  N  N250  1  0.180400  0.376000  0.615500  1.0  -0.4067
  N  N251  1  0.918200  0.429100  0.851600  1.0  -0.1192
  N  N252  1  0.099600  0.381200  0.654700  1.0  -0.0039
  N  N253  1  0.663700  0.918000  0.389400  1.0  -0.423
  N  N254  1  0.319600  0.876000  0.115500  1.0  -0.4059
  N  N255  1  0.581800  0.929100  0.351600  1.0  -0.1193
  N  N256  1  0.400400  0.881200  0.154700  1.0  -0.0039
  N  N257  1  0.836300  0.082000  0.889400  1.0  -0.4234
  N  N258  1  0.180400  0.124000  0.615500  1.0  -0.4067
  N  N259  1  0.918200  0.070900  0.851600  1.0  -0.1192
  N  N260  1  0.099600  0.118800  0.654700  1.0  -0.0037
  N  N261  1  0.336300  0.418000  0.610600  1.0  -0.4234
  N  N262  1  0.680400  0.376000  0.884500  1.0  -0.4069
  N  N263  1  0.418200  0.429100  0.648400  1.0  -0.119
  N  N264  1  0.599600  0.381200  0.845300  1.0  -0.0041
  N  N265  1  0.163700  0.582000  0.110600  1.0  -0.4237
  N  N266  1  0.819600  0.624000  0.384500  1.0  -0.4059
  N  N267  1  0.081800  0.570900  0.148400  1.0  -0.1191
  N  N268  1  0.900400  0.618800  0.345300  1.0  -0.0042
  O  O269  1  0.375300  0.184500  0.053600  1.0  -0.7077
  O  O270  1  0.201200  0.107400  0.103100  1.0  -0.7264
  O  O271  1  0.279100  0.108300  0.986300  1.0  -0.7257
  O  O272  1  0.336900  0.075900  0.145700  1.0  -0.694
  O  O273  1  0.259200  0.991900  0.102500  1.0  -0.7977
  O  O274  1  0.260100  0.127200  0.460100  1.0  -0.8122
  O  O275  1  0.338600  0.144200  0.324300  1.0  -0.7164
  O  O276  1  0.259700  0.113900  0.774300  1.0  -0.749
  O  O277  1  0.337600  0.182900  0.864500  1.0  -0.7272
  O  O278  1  0.257500  0.076200  0.264200  1.0  -0.7177
  O  O279  1  0.203100  0.185700  0.306600  1.0  -0.6745
  O  O280  1  0.286000  0.180100  0.174100  1.0  -0.8075
  O  O281  1  0.201300  0.171600  0.931700  1.0  -0.7028
  O  O282  1  0.127100  0.182000  0.173100  1.0  -0.7121
  O  O283  1  0.124700  0.815500  0.553600  1.0  -0.711
  O  O284  1  0.298800  0.892600  0.603100  1.0  -0.724
  O  O285  1  0.220900  0.891700  0.486300  1.0  -0.7261
  O  O286  1  0.163100  0.924100  0.645700  1.0  -0.6921
  O  O287  1  0.240800  0.008100  0.602500  1.0  -0.7969
  O  O288  1  0.239900  0.872800  0.960100  1.0  -0.8123
  O  O289  1  0.161400  0.855800  0.824300  1.0  -0.7158
  O  O290  1  0.240300  0.886100  0.274300  1.0  -0.7493
  O  O291  1  0.162400  0.817100  0.364500  1.0  -0.7272
  O  O292  1  0.242500  0.923800  0.764200  1.0  -0.7146
  O  O293  1  0.296900  0.814300  0.806600  1.0  -0.6748
  O  O294  1  0.214000  0.819900  0.674100  1.0  -0.8055
  O  O295  1  0.298700  0.828400  0.431700  1.0  -0.6992
  O  O296  1  0.372900  0.818000  0.673100  1.0  -0.713
  O  O297  1  0.624700  0.684500  0.946400  1.0  -0.7104
  O  O298  1  0.798800  0.607400  0.896900  1.0  -0.7233
  O  O299  1  0.720900  0.608300  0.013700  1.0  -0.7261
  O  O300  1  0.663100  0.575900  0.854300  1.0  -0.6925
  O  O301  1  0.740800  0.491900  0.897500  1.0  -0.7976
  O  O302  1  0.739900  0.627200  0.539900  1.0  -0.812
  O  O303  1  0.661400  0.644200  0.675700  1.0  -0.7165
  O  O304  1  0.740300  0.613900  0.225700  1.0  -0.7488
  O  O305  1  0.662400  0.682900  0.135500  1.0  -0.726
  O  O306  1  0.742500  0.576200  0.735800  1.0  -0.7154
  O  O307  1  0.796900  0.685700  0.693400  1.0  -0.6752
  O  O308  1  0.714000  0.680100  0.825900  1.0  -0.8061
  O  O309  1  0.798700  0.671600  0.068300  1.0  -0.6988
  O  O310  1  0.872900  0.682000  0.826900  1.0  -0.7127
  O  O311  1  0.875300  0.315500  0.446400  1.0  -0.7067
  O  O312  1  0.701200  0.392600  0.396900  1.0  -0.7266
  O  O313  1  0.779100  0.391700  0.513700  1.0  -0.7245
  O  O314  1  0.836900  0.424100  0.354300  1.0  -0.6943
  O  O315  1  0.759200  0.508100  0.397500  1.0  -0.7966
  O  O316  1  0.760100  0.372800  0.039900  1.0  -0.8115
  O  O317  1  0.838600  0.355800  0.175700  1.0  -0.7162
  O  O318  1  0.759700  0.386100  0.725700  1.0  -0.7487
  O  O319  1  0.837600  0.317100  0.635500  1.0  -0.7258
  O  O320  1  0.757500  0.423800  0.235800  1.0  -0.7161
  O  O321  1  0.703100  0.314300  0.193400  1.0  -0.6751
  O  O322  1  0.786000  0.319900  0.325900  1.0  -0.8064
  O  O323  1  0.701300  0.328400  0.568300  1.0  -0.7007
  O  O324  1  0.627100  0.318000  0.326900  1.0  -0.7128
  O  O325  1  0.624700  0.815500  0.946400  1.0  -0.7104
  O  O326  1  0.798800  0.892600  0.896900  1.0  -0.7234
  O  O327  1  0.720900  0.891700  0.013700  1.0  -0.7252
  O  O328  1  0.663100  0.924100  0.854300  1.0  -0.6919
  O  O329  1  0.740800  0.008100  0.897500  1.0  -0.7968
  O  O330  1  0.739900  0.872800  0.539900  1.0  -0.8119
  O  O331  1  0.661400  0.855800  0.675700  1.0  -0.7167
  O  O332  1  0.740300  0.886100  0.225700  1.0  -0.749
  O  O333  1  0.662400  0.817100  0.135500  1.0  -0.7262
  O  O334  1  0.742500  0.923800  0.735800  1.0  -0.7154
  O  O335  1  0.796900  0.814300  0.693400  1.0  -0.6746
  O  O336  1  0.714000  0.819900  0.825900  1.0  -0.8052
  O  O337  1  0.798700  0.828400  0.068300  1.0  -0.6986
  O  O338  1  0.872900  0.818000  0.826900  1.0  -0.7133
  O  O339  1  0.875300  0.184500  0.446400  1.0  -0.7075
  O  O340  1  0.701200  0.107400  0.396900  1.0  -0.7263
  O  O341  1  0.779100  0.108300  0.513700  1.0  -0.727
  O  O342  1  0.836900  0.075900  0.354300  1.0  -0.6942
  O  O343  1  0.759200  0.991900  0.397500  1.0  -0.7974
  O  O344  1  0.760100  0.127200  0.039900  1.0  -0.8116
  O  O345  1  0.838600  0.144200  0.175700  1.0  -0.7163
  O  O346  1  0.759700  0.113900  0.725700  1.0  -0.7486
  O  O347  1  0.837600  0.182900  0.635500  1.0  -0.726
  O  O348  1  0.757500  0.076200  0.235800  1.0  -0.7165
  O  O349  1  0.703100  0.185700  0.193400  1.0  -0.6739
  O  O350  1  0.786000  0.180100  0.325900  1.0  -0.8072
  O  O351  1  0.701300  0.171600  0.568300  1.0  -0.7013
  O  O352  1  0.627100  0.182000  0.326900  1.0  -0.713
  O  O353  1  0.375300  0.315500  0.053600  1.0  -0.7069
  O  O354  1  0.201200  0.392600  0.103100  1.0  -0.7266
  O  O355  1  0.279100  0.391700  0.986300  1.0  -0.7252
  O  O356  1  0.336900  0.424100  0.145700  1.0  -0.6942
  O  O357  1  0.259200  0.508100  0.102500  1.0  -0.7967
  O  O358  1  0.260100  0.372800  0.460100  1.0  -0.8121
  O  O359  1  0.338600  0.355800  0.324300  1.0  -0.7164
  O  O360  1  0.259700  0.386100  0.774300  1.0  -0.7491
  O  O361  1  0.337600  0.317100  0.864500  1.0  -0.7271
  O  O362  1  0.257500  0.423800  0.264200  1.0  -0.7154
  O  O363  1  0.203100  0.314300  0.306600  1.0  -0.6735
  O  O364  1  0.286000  0.319900  0.174100  1.0  -0.8068
  O  O365  1  0.201300  0.328400  0.931700  1.0  -0.7022
  O  O366  1  0.127100  0.318000  0.173100  1.0  -0.7124
  O  O367  1  0.124700  0.684500  0.553600  1.0  -0.7111
  O  O368  1  0.298800  0.607400  0.603100  1.0  -0.7238
  O  O369  1  0.220900  0.608300  0.486300  1.0  -0.7249
  O  O370  1  0.163100  0.575900  0.645700  1.0  -0.6925
  O  O371  1  0.240800  0.491900  0.602500  1.0  -0.7978
  O  O372  1  0.239900  0.627200  0.960100  1.0  -0.8124
  O  O373  1  0.161400  0.644200  0.824300  1.0  -0.7155
  O  O374  1  0.240300  0.613900  0.274300  1.0  -0.7492
  O  O375  1  0.162400  0.682900  0.364500  1.0  -0.7271
  O  O376  1  0.242500  0.576200  0.764200  1.0  -0.7172
  O  O377  1  0.296900  0.685700  0.806600  1.0  -0.6745
  O  O378  1  0.214000  0.680100  0.674100  1.0  -0.8063
  O  O379  1  0.298700  0.671600  0.431700  1.0  -0.6992
  O  O380  1  0.372900  0.682000  0.673100  1.0  -0.7119
  O  O381  1  0.124900  0.250000  0.996500  1.0  -0.6059
  O  O382  1  0.255100  0.250000  0.803200  1.0  -0.7013
  O  O383  1  0.282200  0.250000  0.362100  1.0  -0.7613
  O  O384  1  0.375500  0.250000  0.224100  1.0  -0.6764
  O  O385  1  0.200300  0.250000  0.111600  1.0  -0.8187
  O  O386  1  0.285100  0.250000  0.988300  1.0  -0.8025
  O  O387  1  0.375100  0.750000  0.496500  1.0  -0.6065
  O  O388  1  0.244900  0.750000  0.303200  1.0  -0.7002
  O  O389  1  0.217800  0.750000  0.862100  1.0  -0.7627
  O  O390  1  0.124500  0.750000  0.724100  1.0  -0.6774
  O  O391  1  0.299700  0.750000  0.611600  1.0  -0.8189
  O  O392  1  0.214900  0.750000  0.488300  1.0  -0.8021
  O  O393  1  0.875100  0.750000  0.003500  1.0  -0.6063
  O  O394  1  0.744900  0.750000  0.196800  1.0  -0.701
  O  O395  1  0.717800  0.750000  0.637900  1.0  -0.7643
  O  O396  1  0.624500  0.750000  0.775900  1.0  -0.679
  O  O397  1  0.799700  0.750000  0.888400  1.0  -0.8191
  O  O398  1  0.714900  0.750000  0.011700  1.0  -0.8013
  O  O399  1  0.624900  0.250000  0.503500  1.0  -0.6052
  O  O400  1  0.755100  0.250000  0.696800  1.0  -0.7014
  O  O401  1  0.782200  0.250000  0.137900  1.0  -0.7637
  O  O402  1  0.875500  0.250000  0.275900  1.0  -0.6758
  O  O403  1  0.700300  0.250000  0.388400  1.0  -0.8188
  O  O404  1  0.785100  0.250000  0.511700  1.0  -0.8019
