# generated using pymatgen
data_Ag2BH20W12C24(N4O17)2
_symmetry_space_group_name_H-M   'P 1'
_cell_length_a   26.66400000
_cell_length_b   20.02200000
_cell_length_c   12.93700000
_cell_angle_alpha   90.00000000
_cell_angle_beta   90.00000000
_cell_angle_gamma   90.00000000
_symmetry_Int_Tables_number   1
_chemical_formula_structural   Ag2BH20W12C24(N4O17)2
_chemical_formula_sum   'Ag8 B4 H80 W48 C96 N32 O136'
_cell_volume   6906.63230770
_cell_formula_units_Z   4
loop_
 _symmetry_equiv_pos_site_id
 _symmetry_equiv_pos_as_xyz
  1  'x, y, z'
loop_
 _atom_site_type_symbol
 _atom_site_label
 _atom_site_symmetry_multiplicity
 _atom_site_fract_x
 _atom_site_fract_y
 _atom_site_fract_z
 _atom_site_occupancy
 _atom_site_charge
  Ag  Ag1  1  0.257100  0.105900  0.390800  1.0  0.8444
  Ag  Ag2  1  0.242900  0.894100  0.890800  1.0  0.8451
  Ag  Ag3  1  0.742900  0.605900  0.609200  1.0  0.8449
  Ag  Ag4  1  0.757100  0.394100  0.109200  1.0  0.8445
  Ag  Ag5  1  0.742900  0.894100  0.609200  1.0  0.8451
  Ag  Ag6  1  0.757100  0.105900  0.109200  1.0  0.8444
  Ag  Ag7  1  0.257100  0.394100  0.390800  1.0  0.8444
  Ag  Ag8  1  0.242900  0.605900  0.890800  1.0  0.8449
  B  B9  1  0.263700  0.250000  0.896000  1.0  0.776
  B  B10  1  0.236300  0.750000  0.396000  1.0  0.7757
  B  B11  1  0.736300  0.750000  0.104000  1.0  0.7757
  B  B12  1  0.763700  0.250000  0.604000  1.0  0.776
  H  H13  1  0.365600  0.127900  0.277400  1.0  0.111
  H  H14  1  0.653000  0.074000  0.240200  1.0  0.1067
  H  H15  1  0.665600  0.177500  0.979700  1.0  0.101
  H  H16  1  0.495700  0.993200  0.343900  1.0  0.1245
  H  H17  1  0.429600  0.011200  0.479300  1.0  0.106
  H  H18  1  0.342400  0.018500  0.518700  1.0  0.094
  H  H19  1  0.445000  0.171200  0.243700  1.0  0.1219
  H  H20  1  0.520000  0.189100  0.172100  1.0  0.0727
  H  H21  1  0.578000  0.176100  0.021800  1.0  0.1168
  H  H22  1  0.572000  0.017800  0.275000  1.0  0.0755
  H  H23  1  0.134400  0.872100  0.777400  1.0  0.1108
  H  H24  1  0.847000  0.926000  0.740200  1.0  0.1065
  H  H25  1  0.834400  0.822500  0.479700  1.0  0.1009
  H  H26  1  0.004300  0.006800  0.843900  1.0  0.1243
  H  H27  1  0.070400  0.988800  0.979300  1.0  0.1057
  H  H28  1  0.157600  0.981500  0.018700  1.0  0.0941
  H  H29  1  0.055000  0.828800  0.743700  1.0  0.1217
  H  H30  1  0.980000  0.810900  0.672100  1.0  0.0728
  H  H31  1  0.922000  0.823900  0.521800  1.0  0.1167
  H  H32  1  0.928000  0.982200  0.775000  1.0  0.0754
  H  H33  1  0.634400  0.627900  0.722600  1.0  0.1103
  H  H34  1  0.347000  0.574000  0.759800  1.0  0.1058
  H  H35  1  0.334400  0.677500  0.020300  1.0  0.1002
  H  H36  1  0.504300  0.493200  0.656100  1.0  0.1242
  H  H37  1  0.570400  0.511200  0.520700  1.0  0.1059
  H  H38  1  0.657600  0.518500  0.481300  1.0  0.0938
  H  H39  1  0.555000  0.671200  0.756300  1.0  0.1216
  H  H40  1  0.480000  0.689100  0.827900  1.0  0.0725
  H  H41  1  0.422000  0.676100  0.978200  1.0  0.1174
  H  H42  1  0.428000  0.517800  0.725000  1.0  0.0754
  H  H43  1  0.865600  0.372100  0.222600  1.0  0.1105
  H  H44  1  0.153000  0.426000  0.259800  1.0  0.1062
  H  H45  1  0.165600  0.322500  0.520300  1.0  0.1008
  H  H46  1  0.995700  0.506800  0.156100  1.0  0.1247
  H  H47  1  0.929600  0.488800  0.020700  1.0  0.1063
  H  H48  1  0.842400  0.481500  0.981300  1.0  0.0934
  H  H49  1  0.945000  0.328800  0.256300  1.0  0.1215
  H  H50  1  0.020000  0.310900  0.327900  1.0  0.073
  H  H51  1  0.078000  0.323900  0.478200  1.0  0.1179
  H  H52  1  0.072000  0.482200  0.225000  1.0  0.0755
  H  H53  1  0.634400  0.872100  0.722600  1.0  0.1106
  H  H54  1  0.347000  0.926000  0.759800  1.0  0.1061
  H  H55  1  0.334400  0.822500  0.020300  1.0  0.1004
  H  H56  1  0.504300  0.006800  0.656100  1.0  0.1243
  H  H57  1  0.570400  0.988800  0.520700  1.0  0.1063
  H  H58  1  0.657600  0.981500  0.481300  1.0  0.0936
  H  H59  1  0.555000  0.828800  0.756300  1.0  0.1217
  H  H60  1  0.480000  0.810900  0.827900  1.0  0.0727
  H  H61  1  0.422000  0.823900  0.978200  1.0  0.1175
  H  H62  1  0.428000  0.982200  0.725000  1.0  0.0757
  H  H63  1  0.865600  0.127900  0.222600  1.0  0.1101
  H  H64  1  0.153000  0.074000  0.259800  1.0  0.106
  H  H65  1  0.165600  0.177500  0.520300  1.0  0.1007
  H  H66  1  0.995700  0.993200  0.156100  1.0  0.1243
  H  H67  1  0.929600  0.011200  0.020700  1.0  0.1061
  H  H68  1  0.842400  0.018500  0.981300  1.0  0.0934
  H  H69  1  0.945000  0.171200  0.256300  1.0  0.1217
  H  H70  1  0.020000  0.189100  0.327900  1.0  0.0728
  H  H71  1  0.078000  0.176100  0.478200  1.0  0.1178
  H  H72  1  0.072000  0.017800  0.225000  1.0  0.0757
  H  H73  1  0.365600  0.372100  0.277400  1.0  0.1108
  H  H74  1  0.653000  0.426000  0.240200  1.0  0.1066
  H  H75  1  0.665600  0.322500  0.979700  1.0  0.1013
  H  H76  1  0.495700  0.506800  0.343900  1.0  0.1245
  H  H77  1  0.429600  0.488800  0.479300  1.0  0.1057
  H  H78  1  0.342400  0.481500  0.518700  1.0  0.0938
  H  H79  1  0.445000  0.328800  0.243700  1.0  0.1215
  H  H80  1  0.520000  0.310900  0.172100  1.0  0.073
  H  H81  1  0.578000  0.323900  0.021800  1.0  0.1169
  H  H82  1  0.572000  0.482200  0.275000  1.0  0.0752
  H  H83  1  0.134400  0.627900  0.777400  1.0  0.111
  H  H84  1  0.847000  0.574000  0.740200  1.0  0.1066
  H  H85  1  0.834400  0.677500  0.479700  1.0  0.1006
  H  H86  1  0.004300  0.493200  0.843900  1.0  0.1244
  H  H87  1  0.070400  0.511200  0.979300  1.0  0.106
  H  H88  1  0.157600  0.518500  0.018700  1.0  0.0943
  H  H89  1  0.055000  0.671200  0.743700  1.0  0.1218
  H  H90  1  0.980000  0.689100  0.672100  1.0  0.0725
  H  H91  1  0.922000  0.676100  0.521800  1.0  0.1166
  H  H92  1  0.928000  0.517800  0.775000  1.0  0.0751
  W  W93  1  0.154870  0.167190  0.969330  1.0  1.3759
  W  W94  1  0.266720  0.168220  0.128350  1.0  2.4398
  W  W95  1  0.266350  0.077660  0.885910  1.0  2.4941
  W  W96  1  0.367990  0.158920  0.811620  1.0  1.3743
  W  W97  1  0.266450  0.159550  0.666030  1.0  2.3186
  W  W98  1  0.345130  0.832810  0.469330  1.0  1.38
  W  W99  1  0.233280  0.831780  0.628350  1.0  2.4408
  W  W100  1  0.233650  0.922340  0.385910  1.0  2.4945
  W  W101  1  0.132010  0.841080  0.311620  1.0  1.3743
  W  W102  1  0.233550  0.840450  0.166030  1.0  2.3187
  W  W103  1  0.845130  0.667190  0.030670  1.0  1.3759
  W  W104  1  0.733280  0.668220  0.871650  1.0  2.4398
  W  W105  1  0.733650  0.577660  0.114090  1.0  2.4943
  W  W106  1  0.632010  0.658920  0.188380  1.0  1.3738
  W  W107  1  0.733550  0.659550  0.333970  1.0  2.3192
  W  W108  1  0.654870  0.332810  0.530670  1.0  1.3775
  W  W109  1  0.766720  0.331780  0.371650  1.0  2.4401
  W  W110  1  0.766350  0.422340  0.614090  1.0  2.4935
  W  W111  1  0.867990  0.341080  0.688380  1.0  1.375
  W  W112  1  0.766450  0.340450  0.833970  1.0  2.3192
  W  W113  1  0.845130  0.832810  0.030670  1.0  1.3797
  W  W114  1  0.733280  0.831780  0.871650  1.0  2.4405
  W  W115  1  0.733650  0.922340  0.114090  1.0  2.4942
  W  W116  1  0.632010  0.841080  0.188380  1.0  1.374
  W  W117  1  0.733550  0.840450  0.333970  1.0  2.319
  W  W118  1  0.654870  0.167190  0.530670  1.0  1.3746
  W  W119  1  0.766720  0.168220  0.371650  1.0  2.4393
  W  W120  1  0.766350  0.077660  0.614090  1.0  2.4938
  W  W121  1  0.867990  0.158920  0.688380  1.0  1.374
  W  W122  1  0.766450  0.159550  0.833970  1.0  2.3193
  W  W123  1  0.154870  0.332810  0.969330  1.0  1.3776
  W  W124  1  0.266720  0.331780  0.128350  1.0  2.4409
  W  W125  1  0.266350  0.422340  0.885910  1.0  2.4939
  W  W126  1  0.367990  0.341080  0.811620  1.0  1.3758
  W  W127  1  0.266450  0.340450  0.666030  1.0  2.3184
  W  W128  1  0.345130  0.667190  0.469330  1.0  1.3769
  W  W129  1  0.233280  0.668220  0.628350  1.0  2.4402
  W  W130  1  0.233650  0.577660  0.385910  1.0  2.4948
  W  W131  1  0.132010  0.658920  0.311620  1.0  1.3738
  W  W132  1  0.233550  0.659550  0.166030  1.0  2.3189
  W  W133  1  0.154690  0.250000  0.747650  1.0  1.3321
  W  W134  1  0.367990  0.250000  0.054930  1.0  1.3706
  W  W135  1  0.345310  0.750000  0.247650  1.0  1.3347
  W  W136  1  0.132010  0.750000  0.554930  1.0  1.37
  W  W137  1  0.845310  0.750000  0.252350  1.0  1.3337
  W  W138  1  0.632010  0.750000  0.945070  1.0  1.3714
  W  W139  1  0.654690  0.250000  0.752350  1.0  1.3327
  W  W140  1  0.867990  0.250000  0.445070  1.0  1.3719
  C  C141  1  0.370300  0.098700  0.332000  1.0  0.1091
  C  C142  1  0.646200  0.099500  0.182000  1.0  0.0795
  C  C143  1  0.652400  0.156700  0.038000  1.0  0.084
  C  C144  1  0.501100  0.034000  0.311000  1.0  -0.2313
  C  C145  1  0.463200  0.081400  0.305000  1.0  0.0831
  C  C146  1  0.406100  0.035500  0.442000  1.0  -0.0429
  C  C147  1  0.358100  0.039600  0.463000  1.0  0.0138
  C  C148  1  0.470500  0.139800  0.250000  1.0  -0.1727
  C  C149  1  0.515100  0.149000  0.208000  1.0  -0.1144
  C  C150  1  0.603600  0.156400  0.060000  1.0  -0.1077
  C  C151  1  0.555400  0.105400  0.213000  1.0  0.2356
  C  C152  1  0.546000  0.048400  0.267000  1.0  -0.1287
  C  C153  1  0.129700  0.901300  0.832000  1.0  0.1094
  C  C154  1  0.853800  0.900500  0.682000  1.0  0.078
  C  C155  1  0.847600  0.843300  0.538000  1.0  0.0832
  C  C156  1  0.998900  0.966000  0.811000  1.0  -0.2302
  C  C157  1  0.036800  0.918600  0.805000  1.0  0.083
  C  C158  1  0.093900  0.964500  0.942000  1.0  -0.0437
  C  C159  1  0.141900  0.960400  0.963000  1.0  0.0149
  C  C160  1  0.029500  0.860200  0.750000  1.0  -0.1736
  C  C161  1  0.984900  0.851000  0.708000  1.0  -0.1153
  C  C162  1  0.896400  0.843600  0.560000  1.0  -0.1086
  C  C163  1  0.944600  0.894600  0.713000  1.0  0.2354
  C  C164  1  0.954000  0.951600  0.767000  1.0  -0.1281
  C  C165  1  0.629700  0.598700  0.668000  1.0  0.1092
  C  C166  1  0.353800  0.599500  0.818000  1.0  0.0782
  C  C167  1  0.347600  0.656700  0.962000  1.0  0.0839
  C  C168  1  0.498900  0.534000  0.689000  1.0  -0.231
  C  C169  1  0.536800  0.581400  0.695000  1.0  0.0832
  C  C170  1  0.593900  0.535500  0.558000  1.0  -0.0458
  C  C171  1  0.641900  0.539600  0.537000  1.0  0.0152
  C  C172  1  0.529500  0.639800  0.750000  1.0  -0.1745
  C  C173  1  0.484900  0.649000  0.792000  1.0  -0.1154
  C  C174  1  0.396400  0.656400  0.940000  1.0  -0.1078
  C  C175  1  0.444600  0.605400  0.787000  1.0  0.2351
  C  C176  1  0.454000  0.548400  0.733000  1.0  -0.1279
  C  C177  1  0.870300  0.401300  0.168000  1.0  0.1086
  C  C178  1  0.146200  0.400500  0.318000  1.0  0.0785
  C  C179  1  0.152400  0.343300  0.462000  1.0  0.0842
  C  C180  1  0.001100  0.466000  0.189000  1.0  -0.23
  C  C181  1  0.963200  0.418600  0.195000  1.0  0.0835
  C  C182  1  0.906100  0.464500  0.058000  1.0  -0.0446
  C  C183  1  0.858100  0.460400  0.037000  1.0  0.0133
  C  C184  1  0.970500  0.360200  0.250000  1.0  -0.1731
  C  C185  1  0.015100  0.351000  0.292000  1.0  -0.1144
  C  C186  1  0.103600  0.343600  0.440000  1.0  -0.109
  C  C187  1  0.055400  0.394600  0.287000  1.0  0.2358
  C  C188  1  0.046000  0.451600  0.233000  1.0  -0.1273
  C  C189  1  0.629700  0.901300  0.668000  1.0  0.109
  C  C190  1  0.353800  0.900500  0.818000  1.0  0.0778
  C  C191  1  0.347600  0.843300  0.962000  1.0  0.0834
  C  C192  1  0.498900  0.966000  0.689000  1.0  -0.23
  C  C193  1  0.536800  0.918600  0.695000  1.0  0.0832
  C  C194  1  0.593900  0.964500  0.558000  1.0  -0.0452
  C  C195  1  0.641900  0.960400  0.537000  1.0  0.0145
  C  C196  1  0.529500  0.860200  0.750000  1.0  -0.1742
  C  C197  1  0.484900  0.851000  0.792000  1.0  -0.115
  C  C198  1  0.396400  0.843600  0.940000  1.0  -0.1081
  C  C199  1  0.444600  0.894600  0.787000  1.0  0.2355
  C  C200  1  0.454000  0.951600  0.733000  1.0  -0.1273
  C  C201  1  0.870300  0.098700  0.168000  1.0  0.1086
  C  C202  1  0.146200  0.099500  0.318000  1.0  0.0787
  C  C203  1  0.152400  0.156700  0.462000  1.0  0.0848
  C  C204  1  0.001100  0.034000  0.189000  1.0  -0.2312
  C  C205  1  0.963200  0.081400  0.195000  1.0  0.0834
  C  C206  1  0.906100  0.035500  0.058000  1.0  -0.0453
  C  C207  1  0.858100  0.039600  0.037000  1.0  0.014
  C  C208  1  0.970500  0.139800  0.250000  1.0  -0.1733
  C  C209  1  0.015100  0.149000  0.292000  1.0  -0.1144
  C  C210  1  0.103600  0.156400  0.440000  1.0  -0.1083
  C  C211  1  0.055400  0.105400  0.287000  1.0  0.2356
  C  C212  1  0.046000  0.048400  0.233000  1.0  -0.1282
  C  C213  1  0.370300  0.401300  0.332000  1.0  0.1091
  C  C214  1  0.646200  0.400500  0.182000  1.0  0.079
  C  C215  1  0.652400  0.343300  0.038000  1.0  0.0835
  C  C216  1  0.501100  0.466000  0.311000  1.0  -0.23
  C  C217  1  0.463200  0.418600  0.305000  1.0  0.0833
  C  C218  1  0.406100  0.464500  0.442000  1.0  -0.0426
  C  C219  1  0.358100  0.460400  0.463000  1.0  0.0133
  C  C220  1  0.470500  0.360200  0.250000  1.0  -0.1725
  C  C221  1  0.515100  0.351000  0.208000  1.0  -0.1146
  C  C222  1  0.603600  0.343600  0.060000  1.0  -0.1082
  C  C223  1  0.555400  0.394600  0.213000  1.0  0.2357
  C  C224  1  0.546000  0.451600  0.267000  1.0  -0.1279
  C  C225  1  0.129700  0.598700  0.832000  1.0  0.1097
  C  C226  1  0.853800  0.599500  0.682000  1.0  0.0787
  C  C227  1  0.847600  0.656700  0.538000  1.0  0.0835
  C  C228  1  0.998900  0.534000  0.811000  1.0  -0.2313
  C  C229  1  0.036800  0.581400  0.805000  1.0  0.083
  C  C230  1  0.093900  0.535500  0.942000  1.0  -0.0438
  C  C231  1  0.141900  0.539600  0.963000  1.0  0.0153
  C  C232  1  0.029500  0.639800  0.750000  1.0  -0.1739
  C  C233  1  0.984900  0.649000  0.708000  1.0  -0.1156
  C  C234  1  0.896400  0.656400  0.560000  1.0  -0.1083
  C  C235  1  0.944600  0.605400  0.713000  1.0  0.2352
  C  C236  1  0.954000  0.548400  0.767000  1.0  -0.1286
  N  N237  1  0.335400  0.078300  0.394000  1.0  -0.33
  N  N238  1  0.684100  0.120800  0.115000  1.0  -0.452
  N  N239  1  0.415400  0.070500  0.360700  1.0  -0.0027
  N  N240  1  0.598500  0.118700  0.156000  1.0  -0.1695
  N  N241  1  0.164600  0.921700  0.894000  1.0  -0.3346
  N  N242  1  0.815900  0.879200  0.615000  1.0  -0.4525
  N  N243  1  0.084600  0.929500  0.860700  1.0  -0.0027
  N  N244  1  0.901500  0.881300  0.656000  1.0  -0.1688
  N  N245  1  0.664600  0.578300  0.606000  1.0  -0.3343
  N  N246  1  0.315900  0.620800  0.885000  1.0  -0.4524
  N  N247  1  0.584600  0.570500  0.639300  1.0  -0.0027
  N  N248  1  0.401500  0.618700  0.844000  1.0  -0.1682
  N  N249  1  0.835400  0.421700  0.106000  1.0  -0.3305
  N  N250  1  0.184100  0.379200  0.385000  1.0  -0.4524
  N  N251  1  0.915400  0.429500  0.139300  1.0  -0.0024
  N  N252  1  0.098500  0.381300  0.344000  1.0  -0.1685
  N  N253  1  0.664600  0.921700  0.606000  1.0  -0.3344
  N  N254  1  0.315900  0.879200  0.885000  1.0  -0.4526
  N  N255  1  0.584600  0.929500  0.639300  1.0  -0.0025
  N  N256  1  0.401500  0.881300  0.844000  1.0  -0.1681
  N  N257  1  0.835400  0.078300  0.106000  1.0  -0.33
  N  N258  1  0.184100  0.120800  0.385000  1.0  -0.452
  N  N259  1  0.915400  0.070500  0.139300  1.0  -0.0026
  N  N260  1  0.098500  0.118700  0.344000  1.0  -0.1688
  N  N261  1  0.335400  0.421700  0.394000  1.0  -0.3305
  N  N262  1  0.684100  0.379200  0.115000  1.0  -0.4523
  N  N263  1  0.415400  0.429500  0.360700  1.0  -0.0026
  N  N264  1  0.598500  0.381300  0.156000  1.0  -0.1694
  N  N265  1  0.164600  0.578300  0.894000  1.0  -0.3344
  N  N266  1  0.815900  0.620800  0.615000  1.0  -0.4524
  N  N267  1  0.084600  0.570500  0.860700  1.0  -0.003
  N  N268  1  0.901500  0.618700  0.656000  1.0  -0.1688
  O  O269  1  0.281800  0.188400  0.841100  1.0  -0.7589
  O  O270  1  0.256400  0.078100  0.743700  1.0  -0.688
  O  O271  1  0.378200  0.183800  0.953200  1.0  -0.7295
  O  O272  1  0.337500  0.184500  0.140000  1.0  -0.7357
  O  O273  1  0.200000  0.171400  0.078500  1.0  -0.7159
  O  O274  1  0.126000  0.184800  0.835300  1.0  -0.68
  O  O275  1  0.200600  0.314500  0.696700  1.0  -0.7174
  O  O276  1  0.337700  0.146000  0.681100  1.0  -0.6895
  O  O277  1  0.337200  0.078700  0.855900  1.0  -0.6793
  O  O278  1  0.279800  0.105700  0.023100  1.0  -0.7678
  O  O279  1  0.260800  0.116200  0.234000  1.0  -0.7883
  O  O280  1  0.198900  0.107200  0.902600  1.0  -0.7453
  O  O281  1  0.258900  0.126100  0.547500  1.0  -0.7881
  O  O282  1  0.259900  0.992100  0.904800  1.0  -0.8275
  O  O283  1  0.218200  0.811600  0.341100  1.0  -0.7575
  O  O284  1  0.243600  0.921900  0.243700  1.0  -0.6874
  O  O285  1  0.121800  0.816200  0.453200  1.0  -0.7318
  O  O286  1  0.162500  0.815500  0.640000  1.0  -0.735
  O  O287  1  0.300000  0.828600  0.578500  1.0  -0.7138
  O  O288  1  0.374000  0.815200  0.335300  1.0  -0.6814
  O  O289  1  0.299400  0.685500  0.196700  1.0  -0.7151
  O  O290  1  0.162300  0.854000  0.181100  1.0  -0.6867
  O  O291  1  0.162800  0.921300  0.355900  1.0  -0.678
  O  O292  1  0.220200  0.894300  0.523100  1.0  -0.7733
  O  O293  1  0.239200  0.883800  0.734000  1.0  -0.7881
  O  O294  1  0.301100  0.892800  0.402600  1.0  -0.7449
  O  O295  1  0.241100  0.873900  0.047500  1.0  -0.7885
  O  O296  1  0.240100  0.007900  0.404800  1.0  -0.8276
  O  O297  1  0.718200  0.688400  0.158900  1.0  -0.7592
  O  O298  1  0.743600  0.578100  0.256300  1.0  -0.6891
  O  O299  1  0.621800  0.683800  0.046800  1.0  -0.7303
  O  O300  1  0.662500  0.684500  0.860000  1.0  -0.7356
  O  O301  1  0.800000  0.671400  0.921500  1.0  -0.7126
  O  O302  1  0.874000  0.684800  0.164700  1.0  -0.6813
  O  O303  1  0.799400  0.814500  0.303300  1.0  -0.7153
  O  O304  1  0.662300  0.646000  0.318900  1.0  -0.6869
  O  O305  1  0.662800  0.578700  0.144100  1.0  -0.6793
  O  O306  1  0.720200  0.605700  0.976900  1.0  -0.7661
  O  O307  1  0.739200  0.616200  0.766000  1.0  -0.788
  O  O308  1  0.801100  0.607200  0.097400  1.0  -0.7429
  O  O309  1  0.741100  0.626100  0.452500  1.0  -0.7884
  O  O310  1  0.740100  0.492100  0.095200  1.0  -0.828
  O  O311  1  0.781800  0.311600  0.658900  1.0  -0.7588
  O  O312  1  0.756400  0.421900  0.756300  1.0  -0.6869
  O  O313  1  0.878200  0.316200  0.546800  1.0  -0.7299
  O  O314  1  0.837500  0.315500  0.360000  1.0  -0.7363
  O  O315  1  0.700000  0.328600  0.421500  1.0  -0.7165
  O  O316  1  0.626000  0.315200  0.664700  1.0  -0.678
  O  O317  1  0.700600  0.185500  0.803300  1.0  -0.7164
  O  O318  1  0.837700  0.354000  0.818900  1.0  -0.6893
  O  O319  1  0.837200  0.421300  0.644100  1.0  -0.679
  O  O320  1  0.779800  0.394300  0.476900  1.0  -0.7716
  O  O321  1  0.760800  0.383800  0.266000  1.0  -0.7876
  O  O322  1  0.698900  0.392800  0.597400  1.0  -0.7491
  O  O323  1  0.758900  0.373900  0.952500  1.0  -0.7877
  O  O324  1  0.759900  0.507900  0.595200  1.0  -0.8273
  O  O325  1  0.718200  0.811600  0.158900  1.0  -0.7582
  O  O326  1  0.743600  0.921900  0.256300  1.0  -0.6861
  O  O327  1  0.621800  0.816200  0.046800  1.0  -0.7322
  O  O328  1  0.662500  0.815500  0.860000  1.0  -0.7356
  O  O329  1  0.800000  0.828600  0.921500  1.0  -0.7131
  O  O330  1  0.874000  0.815200  0.164700  1.0  -0.681
  O  O331  1  0.799400  0.685500  0.303300  1.0  -0.7154
  O  O332  1  0.662300  0.854000  0.318900  1.0  -0.6869
  O  O333  1  0.662800  0.921300  0.144100  1.0  -0.6787
  O  O334  1  0.720200  0.894300  0.976900  1.0  -0.7732
  O  O335  1  0.739200  0.883800  0.766000  1.0  -0.7876
  O  O336  1  0.801100  0.892800  0.097400  1.0  -0.7458
  O  O337  1  0.741100  0.873900  0.452500  1.0  -0.788
  O  O338  1  0.740100  0.007900  0.095200  1.0  -0.8279
  O  O339  1  0.781800  0.188400  0.658900  1.0  -0.7595
  O  O340  1  0.756400  0.078100  0.756300  1.0  -0.6896
  O  O341  1  0.878200  0.183800  0.546800  1.0  -0.729
  O  O342  1  0.837500  0.184500  0.360000  1.0  -0.7361
  O  O343  1  0.700000  0.171400  0.421500  1.0  -0.7164
  O  O344  1  0.626000  0.184800  0.664700  1.0  -0.6791
  O  O345  1  0.700600  0.314500  0.803300  1.0  -0.7168
  O  O346  1  0.837700  0.146000  0.818900  1.0  -0.6895
  O  O347  1  0.837200  0.078700  0.644100  1.0  -0.6793
  O  O348  1  0.779800  0.105700  0.476900  1.0  -0.7656
  O  O349  1  0.760800  0.116200  0.266000  1.0  -0.788
  O  O350  1  0.698900  0.107200  0.597400  1.0  -0.7458
  O  O351  1  0.758900  0.126100  0.952500  1.0  -0.7877
  O  O352  1  0.759900  0.992100  0.595200  1.0  -0.8274
  O  O353  1  0.281800  0.311600  0.841100  1.0  -0.7579
  O  O354  1  0.256400  0.421900  0.743700  1.0  -0.688
  O  O355  1  0.378200  0.316200  0.953200  1.0  -0.7301
  O  O356  1  0.337500  0.315500  0.140000  1.0  -0.7354
  O  O357  1  0.200000  0.328600  0.078500  1.0  -0.716
  O  O358  1  0.126000  0.315200  0.835300  1.0  -0.6789
  O  O359  1  0.200600  0.185500  0.696700  1.0  -0.7167
  O  O360  1  0.337700  0.354000  0.681100  1.0  -0.6887
  O  O361  1  0.337200  0.421300  0.855900  1.0  -0.679
  O  O362  1  0.279800  0.394300  0.023100  1.0  -0.7724
  O  O363  1  0.260800  0.383800  0.234000  1.0  -0.788
  O  O364  1  0.198900  0.392800  0.902600  1.0  -0.7485
  O  O365  1  0.258900  0.373900  0.547500  1.0  -0.7874
  O  O366  1  0.259900  0.507900  0.904800  1.0  -0.8274
  O  O367  1  0.218200  0.688400  0.341100  1.0  -0.7587
  O  O368  1  0.243600  0.578100  0.243700  1.0  -0.687
  O  O369  1  0.121800  0.683800  0.453200  1.0  -0.73
  O  O370  1  0.162500  0.684500  0.640000  1.0  -0.7352
  O  O371  1  0.300000  0.671400  0.578500  1.0  -0.7133
  O  O372  1  0.374000  0.684800  0.335300  1.0  -0.6817
  O  O373  1  0.299400  0.814500  0.196700  1.0  -0.7151
  O  O374  1  0.162300  0.646000  0.181100  1.0  -0.6872
  O  O375  1  0.162800  0.578700  0.355900  1.0  -0.6788
  O  O376  1  0.220200  0.605700  0.523100  1.0  -0.7679
  O  O377  1  0.239200  0.616200  0.734000  1.0  -0.7884
  O  O378  1  0.301100  0.607200  0.402600  1.0  -0.7424
  O  O379  1  0.241100  0.626100  0.047500  1.0  -0.7882
  O  O380  1  0.240100  0.492100  0.404800  1.0  -0.8276
  O  O381  1  0.207500  0.250000  0.894600  1.0  -0.7402
  O  O382  1  0.376300  0.250000  0.775600  1.0  -0.7174
  O  O383  1  0.127100  0.250000  0.007600  1.0  -0.6204
  O  O384  1  0.279700  0.250000  0.636000  1.0  -0.7573
  O  O385  1  0.256700  0.250000  0.201000  1.0  -0.7174
  O  O386  1  0.284200  0.250000  0.004000  1.0  -0.7629
  O  O387  1  0.292500  0.750000  0.394600  1.0  -0.7416
  O  O388  1  0.123700  0.750000  0.275600  1.0  -0.7206
  O  O389  1  0.372900  0.750000  0.507600  1.0  -0.6225
  O  O390  1  0.220300  0.750000  0.136000  1.0  -0.7589
  O  O391  1  0.243300  0.750000  0.701000  1.0  -0.7175
  O  O392  1  0.215800  0.750000  0.504000  1.0  -0.7623
  O  O393  1  0.792500  0.750000  0.105400  1.0  -0.7414
  O  O394  1  0.623700  0.750000  0.224400  1.0  -0.7194
  O  O395  1  0.872900  0.750000  0.992400  1.0  -0.6223
  O  O396  1  0.720300  0.750000  0.364000  1.0  -0.7563
  O  O397  1  0.743300  0.750000  0.799000  1.0  -0.7155
  O  O398  1  0.715800  0.750000  0.996000  1.0  -0.7617
  O  O399  1  0.707500  0.250000  0.605400  1.0  -0.74
  O  O400  1  0.876300  0.250000  0.724400  1.0  -0.7175
  O  O401  1  0.627100  0.250000  0.492400  1.0  -0.6203
  O  O402  1  0.779700  0.250000  0.864000  1.0  -0.7551
  O  O403  1  0.756700  0.250000  0.299000  1.0  -0.7163
  O  O404  1  0.784200  0.250000  0.496000  1.0  -0.7623
