# generated using pymatgen
data_Gd3Re8C24(SeN3)8
_symmetry_space_group_name_H-M   'P 1'
_cell_length_a   13.82200000
_cell_length_b   13.82200000
_cell_length_c   19.80800000
_cell_angle_alpha   90.00000000
_cell_angle_beta   90.00000000
_cell_angle_gamma   120.00000000
_symmetry_Int_Tables_number   1
_chemical_formula_structural   Gd3Re8C24(SeN3)8
_chemical_formula_sum   'Gd6 Re16 C48 Se16 N48'
_cell_volume   3277.27614121
_cell_formula_units_Z   2
loop_
 _symmetry_equiv_pos_site_id
 _symmetry_equiv_pos_as_xyz
  1  'x, y, z'
loop_
 _atom_site_type_symbol
 _atom_site_label
 _atom_site_symmetry_multiplicity
 _atom_site_fract_x
 _atom_site_fract_y
 _atom_site_fract_z
 _atom_site_occupancy
 _atom_site_charge
  Gd  Gd1  1  0.678270  0.746240  0.250000  1.0  1.9946
  Gd  Gd2  1  0.067970  0.321730  0.250000  1.0  1.997
  Gd  Gd3  1  0.253760  0.932030  0.250000  1.0  1.9964
  Gd  Gd4  1  0.321730  0.253760  0.750000  1.0  1.9982
  Gd  Gd5  1  0.932030  0.678270  0.750000  1.0  1.9971
  Gd  Gd6  1  0.746240  0.067970  0.750000  1.0  1.9959
  Re  Re7  1  0.286160  0.752580  0.560290  1.0  -0.0906
  Re  Re8  1  0.466420  0.713840  0.560290  1.0  -0.0905
  Re  Re9  1  0.247420  0.533580  0.560290  1.0  -0.0876
  Re  Re10  1  0.713840  0.247420  0.060290  1.0  -0.0906
  Re  Re11  1  0.533580  0.286160  0.060290  1.0  -0.0896
  Re  Re12  1  0.752580  0.466420  0.060290  1.0  -0.0891
  Re  Re13  1  0.713840  0.247420  0.439710  1.0  -0.0904
  Re  Re14  1  0.533580  0.286160  0.439710  1.0  -0.0897
  Re  Re15  1  0.752580  0.466420  0.439710  1.0  -0.0885
  Re  Re16  1  0.286160  0.752580  0.939710  1.0  -0.0901
  Re  Re17  1  0.466420  0.713840  0.939710  1.0  -0.09
  Re  Re18  1  0.247420  0.533580  0.939710  1.0  -0.0875
  Re  Re19  1  0.333333  0.666667  0.444520  1.0  -0.0724
  Re  Re20  1  0.666667  0.333333  0.944520  1.0  -0.0724
  Re  Re21  1  0.666667  0.333333  0.555480  1.0  -0.0725
  Re  Re22  1  0.333333  0.666667  0.055480  1.0  -0.0725
  C  C23  1  0.462000  0.708000  0.374800  1.0  0.1591
  C  C24  1  0.230800  0.848200  0.510200  1.0  0.1842
  C  C25  1  0.149700  0.719600  0.623200  1.0  0.2385
  C  C26  1  0.362300  0.899500  0.618300  1.0  0.2112
  C  C27  1  0.246000  0.538000  0.374800  1.0  0.1613
  C  C28  1  0.617400  0.769200  0.510200  1.0  0.1619
  C  C29  1  0.569900  0.850300  0.623200  1.0  0.2391
  C  C30  1  0.537200  0.637700  0.618300  1.0  0.2121
  C  C31  1  0.292000  0.754000  0.374800  1.0  0.1589
  C  C32  1  0.151800  0.382600  0.510200  1.0  0.1646
  C  C33  1  0.280400  0.430100  0.623200  1.0  0.2412
  C  C34  1  0.100500  0.462800  0.618300  1.0  0.2119
  C  C35  1  0.538000  0.292000  0.874800  1.0  0.1585
  C  C36  1  0.769200  0.151800  0.010200  1.0  0.1847
  C  C37  1  0.850300  0.280400  0.123200  1.0  0.2395
  C  C38  1  0.637700  0.100500  0.118300  1.0  0.2136
  C  C39  1  0.754000  0.462000  0.874800  1.0  0.1603
  C  C40  1  0.382600  0.230800  0.010200  1.0  0.1621
  C  C41  1  0.430100  0.149700  0.123200  1.0  0.2397
  C  C42  1  0.462800  0.362300  0.118300  1.0  0.2113
  C  C43  1  0.708000  0.246000  0.874800  1.0  0.1599
  C  C44  1  0.848200  0.617400  0.010200  1.0  0.1658
  C  C45  1  0.719600  0.569900  0.123200  1.0  0.2403
  C  C46  1  0.899500  0.537200  0.118300  1.0  0.2123
  C  C47  1  0.538000  0.292000  0.625200  1.0  0.1572
  C  C48  1  0.769200  0.151800  0.489800  1.0  0.1844
  C  C49  1  0.850300  0.280400  0.376800  1.0  0.2395
  C  C50  1  0.637700  0.100500  0.381700  1.0  0.2124
  C  C51  1  0.754000  0.462000  0.625200  1.0  0.1594
  C  C52  1  0.382600  0.230800  0.489800  1.0  0.1615
  C  C53  1  0.430100  0.149700  0.376800  1.0  0.2396
  C  C54  1  0.462800  0.362300  0.381700  1.0  0.2106
  C  C55  1  0.708000  0.246000  0.625200  1.0  0.1595
  C  C56  1  0.848200  0.617400  0.489800  1.0  0.1653
  C  C57  1  0.719600  0.569900  0.376800  1.0  0.2405
  C  C58  1  0.899500  0.537200  0.381700  1.0  0.2112
  C  C59  1  0.462000  0.708000  0.125200  1.0  0.1587
  C  C60  1  0.230800  0.848200  0.989800  1.0  0.1837
  C  C61  1  0.149700  0.719600  0.876800  1.0  0.2385
  C  C62  1  0.362300  0.899500  0.881700  1.0  0.2105
  C  C63  1  0.246000  0.538000  0.125200  1.0  0.1602
  C  C64  1  0.617400  0.769200  0.989800  1.0  0.1619
  C  C65  1  0.569900  0.850300  0.876800  1.0  0.2391
  C  C66  1  0.537200  0.637700  0.881700  1.0  0.2113
  C  C67  1  0.292000  0.754000  0.125200  1.0  0.1572
  C  C68  1  0.151800  0.382600  0.989800  1.0  0.1642
  C  C69  1  0.280400  0.430100  0.876800  1.0  0.2412
  C  C70  1  0.100500  0.462800  0.881700  1.0  0.2112
  Se  Se71  1  0.455630  0.854760  0.490370  1.0  0.1586
  Se  Se72  1  0.399130  0.544370  0.490370  1.0  0.1594
  Se  Se73  1  0.145240  0.600870  0.490370  1.0  0.1566
  Se  Se74  1  0.544370  0.145240  0.990370  1.0  0.1578
  Se  Se75  1  0.600870  0.455630  0.990370  1.0  0.1587
  Se  Se76  1  0.854760  0.399130  0.990370  1.0  0.1586
  Se  Se77  1  0.544370  0.145240  0.509630  1.0  0.1585
  Se  Se78  1  0.600870  0.455630  0.509630  1.0  0.1593
  Se  Se79  1  0.854760  0.399130  0.509630  1.0  0.1591
  Se  Se80  1  0.455630  0.854760  0.009630  1.0  0.1588
  Se  Se81  1  0.399130  0.544370  0.009630  1.0  0.16
  Se  Se82  1  0.145240  0.600870  0.009630  1.0  0.1574
  Se  Se83  1  0.333333  0.666667  0.653830  1.0  0.23
  Se  Se84  1  0.666667  0.333333  0.153830  1.0  0.23
  Se  Se85  1  0.666667  0.333333  0.346170  1.0  0.2299
  Se  Se86  1  0.333333  0.666667  0.846170  1.0  0.2299
  N  N87  1  0.533200  0.726900  0.336100  1.0  -0.5636
  N  N88  1  0.078400  0.705700  0.659700  1.0  -0.5982
  N  N89  1  0.200600  0.903800  0.483500  1.0  -0.356
  N  N90  1  0.398600  0.979300  0.649900  1.0  -0.382
  N  N91  1  0.193700  0.466800  0.336100  1.0  -0.5638
  N  N92  1  0.627300  0.921600  0.659700  1.0  -0.6027
  N  N93  1  0.703200  0.799400  0.483500  1.0  -0.3561
  N  N94  1  0.580700  0.601400  0.649900  1.0  -0.3816
  N  N95  1  0.273100  0.806300  0.336100  1.0  -0.5622
  N  N96  1  0.294300  0.372700  0.659700  1.0  -0.5991
  N  N97  1  0.096200  0.296800  0.483500  1.0  -0.3546
  N  N98  1  0.020700  0.419300  0.649900  1.0  -0.3797
  N  N99  1  0.466800  0.273100  0.836100  1.0  -0.5622
  N  N100  1  0.921600  0.294300  0.159700  1.0  -0.6001
  N  N101  1  0.799400  0.096200  0.983500  1.0  -0.3553
  N  N102  1  0.601400  0.020700  0.149900  1.0  -0.3806
  N  N103  1  0.806300  0.533200  0.836100  1.0  -0.5654
  N  N104  1  0.372700  0.078400  0.159700  1.0  -0.5997
  N  N105  1  0.296800  0.200600  0.983500  1.0  -0.3558
  N  N106  1  0.419300  0.398600  0.149900  1.0  -0.3802
  N  N107  1  0.726900  0.193700  0.836100  1.0  -0.564
  N  N108  1  0.705700  0.627300  0.159700  1.0  -0.6029
  N  N109  1  0.903800  0.703200  0.983500  1.0  -0.3574
  N  N110  1  0.979300  0.580700  0.149900  1.0  -0.3825
  N  N111  1  0.466800  0.273100  0.663900  1.0  -0.5592
  N  N112  1  0.921600  0.294300  0.340300  1.0  -0.6011
  N  N113  1  0.799400  0.096200  0.516500  1.0  -0.3553
  N  N114  1  0.601400  0.020700  0.350100  1.0  -0.3819
  N  N115  1  0.806300  0.533200  0.663900  1.0  -0.5642
  N  N116  1  0.372700  0.078400  0.340300  1.0  -0.6019
  N  N117  1  0.296800  0.200600  0.516500  1.0  -0.3551
  N  N118  1  0.419300  0.398600  0.350100  1.0  -0.3812
  N  N119  1  0.726900  0.193700  0.663900  1.0  -0.5614
  N  N120  1  0.705700  0.627300  0.340300  1.0  -0.6034
  N  N121  1  0.903800  0.703200  0.516500  1.0  -0.3579
  N  N122  1  0.979300  0.580700  0.350100  1.0  -0.3825
  N  N123  1  0.533200  0.726900  0.163900  1.0  -0.5616
  N  N124  1  0.078400  0.705700  0.840300  1.0  -0.599
  N  N125  1  0.200600  0.903800  0.016500  1.0  -0.3565
  N  N126  1  0.398600  0.979300  0.850100  1.0  -0.3817
  N  N127  1  0.193700  0.466800  0.163900  1.0  -0.5603
  N  N128  1  0.627300  0.921600  0.840300  1.0  -0.6035
  N  N129  1  0.703200  0.799400  0.016500  1.0  -0.3572
  N  N130  1  0.580700  0.601400  0.850100  1.0  -0.3816
  N  N131  1  0.273100  0.806300  0.163900  1.0  -0.5598
  N  N132  1  0.294300  0.372700  0.840300  1.0  -0.6009
  N  N133  1  0.096200  0.296800  0.016500  1.0  -0.354
  N  N134  1  0.020700  0.419300  0.850100  1.0  -0.3818
