# generated using pymatgen
data_Ho2P3H24C43N3O19
_symmetry_space_group_name_H-M   'P 1'
_cell_length_a   15.87690000
_cell_length_b   23.51030000
_cell_length_c   23.15770000
_cell_angle_alpha   90.00000000
_cell_angle_beta   101.22600000
_cell_angle_gamma   90.00000000
_symmetry_Int_Tables_number   1
_chemical_formula_structural   Ho2P3H24C43N3O19
_chemical_formula_sum   'Ho8 P12 H96 C172 N12 O76'
_cell_volume   8478.70234428
_cell_formula_units_Z   4
loop_
 _symmetry_equiv_pos_site_id
 _symmetry_equiv_pos_as_xyz
  1  'x, y, z'
loop_
 _atom_site_type_symbol
 _atom_site_label
 _atom_site_symmetry_multiplicity
 _atom_site_fract_x
 _atom_site_fract_y
 _atom_site_fract_z
 _atom_site_occupancy
 _atom_site_charge
  Ho  Ho1  1  0.389810  0.863710  0.301060  1.0  2.1922
  Ho  Ho2  1  0.871760  0.359400  0.769910  1.0  2.196
  Ho  Ho3  1  0.106290  0.307600  0.780270  1.0  2.1844
  Ho  Ho4  1  0.609870  0.787600  0.299720  1.0  2.2057
  Ho  Ho5  1  0.610190  0.363710  0.698940  1.0  2.1906
  Ho  Ho6  1  0.128240  0.859400  0.230090  1.0  2.197
  Ho  Ho7  1  0.893710  0.807600  0.219730  1.0  2.1853
  Ho  Ho8  1  0.390130  0.287600  0.700280  1.0  2.2043
  P  P9  1  0.384850  0.530050  0.008820  1.0  1.4913
  P  P10  1  0.246040  0.552930  0.061400  1.0  1.4485
  P  P11  1  0.273300  0.617800  0.967250  1.0  1.4544
  P  P12  1  0.193430  0.538970  0.405620  1.0  1.5
  P  P13  1  0.131800  0.581840  0.499700  1.0  1.4273
  P  P14  1  0.038100  0.502680  0.426670  1.0  1.4678
  P  P15  1  0.615150  0.030050  0.991180  1.0  1.4896
  P  P16  1  0.753960  0.052930  0.938600  1.0  1.4472
  P  P17  1  0.726700  0.117800  0.032750  1.0  1.4566
  P  P18  1  0.806570  0.038970  0.594380  1.0  1.5022
  P  P19  1  0.868200  0.081840  0.500300  1.0  1.4255
  P  P20  1  0.961900  0.002680  0.573330  1.0  1.469
  H  H21  1  0.125700  0.368300  0.517300  1.0  0.0913
  H  H22  1  0.098400  0.332000  0.602800  1.0  0.1075
  H  H23  1  0.876300  0.422800  0.581100  1.0  0.0935
  H  H24  1  0.902700  0.459500  0.493400  1.0  0.1194
  H  H25  1  0.293400  0.514100  0.582800  1.0  0.1096
  H  H26  1  0.321000  0.435200  0.641500  1.0  0.0715
  H  H27  1  0.099600  0.457300  0.698500  1.0  0.0868
  H  H28  1  0.067500  0.534100  0.633100  1.0  0.1221
  H  H29  1  0.422700  0.513300  0.464200  1.0  0.1133
  H  H30  1  0.492900  0.453300  0.539200  1.0  0.0891
  H  H31  1  0.280200  0.354500  0.522300  1.0  0.0925
  H  H32  1  0.214500  0.407800  0.442600  1.0  0.1117
  H  H33  1  0.224500  0.643700  0.273300  1.0  0.0896
  H  H34  1  0.336800  0.706300  0.264700  1.0  0.107
  H  H35  1  0.457900  0.659800  0.427400  1.0  0.0964
  H  H36  1  0.344200  0.600300  0.437800  1.0  0.1175
  H  H37  1  0.043400  0.680000  0.387800  1.0  0.0945
  H  H38  1  0.106600  0.740200  0.324600  1.0  0.0978
  H  H39  1  0.309800  0.764200  0.456300  1.0  0.1191
  H  H40  1  0.244600  0.706000  0.518600  1.0  0.1167
  H  H41  1  0.975600  0.569700  0.303600  1.0  0.1199
  H  H42  1  0.918000  0.659800  0.275900  1.0  0.0834
  H  H43  1  0.765700  0.652800  0.393900  1.0  0.1071
  H  H44  1  0.821100  0.563100  0.422800  1.0  0.1052
  H  H45  1  0.574700  0.626800  0.026400  1.0  0.1093
  H  H46  1  0.620100  0.696600  0.096000  1.0  0.1078
  H  H47  1  0.499800  0.615600  0.210500  1.0  0.1062
  H  H48  1  0.459800  0.543900  0.142100  1.0  0.1014
  H  H49  1  0.275100  0.682100  0.149100  1.0  0.1054
  H  H50  1  0.177600  0.745500  0.179700  1.0  0.0852
  H  H51  1  0.011800  0.615500  0.180700  1.0  0.0893
  H  H52  1  0.104000  0.553600  0.146800  1.0  0.1166
  H  H53  1  0.422100  0.706100  0.052800  1.0  0.0913
  H  H54  1  0.424100  0.763000  0.137900  1.0  0.0962
  H  H55  1  0.176900  0.808100  0.071700  1.0  0.1027
  H  H56  1  0.174900  0.744900  0.992400  1.0  0.1217
  H  H57  1  0.499200  0.524500  0.924900  1.0  0.1096
  H  H58  1  0.545800  0.495800  0.840900  1.0  0.0998
  H  H59  1  0.387100  0.359500  0.826700  1.0  0.102
  H  H60  1  0.335800  0.391400  0.907900  1.0  0.1018
  H  H61  1  0.257900  0.517200  0.877600  1.0  0.0896
  H  H62  1  0.167700  0.444700  0.832900  1.0  0.1084
  H  H63  1  0.966700  0.550500  0.823700  1.0  0.0922
  H  H64  1  0.055100  0.623100  0.869000  1.0  0.1216
  H  H65  1  0.240200  0.421900  0.028500  1.0  0.1126
  H  H66  1  0.183300  0.357200  0.955700  1.0  0.1138
  H  H67  1  0.955800  0.438600  0.936800  1.0  0.0972
  H  H68  1  0.015600  0.506300  0.008300  1.0  0.1176
  H  H69  1  0.874300  0.868300  0.482700  1.0  0.0915
  H  H70  1  0.901600  0.832000  0.397200  1.0  0.1071
  H  H71  1  0.123700  0.922800  0.418900  1.0  0.0943
  H  H72  1  0.097300  0.959500  0.506600  1.0  0.1193
  H  H73  1  0.706600  0.014100  0.417200  1.0  0.1087
  H  H74  1  0.679000  0.935200  0.358500  1.0  0.0718
  H  H75  1  0.900400  0.957300  0.301500  1.0  0.087
  H  H76  1  0.932500  0.034100  0.366900  1.0  0.1218
  H  H77  1  0.577300  0.013300  0.535800  1.0  0.1138
  H  H78  1  0.507100  0.953300  0.460800  1.0  0.0899
  H  H79  1  0.719800  0.854500  0.477700  1.0  0.0927
  H  H80  1  0.785500  0.907800  0.557400  1.0  0.1126
  H  H81  1  0.775500  0.143700  0.726700  1.0  0.0908
  H  H82  1  0.663200  0.206300  0.735300  1.0  0.1069
  H  H83  1  0.542100  0.159800  0.572600  1.0  0.0972
  H  H84  1  0.655800  0.100300  0.562200  1.0  0.1176
  H  H85  1  0.956600  0.180000  0.612200  1.0  0.0946
  H  H86  1  0.893400  0.240200  0.675400  1.0  0.0982
  H  H87  1  0.690200  0.264200  0.543700  1.0  0.1195
  H  H88  1  0.755400  0.206000  0.481400  1.0  0.1174
  H  H89  1  0.024400  0.069700  0.696400  1.0  0.1187
  H  H90  1  0.082000  0.159800  0.724100  1.0  0.0836
  H  H91  1  0.234300  0.152800  0.606100  1.0  0.1071
  H  H92  1  0.178900  0.063100  0.577200  1.0  0.1049
  H  H93  1  0.425300  0.126800  0.973600  1.0  0.1098
  H  H94  1  0.379900  0.196600  0.904000  1.0  0.1081
  H  H95  1  0.500200  0.115600  0.789500  1.0  0.1068
  H  H96  1  0.540200  0.043900  0.857900  1.0  0.1009
  H  H97  1  0.724900  0.182100  0.850900  1.0  0.1049
  H  H98  1  0.822400  0.245500  0.820300  1.0  0.0851
  H  H99  1  0.988200  0.115500  0.819300  1.0  0.0899
  H  H100  1  0.896000  0.053600  0.853200  1.0  0.1167
  H  H101  1  0.577900  0.206100  0.947200  1.0  0.0915
  H  H102  1  0.575900  0.263000  0.862100  1.0  0.0963
  H  H103  1  0.823100  0.308100  0.928300  1.0  0.1028
  H  H104  1  0.825100  0.244900  0.007600  1.0  0.1215
  H  H105  1  0.500800  0.024500  0.075100  1.0  0.1094
  H  H106  1  0.454200  0.995800  0.159100  1.0  0.1002
  H  H107  1  0.612900  0.859500  0.173300  1.0  0.1019
  H  H108  1  0.664200  0.891400  0.092100  1.0  0.1022
  H  H109  1  0.742100  0.017200  0.122400  1.0  0.0894
  H  H110  1  0.832300  0.944700  0.167100  1.0  0.1086
  H  H111  1  0.033300  0.050500  0.176300  1.0  0.0927
  H  H112  1  0.944900  0.123100  0.131000  1.0  0.122
  H  H113  1  0.759800  0.921900  0.971500  1.0  0.1147
  H  H114  1  0.816700  0.857200  0.044300  1.0  0.114
  H  H115  1  0.044200  0.938600  0.063200  1.0  0.0961
  H  H116  1  0.984400  0.006300  0.991700  1.0  0.1177
  C  C117  1  0.016800  0.416300  0.495300  1.0  0.2016
  C  C118  1  0.074500  0.378800  0.530000  1.0  -0.1792
  C  C119  1  0.058900  0.357800  0.580500  1.0  -0.0822
  C  C120  1  0.984300  0.373600  0.600500  1.0  -0.17
  C  C121  1  0.926500  0.411800  0.567400  1.0  -0.0374
  C  C122  1  0.941800  0.433400  0.515600  1.0  -0.176
  C  C123  1  0.972900  0.353800  0.658800  1.0  0.676
  C  C124  1  0.179400  0.531800  0.603100  1.0  0.2233
  C  C125  1  0.253100  0.502400  0.605900  1.0  -0.1546
  C  C126  1  0.269900  0.456200  0.641500  1.0  -0.064
  C  C127  1  0.215000  0.438900  0.677700  1.0  -0.1451
  C  C128  1  0.139100  0.468400  0.674600  1.0  -0.0655
  C  C129  1  0.120600  0.514500  0.636300  1.0  -0.1368
  C  C130  1  0.235300  0.388600  0.716100  1.0  0.6873
  C  C131  1  0.312100  0.465800  0.446700  1.0  0.2534
  C  C132  1  0.394700  0.480600  0.475500  1.0  -0.2193
  C  C133  1  0.434700  0.446000  0.521400  1.0  -0.0466
  C  C134  1  0.390900  0.400300  0.542500  1.0  -0.1668
  C  C135  1  0.309200  0.386600  0.510700  1.0  -0.0592
  C  C136  1  0.269900  0.418100  0.463700  1.0  -0.1347
  C  C137  1  0.429900  0.370300  0.595300  1.0  0.7006
  C  C138  1  0.274500  0.617500  0.354800  1.0  0.286
  C  C139  1  0.272000  0.647800  0.305000  1.0  -0.1914
  C  C140  1  0.338300  0.684900  0.299700  1.0  -0.0904
  C  C141  1  0.407200  0.689900  0.347400  1.0  -0.1156
  C  C142  1  0.409200  0.657500  0.396400  1.0  -0.064
  C  C143  1  0.343200  0.621400  0.402700  1.0  -0.1992
  C  C144  1  0.479700  0.729600  0.343100  1.0  0.6504
  C  C145  1  0.142700  0.684600  0.455700  1.0  0.2173
  C  C146  1  0.098500  0.696200  0.401200  1.0  -0.1344
  C  C147  1  0.135500  0.733000  0.363800  1.0  -0.086
  C  C148  1  0.211700  0.757300  0.385000  1.0  -0.138
  C  C149  1  0.255400  0.747200  0.442200  1.0  -0.0618
  C  C150  1  0.217900  0.711400  0.478500  1.0  -0.1339
  C  C151  1  0.254600  0.795200  0.346300  1.0  0.6702
  C  C152  1  0.909000  0.561600  0.370700  1.0  0.1626
  C  C153  1  0.935000  0.587000  0.323300  1.0  -0.1828
  C  C154  1  0.898000  0.639600  0.306100  1.0  -0.0888
  C  C155  1  0.834900  0.663700  0.330100  1.0  -0.1594
  C  C156  1  0.808000  0.636200  0.375400  1.0  -0.1067
  C  C157  1  0.843100  0.583900  0.393700  1.0  -0.152
  C  C158  1  0.794300  0.720300  0.310200  1.0  0.7246
  C  C159  1  0.510900  0.577600  0.077600  1.0  0.2447
  C  C160  1  0.559800  0.624300  0.064100  1.0  -0.1107
  C  C161  1  0.586000  0.666000  0.105200  1.0  -0.0982
  C  C162  1  0.562900  0.663800  0.159900  1.0  -0.1554
  C  C163  1  0.515600  0.617900  0.173100  1.0  -0.0935
  C  C164  1  0.491200  0.575500  0.132000  1.0  -0.1805
  C  C165  1  0.583400  0.710600  0.203600  1.0  0.6797
  C  C166  1  0.198000  0.613600  0.144000  1.0  0.2754
  C  C167  1  0.220500  0.668900  0.154300  1.0  -0.1996
  C  C168  1  0.162200  0.706700  0.172800  1.0  -0.1137
  C  C169  1  0.083000  0.688000  0.181100  1.0  -0.1144
  C  C170  1  0.064400  0.629600  0.172700  1.0  -0.0465
  C  C171  1  0.118900  0.592500  0.153500  1.0  -0.2393
  C  C172  1  0.023500  0.726500  0.201000  1.0  0.6593
  C  C173  1  0.298800  0.719200  0.019400  1.0  0.2325
  C  C174  1  0.371700  0.725300  0.058400  1.0  -0.1513
  C  C175  1  0.373900  0.760300  0.108000  1.0  -0.079
  C  C176  1  0.298600  0.791600  0.112000  1.0  -0.0769
  C  C177  1  0.226500  0.786400  0.069200  1.0  0.0043
  C  C178  1  0.225100  0.749300  0.021900  1.0  -0.1647
  C  C179  1  0.294400  0.823400  0.165600  1.0  0.6688
  C  C180  1  0.414200  0.460300  0.923400  1.0  0.2781
  C  C181  1  0.475600  0.491500  0.904100  1.0  -0.0468
  C  C182  1  0.502600  0.474500  0.854600  1.0  -0.0706
  C  C183  1  0.468500  0.427000  0.823800  1.0  -0.1458
  C  C184  1  0.407900  0.394000  0.845600  1.0  -0.0181
  C  C185  1  0.379500  0.412000  0.894100  1.0  -0.2129
  C  C186  1  0.503800  0.409200  0.770500  1.0  0.6793
  C  C187  1  0.166300  0.575800  0.878300  1.0  0.2712
  C  C188  1  0.197900  0.524000  0.866800  1.0  -0.122
  C  C189  1  0.144400  0.480700  0.839600  1.0  -0.0977
  C  C190  1  0.058400  0.490300  0.822800  1.0  -0.1297
  C  C191  1  0.026700  0.543800  0.834800  1.0  -0.0844
  C  C192  1  0.078300  0.587100  0.861900  1.0  -0.2571
  C  C193  1  0.997400  0.445100  0.796700  1.0  0.6453
  C  C194  1  0.135300  0.470300  0.020100  1.0  0.2613
  C  C195  1  0.182700  0.425900  0.007900  1.0  -0.1474
  C  C196  1  0.149000  0.387000  0.966500  1.0  -0.0409
  C  C197  1  0.061800  0.392200  0.940200  1.0  -0.1421
  C  C198  1  0.014500  0.435800  0.955200  1.0  -0.0703
  C  C199  1  0.049100  0.476400  0.996800  1.0  -0.1248
  C  C200  1  0.026600  0.352400  0.891600  1.0  0.6984
  C  C201  1  0.272300  0.952400  0.313900  1.0  0.66
  C  C202  1  0.208600  0.998000  0.320200  1.0  -0.0185
  C  C203  1  0.983200  0.916300  0.504700  1.0  0.2006
  C  C204  1  0.925500  0.878800  0.470000  1.0  -0.1809
  C  C205  1  0.941100  0.857800  0.419500  1.0  -0.0811
  C  C206  1  0.015700  0.873600  0.399500  1.0  -0.169
  C  C207  1  0.073500  0.911800  0.432600  1.0  -0.0385
  C  C208  1  0.058200  0.933400  0.484400  1.0  -0.1731
  C  C209  1  0.027100  0.853800  0.341200  1.0  0.6758
  C  C210  1  0.820600  0.031800  0.396900  1.0  0.2235
  C  C211  1  0.746900  0.002400  0.394100  1.0  -0.1532
  C  C212  1  0.730100  0.956200  0.358500  1.0  -0.0635
  C  C213  1  0.785000  0.938900  0.322300  1.0  -0.1454
  C  C214  1  0.860900  0.968400  0.325400  1.0  -0.0637
  C  C215  1  0.879400  0.014500  0.363700  1.0  -0.1344
  C  C216  1  0.764700  0.888600  0.283900  1.0  0.6858
  C  C217  1  0.687900  0.965800  0.553300  1.0  0.2519
  C  C218  1  0.605300  0.980600  0.524500  1.0  -0.2209
  C  C219  1  0.565300  0.946000  0.478600  1.0  -0.0474
  C  C220  1  0.609100  0.900300  0.457500  1.0  -0.166
  C  C221  1  0.690800  0.886600  0.489300  1.0  -0.0586
  C  C222  1  0.730100  0.918100  0.536300  1.0  -0.1354
  C  C223  1  0.570100  0.870300  0.404700  1.0  0.701
  C  C224  1  0.725500  0.117500  0.645200  1.0  0.2846
  C  C225  1  0.728000  0.147800  0.695000  1.0  -0.1915
  C  C226  1  0.661700  0.184900  0.700300  1.0  -0.0892
  C  C227  1  0.592800  0.189900  0.652600  1.0  -0.117
  C  C228  1  0.590800  0.157500  0.603600  1.0  -0.0659
  C  C229  1  0.656800  0.121400  0.597300  1.0  -0.1993
  C  C230  1  0.520300  0.229600  0.656900  1.0  0.6496
  C  C231  1  0.857300  0.184600  0.544300  1.0  0.2214
  C  C232  1  0.901500  0.196200  0.598800  1.0  -0.1355
  C  C233  1  0.864500  0.233000  0.636200  1.0  -0.0866
  C  C234  1  0.788300  0.257300  0.615000  1.0  -0.1373
  C  C235  1  0.744600  0.247200  0.557800  1.0  -0.0578
  C  C236  1  0.782100  0.211400  0.521500  1.0  -0.1316
  C  C237  1  0.745400  0.295200  0.653700  1.0  0.6708
  C  C238  1  0.091000  0.061600  0.629300  1.0  0.1633
  C  C239  1  0.065000  0.087000  0.676700  1.0  -0.1832
  C  C240  1  0.102000  0.139600  0.693900  1.0  -0.088
  C  C241  1  0.165100  0.163700  0.669900  1.0  -0.1586
  C  C242  1  0.192000  0.136200  0.624600  1.0  -0.1045
  C  C243  1  0.156900  0.083900  0.606300  1.0  -0.1532
  C  C244  1  0.205700  0.220300  0.689800  1.0  0.7241
  C  C245  1  0.489100  0.077600  0.922400  1.0  0.2422
  C  C246  1  0.440200  0.124300  0.935900  1.0  -0.1075
  C  C247  1  0.414000  0.166000  0.894800  1.0  -0.0994
  C  C248  1  0.437100  0.163800  0.840100  1.0  -0.1536
  C  C249  1  0.484400  0.117900  0.826900  1.0  -0.0939
  C  C250  1  0.508800  0.075500  0.868000  1.0  -0.1812
  C  C251  1  0.416600  0.210600  0.796400  1.0  0.6807
  C  C252  1  0.802000  0.113600  0.856000  1.0  0.2764
  C  C253  1  0.779500  0.168900  0.845700  1.0  -0.1974
  C  C254  1  0.837800  0.206700  0.827200  1.0  -0.1143
  C  C255  1  0.917000  0.188000  0.818900  1.0  -0.113
  C  C256  1  0.935600  0.129600  0.827300  1.0  -0.0459
  C  C257  1  0.881100  0.092500  0.846500  1.0  -0.2393
  C  C258  1  0.976500  0.226500  0.799000  1.0  0.6603
  C  C259  1  0.701200  0.219200  0.980600  1.0  0.2361
  C  C260  1  0.628300  0.225300  0.941600  1.0  -0.1539
  C  C261  1  0.626100  0.260300  0.892000  1.0  -0.0812
  C  C262  1  0.701400  0.291600  0.888000  1.0  -0.0763
  C  C263  1  0.773500  0.286400  0.930800  1.0  0.0038
  C  C264  1  0.774900  0.249300  0.978100  1.0  -0.1652
  C  C265  1  0.705600  0.323400  0.834400  1.0  0.6693
  C  C266  1  0.585800  0.960300  0.076600  1.0  0.2777
  C  C267  1  0.524400  0.991500  0.095900  1.0  -0.0479
  C  C268  1  0.497400  0.974500  0.145400  1.0  -0.0727
  C  C269  1  0.531500  0.927000  0.176200  1.0  -0.1454
  C  C270  1  0.592100  0.894000  0.154400  1.0  -0.0187
  C  C271  1  0.620500  0.912000  0.105900  1.0  -0.213
  C  C272  1  0.496200  0.909200  0.229500  1.0  0.6794
  C  C273  1  0.833700  0.075800  0.121700  1.0  0.2714
  C  C274  1  0.802100  0.024000  0.133200  1.0  -0.1235
  C  C275  1  0.855600  0.980700  0.160400  1.0  -0.097
  C  C276  1  0.941600  0.990300  0.177200  1.0  -0.1301
  C  C277  1  0.973300  0.043800  0.165200  1.0  -0.0815
  C  C278  1  0.921700  0.087100  0.138100  1.0  -0.2575
  C  C279  1  0.002600  0.945100  0.203300  1.0  0.6457
  C  C280  1  0.864700  0.970300  0.979900  1.0  0.2608
  C  C281  1  0.817300  0.925900  0.992100  1.0  -0.1469
  C  C282  1  0.851000  0.887000  0.033500  1.0  -0.0385
  C  C283  1  0.938200  0.892200  0.059800  1.0  -0.1431
  C  C284  1  0.985500  0.935800  0.044800  1.0  -0.0698
  C  C285  1  0.950900  0.976400  0.003200  1.0  -0.1253
  C  C286  1  0.973400  0.852400  0.108400  1.0  0.6981
  C  C287  1  0.727700  0.452400  0.686100  1.0  0.6601
  C  C288  1  0.791400  0.498000  0.679800  1.0  -0.0183
  N  N289  1  0.358000  0.580100  0.965800  1.0  -0.4764
  N  N290  1  0.330300  0.518100  0.057200  1.0  -0.4942
  N  N291  1  0.215000  0.600100  0.011100  1.0  -0.5192
  N  N292  1  0.105500  0.508000  0.383000  1.0  -0.4501
  N  N293  1  0.209700  0.567500  0.467800  1.0  -0.6768
  N  N294  1  0.047900  0.542800  0.481400  1.0  -0.5242
  N  N295  1  0.642000  0.080100  0.034200  1.0  -0.4759
  N  N296  1  0.669700  0.018100  0.942800  1.0  -0.4908
  N  N297  1  0.785000  0.100100  0.988900  1.0  -0.5193
  N  N298  1  0.894500  0.008000  0.617000  1.0  -0.4543
  N  N299  1  0.790300  0.067500  0.532200  1.0  -0.6746
  N  N300  1  0.952100  0.042800  0.518600  1.0  -0.5219
  O  O301  1  0.906000  0.369500  0.677200  1.0  -0.6544
  O  O302  1  0.030300  0.321700  0.686500  1.0  -0.6589
  O  O303  1  0.297600  0.358700  0.710800  1.0  -0.6906
  O  O304  1  0.188500  0.378800  0.754400  1.0  -0.67
  O  O305  1  0.383100  0.334200  0.614400  1.0  -0.6924
  O  O306  1  0.505400  0.383000  0.618600  1.0  -0.7113
  O  O307  1  0.037200  0.437300  0.444500  1.0  -0.5896
  O  O308  1  0.161900  0.581600  0.568500  1.0  -0.4707
  O  O309  1  0.272400  0.499700  0.400500  1.0  -0.4533
  O  O310  1  0.944100  0.506900  0.390300  1.0  -0.4232
  O  O311  1  0.108200  0.647600  0.494200  1.0  -0.4695
  O  O312  1  0.203100  0.583400  0.355100  1.0  -0.5123
  O  O313  1  0.730100  0.735800  0.330400  1.0  -0.6819
  O  O314  1  0.824600  0.747500  0.272700  1.0  -0.745
  O  O315  1  0.223000  0.797500  0.291300  1.0  -0.7297
  O  O316  1  0.322300  0.820800  0.370900  1.0  -0.647
  O  O317  1  0.461100  0.775700  0.311200  1.0  -0.7885
  O  O318  1  0.553400  0.720100  0.366100  1.0  -0.6092
  O  O319  1  0.222400  0.846500  0.170400  1.0  -0.6855
  O  O320  1  0.358900  0.825600  0.207100  1.0  -0.6542
  O  O321  1  0.048300  0.776400  0.220500  1.0  -0.7784
  O  O322  1  0.945500  0.712900  0.196900  1.0  -0.6763
  O  O323  1  0.560000  0.703600  0.252600  1.0  -0.667
  O  O324  1  0.623300  0.755600  0.197700  1.0  -0.6691
  O  O325  1  0.482800  0.535200  0.035900  1.0  -0.4304
  O  O326  1  0.298000  0.683300  0.969500  1.0  -0.4702
  O  O327  1  0.257900  0.578300  0.125100  1.0  -0.4565
  O  O328  1  0.384900  0.471000  0.975700  1.0  -0.5573
  O  O329  1  0.214800  0.620800  0.903900  1.0  -0.4695
  O  O330  1  0.168600  0.511000  0.064800  1.0  -0.4978
  O  O331  1  0.477400  0.362700  0.745000  1.0  -0.818
  O  O332  1  0.560900  0.437300  0.754800  1.0  -0.6369
  O  O333  1  0.918000  0.454600  0.787900  1.0  -0.6271
  O  O334  1  0.026600  0.396700  0.783000  1.0  -0.7789
  O  O335  1  0.948200  0.354300  0.870800  1.0  -0.6881
  O  O336  1  0.079000  0.320000  0.872500  1.0  -0.6745
  O  O337  1  0.250300  0.912300  0.273800  1.0  -0.7453
  O  O338  1  0.345500  0.950000  0.344600  1.0  -0.6387
  O  O339  1  0.094000  0.869500  0.322800  1.0  -0.6544
  O  O340  1  0.969700  0.821700  0.313500  1.0  -0.6596
  O  O341  1  0.702400  0.858700  0.289200  1.0  -0.6912
  O  O342  1  0.811500  0.878800  0.245600  1.0  -0.6698
  O  O343  1  0.616900  0.834200  0.385600  1.0  -0.6942
  O  O344  1  0.494600  0.883000  0.381400  1.0  -0.7117
  O  O345  1  0.962800  0.937300  0.555500  1.0  -0.5897
  O  O346  1  0.838100  0.081600  0.431500  1.0  -0.4719
  O  O347  1  0.727600  0.999700  0.599500  1.0  -0.4565
  O  O348  1  0.055900  0.006900  0.609700  1.0  -0.4202
  O  O349  1  0.891800  0.147600  0.505800  1.0  -0.4704
  O  O350  1  0.796900  0.083400  0.644900  1.0  -0.5137
  O  O351  1  0.269900  0.235800  0.669600  1.0  -0.6834
  O  O352  1  0.175400  0.247500  0.727300  1.0  -0.7445
  O  O353  1  0.777000  0.297500  0.708700  1.0  -0.7308
  O  O354  1  0.677700  0.320800  0.629100  1.0  -0.6475
  O  O355  1  0.538900  0.275700  0.688800  1.0  -0.7883
  O  O356  1  0.446600  0.220100  0.633900  1.0  -0.61
  O  O357  1  0.777600  0.346500  0.829600  1.0  -0.686
  O  O358  1  0.641100  0.325600  0.792900  1.0  -0.6543
  O  O359  1  0.951700  0.276400  0.779500  1.0  -0.7761
  O  O360  1  0.054500  0.212900  0.803100  1.0  -0.6761
  O  O361  1  0.440000  0.203600  0.747400  1.0  -0.6673
  O  O362  1  0.376700  0.255600  0.802300  1.0  -0.6688
  O  O363  1  0.517200  0.035200  0.964100  1.0  -0.433
  O  O364  1  0.702000  0.183300  0.030500  1.0  -0.4675
  O  O365  1  0.742100  0.078300  0.874900  1.0  -0.4558
  O  O366  1  0.615100  0.971000  0.024300  1.0  -0.5599
  O  O367  1  0.785200  0.120800  0.096100  1.0  -0.4663
  O  O368  1  0.831400  0.011000  0.935200  1.0  -0.4967
  O  O369  1  0.522600  0.862700  0.255000  1.0  -0.8192
  O  O370  1  0.439100  0.937300  0.245200  1.0  -0.6351
  O  O371  1  0.082000  0.954600  0.212100  1.0  -0.626
  O  O372  1  0.973400  0.896700  0.217000  1.0  -0.7785
  O  O373  1  0.051800  0.854300  0.129200  1.0  -0.6876
  O  O374  1  0.921000  0.820000  0.127500  1.0  -0.6735
  O  O375  1  0.749700  0.412300  0.726200  1.0  -0.7452
  O  O376  1  0.654500  0.450000  0.655400  1.0  -0.6411
