# generated using pymatgen
data_KErRe4C12(SN3)4
_symmetry_space_group_name_H-M   'P 1'
_cell_length_a   14.51850000
_cell_length_b   21.57020000
_cell_length_c   20.62010000
_cell_angle_alpha   90.00000000
_cell_angle_beta   90.00000000
_cell_angle_gamma   90.00000000
_symmetry_Int_Tables_number   1
_chemical_formula_structural   KErRe4C12(SN3)4
_chemical_formula_sum   'K8 Er8 Re32 C96 S32 N96'
_cell_volume   6457.53379889
_cell_formula_units_Z   8
loop_
 _symmetry_equiv_pos_site_id
 _symmetry_equiv_pos_as_xyz
  1  'x, y, z'
loop_
 _atom_site_type_symbol
 _atom_site_label
 _atom_site_symmetry_multiplicity
 _atom_site_fract_x
 _atom_site_fract_y
 _atom_site_fract_z
 _atom_site_occupancy
 _atom_site_charge
  K  K1  1  0.409200  0.500000  0.500000  1.0  0.9453
  K  K2  1  0.909200  0.000000  0.500000  1.0  0.9453
  K  K3  1  0.590800  0.500000  0.000000  1.0  0.9451
  K  K4  1  0.090800  0.000000  0.000000  1.0  0.9451
  K  K5  1  0.590800  0.500000  0.500000  1.0  0.9451
  K  K6  1  0.090800  0.000000  0.500000  1.0  0.9451
  K  K7  1  0.409200  0.500000  0.000000  1.0  0.9453
  K  K8  1  0.909200  0.000000  0.000000  1.0  0.9453
  Er  Er9  1  0.238210  0.356830  0.250000  1.0  1.6619
  Er  Er10  1  0.738210  0.856830  0.250000  1.0  1.6619
  Er  Er11  1  0.761790  0.643170  0.750000  1.0  1.6607
  Er  Er12  1  0.261790  0.143170  0.750000  1.0  1.6607
  Er  Er13  1  0.761790  0.356830  0.250000  1.0  1.6617
  Er  Er14  1  0.261790  0.856830  0.250000  1.0  1.6617
  Er  Er15  1  0.238210  0.643170  0.750000  1.0  1.661
  Er  Er16  1  0.738210  0.143170  0.750000  1.0  1.661
  Re  Re17  1  0.095100  0.361780  0.559170  1.0  0.0682
  Re  Re18  1  0.595100  0.861780  0.559170  1.0  0.0682
  Re  Re19  1  0.904900  0.638220  0.059170  1.0  0.0699
  Re  Re20  1  0.404900  0.138220  0.059170  1.0  0.0699
  Re  Re21  1  0.904900  0.361780  0.940830  1.0  0.0693
  Re  Re22  1  0.404900  0.861780  0.940830  1.0  0.0693
  Re  Re23  1  0.095100  0.638220  0.440830  1.0  0.0695
  Re  Re24  1  0.595100  0.138220  0.440830  1.0  0.0695
  Re  Re25  1  0.904900  0.638220  0.440830  1.0  0.0701
  Re  Re26  1  0.404900  0.138220  0.440830  1.0  0.0701
  Re  Re27  1  0.095100  0.361780  0.940830  1.0  0.0688
  Re  Re28  1  0.595100  0.861780  0.940830  1.0  0.0688
  Re  Re29  1  0.095100  0.638220  0.059170  1.0  0.0691
  Re  Re30  1  0.595100  0.138220  0.059170  1.0  0.0691
  Re  Re31  1  0.904900  0.361780  0.559170  1.0  0.0688
  Re  Re32  1  0.404900  0.861780  0.559170  1.0  0.0688
  Re  Re33  1  0.000000  0.307120  0.459010  1.0  0.0762
  Re  Re34  1  0.000000  0.252940  0.579700  1.0  -0.0056
  Re  Re35  1  0.500000  0.807120  0.459010  1.0  0.0762
  Re  Re36  1  0.500000  0.752940  0.579700  1.0  -0.0056
  Re  Re37  1  0.000000  0.692880  0.959010  1.0  0.0751
  Re  Re38  1  0.000000  0.747060  0.079700  1.0  -0.0064
  Re  Re39  1  0.500000  0.192880  0.959010  1.0  0.0751
  Re  Re40  1  0.500000  0.247060  0.079700  1.0  -0.0064
  Re  Re41  1  0.000000  0.307120  0.040990  1.0  0.0763
  Re  Re42  1  0.000000  0.252940  0.920300  1.0  -0.0058
  Re  Re43  1  0.500000  0.807120  0.040990  1.0  0.0763
  Re  Re44  1  0.500000  0.752940  0.920300  1.0  -0.0058
  Re  Re45  1  0.000000  0.692880  0.540990  1.0  0.0752
  Re  Re46  1  0.000000  0.747060  0.420300  1.0  -0.0061
  Re  Re47  1  0.500000  0.192880  0.540990  1.0  0.0752
  Re  Re48  1  0.500000  0.247060  0.420300  1.0  -0.0061
  C  C49  1  0.094800  0.330600  0.386500  1.0  0.223
  C  C50  1  0.206000  0.341600  0.621300  1.0  0.2531
  C  C51  1  0.110900  0.448000  0.606100  1.0  0.2315
  C  C52  1  0.203700  0.395700  0.500700  1.0  0.1961
  C  C53  1  0.095300  0.214800  0.645200  1.0  0.2261
  C  C54  1  0.594800  0.830600  0.386500  1.0  0.223
  C  C55  1  0.706000  0.841600  0.621300  1.0  0.2531
  C  C56  1  0.610900  0.948000  0.606100  1.0  0.2315
  C  C57  1  0.703700  0.895700  0.500700  1.0  0.1961
  C  C58  1  0.595300  0.714800  0.645200  1.0  0.2261
  C  C59  1  0.905200  0.669400  0.886500  1.0  0.2233
  C  C60  1  0.794000  0.658400  0.121300  1.0  0.2536
  C  C61  1  0.889100  0.552000  0.106100  1.0  0.2308
  C  C62  1  0.796300  0.604300  0.000700  1.0  0.1962
  C  C63  1  0.904700  0.785200  0.145200  1.0  0.2241
  C  C64  1  0.405200  0.169400  0.886500  1.0  0.2233
  C  C65  1  0.294000  0.158400  0.121300  1.0  0.2536
  C  C66  1  0.389100  0.052000  0.106100  1.0  0.2308
  C  C67  1  0.296300  0.104300  0.000700  1.0  0.1962
  C  C68  1  0.404700  0.285200  0.145200  1.0  0.2241
  C  C69  1  0.905200  0.330600  0.113500  1.0  0.2238
  C  C70  1  0.794000  0.341600  0.878700  1.0  0.2533
  C  C71  1  0.889100  0.448000  0.893900  1.0  0.2305
  C  C72  1  0.796300  0.395700  0.999300  1.0  0.1958
  C  C73  1  0.904700  0.214800  0.854800  1.0  0.2248
  C  C74  1  0.405200  0.830600  0.113500  1.0  0.2238
  C  C75  1  0.294000  0.841600  0.878700  1.0  0.2533
  C  C76  1  0.389100  0.948000  0.893900  1.0  0.2305
  C  C77  1  0.296300  0.895700  0.999300  1.0  0.1958
  C  C78  1  0.404700  0.714800  0.854800  1.0  0.2248
  C  C79  1  0.094800  0.669400  0.613500  1.0  0.2246
  C  C80  1  0.206000  0.658400  0.378700  1.0  0.2527
  C  C81  1  0.110900  0.552000  0.393900  1.0  0.2329
  C  C82  1  0.203700  0.604300  0.499300  1.0  0.1965
  C  C83  1  0.095300  0.785200  0.354800  1.0  0.2247
  C  C84  1  0.594800  0.169400  0.613500  1.0  0.2246
  C  C85  1  0.706000  0.158400  0.378700  1.0  0.2527
  C  C86  1  0.610900  0.052000  0.393900  1.0  0.2329
  C  C87  1  0.703700  0.104300  0.499300  1.0  0.1965
  C  C88  1  0.595300  0.285200  0.354800  1.0  0.2247
  C  C89  1  0.905200  0.669400  0.613500  1.0  0.2239
  C  C90  1  0.794000  0.658400  0.378700  1.0  0.2534
  C  C91  1  0.889100  0.552000  0.393900  1.0  0.2312
  C  C92  1  0.796300  0.604300  0.499300  1.0  0.1961
  C  C93  1  0.904700  0.785200  0.354800  1.0  0.2241
  C  C94  1  0.405200  0.169400  0.613500  1.0  0.2239
  C  C95  1  0.294000  0.158400  0.378700  1.0  0.2534
  C  C96  1  0.389100  0.052000  0.393900  1.0  0.2312
  C  C97  1  0.296300  0.104300  0.499300  1.0  0.1961
  C  C98  1  0.404700  0.285200  0.354800  1.0  0.2241
  C  C99  1  0.094800  0.330600  0.113500  1.0  0.2244
  C  C100  1  0.206000  0.341600  0.878700  1.0  0.2529
  C  C101  1  0.110900  0.448000  0.893900  1.0  0.2318
  C  C102  1  0.203700  0.395700  0.999300  1.0  0.1959
  C  C103  1  0.095300  0.214800  0.854800  1.0  0.2256
  C  C104  1  0.594800  0.830600  0.113500  1.0  0.2244
  C  C105  1  0.706000  0.841600  0.878700  1.0  0.2529
  C  C106  1  0.610900  0.948000  0.893900  1.0  0.2318
  C  C107  1  0.703700  0.895700  0.999300  1.0  0.1959
  C  C108  1  0.595300  0.714800  0.854800  1.0  0.2256
  C  C109  1  0.094800  0.669400  0.886500  1.0  0.2233
  C  C110  1  0.206000  0.658400  0.121300  1.0  0.2532
  C  C111  1  0.110900  0.552000  0.106100  1.0  0.2327
  C  C112  1  0.203700  0.604300  0.000700  1.0  0.1966
  C  C113  1  0.095300  0.785200  0.145200  1.0  0.2252
  C  C114  1  0.594800  0.169400  0.886500  1.0  0.2233
  C  C115  1  0.706000  0.158400  0.121300  1.0  0.2532
  C  C116  1  0.610900  0.052000  0.106100  1.0  0.2327
  C  C117  1  0.703700  0.104300  0.000700  1.0  0.1966
  C  C118  1  0.595300  0.285200  0.145200  1.0  0.2252
  C  C119  1  0.905200  0.330600  0.386500  1.0  0.2231
  C  C120  1  0.794000  0.341600  0.621300  1.0  0.2533
  C  C121  1  0.889100  0.448000  0.606100  1.0  0.2299
  C  C122  1  0.796300  0.395700  0.500700  1.0  0.196
  C  C123  1  0.904700  0.214800  0.645200  1.0  0.2249
  C  C124  1  0.405200  0.830600  0.386500  1.0  0.2231
  C  C125  1  0.294000  0.841600  0.621300  1.0  0.2533
  C  C126  1  0.389100  0.948000  0.606100  1.0  0.2299
  C  C127  1  0.296300  0.895700  0.500700  1.0  0.196
  C  C128  1  0.404700  0.714800  0.645200  1.0  0.2249
  C  C129  1  0.000000  0.224000  0.406000  1.0  0.2469
  C  C130  1  0.000000  0.160700  0.549100  1.0  0.2482
  C  C131  1  0.500000  0.724000  0.406000  1.0  0.2469
  C  C132  1  0.500000  0.660700  0.549100  1.0  0.2482
  C  C133  1  0.000000  0.776000  0.906000  1.0  0.2455
  C  C134  1  0.000000  0.839300  0.049100  1.0  0.2476
  C  C135  1  0.500000  0.276000  0.906000  1.0  0.2455
  C  C136  1  0.500000  0.339300  0.049100  1.0  0.2476
  C  C137  1  0.000000  0.224000  0.094000  1.0  0.245
  C  C138  1  0.000000  0.160700  0.950900  1.0  0.2483
  C  C139  1  0.500000  0.724000  0.094000  1.0  0.245
  C  C140  1  0.500000  0.660700  0.950900  1.0  0.2483
  C  C141  1  0.000000  0.776000  0.594000  1.0  0.2435
  C  C142  1  0.000000  0.839300  0.450900  1.0  0.2472
  C  C143  1  0.500000  0.276000  0.594000  1.0  0.2435
  C  C144  1  0.500000  0.339300  0.450900  1.0  0.2472
  S  S145  1  0.129400  0.264520  0.511640  1.0  -0.1392
  S  S146  1  0.629400  0.764520  0.511640  1.0  -0.1392
  S  S147  1  0.870600  0.735480  0.011640  1.0  -0.1419
  S  S148  1  0.370600  0.235480  0.011640  1.0  -0.1419
  S  S149  1  0.870600  0.264520  0.988360  1.0  -0.1421
  S  S150  1  0.370600  0.764520  0.988360  1.0  -0.1421
  S  S151  1  0.129400  0.735480  0.488360  1.0  -0.1397
  S  S152  1  0.629400  0.235480  0.488360  1.0  -0.1397
  S  S153  1  0.870600  0.735480  0.488360  1.0  -0.1418
  S  S154  1  0.370600  0.235480  0.488360  1.0  -0.1418
  S  S155  1  0.129400  0.264520  0.988360  1.0  -0.1393
  S  S156  1  0.629400  0.764520  0.988360  1.0  -0.1393
  S  S157  1  0.129400  0.735480  0.011640  1.0  -0.1396
  S  S158  1  0.629400  0.235480  0.011640  1.0  -0.1396
  S  S159  1  0.870600  0.264520  0.511640  1.0  -0.1421
  S  S160  1  0.370600  0.764520  0.511640  1.0  -0.1421
  S  S161  1  0.000000  0.339730  0.649390  1.0  -0.1218
  S  S162  1  0.000000  0.416160  0.483220  1.0  -0.1321
  S  S163  1  0.500000  0.839730  0.649390  1.0  -0.1218
  S  S164  1  0.500000  0.916160  0.483220  1.0  -0.1321
  S  S165  1  0.000000  0.660270  0.149390  1.0  -0.1217
  S  S166  1  0.000000  0.583840  0.983220  1.0  -0.1321
  S  S167  1  0.500000  0.160270  0.149390  1.0  -0.1217
  S  S168  1  0.500000  0.083840  0.983220  1.0  -0.1321
  S  S169  1  0.000000  0.339730  0.850610  1.0  -0.1233
  S  S170  1  0.000000  0.416160  0.016780  1.0  -0.1317
  S  S171  1  0.500000  0.839730  0.850610  1.0  -0.1233
  S  S172  1  0.500000  0.916160  0.016780  1.0  -0.1317
  S  S173  1  0.000000  0.660270  0.350610  1.0  -0.1237
  S  S174  1  0.000000  0.583840  0.516780  1.0  -0.1314
  S  S175  1  0.500000  0.160270  0.350610  1.0  -0.1237
  S  S176  1  0.500000  0.083840  0.516780  1.0  -0.1314
  N  N177  1  0.146800  0.341500  0.345800  1.0  -0.4834
  N  N178  1  0.266900  0.330900  0.654800  1.0  -0.3638
  N  N179  1  0.119500  0.493200  0.635600  1.0  -0.3717
  N  N180  1  0.260800  0.414000  0.467800  1.0  -0.4457
  N  N181  1  0.148000  0.192600  0.679500  1.0  -0.4327
  N  N182  1  0.646800  0.841500  0.345800  1.0  -0.4834
  N  N183  1  0.766900  0.830900  0.654800  1.0  -0.3638
  N  N184  1  0.619500  0.993200  0.635600  1.0  -0.3717
  N  N185  1  0.760800  0.914000  0.467800  1.0  -0.4457
  N  N186  1  0.648000  0.692600  0.679500  1.0  -0.4327
  N  N187  1  0.853200  0.658500  0.845800  1.0  -0.4834
  N  N188  1  0.733100  0.669100  0.154800  1.0  -0.3629
  N  N189  1  0.880500  0.506800  0.135600  1.0  -0.3691
  N  N190  1  0.739200  0.586000  0.967800  1.0  -0.4455
  N  N191  1  0.852000  0.807400  0.179500  1.0  -0.4333
  N  N192  1  0.353200  0.158500  0.845800  1.0  -0.4834
  N  N193  1  0.233100  0.169100  0.154800  1.0  -0.3629
  N  N194  1  0.380500  0.006800  0.135600  1.0  -0.3691
  N  N195  1  0.239200  0.086000  0.967800  1.0  -0.4455
  N  N196  1  0.352000  0.307400  0.179500  1.0  -0.4333
  N  N197  1  0.853200  0.341500  0.154200  1.0  -0.481
  N  N198  1  0.733100  0.330900  0.845200  1.0  -0.3627
  N  N199  1  0.880500  0.493200  0.864400  1.0  -0.3711
  N  N200  1  0.739200  0.414000  0.032200  1.0  -0.446
  N  N201  1  0.852000  0.192600  0.820500  1.0  -0.4319
  N  N202  1  0.353200  0.841500  0.154200  1.0  -0.481
  N  N203  1  0.233100  0.830900  0.845200  1.0  -0.3627
  N  N204  1  0.380500  0.993200  0.864400  1.0  -0.3711
  N  N205  1  0.239200  0.914000  0.032200  1.0  -0.446
  N  N206  1  0.352000  0.692600  0.820500  1.0  -0.4319
  N  N207  1  0.146800  0.658500  0.654200  1.0  -0.4808
  N  N208  1  0.266900  0.669100  0.345200  1.0  -0.3631
  N  N209  1  0.119500  0.506800  0.364400  1.0  -0.3685
  N  N210  1  0.260800  0.586000  0.532200  1.0  -0.446
  N  N211  1  0.148000  0.807400  0.320500  1.0  -0.4338
  N  N212  1  0.646800  0.158500  0.654200  1.0  -0.4808
  N  N213  1  0.766900  0.169100  0.345200  1.0  -0.3631
  N  N214  1  0.619500  0.006800  0.364400  1.0  -0.3685
  N  N215  1  0.760800  0.086000  0.532200  1.0  -0.446
  N  N216  1  0.648000  0.307400  0.320500  1.0  -0.4338
  N  N217  1  0.853200  0.658500  0.654200  1.0  -0.4803
  N  N218  1  0.733100  0.669100  0.345200  1.0  -0.3628
  N  N219  1  0.880500  0.506800  0.364400  1.0  -0.3695
  N  N220  1  0.739200  0.586000  0.532200  1.0  -0.4449
  N  N221  1  0.852000  0.807400  0.320500  1.0  -0.4325
  N  N222  1  0.353200  0.158500  0.654200  1.0  -0.4803
  N  N223  1  0.233100  0.169100  0.345200  1.0  -0.3628
  N  N224  1  0.380500  0.006800  0.364400  1.0  -0.3695
  N  N225  1  0.239200  0.086000  0.532200  1.0  -0.4449
  N  N226  1  0.352000  0.307400  0.320500  1.0  -0.4325
  N  N227  1  0.146800  0.341500  0.154200  1.0  -0.4811
  N  N228  1  0.266900  0.330900  0.845200  1.0  -0.3628
  N  N229  1  0.119500  0.493200  0.864400  1.0  -0.3713
  N  N230  1  0.260800  0.414000  0.032200  1.0  -0.4469
  N  N231  1  0.148000  0.192600  0.820500  1.0  -0.4334
  N  N232  1  0.646800  0.841500  0.154200  1.0  -0.4811
  N  N233  1  0.766900  0.830900  0.845200  1.0  -0.3628
  N  N234  1  0.619500  0.993200  0.864400  1.0  -0.3713
  N  N235  1  0.760800  0.914000  0.032200  1.0  -0.4469
  N  N236  1  0.648000  0.692600  0.820500  1.0  -0.4334
  N  N237  1  0.146800  0.658500  0.845800  1.0  -0.4836
  N  N238  1  0.266900  0.669100  0.154800  1.0  -0.3638
  N  N239  1  0.119500  0.506800  0.135600  1.0  -0.3703
  N  N240  1  0.260800  0.586000  0.967800  1.0  -0.4464
  N  N241  1  0.148000  0.807400  0.179500  1.0  -0.4342
  N  N242  1  0.646800  0.158500  0.845800  1.0  -0.4836
  N  N243  1  0.766900  0.169100  0.154800  1.0  -0.3638
  N  N244  1  0.619500  0.006800  0.135600  1.0  -0.3703
  N  N245  1  0.760800  0.086000  0.967800  1.0  -0.4464
  N  N246  1  0.648000  0.307400  0.179500  1.0  -0.4342
  N  N247  1  0.853200  0.341500  0.345800  1.0  -0.4833
  N  N248  1  0.733100  0.330900  0.654800  1.0  -0.3632
  N  N249  1  0.880500  0.493200  0.635600  1.0  -0.372
  N  N250  1  0.739200  0.414000  0.467800  1.0  -0.445
  N  N251  1  0.852000  0.192600  0.679500  1.0  -0.4311
  N  N252  1  0.353200  0.841500  0.345800  1.0  -0.4833
  N  N253  1  0.233100  0.830900  0.654800  1.0  -0.3632
  N  N254  1  0.380500  0.993200  0.635600  1.0  -0.372
  N  N255  1  0.239200  0.914000  0.467800  1.0  -0.445
  N  N256  1  0.352000  0.692600  0.679500  1.0  -0.4311
  N  N257  1  0.000000  0.181000  0.374600  1.0  -0.3705
  N  N258  1  0.000000  0.108600  0.536100  1.0  -0.47
  N  N259  1  0.500000  0.681000  0.374600  1.0  -0.3705
  N  N260  1  0.500000  0.608600  0.536100  1.0  -0.47
  N  N261  1  0.000000  0.819000  0.874600  1.0  -0.3713
  N  N262  1  0.000000  0.891400  0.036100  1.0  -0.4707
  N  N263  1  0.500000  0.319000  0.874600  1.0  -0.3713
  N  N264  1  0.500000  0.391400  0.036100  1.0  -0.4707
  N  N265  1  0.000000  0.181000  0.125400  1.0  -0.3714
  N  N266  1  0.000000  0.108600  0.963900  1.0  -0.4701
  N  N267  1  0.500000  0.681000  0.125400  1.0  -0.3714
  N  N268  1  0.500000  0.608600  0.963900  1.0  -0.4701
  N  N269  1  0.000000  0.819000  0.625400  1.0  -0.3728
  N  N270  1  0.000000  0.891400  0.463900  1.0  -0.4706
  N  N271  1  0.500000  0.319000  0.625400  1.0  -0.3728
  N  N272  1  0.500000  0.391400  0.463900  1.0  -0.4706
