# generated using pymatgen
data_KLuRe4C12(SN3)4
_symmetry_space_group_name_H-M   'P 1'
_cell_length_a   14.40660000
_cell_length_b   21.33300000
_cell_length_c   20.63200000
_cell_angle_alpha   90.00000000
_cell_angle_beta   90.00000000
_cell_angle_gamma   90.00000000
_symmetry_Int_Tables_number   1
_chemical_formula_structural   KLuRe4C12(SN3)4
_chemical_formula_sum   'K8 Lu8 Re32 C96 S32 N96'
_cell_volume   6340.95630661
_cell_formula_units_Z   8
loop_
 _symmetry_equiv_pos_site_id
 _symmetry_equiv_pos_as_xyz
  1  'x, y, z'
loop_
 _atom_site_type_symbol
 _atom_site_label
 _atom_site_symmetry_multiplicity
 _atom_site_fract_x
 _atom_site_fract_y
 _atom_site_fract_z
 _atom_site_occupancy
 _atom_site_charge
  K  K1  1  0.587580  0.500000  0.500000  1.0  0.9571
  K  K2  1  0.087580  0.000000  0.500000  1.0  0.9571
  K  K3  1  0.412420  0.500000  0.000000  1.0  0.9582
  K  K4  1  0.912420  0.000000  0.000000  1.0  0.9582
  K  K5  1  0.412420  0.500000  0.500000  1.0  0.9582
  K  K6  1  0.912420  0.000000  0.500000  1.0  0.9582
  K  K7  1  0.587580  0.500000  0.000000  1.0  0.9571
  K  K8  1  0.087580  0.000000  0.000000  1.0  0.9571
  Lu  Lu9  1  0.262610  0.857300  0.250000  1.0  1.8858
  Lu  Lu10  1  0.762610  0.357300  0.250000  1.0  1.8858
  Lu  Lu11  1  0.737390  0.142700  0.750000  1.0  1.8859
  Lu  Lu12  1  0.237390  0.642700  0.750000  1.0  1.8859
  Lu  Lu13  1  0.737390  0.857300  0.250000  1.0  1.8854
  Lu  Lu14  1  0.237390  0.357300  0.250000  1.0  1.8854
  Lu  Lu15  1  0.262610  0.142700  0.750000  1.0  1.8864
  Lu  Lu16  1  0.762610  0.642700  0.750000  1.0  1.8864
  Re  Re17  1  0.904210  0.638820  0.441220  1.0  0.0586
  Re  Re18  1  0.404210  0.138820  0.441220  1.0  0.0586
  Re  Re19  1  0.095790  0.361180  0.941220  1.0  0.0577
  Re  Re20  1  0.595790  0.861180  0.941220  1.0  0.0577
  Re  Re21  1  0.095790  0.638820  0.058780  1.0  0.0581
  Re  Re22  1  0.595790  0.138820  0.058780  1.0  0.0581
  Re  Re23  1  0.904210  0.361180  0.558780  1.0  0.0573
  Re  Re24  1  0.404210  0.861180  0.558780  1.0  0.0573
  Re  Re25  1  0.095790  0.361180  0.558780  1.0  0.0572
  Re  Re26  1  0.595790  0.861180  0.558780  1.0  0.0572
  Re  Re27  1  0.904210  0.638820  0.058780  1.0  0.0584
  Re  Re28  1  0.404210  0.138820  0.058780  1.0  0.0584
  Re  Re29  1  0.904210  0.361180  0.941220  1.0  0.0578
  Re  Re30  1  0.404210  0.861180  0.941220  1.0  0.0578
  Re  Re31  1  0.095790  0.638820  0.441220  1.0  0.0583
  Re  Re32  1  0.595790  0.138820  0.441220  1.0  0.0583
  Re  Re33  1  0.000000  0.748930  0.420610  1.0  -0.0041
  Re  Re34  1  0.000000  0.694020  0.541390  1.0  -0.053
  Re  Re35  1  0.500000  0.248930  0.420610  1.0  -0.0041
  Re  Re36  1  0.500000  0.194020  0.541390  1.0  -0.053
  Re  Re37  1  0.000000  0.251070  0.920610  1.0  -0.0033
  Re  Re38  1  0.000000  0.305980  0.041390  1.0  -0.0525
  Re  Re39  1  0.500000  0.751070  0.920610  1.0  -0.0033
  Re  Re40  1  0.500000  0.805980  0.041390  1.0  -0.0525
  Re  Re41  1  0.000000  0.748930  0.079390  1.0  -0.0045
  Re  Re42  1  0.000000  0.694020  0.958610  1.0  -0.0523
  Re  Re43  1  0.500000  0.248930  0.079390  1.0  -0.0045
  Re  Re44  1  0.500000  0.194020  0.958610  1.0  -0.0523
  Re  Re45  1  0.000000  0.251070  0.579390  1.0  -0.0032
  Re  Re46  1  0.000000  0.305980  0.458610  1.0  -0.0518
  Re  Re47  1  0.500000  0.751070  0.579390  1.0  -0.0032
  Re  Re48  1  0.500000  0.805980  0.458610  1.0  -0.0518
  C  C49  1  0.096100  0.786500  0.354700  1.0  0.2092
  C  C50  1  0.095500  0.669300  0.614200  1.0  0.1888
  C  C51  1  0.888100  0.551400  0.394000  1.0  0.2202
  C  C52  1  0.794300  0.604500  0.498800  1.0  0.1973
  C  C53  1  0.791900  0.659200  0.379400  1.0  0.1895
  C  C54  1  0.596100  0.286500  0.354700  1.0  0.2092
  C  C55  1  0.595500  0.169300  0.614200  1.0  0.1888
  C  C56  1  0.388100  0.051400  0.394000  1.0  0.2202
  C  C57  1  0.294300  0.104500  0.498800  1.0  0.1973
  C  C58  1  0.291900  0.159200  0.379400  1.0  0.1895
  C  C59  1  0.903900  0.213500  0.854700  1.0  0.2093
  C  C60  1  0.904500  0.330700  0.114200  1.0  0.1879
  C  C61  1  0.111900  0.448600  0.894000  1.0  0.22
  C  C62  1  0.205700  0.395500  0.998800  1.0  0.1973
  C  C63  1  0.208100  0.340800  0.879400  1.0  0.1907
  C  C64  1  0.403900  0.713500  0.854700  1.0  0.2093
  C  C65  1  0.404500  0.830700  0.114200  1.0  0.1879
  C  C66  1  0.611900  0.948600  0.894000  1.0  0.22
  C  C67  1  0.705700  0.895500  0.998800  1.0  0.1973
  C  C68  1  0.708100  0.840800  0.879400  1.0  0.1907
  C  C69  1  0.903900  0.786500  0.145300  1.0  0.2083
  C  C70  1  0.904500  0.669300  0.885800  1.0  0.1871
  C  C71  1  0.111900  0.551400  0.106000  1.0  0.2207
  C  C72  1  0.205700  0.604500  0.001200  1.0  0.1982
  C  C73  1  0.208100  0.659200  0.120600  1.0  0.192
  C  C74  1  0.403900  0.286500  0.145300  1.0  0.2083
  C  C75  1  0.404500  0.169300  0.885800  1.0  0.1871
  C  C76  1  0.611900  0.051400  0.106000  1.0  0.2207
  C  C77  1  0.705700  0.104500  0.001200  1.0  0.1982
  C  C78  1  0.708100  0.159200  0.120600  1.0  0.192
  C  C79  1  0.096100  0.213500  0.645300  1.0  0.2107
  C  C80  1  0.095500  0.330700  0.385800  1.0  0.1873
  C  C81  1  0.888100  0.448600  0.606000  1.0  0.2186
  C  C82  1  0.794300  0.395500  0.501200  1.0  0.1975
  C  C83  1  0.791900  0.340800  0.620600  1.0  0.1898
  C  C84  1  0.596100  0.713500  0.645300  1.0  0.2107
  C  C85  1  0.595500  0.830700  0.385800  1.0  0.1873
  C  C86  1  0.388100  0.948600  0.606000  1.0  0.2186
  C  C87  1  0.294300  0.895500  0.501200  1.0  0.1975
  C  C88  1  0.291900  0.840800  0.620600  1.0  0.1898
  C  C89  1  0.903900  0.213500  0.645300  1.0  0.2093
  C  C90  1  0.904500  0.330700  0.385800  1.0  0.1868
  C  C91  1  0.111900  0.448600  0.606000  1.0  0.2195
  C  C92  1  0.205700  0.395500  0.501200  1.0  0.1978
  C  C93  1  0.208100  0.340800  0.620600  1.0  0.1914
  C  C94  1  0.403900  0.713500  0.645300  1.0  0.2093
  C  C95  1  0.404500  0.830700  0.385800  1.0  0.1868
  C  C96  1  0.611900  0.948600  0.606000  1.0  0.2195
  C  C97  1  0.705700  0.895500  0.501200  1.0  0.1978
  C  C98  1  0.708100  0.840800  0.620600  1.0  0.1914
  C  C99  1  0.096100  0.786500  0.145300  1.0  0.2095
  C  C100  1  0.095500  0.669300  0.885800  1.0  0.1877
  C  C101  1  0.888100  0.551400  0.106000  1.0  0.2196
  C  C102  1  0.794300  0.604500  0.001200  1.0  0.1978
  C  C103  1  0.791900  0.659200  0.120600  1.0  0.1904
  C  C104  1  0.596100  0.286500  0.145300  1.0  0.2095
  C  C105  1  0.595500  0.169300  0.885800  1.0  0.1877
  C  C106  1  0.388100  0.051400  0.106000  1.0  0.2196
  C  C107  1  0.294300  0.104500  0.001200  1.0  0.1978
  C  C108  1  0.291900  0.159200  0.120600  1.0  0.1904
  C  C109  1  0.096100  0.213500  0.854700  1.0  0.2103
  C  C110  1  0.095500  0.330700  0.114200  1.0  0.1887
  C  C111  1  0.888100  0.448600  0.894000  1.0  0.2192
  C  C112  1  0.794300  0.395500  0.998800  1.0  0.1971
  C  C113  1  0.791900  0.340800  0.879400  1.0  0.189
  C  C114  1  0.596100  0.713500  0.854700  1.0  0.2103
  C  C115  1  0.595500  0.830700  0.114200  1.0  0.1887
  C  C116  1  0.388100  0.948600  0.894000  1.0  0.2192
  C  C117  1  0.294300  0.895500  0.998800  1.0  0.1971
  C  C118  1  0.291900  0.840800  0.879400  1.0  0.189
  C  C119  1  0.903900  0.786500  0.354700  1.0  0.2084
  C  C120  1  0.904500  0.669300  0.614200  1.0  0.188
  C  C121  1  0.111900  0.551400  0.394000  1.0  0.2212
  C  C122  1  0.205700  0.604500  0.498800  1.0  0.1977
  C  C123  1  0.208100  0.659200  0.379400  1.0  0.191
  C  C124  1  0.403900  0.286500  0.354700  1.0  0.2084
  C  C125  1  0.404500  0.169300  0.614200  1.0  0.188
  C  C126  1  0.611900  0.051400  0.394000  1.0  0.2212
  C  C127  1  0.705700  0.104500  0.498800  1.0  0.1977
  C  C128  1  0.708100  0.159200  0.379400  1.0  0.191
  C  C129  1  0.000000  0.842100  0.451600  1.0  0.1976
  C  C130  1  0.000000  0.778000  0.595100  1.0  0.2269
  C  C131  1  0.500000  0.342100  0.451600  1.0  0.1976
  C  C132  1  0.500000  0.278000  0.595100  1.0  0.2269
  C  C133  1  0.000000  0.157900  0.951600  1.0  0.1989
  C  C134  1  0.000000  0.222000  0.095100  1.0  0.2281
  C  C135  1  0.500000  0.657900  0.951600  1.0  0.1989
  C  C136  1  0.500000  0.722000  0.095100  1.0  0.2281
  C  C137  1  0.000000  0.842100  0.048400  1.0  0.1985
  C  C138  1  0.000000  0.778000  0.904900  1.0  0.2275
  C  C139  1  0.500000  0.342100  0.048400  1.0  0.1985
  C  C140  1  0.500000  0.278000  0.904900  1.0  0.2275
  C  C141  1  0.000000  0.157900  0.548400  1.0  0.1997
  C  C142  1  0.000000  0.222000  0.404900  1.0  0.2285
  C  C143  1  0.500000  0.657900  0.548400  1.0  0.1997
  C  C144  1  0.500000  0.722000  0.404900  1.0  0.2285
  S  S145  1  0.869640  0.737250  0.488880  1.0  -0.137
  S  S146  1  0.369640  0.237250  0.488880  1.0  -0.137
  S  S147  1  0.130360  0.262750  0.988880  1.0  -0.1351
  S  S148  1  0.630360  0.762750  0.988880  1.0  -0.1351
  S  S149  1  0.130360  0.737250  0.011120  1.0  -0.1359
  S  S150  1  0.630360  0.237250  0.011120  1.0  -0.1359
  S  S151  1  0.869640  0.262750  0.511120  1.0  -0.1375
  S  S152  1  0.369640  0.762750  0.511120  1.0  -0.1375
  S  S153  1  0.130360  0.262750  0.511120  1.0  -0.1355
  S  S154  1  0.630360  0.762750  0.511120  1.0  -0.1355
  S  S155  1  0.869640  0.737250  0.011120  1.0  -0.1376
  S  S156  1  0.369640  0.237250  0.011120  1.0  -0.1376
  S  S157  1  0.869640  0.262750  0.988880  1.0  -0.1371
  S  S158  1  0.369640  0.762750  0.988880  1.0  -0.1371
  S  S159  1  0.130360  0.737250  0.488880  1.0  -0.1354
  S  S160  1  0.630360  0.237250  0.488880  1.0  -0.1354
  S  S161  1  0.000000  0.661230  0.351190  1.0  -0.1284
  S  S162  1  0.000000  0.583960  0.517190  1.0  -0.1286
  S  S163  1  0.500000  0.161230  0.351190  1.0  -0.1284
  S  S164  1  0.500000  0.083960  0.517190  1.0  -0.1286
  S  S165  1  0.000000  0.338770  0.851190  1.0  -0.128
  S  S166  1  0.000000  0.416040  0.017190  1.0  -0.128
  S  S167  1  0.500000  0.838770  0.851190  1.0  -0.128
  S  S168  1  0.500000  0.916040  0.017190  1.0  -0.128
  S  S169  1  0.000000  0.661230  0.148810  1.0  -0.1264
  S  S170  1  0.000000  0.583960  0.982810  1.0  -0.1282
  S  S171  1  0.500000  0.161230  0.148810  1.0  -0.1264
  S  S172  1  0.500000  0.083960  0.982810  1.0  -0.1282
  S  S173  1  0.000000  0.338770  0.648810  1.0  -0.1265
  S  S174  1  0.000000  0.416040  0.482810  1.0  -0.1272
  S  S175  1  0.500000  0.838770  0.648810  1.0  -0.1265
  S  S176  1  0.500000  0.916040  0.482810  1.0  -0.1272
  N  N177  1  0.148500  0.808900  0.319500  1.0  -0.4146
  N  N178  1  0.352100  0.841400  0.153500  1.0  -0.3857
  N  N179  1  0.881000  0.506200  0.365100  1.0  -0.3627
  N  N180  1  0.735200  0.584700  0.529300  1.0  -0.4672
  N  N181  1  0.731100  0.670400  0.345900  1.0  -0.3583
  N  N182  1  0.648500  0.308900  0.319500  1.0  -0.4146
  N  N183  1  0.852100  0.341400  0.153500  1.0  -0.3857
  N  N184  1  0.381000  0.006200  0.365100  1.0  -0.3627
  N  N185  1  0.235200  0.084700  0.529300  1.0  -0.4672
  N  N186  1  0.231100  0.170400  0.345900  1.0  -0.3583
  N  N187  1  0.851500  0.191100  0.819500  1.0  -0.4134
  N  N188  1  0.647900  0.158600  0.653500  1.0  -0.3851
  N  N189  1  0.119000  0.493800  0.865100  1.0  -0.3627
  N  N190  1  0.264800  0.415300  0.029300  1.0  -0.4689
  N  N191  1  0.268900  0.329600  0.845900  1.0  -0.3569
  N  N192  1  0.351500  0.691100  0.819500  1.0  -0.4134
  N  N193  1  0.147900  0.658600  0.653500  1.0  -0.3851
  N  N194  1  0.619000  0.993800  0.865100  1.0  -0.3627
  N  N195  1  0.764800  0.915300  0.029300  1.0  -0.4689
  N  N196  1  0.768900  0.829600  0.845900  1.0  -0.3569
  N  N197  1  0.851500  0.808900  0.180500  1.0  -0.4153
  N  N198  1  0.647900  0.841400  0.346500  1.0  -0.386
  N  N199  1  0.119000  0.506200  0.134900  1.0  -0.3637
  N  N200  1  0.264800  0.584700  0.970700  1.0  -0.4683
  N  N201  1  0.268900  0.670400  0.154100  1.0  -0.3584
  N  N202  1  0.351500  0.308900  0.180500  1.0  -0.4153
  N  N203  1  0.147900  0.341400  0.346500  1.0  -0.386
  N  N204  1  0.619000  0.006200  0.134900  1.0  -0.3637
  N  N205  1  0.764800  0.084700  0.970700  1.0  -0.4683
  N  N206  1  0.768900  0.170400  0.154100  1.0  -0.3584
  N  N207  1  0.148500  0.191100  0.680500  1.0  -0.4156
  N  N208  1  0.352100  0.158600  0.846500  1.0  -0.387
  N  N209  1  0.881000  0.493800  0.634900  1.0  -0.3646
  N  N210  1  0.735200  0.415300  0.470700  1.0  -0.4673
  N  N211  1  0.731100  0.329600  0.654100  1.0  -0.3585
  N  N212  1  0.648500  0.691100  0.680500  1.0  -0.4156
  N  N213  1  0.852100  0.658600  0.846500  1.0  -0.387
  N  N214  1  0.381000  0.993800  0.634900  1.0  -0.3646
  N  N215  1  0.235200  0.915300  0.470700  1.0  -0.4673
  N  N216  1  0.231100  0.829600  0.654100  1.0  -0.3585
  N  N217  1  0.851500  0.191100  0.680500  1.0  -0.4134
  N  N218  1  0.647900  0.158600  0.846500  1.0  -0.3867
  N  N219  1  0.119000  0.493800  0.634900  1.0  -0.3649
  N  N220  1  0.264800  0.415300  0.470700  1.0  -0.4675
  N  N221  1  0.268900  0.329600  0.654100  1.0  -0.3549
  N  N222  1  0.351500  0.691100  0.680500  1.0  -0.4134
  N  N223  1  0.147900  0.658600  0.846500  1.0  -0.3867
  N  N224  1  0.619000  0.993800  0.634900  1.0  -0.3649
  N  N225  1  0.764800  0.915300  0.470700  1.0  -0.4675
  N  N226  1  0.768900  0.829600  0.654100  1.0  -0.3549
  N  N227  1  0.148500  0.808900  0.180500  1.0  -0.4158
  N  N228  1  0.352100  0.841400  0.346500  1.0  -0.3866
  N  N229  1  0.881000  0.506200  0.134900  1.0  -0.3632
  N  N230  1  0.735200  0.584700  0.970700  1.0  -0.4677
  N  N231  1  0.731100  0.670400  0.154100  1.0  -0.3552
  N  N232  1  0.648500  0.308900  0.180500  1.0  -0.4158
  N  N233  1  0.852100  0.341400  0.346500  1.0  -0.3866
  N  N234  1  0.381000  0.006200  0.134900  1.0  -0.3632
  N  N235  1  0.235200  0.084700  0.970700  1.0  -0.4677
  N  N236  1  0.231100  0.170400  0.154100  1.0  -0.3552
  N  N237  1  0.148500  0.191100  0.819500  1.0  -0.4157
  N  N238  1  0.352100  0.158600  0.653500  1.0  -0.3852
  N  N239  1  0.881000  0.493800  0.865100  1.0  -0.3632
  N  N240  1  0.735200  0.415300  0.029300  1.0  -0.4682
  N  N241  1  0.731100  0.329600  0.845900  1.0  -0.3544
  N  N242  1  0.648500  0.691100  0.819500  1.0  -0.4157
  N  N243  1  0.852100  0.658600  0.653500  1.0  -0.3852
  N  N244  1  0.381000  0.993800  0.865100  1.0  -0.3632
  N  N245  1  0.235200  0.915300  0.029300  1.0  -0.4682
  N  N246  1  0.231100  0.829600  0.845900  1.0  -0.3544
  N  N247  1  0.851500  0.808900  0.319500  1.0  -0.4139
  N  N248  1  0.647900  0.841400  0.153500  1.0  -0.3852
  N  N249  1  0.119000  0.506200  0.365100  1.0  -0.3622
  N  N250  1  0.264800  0.584700  0.529300  1.0  -0.4681
  N  N251  1  0.268900  0.670400  0.345900  1.0  -0.3537
  N  N252  1  0.351500  0.308900  0.319500  1.0  -0.4139
  N  N253  1  0.147900  0.341400  0.153500  1.0  -0.3852
  N  N254  1  0.619000  0.006200  0.365100  1.0  -0.3622
  N  N255  1  0.764800  0.084700  0.529300  1.0  -0.4681
  N  N256  1  0.768900  0.170400  0.345900  1.0  -0.3537
  N  N257  1  0.000000  0.823000  0.625100  1.0  -0.3765
  N  N258  1  0.000000  0.894600  0.465100  1.0  -0.4593
  N  N259  1  0.500000  0.323000  0.625100  1.0  -0.3765
  N  N260  1  0.500000  0.394600  0.465100  1.0  -0.4593
  N  N261  1  0.000000  0.177000  0.125100  1.0  -0.374
  N  N262  1  0.000000  0.105400  0.965100  1.0  -0.4602
  N  N263  1  0.500000  0.677000  0.125100  1.0  -0.374
  N  N264  1  0.500000  0.605400  0.965100  1.0  -0.4602
  N  N265  1  0.000000  0.823000  0.874900  1.0  -0.3763
  N  N266  1  0.000000  0.894600  0.034900  1.0  -0.4597
  N  N267  1  0.500000  0.323000  0.874900  1.0  -0.3763
  N  N268  1  0.500000  0.394600  0.034900  1.0  -0.4597
  N  N269  1  0.000000  0.177000  0.374900  1.0  -0.3743
  N  N270  1  0.000000  0.105400  0.534900  1.0  -0.4604
  N  N271  1  0.500000  0.677000  0.374900  1.0  -0.3743
  N  N272  1  0.500000  0.605400  0.534900  1.0  -0.4604
