# generated using pymatgen
data_KHoRe4C12(SN3)4
_symmetry_space_group_name_H-M   'P 1'
_cell_length_a   14.33890000
_cell_length_b   21.23980000
_cell_length_c   20.85140000
_cell_angle_alpha   90.00000000
_cell_angle_beta   90.00000000
_cell_angle_gamma   90.00000000
_symmetry_Int_Tables_number   1
_chemical_formula_structural   KHoRe4C12(SN3)4
_chemical_formula_sum   'K8 Ho8 Re32 C96 S32 N96'
_cell_volume   6350.40580490
_cell_formula_units_Z   8
loop_
 _symmetry_equiv_pos_site_id
 _symmetry_equiv_pos_as_xyz
  1  'x, y, z'
loop_
 _atom_site_type_symbol
 _atom_site_label
 _atom_site_symmetry_multiplicity
 _atom_site_fract_x
 _atom_site_fract_y
 _atom_site_fract_z
 _atom_site_occupancy
 _atom_site_charge
  K  K1  1  0.584660  0.500000  0.500000  1.0  0.9374
  K  K2  1  0.084660  0.000000  0.500000  1.0  0.9374
  K  K3  1  0.415340  0.500000  0.000000  1.0  0.9376
  K  K4  1  0.915340  0.000000  0.000000  1.0  0.9376
  K  K5  1  0.415340  0.500000  0.500000  1.0  0.9378
  K  K6  1  0.915340  0.000000  0.500000  1.0  0.9378
  K  K7  1  0.584660  0.500000  0.000000  1.0  0.9372
  K  K8  1  0.084660  0.000000  0.000000  1.0  0.9372
  Ho  Ho9  1  0.762800  0.641560  0.750000  1.0  2.0494
  Ho  Ho10  1  0.262800  0.141560  0.750000  1.0  2.0494
  Ho  Ho11  1  0.237200  0.358440  0.250000  1.0  2.0509
  Ho  Ho12  1  0.737200  0.858440  0.250000  1.0  2.0509
  Ho  Ho13  1  0.237200  0.641560  0.750000  1.0  2.0492
  Ho  Ho14  1  0.737200  0.141560  0.750000  1.0  2.0492
  Ho  Ho15  1  0.762800  0.358440  0.250000  1.0  2.0511
  Ho  Ho16  1  0.262800  0.858440  0.250000  1.0  2.0511
  Re  Re17  1  0.903850  0.638460  0.441400  1.0  0.0297
  Re  Re18  1  0.403850  0.138460  0.441400  1.0  0.0297
  Re  Re19  1  0.096150  0.361540  0.941400  1.0  0.0286
  Re  Re20  1  0.596150  0.861540  0.941400  1.0  0.0286
  Re  Re21  1  0.096150  0.638460  0.058600  1.0  0.0295
  Re  Re22  1  0.596150  0.138460  0.058600  1.0  0.0295
  Re  Re23  1  0.903850  0.361540  0.558600  1.0  0.029
  Re  Re24  1  0.403850  0.861540  0.558600  1.0  0.029
  Re  Re25  1  0.096150  0.361540  0.558600  1.0  0.0287
  Re  Re26  1  0.596150  0.861540  0.558600  1.0  0.0287
  Re  Re27  1  0.903850  0.638460  0.058600  1.0  0.0301
  Re  Re28  1  0.403850  0.138460  0.058600  1.0  0.0301
  Re  Re29  1  0.903850  0.361540  0.941400  1.0  0.0288
  Re  Re30  1  0.403850  0.861540  0.941400  1.0  0.0288
  Re  Re31  1  0.096150  0.638460  0.441400  1.0  0.029
  Re  Re32  1  0.596150  0.138460  0.441400  1.0  0.029
  Re  Re33  1  0.000000  0.693660  0.540580  1.0  -0.0499
  Re  Re34  1  0.000000  0.748920  0.421270  1.0  0.0048
  Re  Re35  1  0.500000  0.193660  0.540580  1.0  -0.0499
  Re  Re36  1  0.500000  0.248920  0.421270  1.0  0.0048
  Re  Re37  1  0.000000  0.306340  0.040580  1.0  -0.0495
  Re  Re38  1  0.000000  0.251090  0.921270  1.0  0.0051
  Re  Re39  1  0.500000  0.806340  0.040580  1.0  -0.0495
  Re  Re40  1  0.500000  0.751090  0.921270  1.0  0.0051
  Re  Re41  1  0.000000  0.693660  0.959420  1.0  -0.0496
  Re  Re42  1  0.000000  0.748920  0.078730  1.0  0.0044
  Re  Re43  1  0.500000  0.193660  0.959420  1.0  -0.0496
  Re  Re44  1  0.500000  0.248920  0.078730  1.0  0.0044
  Re  Re45  1  0.000000  0.306340  0.459420  1.0  -0.0492
  Re  Re46  1  0.000000  0.251090  0.578730  1.0  0.0052
  Re  Re47  1  0.500000  0.806340  0.459420  1.0  -0.0492
  Re  Re48  1  0.500000  0.751090  0.578730  1.0  0.0052
  C  C49  1  0.904400  0.786900  0.355800  1.0  0.2312
  C  C50  1  0.904200  0.669000  0.612700  1.0  0.1964
  C  C51  1  0.888000  0.551200  0.394700  1.0  0.2034
  C  C52  1  0.791400  0.659400  0.380200  1.0  0.2169
  C  C53  1  0.792400  0.602800  0.496600  1.0  0.1913
  C  C54  1  0.404400  0.286900  0.355800  1.0  0.2312
  C  C55  1  0.404200  0.169000  0.612700  1.0  0.1964
  C  C56  1  0.388000  0.051200  0.394700  1.0  0.2034
  C  C57  1  0.291400  0.159400  0.380200  1.0  0.2169
  C  C58  1  0.292400  0.102800  0.496600  1.0  0.1913
  C  C59  1  0.095600  0.213100  0.855800  1.0  0.2329
  C  C60  1  0.095800  0.331000  0.112700  1.0  0.1967
  C  C61  1  0.112000  0.448800  0.894700  1.0  0.2032
  C  C62  1  0.208600  0.340600  0.880200  1.0  0.218
  C  C63  1  0.207600  0.397200  0.996600  1.0  0.1907
  C  C64  1  0.595600  0.713100  0.855800  1.0  0.2329
  C  C65  1  0.595800  0.831000  0.112700  1.0  0.1967
  C  C66  1  0.612000  0.948800  0.894700  1.0  0.2032
  C  C67  1  0.708600  0.840600  0.880200  1.0  0.218
  C  C68  1  0.707600  0.897200  0.996600  1.0  0.1907
  C  C69  1  0.095600  0.786900  0.144200  1.0  0.2329
  C  C70  1  0.095800  0.669000  0.887300  1.0  0.1966
  C  C71  1  0.112000  0.551200  0.105300  1.0  0.2037
  C  C72  1  0.208600  0.659400  0.119800  1.0  0.2187
  C  C73  1  0.207600  0.602800  0.003400  1.0  0.1913
  C  C74  1  0.595600  0.286900  0.144200  1.0  0.2329
  C  C75  1  0.595800  0.169000  0.887300  1.0  0.1966
  C  C76  1  0.612000  0.051200  0.105300  1.0  0.2037
  C  C77  1  0.708600  0.159400  0.119800  1.0  0.2187
  C  C78  1  0.707600  0.102800  0.003400  1.0  0.1913
  C  C79  1  0.904400  0.213100  0.644200  1.0  0.2333
  C  C80  1  0.904200  0.331000  0.387300  1.0  0.1961
  C  C81  1  0.888000  0.448800  0.605300  1.0  0.2019
  C  C82  1  0.791400  0.340600  0.619800  1.0  0.2175
  C  C83  1  0.792400  0.397200  0.503400  1.0  0.191
  C  C84  1  0.404400  0.713100  0.644200  1.0  0.2333
  C  C85  1  0.404200  0.831000  0.387300  1.0  0.1961
  C  C86  1  0.388000  0.948800  0.605300  1.0  0.2019
  C  C87  1  0.291400  0.840600  0.619800  1.0  0.2175
  C  C88  1  0.292400  0.897200  0.503400  1.0  0.191
  C  C89  1  0.095600  0.213100  0.644200  1.0  0.2342
  C  C90  1  0.095800  0.331000  0.387300  1.0  0.1964
  C  C91  1  0.112000  0.448800  0.605300  1.0  0.2027
  C  C92  1  0.208600  0.340600  0.619800  1.0  0.2187
  C  C93  1  0.207600  0.397200  0.503400  1.0  0.1909
  C  C94  1  0.595600  0.713100  0.644200  1.0  0.2342
  C  C95  1  0.595800  0.831000  0.387300  1.0  0.1964
  C  C96  1  0.612000  0.948800  0.605300  1.0  0.2027
  C  C97  1  0.708600  0.840600  0.619800  1.0  0.2187
  C  C98  1  0.707600  0.897200  0.503400  1.0  0.1909
  C  C99  1  0.904400  0.786900  0.144200  1.0  0.232
  C  C100  1  0.904200  0.669000  0.887300  1.0  0.1962
  C  C101  1  0.888000  0.551200  0.105300  1.0  0.2028
  C  C102  1  0.791400  0.659400  0.119800  1.0  0.2176
  C  C103  1  0.792400  0.602800  0.003400  1.0  0.1914
  C  C104  1  0.404400  0.286900  0.144200  1.0  0.232
  C  C105  1  0.404200  0.169000  0.887300  1.0  0.1962
  C  C106  1  0.388000  0.051200  0.105300  1.0  0.2028
  C  C107  1  0.291400  0.159400  0.119800  1.0  0.2176
  C  C108  1  0.292400  0.102800  0.003400  1.0  0.1914
  C  C109  1  0.904400  0.213100  0.855800  1.0  0.2323
  C  C110  1  0.904200  0.331000  0.112700  1.0  0.1963
  C  C111  1  0.888000  0.448800  0.894700  1.0  0.2025
  C  C112  1  0.791400  0.340600  0.880200  1.0  0.217
  C  C113  1  0.792400  0.397200  0.996600  1.0  0.1909
  C  C114  1  0.404400  0.713100  0.855800  1.0  0.2323
  C  C115  1  0.404200  0.831000  0.112700  1.0  0.1963
  C  C116  1  0.388000  0.948800  0.894700  1.0  0.2025
  C  C117  1  0.291400  0.840600  0.880200  1.0  0.217
  C  C118  1  0.292400  0.897200  0.996600  1.0  0.1909
  C  C119  1  0.095600  0.786900  0.355800  1.0  0.2318
  C  C120  1  0.095800  0.669000  0.612700  1.0  0.1968
  C  C121  1  0.112000  0.551200  0.394700  1.0  0.2043
  C  C122  1  0.208600  0.659400  0.380200  1.0  0.2178
  C  C123  1  0.207600  0.602800  0.496600  1.0  0.1912
  C  C124  1  0.595600  0.286900  0.355800  1.0  0.2318
  C  C125  1  0.595800  0.169000  0.612700  1.0  0.1968
  C  C126  1  0.612000  0.051200  0.394700  1.0  0.2043
  C  C127  1  0.708600  0.159400  0.380200  1.0  0.2178
  C  C128  1  0.707600  0.102800  0.496600  1.0  0.1912
  C  C129  1  0.000000  0.777700  0.593800  1.0  0.2294
  C  C130  1  0.000000  0.842400  0.451200  1.0  0.2181
  C  C131  1  0.500000  0.277700  0.593800  1.0  0.2294
  C  C132  1  0.500000  0.342400  0.451200  1.0  0.2181
  C  C133  1  0.000000  0.222300  0.093800  1.0  0.2309
  C  C134  1  0.000000  0.157600  0.951200  1.0  0.2189
  C  C135  1  0.500000  0.722300  0.093800  1.0  0.2309
  C  C136  1  0.500000  0.657600  0.951200  1.0  0.2189
  C  C137  1  0.000000  0.777700  0.906200  1.0  0.2301
  C  C138  1  0.000000  0.842400  0.048800  1.0  0.2185
  C  C139  1  0.500000  0.277700  0.906200  1.0  0.2301
  C  C140  1  0.500000  0.342400  0.048800  1.0  0.2185
  C  C141  1  0.000000  0.222300  0.406200  1.0  0.2314
  C  C142  1  0.000000  0.157600  0.548800  1.0  0.2191
  C  C143  1  0.500000  0.722300  0.406200  1.0  0.2314
  C  C144  1  0.500000  0.657600  0.548800  1.0  0.2191
  S  S145  1  0.869310  0.736850  0.488550  1.0  -0.1498
  S  S146  1  0.369310  0.236850  0.488550  1.0  -0.1498
  S  S147  1  0.130690  0.263150  0.988550  1.0  -0.1472
  S  S148  1  0.630690  0.763150  0.988550  1.0  -0.1472
  S  S149  1  0.130690  0.736850  0.011450  1.0  -0.1481
  S  S150  1  0.630690  0.236850  0.011450  1.0  -0.1481
  S  S151  1  0.869310  0.263150  0.511450  1.0  -0.1505
  S  S152  1  0.369310  0.763150  0.511450  1.0  -0.1505
  S  S153  1  0.130690  0.263150  0.511450  1.0  -0.1477
  S  S154  1  0.630690  0.763150  0.511450  1.0  -0.1477
  S  S155  1  0.869310  0.736850  0.011450  1.0  -0.1503
  S  S156  1  0.369310  0.236850  0.011450  1.0  -0.1503
  S  S157  1  0.869310  0.263150  0.988550  1.0  -0.1501
  S  S158  1  0.369310  0.763150  0.988550  1.0  -0.1501
  S  S159  1  0.130690  0.736850  0.488550  1.0  -0.1476
  S  S160  1  0.630690  0.236850  0.488550  1.0  -0.1476
  S  S161  1  0.000000  0.583980  0.516020  1.0  -0.1366
  S  S162  1  0.000000  0.661160  0.352610  1.0  -0.1361
  S  S163  1  0.500000  0.083980  0.516020  1.0  -0.1366
  S  S164  1  0.500000  0.161160  0.352610  1.0  -0.1361
  S  S165  1  0.000000  0.416020  0.016020  1.0  -0.1366
  S  S166  1  0.000000  0.338840  0.852610  1.0  -0.1358
  S  S167  1  0.500000  0.916020  0.016020  1.0  -0.1366
  S  S168  1  0.500000  0.838840  0.852610  1.0  -0.1358
  S  S169  1  0.000000  0.583980  0.983980  1.0  -0.1365
  S  S170  1  0.000000  0.661160  0.147390  1.0  -0.1343
  S  S171  1  0.500000  0.083980  0.983980  1.0  -0.1365
  S  S172  1  0.500000  0.161160  0.147390  1.0  -0.1343
  S  S173  1  0.000000  0.416020  0.483980  1.0  -0.1361
  S  S174  1  0.000000  0.338840  0.647390  1.0  -0.1343
  S  S175  1  0.500000  0.916020  0.483980  1.0  -0.1361
  S  S176  1  0.500000  0.838840  0.647390  1.0  -0.1343
  N  N177  1  0.853000  0.657400  0.652600  1.0  -0.4051
  N  N178  1  0.852500  0.808500  0.320200  1.0  -0.4347
  N  N179  1  0.731300  0.670300  0.346100  1.0  -0.3817
  N  N180  1  0.881100  0.505900  0.365700  1.0  -0.3709
  N  N181  1  0.732100  0.582100  0.525200  1.0  -0.4747
  N  N182  1  0.353000  0.157400  0.652600  1.0  -0.4051
  N  N183  1  0.352500  0.308500  0.320200  1.0  -0.4347
  N  N184  1  0.231300  0.170300  0.346100  1.0  -0.3817
  N  N185  1  0.381100  0.005900  0.365700  1.0  -0.3709
  N  N186  1  0.232100  0.082100  0.525200  1.0  -0.4747
  N  N187  1  0.147000  0.342600  0.152600  1.0  -0.4061
  N  N188  1  0.147500  0.191500  0.820200  1.0  -0.4355
  N  N189  1  0.268700  0.329700  0.846100  1.0  -0.381
  N  N190  1  0.118900  0.494100  0.865700  1.0  -0.3714
  N  N191  1  0.267900  0.417900  0.025200  1.0  -0.4771
  N  N192  1  0.647000  0.842600  0.152600  1.0  -0.4061
  N  N193  1  0.647500  0.691500  0.820200  1.0  -0.4355
  N  N194  1  0.768700  0.829700  0.846100  1.0  -0.381
  N  N195  1  0.618900  0.994100  0.865700  1.0  -0.3714
  N  N196  1  0.767900  0.917900  0.025200  1.0  -0.4771
  N  N197  1  0.147000  0.657400  0.847400  1.0  -0.4074
  N  N198  1  0.147500  0.808500  0.179800  1.0  -0.4365
  N  N199  1  0.268700  0.670300  0.153900  1.0  -0.3829
  N  N200  1  0.118900  0.505900  0.134300  1.0  -0.3722
  N  N201  1  0.267900  0.582100  0.974800  1.0  -0.4768
  N  N202  1  0.647000  0.157400  0.847400  1.0  -0.4074
  N  N203  1  0.647500  0.308500  0.179800  1.0  -0.4365
  N  N204  1  0.768700  0.170300  0.153900  1.0  -0.3829
  N  N205  1  0.618900  0.005900  0.134300  1.0  -0.3722
  N  N206  1  0.767900  0.082100  0.974800  1.0  -0.4768
  N  N207  1  0.853000  0.342600  0.347400  1.0  -0.4079
  N  N208  1  0.852500  0.191500  0.679800  1.0  -0.4335
  N  N209  1  0.731300  0.329700  0.653900  1.0  -0.3823
  N  N210  1  0.881100  0.494100  0.634300  1.0  -0.3732
  N  N211  1  0.732100  0.417900  0.474800  1.0  -0.4744
  N  N212  1  0.353000  0.842600  0.347400  1.0  -0.4079
  N  N213  1  0.352500  0.691500  0.679800  1.0  -0.4335
  N  N214  1  0.231300  0.829700  0.653900  1.0  -0.3823
  N  N215  1  0.381100  0.994100  0.634300  1.0  -0.3732
  N  N216  1  0.232100  0.917900  0.474800  1.0  -0.4744
  N  N217  1  0.147000  0.342600  0.347400  1.0  -0.4077
  N  N218  1  0.147500  0.191500  0.679800  1.0  -0.435
  N  N219  1  0.268700  0.329700  0.653900  1.0  -0.383
  N  N220  1  0.118900  0.494100  0.634300  1.0  -0.3736
  N  N221  1  0.267900  0.417900  0.474800  1.0  -0.476
  N  N222  1  0.647000  0.842600  0.347400  1.0  -0.4077
  N  N223  1  0.647500  0.691500  0.679800  1.0  -0.435
  N  N224  1  0.768700  0.829700  0.653900  1.0  -0.383
  N  N225  1  0.618900  0.994100  0.634300  1.0  -0.3736
  N  N226  1  0.767900  0.917900  0.474800  1.0  -0.476
  N  N227  1  0.853000  0.657400  0.847400  1.0  -0.4074
  N  N228  1  0.852500  0.808500  0.179800  1.0  -0.4352
  N  N229  1  0.731300  0.670300  0.153900  1.0  -0.3823
  N  N230  1  0.881100  0.505900  0.134300  1.0  -0.3718
  N  N231  1  0.732100  0.582100  0.974800  1.0  -0.4748
  N  N232  1  0.353000  0.157400  0.847400  1.0  -0.4074
  N  N233  1  0.352500  0.308500  0.179800  1.0  -0.4352
  N  N234  1  0.231300  0.170300  0.153900  1.0  -0.3823
  N  N235  1  0.381100  0.005900  0.134300  1.0  -0.3718
  N  N236  1  0.232100  0.082100  0.974800  1.0  -0.4748
  N  N237  1  0.853000  0.342600  0.152600  1.0  -0.4063
  N  N238  1  0.852500  0.191500  0.820200  1.0  -0.4344
  N  N239  1  0.731300  0.329700  0.846100  1.0  -0.3815
  N  N240  1  0.881100  0.494100  0.865700  1.0  -0.3715
  N  N241  1  0.732100  0.417900  0.025200  1.0  -0.4753
  N  N242  1  0.353000  0.842600  0.152600  1.0  -0.4063
  N  N243  1  0.352500  0.691500  0.820200  1.0  -0.4344
  N  N244  1  0.231300  0.829700  0.846100  1.0  -0.3815
  N  N245  1  0.381100  0.994100  0.865700  1.0  -0.3715
  N  N246  1  0.232100  0.917900  0.025200  1.0  -0.4753
  N  N247  1  0.147000  0.657400  0.652600  1.0  -0.4053
  N  N248  1  0.147500  0.808500  0.320200  1.0  -0.4357
  N  N249  1  0.268700  0.670300  0.346100  1.0  -0.3814
  N  N250  1  0.118900  0.505900  0.365700  1.0  -0.3706
  N  N251  1  0.267900  0.582100  0.525200  1.0  -0.4769
  N  N252  1  0.647000  0.157400  0.652600  1.0  -0.4053
  N  N253  1  0.647500  0.308500  0.320200  1.0  -0.4357
  N  N254  1  0.768700  0.170300  0.346100  1.0  -0.3814
  N  N255  1  0.618900  0.005900  0.365700  1.0  -0.3706
  N  N256  1  0.767900  0.082100  0.525200  1.0  -0.4769
  N  N257  1  0.000000  0.822800  0.623900  1.0  -0.3835
  N  N258  1  0.000000  0.894400  0.463900  1.0  -0.4377
  N  N259  1  0.500000  0.322800  0.623900  1.0  -0.3835
  N  N260  1  0.500000  0.394400  0.463900  1.0  -0.4377
  N  N261  1  0.000000  0.177200  0.123900  1.0  -0.3805
  N  N262  1  0.000000  0.105600  0.963900  1.0  -0.4392
  N  N263  1  0.500000  0.677200  0.123900  1.0  -0.3805
  N  N264  1  0.500000  0.605600  0.963900  1.0  -0.4392
  N  N265  1  0.000000  0.822800  0.876100  1.0  -0.3824
  N  N266  1  0.000000  0.894400  0.036100  1.0  -0.4378
  N  N267  1  0.500000  0.322800  0.876100  1.0  -0.3824
  N  N268  1  0.500000  0.394400  0.036100  1.0  -0.4378
  N  N269  1  0.000000  0.177200  0.376100  1.0  -0.3803
  N  N270  1  0.000000  0.105600  0.536100  1.0  -0.4392
  N  N271  1  0.500000  0.677200  0.376100  1.0  -0.3803
  N  N272  1  0.500000  0.605600  0.536100  1.0  -0.4392
