# generated using pymatgen
data_KYbRe4C12(SN3)4
_symmetry_space_group_name_H-M   'P 1'
_cell_length_a   14.47510000
_cell_length_b   21.35540000
_cell_length_c   20.61140000
_cell_angle_alpha   90.00000000
_cell_angle_beta   90.00000000
_cell_angle_gamma   90.00000000
_symmetry_Int_Tables_number   1
_chemical_formula_structural   KYbRe4C12(SN3)4
_chemical_formula_sum   'K8 Yb8 Re32 C96 S32 N96'
_cell_volume   6371.42792680
_cell_formula_units_Z   8
loop_
 _symmetry_equiv_pos_site_id
 _symmetry_equiv_pos_as_xyz
  1  'x, y, z'
loop_
 _atom_site_type_symbol
 _atom_site_label
 _atom_site_symmetry_multiplicity
 _atom_site_fract_x
 _atom_site_fract_y
 _atom_site_fract_z
 _atom_site_occupancy
 _atom_site_charge
  K  K1  1  0.593700  0.500000  0.500000  1.0  0.9571
  K  K2  1  0.093700  0.000000  0.500000  1.0  0.9571
  K  K3  1  0.406300  0.500000  0.000000  1.0  0.9583
  K  K4  1  0.906300  0.000000  0.000000  1.0  0.9583
  K  K5  1  0.406300  0.500000  0.500000  1.0  0.9583
  K  K6  1  0.906300  0.000000  0.500000  1.0  0.9583
  K  K7  1  0.593700  0.500000  0.000000  1.0  0.9571
  K  K8  1  0.093700  0.000000  0.000000  1.0  0.9571
  Yb  Yb9  1  0.762460  0.642510  0.750000  1.0  1.6313
  Yb  Yb10  1  0.262460  0.142510  0.750000  1.0  1.6313
  Yb  Yb11  1  0.237540  0.357490  0.250000  1.0  1.6313
  Yb  Yb12  1  0.737540  0.857490  0.250000  1.0  1.6313
  Yb  Yb13  1  0.237540  0.642510  0.750000  1.0  1.6307
  Yb  Yb14  1  0.737540  0.142510  0.750000  1.0  1.6307
  Yb  Yb15  1  0.762460  0.357490  0.250000  1.0  1.6319
  Yb  Yb16  1  0.262460  0.857490  0.250000  1.0  1.6319
  Re  Re17  1  0.904690  0.639400  0.441300  1.0  0.0737
  Re  Re18  1  0.404690  0.139400  0.441300  1.0  0.0737
  Re  Re19  1  0.095310  0.360600  0.941300  1.0  0.0729
  Re  Re20  1  0.595310  0.860600  0.941300  1.0  0.0729
  Re  Re21  1  0.095310  0.639400  0.058700  1.0  0.073
  Re  Re22  1  0.595310  0.139400  0.058700  1.0  0.073
  Re  Re23  1  0.904690  0.360600  0.558700  1.0  0.0725
  Re  Re24  1  0.404690  0.860600  0.558700  1.0  0.0725
  Re  Re25  1  0.095310  0.360600  0.558700  1.0  0.0722
  Re  Re26  1  0.595310  0.860600  0.558700  1.0  0.0722
  Re  Re27  1  0.904690  0.639400  0.058700  1.0  0.0734
  Re  Re28  1  0.404690  0.139400  0.058700  1.0  0.0734
  Re  Re29  1  0.904690  0.360600  0.941300  1.0  0.0732
  Re  Re30  1  0.404690  0.860600  0.941300  1.0  0.0732
  Re  Re31  1  0.095310  0.639400  0.441300  1.0  0.0733
  Re  Re32  1  0.595310  0.139400  0.441300  1.0  0.0733
  Re  Re33  1  0.000000  0.694430  0.541580  1.0  -0.0503
  Re  Re34  1  0.000000  0.749330  0.420750  1.0  -0.015
  Re  Re35  1  0.500000  0.194430  0.541580  1.0  -0.0503
  Re  Re36  1  0.500000  0.249330  0.420750  1.0  -0.015
  Re  Re37  1  0.000000  0.305570  0.041580  1.0  -0.0497
  Re  Re38  1  0.000000  0.250670  0.920750  1.0  -0.0134
  Re  Re39  1  0.500000  0.805570  0.041580  1.0  -0.0497
  Re  Re40  1  0.500000  0.750670  0.920750  1.0  -0.0134
  Re  Re41  1  0.000000  0.694430  0.958420  1.0  -0.0499
  Re  Re42  1  0.000000  0.749330  0.079250  1.0  -0.0158
  Re  Re43  1  0.500000  0.194430  0.958420  1.0  -0.0499
  Re  Re44  1  0.500000  0.249330  0.079250  1.0  -0.0158
  Re  Re45  1  0.000000  0.305570  0.458420  1.0  -0.0493
  Re  Re46  1  0.000000  0.250670  0.579250  1.0  -0.0136
  Re  Re47  1  0.500000  0.805570  0.458420  1.0  -0.0493
  Re  Re48  1  0.500000  0.750670  0.579250  1.0  -0.0136
  C  C49  1  0.904000  0.670300  0.614300  1.0  0.1972
  C  C50  1  0.795300  0.604500  0.499100  1.0  0.1968
  C  C51  1  0.887800  0.552000  0.394000  1.0  0.191
  C  C52  1  0.793400  0.659200  0.379800  1.0  0.2232
  C  C53  1  0.904500  0.787700  0.354700  1.0  0.223
  C  C54  1  0.404000  0.170300  0.614300  1.0  0.1972
  C  C55  1  0.295300  0.104500  0.499100  1.0  0.1968
  C  C56  1  0.387800  0.052000  0.394000  1.0  0.191
  C  C57  1  0.293400  0.159200  0.379800  1.0  0.2232
  C  C58  1  0.404500  0.287700  0.354700  1.0  0.223
  C  C59  1  0.096000  0.329700  0.114300  1.0  0.1985
  C  C60  1  0.204700  0.395500  0.999100  1.0  0.1965
  C  C61  1  0.112200  0.448000  0.894000  1.0  0.1906
  C  C62  1  0.206600  0.340800  0.879800  1.0  0.2242
  C  C63  1  0.095500  0.212300  0.854700  1.0  0.2249
  C  C64  1  0.596000  0.829700  0.114300  1.0  0.1985
  C  C65  1  0.704700  0.895500  0.999100  1.0  0.1965
  C  C66  1  0.612200  0.948000  0.894000  1.0  0.1906
  C  C67  1  0.706600  0.840800  0.879800  1.0  0.2242
  C  C68  1  0.595500  0.712300  0.854700  1.0  0.2249
  C  C69  1  0.096000  0.670300  0.885700  1.0  0.197
  C  C70  1  0.204700  0.604500  0.000900  1.0  0.1976
  C  C71  1  0.112200  0.552000  0.106000  1.0  0.1912
  C  C72  1  0.206600  0.659200  0.120200  1.0  0.2242
  C  C73  1  0.095500  0.787700  0.145300  1.0  0.2238
  C  C74  1  0.596000  0.170300  0.885700  1.0  0.197
  C  C75  1  0.704700  0.104500  0.000900  1.0  0.1976
  C  C76  1  0.612200  0.052000  0.106000  1.0  0.1912
  C  C77  1  0.706600  0.159200  0.120200  1.0  0.2242
  C  C78  1  0.595500  0.287700  0.145300  1.0  0.2238
  C  C79  1  0.904000  0.329700  0.385700  1.0  0.1962
  C  C80  1  0.795300  0.395500  0.500900  1.0  0.197
  C  C81  1  0.887800  0.448000  0.606000  1.0  0.1897
  C  C82  1  0.793400  0.340800  0.620200  1.0  0.2227
  C  C83  1  0.904500  0.212300  0.645300  1.0  0.224
  C  C84  1  0.404000  0.829700  0.385700  1.0  0.1962
  C  C85  1  0.295300  0.895500  0.500900  1.0  0.197
  C  C86  1  0.387800  0.948000  0.606000  1.0  0.1897
  C  C87  1  0.293400  0.840800  0.620200  1.0  0.2227
  C  C88  1  0.404500  0.712300  0.645300  1.0  0.224
  C  C89  1  0.096000  0.329700  0.385700  1.0  0.1969
  C  C90  1  0.204700  0.395500  0.500900  1.0  0.197
  C  C91  1  0.112200  0.448000  0.606000  1.0  0.1901
  C  C92  1  0.206600  0.340800  0.620200  1.0  0.2241
  C  C93  1  0.095500  0.212300  0.645300  1.0  0.2251
  C  C94  1  0.596000  0.829700  0.385700  1.0  0.1969
  C  C95  1  0.704700  0.895500  0.500900  1.0  0.197
  C  C96  1  0.612200  0.948000  0.606000  1.0  0.1901
  C  C97  1  0.706600  0.840800  0.620200  1.0  0.2241
  C  C98  1  0.595500  0.712300  0.645300  1.0  0.2251
  C  C99  1  0.904000  0.670300  0.885700  1.0  0.1961
  C  C100  1  0.795300  0.604500  0.000900  1.0  0.1974
  C  C101  1  0.887800  0.552000  0.106000  1.0  0.1907
  C  C102  1  0.793400  0.659200  0.120200  1.0  0.2227
  C  C103  1  0.904500  0.787700  0.145300  1.0  0.2227
  C  C104  1  0.404000  0.170300  0.885700  1.0  0.1961
  C  C105  1  0.295300  0.104500  0.000900  1.0  0.1974
  C  C106  1  0.387800  0.052000  0.106000  1.0  0.1907
  C  C107  1  0.293400  0.159200  0.120200  1.0  0.2227
  C  C108  1  0.404500  0.287700  0.145300  1.0  0.2227
  C  C109  1  0.904000  0.329700  0.114300  1.0  0.1973
  C  C110  1  0.795300  0.395500  0.999100  1.0  0.1964
  C  C111  1  0.887800  0.448000  0.894000  1.0  0.1905
  C  C112  1  0.793400  0.340800  0.879800  1.0  0.2232
  C  C113  1  0.904500  0.212300  0.854700  1.0  0.2241
  C  C114  1  0.404000  0.829700  0.114300  1.0  0.1973
  C  C115  1  0.295300  0.895500  0.999100  1.0  0.1964
  C  C116  1  0.387800  0.948000  0.894000  1.0  0.1905
  C  C117  1  0.293400  0.840800  0.879800  1.0  0.2232
  C  C118  1  0.404500  0.712300  0.854700  1.0  0.2241
  C  C119  1  0.096000  0.670300  0.614300  1.0  0.1985
  C  C120  1  0.204700  0.604500  0.499100  1.0  0.197
  C  C121  1  0.112200  0.552000  0.394000  1.0  0.1916
  C  C122  1  0.206600  0.659200  0.379800  1.0  0.224
  C  C123  1  0.095500  0.787700  0.354700  1.0  0.2237
  C  C124  1  0.596000  0.170300  0.614300  1.0  0.1985
  C  C125  1  0.704700  0.104500  0.499100  1.0  0.197
  C  C126  1  0.612200  0.052000  0.394000  1.0  0.1916
  C  C127  1  0.706600  0.159200  0.379800  1.0  0.224
  C  C128  1  0.595500  0.287700  0.354700  1.0  0.2237
  C  C129  1  0.000000  0.778900  0.595700  1.0  0.2465
  C  C130  1  0.000000  0.843500  0.451500  1.0  0.2188
  C  C131  1  0.500000  0.278900  0.595700  1.0  0.2465
  C  C132  1  0.500000  0.343500  0.451500  1.0  0.2188
  C  C133  1  0.000000  0.221100  0.095700  1.0  0.2481
  C  C134  1  0.000000  0.156500  0.951500  1.0  0.2193
  C  C135  1  0.500000  0.721100  0.095700  1.0  0.2481
  C  C136  1  0.500000  0.656500  0.951500  1.0  0.2193
  C  C137  1  0.000000  0.778900  0.904300  1.0  0.2485
  C  C138  1  0.000000  0.843500  0.048500  1.0  0.2192
  C  C139  1  0.500000  0.278900  0.904300  1.0  0.2485
  C  C140  1  0.500000  0.343500  0.048500  1.0  0.2192
  C  C141  1  0.000000  0.221100  0.404300  1.0  0.2502
  C  C142  1  0.000000  0.156500  0.548500  1.0  0.2196
  C  C143  1  0.500000  0.721100  0.404300  1.0  0.2502
  C  C144  1  0.500000  0.656500  0.548500  1.0  0.2196
  S  S145  1  0.869690  0.737900  0.489130  1.0  -0.1296
  S  S146  1  0.369690  0.237900  0.489130  1.0  -0.1296
  S  S147  1  0.130310  0.262100  0.989130  1.0  -0.1278
  S  S148  1  0.630310  0.762100  0.989130  1.0  -0.1278
  S  S149  1  0.130310  0.737900  0.010870  1.0  -0.1286
  S  S150  1  0.630310  0.237900  0.010870  1.0  -0.1286
  S  S151  1  0.869690  0.262100  0.510870  1.0  -0.1298
  S  S152  1  0.369690  0.762100  0.510870  1.0  -0.1298
  S  S153  1  0.130310  0.262100  0.510870  1.0  -0.1279
  S  S154  1  0.630310  0.762100  0.510870  1.0  -0.1279
  S  S155  1  0.869690  0.737900  0.010870  1.0  -0.1299
  S  S156  1  0.369690  0.237900  0.010870  1.0  -0.1299
  S  S157  1  0.869690  0.262100  0.989130  1.0  -0.1297
  S  S158  1  0.369690  0.762100  0.989130  1.0  -0.1297
  S  S159  1  0.130310  0.737900  0.489130  1.0  -0.1284
  S  S160  1  0.630310  0.237900  0.489130  1.0  -0.1284
  S  S161  1  0.000000  0.584770  0.517310  1.0  -0.1261
  S  S162  1  0.000000  0.661680  0.350810  1.0  -0.1167
  S  S163  1  0.500000  0.084770  0.517310  1.0  -0.1261
  S  S164  1  0.500000  0.161680  0.350810  1.0  -0.1167
  S  S165  1  0.000000  0.415230  0.017310  1.0  -0.1262
  S  S166  1  0.000000  0.338320  0.850810  1.0  -0.1163
  S  S167  1  0.500000  0.915230  0.017310  1.0  -0.1262
  S  S168  1  0.500000  0.838320  0.850810  1.0  -0.1163
  S  S169  1  0.000000  0.584770  0.982690  1.0  -0.1264
  S  S170  1  0.000000  0.661680  0.149190  1.0  -0.1148
  S  S171  1  0.500000  0.084770  0.982690  1.0  -0.1264
  S  S172  1  0.500000  0.161680  0.149190  1.0  -0.1148
  S  S173  1  0.000000  0.415230  0.482690  1.0  -0.1263
  S  S174  1  0.000000  0.338320  0.649190  1.0  -0.1149
  S  S175  1  0.500000  0.915230  0.482690  1.0  -0.1263
  S  S176  1  0.500000  0.838320  0.649190  1.0  -0.1149
  N  N177  1  0.852200  0.658400  0.653900  1.0  -0.3933
  N  N178  1  0.737200  0.586100  0.531000  1.0  -0.4244
  N  N179  1  0.881400  0.507400  0.365200  1.0  -0.3722
  N  N180  1  0.732100  0.670300  0.345900  1.0  -0.3622
  N  N181  1  0.850900  0.809200  0.320200  1.0  -0.4062
  N  N182  1  0.352200  0.158400  0.653900  1.0  -0.3933
  N  N183  1  0.237200  0.086100  0.531000  1.0  -0.4244
  N  N184  1  0.381400  0.007400  0.365200  1.0  -0.3722
  N  N185  1  0.232100  0.170300  0.345900  1.0  -0.3622
  N  N186  1  0.350900  0.309200  0.320200  1.0  -0.4062
  N  N187  1  0.147800  0.341600  0.153900  1.0  -0.3936
  N  N188  1  0.262800  0.413900  0.031000  1.0  -0.4263
  N  N189  1  0.118600  0.492600  0.865200  1.0  -0.3711
  N  N190  1  0.267900  0.329700  0.845900  1.0  -0.3615
  N  N191  1  0.149100  0.190800  0.820200  1.0  -0.4078
  N  N192  1  0.647800  0.841600  0.153900  1.0  -0.3936
  N  N193  1  0.762800  0.913900  0.031000  1.0  -0.4263
  N  N194  1  0.618600  0.992600  0.865200  1.0  -0.3711
  N  N195  1  0.767900  0.829700  0.845900  1.0  -0.3615
  N  N196  1  0.649100  0.690800  0.820200  1.0  -0.4078
  N  N197  1  0.147800  0.658400  0.846100  1.0  -0.3953
  N  N198  1  0.262800  0.586100  0.969000  1.0  -0.4253
  N  N199  1  0.118600  0.507400  0.134800  1.0  -0.3714
  N  N200  1  0.267900  0.670300  0.154100  1.0  -0.3621
  N  N201  1  0.149100  0.809200  0.179800  1.0  -0.4078
  N  N202  1  0.647800  0.158400  0.846100  1.0  -0.3953
  N  N203  1  0.762800  0.086100  0.969000  1.0  -0.4253
  N  N204  1  0.618600  0.007400  0.134800  1.0  -0.3714
  N  N205  1  0.767900  0.170300  0.154100  1.0  -0.3621
  N  N206  1  0.649100  0.309200  0.179800  1.0  -0.4078
  N  N207  1  0.852200  0.341600  0.346100  1.0  -0.3963
  N  N208  1  0.737200  0.413900  0.469000  1.0  -0.4238
  N  N209  1  0.881400  0.492600  0.634800  1.0  -0.3724
  N  N210  1  0.732100  0.329700  0.654100  1.0  -0.3618
  N  N211  1  0.850900  0.190800  0.679800  1.0  -0.4063
  N  N212  1  0.352200  0.841600  0.346100  1.0  -0.3963
  N  N213  1  0.237200  0.913900  0.469000  1.0  -0.4238
  N  N214  1  0.381400  0.992600  0.634800  1.0  -0.3724
  N  N215  1  0.232100  0.829700  0.654100  1.0  -0.3618
  N  N216  1  0.350900  0.690800  0.679800  1.0  -0.4063
  N  N217  1  0.147800  0.341600  0.346100  1.0  -0.3954
  N  N218  1  0.262800  0.413900  0.469000  1.0  -0.4247
  N  N219  1  0.118600  0.492600  0.634800  1.0  -0.3703
  N  N220  1  0.267900  0.329700  0.654100  1.0  -0.3619
  N  N221  1  0.149100  0.190800  0.679800  1.0  -0.4069
  N  N222  1  0.647800  0.841600  0.346100  1.0  -0.3954
  N  N223  1  0.762800  0.913900  0.469000  1.0  -0.4247
  N  N224  1  0.618600  0.992600  0.634800  1.0  -0.3703
  N  N225  1  0.767900  0.829700  0.654100  1.0  -0.3619
  N  N226  1  0.649100  0.690800  0.679800  1.0  -0.4069
  N  N227  1  0.852200  0.658400  0.846100  1.0  -0.3959
  N  N228  1  0.737200  0.586100  0.969000  1.0  -0.4242
  N  N229  1  0.881400  0.507400  0.134800  1.0  -0.3703
  N  N230  1  0.732100  0.670300  0.154100  1.0  -0.3618
  N  N231  1  0.850900  0.809200  0.179800  1.0  -0.4072
  N  N232  1  0.352200  0.158400  0.846100  1.0  -0.3959
  N  N233  1  0.237200  0.086100  0.969000  1.0  -0.4242
  N  N234  1  0.381400  0.007400  0.134800  1.0  -0.3703
  N  N235  1  0.232100  0.170300  0.154100  1.0  -0.3618
  N  N236  1  0.350900  0.309200  0.179800  1.0  -0.4072
  N  N237  1  0.852200  0.341600  0.153900  1.0  -0.3945
  N  N238  1  0.737200  0.413900  0.031000  1.0  -0.4252
  N  N239  1  0.881400  0.492600  0.865200  1.0  -0.3704
  N  N240  1  0.732100  0.329700  0.845900  1.0  -0.3618
  N  N241  1  0.850900  0.190800  0.820200  1.0  -0.4064
  N  N242  1  0.352200  0.841600  0.153900  1.0  -0.3945
  N  N243  1  0.237200  0.913900  0.031000  1.0  -0.4252
  N  N244  1  0.381400  0.992600  0.865200  1.0  -0.3704
  N  N245  1  0.232100  0.829700  0.845900  1.0  -0.3618
  N  N246  1  0.350900  0.690800  0.820200  1.0  -0.4064
  N  N247  1  0.147800  0.658400  0.653900  1.0  -0.3929
  N  N248  1  0.262800  0.586100  0.531000  1.0  -0.4259
  N  N249  1  0.118600  0.507400  0.365200  1.0  -0.3697
  N  N250  1  0.267900  0.670300  0.345900  1.0  -0.3619
  N  N251  1  0.149100  0.809200  0.320200  1.0  -0.4071
  N  N252  1  0.647800  0.158400  0.653900  1.0  -0.3929
  N  N253  1  0.762800  0.086100  0.531000  1.0  -0.4259
  N  N254  1  0.618600  0.007400  0.365200  1.0  -0.3697
  N  N255  1  0.767900  0.170300  0.345900  1.0  -0.3619
  N  N256  1  0.649100  0.309200  0.320200  1.0  -0.4071
  N  N257  1  0.000000  0.821800  0.626700  1.0  -0.3579
  N  N258  1  0.000000  0.894500  0.465400  1.0  -0.4274
  N  N259  1  0.500000  0.321800  0.626700  1.0  -0.3579
  N  N260  1  0.500000  0.394500  0.465400  1.0  -0.4274
  N  N261  1  0.000000  0.178200  0.126700  1.0  -0.3558
  N  N262  1  0.000000  0.105500  0.965400  1.0  -0.4279
  N  N263  1  0.500000  0.678200  0.126700  1.0  -0.3558
  N  N264  1  0.500000  0.605500  0.965400  1.0  -0.4279
  N  N265  1  0.000000  0.821800  0.873300  1.0  -0.3565
  N  N266  1  0.000000  0.894500  0.034600  1.0  -0.4278
  N  N267  1  0.500000  0.321800  0.873300  1.0  -0.3565
  N  N268  1  0.500000  0.394500  0.034600  1.0  -0.4278
  N  N269  1  0.000000  0.178200  0.373300  1.0  -0.3555
  N  N270  1  0.000000  0.105500  0.534600  1.0  -0.4282
  N  N271  1  0.500000  0.678200  0.373300  1.0  -0.3555
  N  N272  1  0.500000  0.605500  0.534600  1.0  -0.4282
