# generated using pymatgen
data_KTbRe4C12(SN3)4
_symmetry_space_group_name_H-M   'P 1'
_cell_length_a   14.40980000
_cell_length_b   21.29420000
_cell_length_c   20.91280000
_cell_angle_alpha   90.00000000
_cell_angle_beta   90.00000000
_cell_angle_gamma   90.00000000
_symmetry_Int_Tables_number   1
_chemical_formula_structural   KTbRe4C12(SN3)4
_chemical_formula_sum   'K8 Tb8 Re32 C96 S32 N96'
_cell_volume   6416.99152813
_cell_formula_units_Z   8
loop_
 _symmetry_equiv_pos_site_id
 _symmetry_equiv_pos_as_xyz
  1  'x, y, z'
loop_
 _atom_site_type_symbol
 _atom_site_label
 _atom_site_symmetry_multiplicity
 _atom_site_fract_x
 _atom_site_fract_y
 _atom_site_fract_z
 _atom_site_occupancy
 _atom_site_charge
  K  K1  1  0.914300  0.000000  0.500000  1.0  0.9445
  K  K2  1  0.414300  0.500000  0.500000  1.0  0.9445
  K  K3  1  0.085700  0.000000  0.000000  1.0  0.9439
  K  K4  1  0.585700  0.500000  0.000000  1.0  0.9439
  K  K5  1  0.085700  0.000000  0.500000  1.0  0.9439
  K  K6  1  0.585700  0.500000  0.500000  1.0  0.9439
  K  K7  1  0.914300  0.000000  0.000000  1.0  0.9445
  K  K8  1  0.414300  0.500000  0.000000  1.0  0.9445
  Tb  Tb9  1  0.762800  0.640810  0.750000  1.0  2.0791
  Tb  Tb10  1  0.262800  0.140810  0.750000  1.0  2.0791
  Tb  Tb11  1  0.237200  0.359190  0.250000  1.0  2.0801
  Tb  Tb12  1  0.737200  0.859190  0.250000  1.0  2.0801
  Tb  Tb13  1  0.237200  0.640810  0.750000  1.0  2.079
  Tb  Tb14  1  0.737200  0.140810  0.750000  1.0  2.079
  Tb  Tb15  1  0.762800  0.359190  0.250000  1.0  2.0801
  Tb  Tb16  1  0.262800  0.859190  0.250000  1.0  2.0801
  Re  Re17  1  0.904280  0.639240  0.441410  1.0  0.0355
  Re  Re18  1  0.404280  0.139240  0.441410  1.0  0.0355
  Re  Re19  1  0.095720  0.360760  0.941410  1.0  0.0342
  Re  Re20  1  0.595720  0.860760  0.941410  1.0  0.0342
  Re  Re21  1  0.095720  0.639240  0.058590  1.0  0.0345
  Re  Re22  1  0.595720  0.139240  0.058590  1.0  0.0345
  Re  Re23  1  0.904280  0.360760  0.558590  1.0  0.0344
  Re  Re24  1  0.404280  0.860760  0.558590  1.0  0.0344
  Re  Re25  1  0.095720  0.360760  0.558590  1.0  0.0338
  Re  Re26  1  0.595720  0.860760  0.558590  1.0  0.0338
  Re  Re27  1  0.904280  0.639240  0.058590  1.0  0.0355
  Re  Re28  1  0.404280  0.139240  0.058590  1.0  0.0355
  Re  Re29  1  0.904280  0.360760  0.941410  1.0  0.0347
  Re  Re30  1  0.404280  0.860760  0.941410  1.0  0.0347
  Re  Re31  1  0.095720  0.639240  0.441410  1.0  0.0345
  Re  Re32  1  0.595720  0.139240  0.441410  1.0  0.0345
  Re  Re33  1  0.000000  0.694050  0.540500  1.0  -0.0491
  Re  Re34  1  0.000000  0.749520  0.421650  1.0  0.0044
  Re  Re35  1  0.500000  0.194050  0.540500  1.0  -0.0491
  Re  Re36  1  0.500000  0.249520  0.421650  1.0  0.0044
  Re  Re37  1  0.000000  0.305950  0.040500  1.0  -0.0486
  Re  Re38  1  0.000000  0.250480  0.921650  1.0  0.0043
  Re  Re39  1  0.500000  0.805950  0.040500  1.0  -0.0486
  Re  Re40  1  0.500000  0.750480  0.921650  1.0  0.0043
  Re  Re41  1  0.000000  0.694050  0.959500  1.0  -0.0484
  Re  Re42  1  0.000000  0.749520  0.078350  1.0  0.0039
  Re  Re43  1  0.500000  0.194050  0.959500  1.0  -0.0484
  Re  Re44  1  0.500000  0.249520  0.078350  1.0  0.0039
  Re  Re45  1  0.000000  0.305950  0.459500  1.0  -0.0478
  Re  Re46  1  0.000000  0.250480  0.578350  1.0  0.0043
  Re  Re47  1  0.500000  0.805950  0.459500  1.0  -0.0478
  Re  Re48  1  0.500000  0.750480  0.578350  1.0  0.0043
  C  C49  1  0.904500  0.669500  0.611900  1.0  0.23
  C  C50  1  0.792600  0.659400  0.379300  1.0  0.2038
  C  C51  1  0.888000  0.551800  0.394200  1.0  0.2197
  C  C52  1  0.792900  0.603600  0.497300  1.0  0.1922
  C  C53  1  0.905000  0.787600  0.356200  1.0  0.2188
  C  C54  1  0.404500  0.169500  0.611900  1.0  0.23
  C  C55  1  0.292600  0.159400  0.379300  1.0  0.2038
  C  C56  1  0.388000  0.051800  0.394200  1.0  0.2197
  C  C57  1  0.292900  0.103600  0.497300  1.0  0.1922
  C  C58  1  0.405000  0.287600  0.356200  1.0  0.2188
  C  C59  1  0.095500  0.330500  0.111900  1.0  0.2303
  C  C60  1  0.207400  0.340600  0.879300  1.0  0.2041
  C  C61  1  0.112000  0.448200  0.894200  1.0  0.2198
  C  C62  1  0.207100  0.396400  0.997300  1.0  0.1924
  C  C63  1  0.095000  0.212400  0.856200  1.0  0.2202
  C  C64  1  0.595500  0.830500  0.111900  1.0  0.2303
  C  C65  1  0.707400  0.840600  0.879300  1.0  0.2041
  C  C66  1  0.612000  0.948200  0.894200  1.0  0.2198
  C  C67  1  0.707100  0.896400  0.997300  1.0  0.1924
  C  C68  1  0.595000  0.712400  0.856200  1.0  0.2202
  C  C69  1  0.095500  0.669500  0.888100  1.0  0.2286
  C  C70  1  0.207400  0.659400  0.120700  1.0  0.2054
  C  C71  1  0.112000  0.551800  0.105800  1.0  0.2197
  C  C72  1  0.207100  0.603600  0.002700  1.0  0.1933
  C  C73  1  0.095000  0.787600  0.143800  1.0  0.2206
  C  C74  1  0.595500  0.169500  0.888100  1.0  0.2286
  C  C75  1  0.707400  0.159400  0.120700  1.0  0.2054
  C  C76  1  0.612000  0.051800  0.105800  1.0  0.2197
  C  C77  1  0.707100  0.103600  0.002700  1.0  0.1933
  C  C78  1  0.595000  0.287600  0.143800  1.0  0.2206
  C  C79  1  0.904500  0.330500  0.388100  1.0  0.2284
  C  C80  1  0.792600  0.340600  0.620700  1.0  0.2037
  C  C81  1  0.888000  0.448200  0.605800  1.0  0.2182
  C  C82  1  0.792900  0.396400  0.502700  1.0  0.1924
  C  C83  1  0.905000  0.212400  0.643800  1.0  0.2205
  C  C84  1  0.404500  0.830500  0.388100  1.0  0.2284
  C  C85  1  0.292600  0.840600  0.620700  1.0  0.2037
  C  C86  1  0.388000  0.948200  0.605800  1.0  0.2182
  C  C87  1  0.292900  0.896400  0.502700  1.0  0.1924
  C  C88  1  0.405000  0.712400  0.643800  1.0  0.2205
  C  C89  1  0.095500  0.330500  0.388100  1.0  0.2284
  C  C90  1  0.207400  0.340600  0.620700  1.0  0.2046
  C  C91  1  0.112000  0.448200  0.605800  1.0  0.219
  C  C92  1  0.207100  0.396400  0.502700  1.0  0.193
  C  C93  1  0.095000  0.212400  0.643800  1.0  0.2215
  C  C94  1  0.595500  0.830500  0.388100  1.0  0.2284
  C  C95  1  0.707400  0.840600  0.620700  1.0  0.2046
  C  C96  1  0.612000  0.948200  0.605800  1.0  0.219
  C  C97  1  0.707100  0.896400  0.502700  1.0  0.193
  C  C98  1  0.595000  0.712400  0.643800  1.0  0.2215
  C  C99  1  0.904500  0.669500  0.888100  1.0  0.2284
  C  C100  1  0.792600  0.659400  0.120700  1.0  0.2044
  C  C101  1  0.888000  0.551800  0.105800  1.0  0.2188
  C  C102  1  0.792900  0.603600  0.002700  1.0  0.1924
  C  C103  1  0.905000  0.787600  0.143800  1.0  0.2197
  C  C104  1  0.404500  0.169500  0.888100  1.0  0.2284
  C  C105  1  0.292600  0.159400  0.120700  1.0  0.2044
  C  C106  1  0.388000  0.051800  0.105800  1.0  0.2188
  C  C107  1  0.292900  0.103600  0.002700  1.0  0.1924
  C  C108  1  0.405000  0.287600  0.143800  1.0  0.2197
  C  C109  1  0.904500  0.330500  0.111900  1.0  0.2299
  C  C110  1  0.792600  0.340600  0.879300  1.0  0.2033
  C  C111  1  0.888000  0.448200  0.894200  1.0  0.2193
  C  C112  1  0.792900  0.396400  0.997300  1.0  0.1921
  C  C113  1  0.905000  0.212400  0.856200  1.0  0.2196
  C  C114  1  0.404500  0.830500  0.111900  1.0  0.2299
  C  C115  1  0.292600  0.840600  0.879300  1.0  0.2033
  C  C116  1  0.388000  0.948200  0.894200  1.0  0.2193
  C  C117  1  0.292900  0.896400  0.997300  1.0  0.1921
  C  C118  1  0.405000  0.712400  0.856200  1.0  0.2196
  C  C119  1  0.095500  0.669500  0.611900  1.0  0.2306
  C  C120  1  0.207400  0.659400  0.379300  1.0  0.2045
  C  C121  1  0.112000  0.551800  0.394200  1.0  0.2206
  C  C122  1  0.207100  0.603600  0.497300  1.0  0.1927
  C  C123  1  0.095000  0.787600  0.356200  1.0  0.2194
  C  C124  1  0.595500  0.169500  0.611900  1.0  0.2306
  C  C125  1  0.707400  0.159400  0.379300  1.0  0.2045
  C  C126  1  0.612000  0.051800  0.394200  1.0  0.2206
  C  C127  1  0.707100  0.103600  0.497300  1.0  0.1927
  C  C128  1  0.595000  0.287600  0.356200  1.0  0.2194
  C  C129  1  0.000000  0.778000  0.594200  1.0  0.2248
  C  C130  1  0.000000  0.842400  0.451500  1.0  0.2182
  C  C131  1  0.500000  0.278000  0.594200  1.0  0.2248
  C  C132  1  0.500000  0.342400  0.451500  1.0  0.2182
  C  C133  1  0.000000  0.222000  0.094200  1.0  0.2272
  C  C134  1  0.000000  0.157600  0.951500  1.0  0.2201
  C  C135  1  0.500000  0.722000  0.094200  1.0  0.2272
  C  C136  1  0.500000  0.657600  0.951500  1.0  0.2201
  C  C137  1  0.000000  0.778000  0.905800  1.0  0.2268
  C  C138  1  0.000000  0.842400  0.048500  1.0  0.2191
  C  C139  1  0.500000  0.278000  0.905800  1.0  0.2268
  C  C140  1  0.500000  0.342400  0.048500  1.0  0.2191
  C  C141  1  0.000000  0.222000  0.405800  1.0  0.2287
  C  C142  1  0.000000  0.157600  0.548500  1.0  0.2209
  C  C143  1  0.500000  0.722000  0.405800  1.0  0.2287
  C  C144  1  0.500000  0.657600  0.548500  1.0  0.2209
  S  S145  1  0.869770  0.737600  0.488870  1.0  -0.1354
  S  S146  1  0.369770  0.237600  0.488870  1.0  -0.1354
  S  S147  1  0.130230  0.262400  0.988870  1.0  -0.1337
  S  S148  1  0.630230  0.762400  0.988870  1.0  -0.1337
  S  S149  1  0.130230  0.737600  0.011130  1.0  -0.1343
  S  S150  1  0.630230  0.237600  0.011130  1.0  -0.1343
  S  S151  1  0.869770  0.262400  0.511130  1.0  -0.1362
  S  S152  1  0.369770  0.762400  0.511130  1.0  -0.1362
  S  S153  1  0.130230  0.262400  0.511130  1.0  -0.134
  S  S154  1  0.630230  0.762400  0.511130  1.0  -0.134
  S  S155  1  0.869770  0.737600  0.011130  1.0  -0.136
  S  S156  1  0.369770  0.237600  0.011130  1.0  -0.136
  S  S157  1  0.869770  0.262400  0.988870  1.0  -0.1358
  S  S158  1  0.369770  0.762400  0.988870  1.0  -0.1358
  S  S159  1  0.130230  0.737600  0.488870  1.0  -0.1338
  S  S160  1  0.630230  0.237600  0.488870  1.0  -0.1338
  S  S161  1  0.000000  0.662110  0.352660  1.0  -0.1311
  S  S162  1  0.000000  0.583980  0.516180  1.0  -0.1301
  S  S163  1  0.500000  0.162110  0.352660  1.0  -0.1311
  S  S164  1  0.500000  0.083980  0.516180  1.0  -0.1301
  S  S165  1  0.000000  0.337890  0.852660  1.0  -0.1307
  S  S166  1  0.000000  0.416020  0.016180  1.0  -0.1303
  S  S167  1  0.500000  0.837890  0.852660  1.0  -0.1307
  S  S168  1  0.500000  0.916020  0.016180  1.0  -0.1303
  S  S169  1  0.000000  0.662110  0.147340  1.0  -0.1289
  S  S170  1  0.000000  0.583980  0.983820  1.0  -0.1302
  S  S171  1  0.500000  0.162110  0.147340  1.0  -0.1289
  S  S172  1  0.500000  0.083980  0.983820  1.0  -0.1302
  S  S173  1  0.000000  0.337890  0.647340  1.0  -0.1291
  S  S174  1  0.000000  0.416020  0.483820  1.0  -0.1301
  S  S175  1  0.500000  0.837890  0.647340  1.0  -0.1291
  S  S176  1  0.500000  0.916020  0.483820  1.0  -0.1301
  N  N177  1  0.853200  0.657400  0.652100  1.0  -0.494
  N  N178  1  0.731700  0.671300  0.346300  1.0  -0.347
  N  N179  1  0.880600  0.507500  0.365600  1.0  -0.3581
  N  N180  1  0.732600  0.583100  0.524500  1.0  -0.467
  N  N181  1  0.853100  0.809400  0.321000  1.0  -0.4632
  N  N182  1  0.353200  0.157400  0.652100  1.0  -0.494
  N  N183  1  0.231700  0.171300  0.346300  1.0  -0.347
  N  N184  1  0.380600  0.007500  0.365600  1.0  -0.3581
  N  N185  1  0.232600  0.083100  0.524500  1.0  -0.467
  N  N186  1  0.353100  0.309400  0.321000  1.0  -0.4632
  N  N187  1  0.146800  0.342600  0.152100  1.0  -0.4946
  N  N188  1  0.268300  0.328700  0.846300  1.0  -0.345
  N  N189  1  0.119400  0.492500  0.865600  1.0  -0.3571
  N  N190  1  0.267400  0.416900  0.024500  1.0  -0.4702
  N  N191  1  0.146900  0.190600  0.821000  1.0  -0.464
  N  N192  1  0.646800  0.842600  0.152100  1.0  -0.4946
  N  N193  1  0.768300  0.828700  0.846300  1.0  -0.345
  N  N194  1  0.619400  0.992500  0.865600  1.0  -0.3571
  N  N195  1  0.767400  0.916900  0.024500  1.0  -0.4702
  N  N196  1  0.646900  0.690600  0.821000  1.0  -0.464
  N  N197  1  0.146800  0.657400  0.847900  1.0  -0.4969
  N  N198  1  0.268300  0.671300  0.153700  1.0  -0.3462
  N  N199  1  0.119400  0.507500  0.134400  1.0  -0.3573
  N  N200  1  0.267400  0.583100  0.975500  1.0  -0.4692
  N  N201  1  0.146900  0.809400  0.179000  1.0  -0.4645
  N  N202  1  0.646800  0.157400  0.847900  1.0  -0.4969
  N  N203  1  0.768300  0.171300  0.153700  1.0  -0.3462
  N  N204  1  0.619400  0.007500  0.134400  1.0  -0.3573
  N  N205  1  0.767400  0.083100  0.975500  1.0  -0.4692
  N  N206  1  0.646900  0.309400  0.179000  1.0  -0.4645
  N  N207  1  0.853200  0.342600  0.347900  1.0  -0.4962
  N  N208  1  0.731700  0.328700  0.653700  1.0  -0.3466
  N  N209  1  0.880600  0.492500  0.634400  1.0  -0.3581
  N  N210  1  0.732600  0.416900  0.475500  1.0  -0.4675
  N  N211  1  0.853100  0.190600  0.679000  1.0  -0.4611
  N  N212  1  0.353200  0.842600  0.347900  1.0  -0.4962
  N  N213  1  0.231700  0.828700  0.653700  1.0  -0.3466
  N  N214  1  0.380600  0.992500  0.634400  1.0  -0.3581
  N  N215  1  0.232600  0.916900  0.475500  1.0  -0.4675
  N  N216  1  0.353100  0.690600  0.679000  1.0  -0.4611
  N  N217  1  0.146800  0.342600  0.347900  1.0  -0.4962
  N  N218  1  0.268300  0.328700  0.653700  1.0  -0.3461
  N  N219  1  0.119400  0.492500  0.634400  1.0  -0.3578
  N  N220  1  0.267400  0.416900  0.475500  1.0  -0.469
  N  N221  1  0.146900  0.190600  0.679000  1.0  -0.4627
  N  N222  1  0.646800  0.842600  0.347900  1.0  -0.4962
  N  N223  1  0.768300  0.828700  0.653700  1.0  -0.3461
  N  N224  1  0.619400  0.992500  0.634400  1.0  -0.3578
  N  N225  1  0.767400  0.916900  0.475500  1.0  -0.469
  N  N226  1  0.646900  0.690600  0.679000  1.0  -0.4627
  N  N227  1  0.853200  0.657400  0.847900  1.0  -0.4967
  N  N228  1  0.731700  0.671300  0.153700  1.0  -0.3467
  N  N229  1  0.880600  0.507500  0.134400  1.0  -0.3572
  N  N230  1  0.732600  0.583100  0.975500  1.0  -0.4674
  N  N231  1  0.853100  0.809400  0.179000  1.0  -0.463
  N  N232  1  0.353200  0.157400  0.847900  1.0  -0.4967
  N  N233  1  0.231700  0.171300  0.153700  1.0  -0.3467
  N  N234  1  0.380600  0.007500  0.134400  1.0  -0.3572
  N  N235  1  0.232600  0.083100  0.975500  1.0  -0.4674
  N  N236  1  0.353100  0.309400  0.179000  1.0  -0.463
  N  N237  1  0.853200  0.342600  0.152100  1.0  -0.4945
  N  N238  1  0.731700  0.328700  0.846300  1.0  -0.3462
  N  N239  1  0.880600  0.492500  0.865600  1.0  -0.3578
  N  N240  1  0.732600  0.416900  0.024500  1.0  -0.4681
  N  N241  1  0.853100  0.190600  0.821000  1.0  -0.4626
  N  N242  1  0.353200  0.842600  0.152100  1.0  -0.4945
  N  N243  1  0.231700  0.828700  0.846300  1.0  -0.3462
  N  N244  1  0.380600  0.992500  0.865600  1.0  -0.3578
  N  N245  1  0.232600  0.916900  0.024500  1.0  -0.4681
  N  N246  1  0.353100  0.690600  0.821000  1.0  -0.4626
  N  N247  1  0.146800  0.657400  0.652100  1.0  -0.4945
  N  N248  1  0.268300  0.671300  0.346300  1.0  -0.3457
  N  N249  1  0.119400  0.507500  0.365600  1.0  -0.3573
  N  N250  1  0.267400  0.583100  0.524500  1.0  -0.4693
  N  N251  1  0.146900  0.809400  0.321000  1.0  -0.4644
  N  N252  1  0.646800  0.157400  0.652100  1.0  -0.4945
  N  N253  1  0.768300  0.171300  0.346300  1.0  -0.3457
  N  N254  1  0.619400  0.007500  0.365600  1.0  -0.3573
  N  N255  1  0.767400  0.083100  0.524500  1.0  -0.4693
  N  N256  1  0.646900  0.309400  0.321000  1.0  -0.4644
  N  N257  1  0.000000  0.821500  0.624000  1.0  -0.3697
  N  N258  1  0.000000  0.895100  0.463900  1.0  -0.4668
  N  N259  1  0.500000  0.321500  0.624000  1.0  -0.3697
  N  N260  1  0.500000  0.395100  0.463900  1.0  -0.4668
  N  N261  1  0.000000  0.178500  0.124000  1.0  -0.3667
  N  N262  1  0.000000  0.104900  0.963900  1.0  -0.4674
  N  N263  1  0.500000  0.678500  0.124000  1.0  -0.3667
  N  N264  1  0.500000  0.604900  0.963900  1.0  -0.4674
  N  N265  1  0.000000  0.821500  0.876000  1.0  -0.3675
  N  N266  1  0.000000  0.895100  0.036100  1.0  -0.4671
  N  N267  1  0.500000  0.321500  0.876000  1.0  -0.3675
  N  N268  1  0.500000  0.395100  0.036100  1.0  -0.4671
  N  N269  1  0.000000  0.178500  0.376000  1.0  -0.3656
  N  N270  1  0.000000  0.104900  0.536100  1.0  -0.4676
  N  N271  1  0.500000  0.678500  0.376000  1.0  -0.3656
  N  N272  1  0.500000  0.604900  0.536100  1.0  -0.4676
