# generated using pymatgen
data_K2TmRe4C12S4N12O
_symmetry_space_group_name_H-M   'P 1'
_cell_length_a   14.60390000
_cell_length_b   21.12620000
_cell_length_c   20.60280000
_cell_angle_alpha   90.00000000
_cell_angle_beta   90.00000000
_cell_angle_gamma   90.00000000
_symmetry_Int_Tables_number   1
_chemical_formula_structural   K2TmRe4C12S4N12O
_chemical_formula_sum   'K16 Tm8 Re32 C96 S32 N96 O8'
_cell_volume   6356.47706066
_cell_formula_units_Z   8
loop_
 _symmetry_equiv_pos_site_id
 _symmetry_equiv_pos_as_xyz
  1  'x, y, z'
loop_
 _atom_site_type_symbol
 _atom_site_label
 _atom_site_symmetry_multiplicity
 _atom_site_fract_x
 _atom_site_fract_y
 _atom_site_fract_z
 _atom_site_occupancy
 _atom_site_charge
  K  K1  1  0.108600  0.013400  0.037000  1.0  0.8846
  K  K2  1  0.608600  0.513400  0.037000  1.0  0.8846
  K  K3  1  0.891400  0.986600  0.537000  1.0  0.8393
  K  K4  1  0.391400  0.486600  0.537000  1.0  0.8393
  K  K5  1  0.891400  0.013400  0.463000  1.0  0.8299
  K  K6  1  0.391400  0.513400  0.463000  1.0  0.8299
  K  K7  1  0.108600  0.986600  0.963000  1.0  0.8754
  K  K8  1  0.608600  0.486600  0.963000  1.0  0.8754
  K  K9  1  0.891400  0.986600  0.963000  1.0  0.8304
  K  K10  1  0.391400  0.486600  0.963000  1.0  0.8304
  K  K11  1  0.108600  0.013400  0.463000  1.0  0.8755
  K  K12  1  0.608600  0.513400  0.463000  1.0  0.8755
  K  K13  1  0.108600  0.986600  0.537000  1.0  0.8844
  K  K14  1  0.608600  0.486600  0.537000  1.0  0.8844
  K  K15  1  0.891400  0.013400  0.037000  1.0  0.8393
  K  K16  1  0.391400  0.513400  0.037000  1.0  0.8393
  Tm  Tm17  1  0.237450  0.357980  0.250000  1.0  2.0933
  Tm  Tm18  1  0.737450  0.857980  0.250000  1.0  2.0933
  Tm  Tm19  1  0.762550  0.642020  0.750000  1.0  2.0926
  Tm  Tm20  1  0.262550  0.142020  0.750000  1.0  2.0926
  Tm  Tm21  1  0.762550  0.357980  0.250000  1.0  2.0932
  Tm  Tm22  1  0.262550  0.857980  0.250000  1.0  2.0932
  Tm  Tm23  1  0.237450  0.642020  0.750000  1.0  2.0928
  Tm  Tm24  1  0.737450  0.142020  0.750000  1.0  2.0928
  Re  Re25  1  0.405550  0.141490  0.056940  1.0  0.043
  Re  Re26  1  0.905550  0.641490  0.056940  1.0  0.043
  Re  Re27  1  0.594450  0.858510  0.556940  1.0  0.0417
  Re  Re28  1  0.094450  0.358510  0.556940  1.0  0.0417
  Re  Re29  1  0.594450  0.141490  0.443060  1.0  0.0426
  Re  Re30  1  0.094450  0.641490  0.443060  1.0  0.0426
  Re  Re31  1  0.405550  0.858510  0.943060  1.0  0.043
  Re  Re32  1  0.905550  0.358510  0.943060  1.0  0.043
  Re  Re33  1  0.594450  0.858510  0.943060  1.0  0.0424
  Re  Re34  1  0.094450  0.358510  0.943060  1.0  0.0424
  Re  Re35  1  0.405550  0.141490  0.443060  1.0  0.0435
  Re  Re36  1  0.905550  0.641490  0.443060  1.0  0.0435
  Re  Re37  1  0.405550  0.858510  0.556940  1.0  0.0423
  Re  Re38  1  0.905550  0.358510  0.556940  1.0  0.0423
  Re  Re39  1  0.594450  0.141490  0.056940  1.0  0.0422
  Re  Re40  1  0.094450  0.641490  0.056940  1.0  0.0422
  Re  Re41  1  0.500000  0.197720  0.957120  1.0  -0.0446
  Re  Re42  1  0.500000  0.252420  0.078140  1.0  -0.0152
  Re  Re43  1  0.000000  0.697720  0.957120  1.0  -0.0446
  Re  Re44  1  0.000000  0.752420  0.078140  1.0  -0.0152
  Re  Re45  1  0.500000  0.802280  0.457120  1.0  -0.0441
  Re  Re46  1  0.500000  0.747580  0.578140  1.0  -0.0145
  Re  Re47  1  0.000000  0.302280  0.457120  1.0  -0.0441
  Re  Re48  1  0.000000  0.247580  0.578140  1.0  -0.0145
  Re  Re49  1  0.500000  0.197720  0.542880  1.0  -0.0454
  Re  Re50  1  0.500000  0.252420  0.421860  1.0  -0.0147
  Re  Re51  1  0.000000  0.697720  0.542880  1.0  -0.0454
  Re  Re52  1  0.000000  0.752420  0.421860  1.0  -0.0147
  Re  Re53  1  0.500000  0.802280  0.042880  1.0  -0.0449
  Re  Re54  1  0.500000  0.747580  0.921860  1.0  -0.0143
  Re  Re55  1  0.000000  0.302280  0.042880  1.0  -0.0449
  Re  Re56  1  0.000000  0.247580  0.921860  1.0  -0.0143
  C  C57  1  0.405200  0.289700  0.144700  1.0  0.2142
  C  C58  1  0.405500  0.173500  0.884700  1.0  0.2138
  C  C59  1  0.298500  0.106300  0.998700  1.0  0.1453
  C  C60  1  0.389900  0.053100  0.103500  1.0  0.1953
  C  C61  1  0.294400  0.161000  0.118300  1.0  0.2001
  C  C62  1  0.905200  0.789700  0.144700  1.0  0.2142
  C  C63  1  0.905500  0.673500  0.884700  1.0  0.2138
  C  C64  1  0.798500  0.606300  0.998700  1.0  0.1453
  C  C65  1  0.889900  0.553100  0.103500  1.0  0.1953
  C  C66  1  0.794400  0.661000  0.118300  1.0  0.2001
  C  C67  1  0.594800  0.710300  0.644700  1.0  0.2158
  C  C68  1  0.594500  0.826500  0.384700  1.0  0.2145
  C  C69  1  0.701500  0.893700  0.498700  1.0  0.1452
  C  C70  1  0.610100  0.946900  0.603500  1.0  0.1962
  C  C71  1  0.705600  0.839000  0.618300  1.0  0.2007
  C  C72  1  0.094800  0.210300  0.644700  1.0  0.2158
  C  C73  1  0.094500  0.326500  0.384700  1.0  0.2145
  C  C74  1  0.201500  0.393700  0.498700  1.0  0.1452
  C  C75  1  0.110100  0.446900  0.603500  1.0  0.1962
  C  C76  1  0.205600  0.339000  0.618300  1.0  0.2007
  C  C77  1  0.594800  0.289700  0.355300  1.0  0.216
  C  C78  1  0.594500  0.173500  0.615300  1.0  0.2157
  C  C79  1  0.701500  0.106300  0.501300  1.0  0.1449
  C  C80  1  0.610100  0.053100  0.396500  1.0  0.197
  C  C81  1  0.705600  0.161000  0.381700  1.0  0.1998
  C  C82  1  0.094800  0.789700  0.355300  1.0  0.216
  C  C83  1  0.094500  0.673500  0.615300  1.0  0.2157
  C  C84  1  0.201500  0.606300  0.501300  1.0  0.1449
  C  C85  1  0.110100  0.553100  0.396500  1.0  0.197
  C  C86  1  0.205600  0.661000  0.381700  1.0  0.1998
  C  C87  1  0.405200  0.710300  0.855300  1.0  0.2156
  C  C88  1  0.405500  0.826500  0.115300  1.0  0.2144
  C  C89  1  0.298500  0.893700  0.001300  1.0  0.1446
  C  C90  1  0.389900  0.946900  0.896500  1.0  0.1946
  C  C91  1  0.294400  0.839000  0.881700  1.0  0.1997
  C  C92  1  0.905200  0.210300  0.855300  1.0  0.2156
  C  C93  1  0.905500  0.326500  0.115300  1.0  0.2144
  C  C94  1  0.798500  0.393700  0.001300  1.0  0.1446
  C  C95  1  0.889900  0.446900  0.896500  1.0  0.1946
  C  C96  1  0.794400  0.339000  0.881700  1.0  0.1997
  C  C97  1  0.594800  0.710300  0.855300  1.0  0.2164
  C  C98  1  0.594500  0.826500  0.115300  1.0  0.2157
  C  C99  1  0.701500  0.893700  0.001300  1.0  0.1447
  C  C100  1  0.610100  0.946900  0.896500  1.0  0.1962
  C  C101  1  0.705600  0.839000  0.881700  1.0  0.2
  C  C102  1  0.094800  0.210300  0.855300  1.0  0.2164
  C  C103  1  0.094500  0.326500  0.115300  1.0  0.2157
  C  C104  1  0.201500  0.393700  0.001300  1.0  0.1447
  C  C105  1  0.110100  0.446900  0.896500  1.0  0.1962
  C  C106  1  0.205600  0.339000  0.881700  1.0  0.2
  C  C107  1  0.405200  0.289700  0.355300  1.0  0.2152
  C  C108  1  0.405500  0.173500  0.615300  1.0  0.2144
  C  C109  1  0.298500  0.106300  0.501300  1.0  0.1444
  C  C110  1  0.389900  0.053100  0.396500  1.0  0.1953
  C  C111  1  0.294400  0.161000  0.381700  1.0  0.1997
  C  C112  1  0.905200  0.789700  0.355300  1.0  0.2152
  C  C113  1  0.905500  0.673500  0.615300  1.0  0.2144
  C  C114  1  0.798500  0.606300  0.501300  1.0  0.1444
  C  C115  1  0.889900  0.553100  0.396500  1.0  0.1953
  C  C116  1  0.794400  0.661000  0.381700  1.0  0.1997
  C  C117  1  0.405200  0.710300  0.644700  1.0  0.215
  C  C118  1  0.405500  0.826500  0.384700  1.0  0.2138
  C  C119  1  0.298500  0.893700  0.498700  1.0  0.1452
  C  C120  1  0.389900  0.946900  0.603500  1.0  0.1946
  C  C121  1  0.294400  0.839000  0.618300  1.0  0.1998
  C  C122  1  0.905200  0.210300  0.644700  1.0  0.215
  C  C123  1  0.905500  0.326500  0.384700  1.0  0.2138
  C  C124  1  0.798500  0.393700  0.498700  1.0  0.1452
  C  C125  1  0.889900  0.446900  0.603500  1.0  0.1946
  C  C126  1  0.794400  0.339000  0.618300  1.0  0.1998
  C  C127  1  0.594800  0.289700  0.144700  1.0  0.2151
  C  C128  1  0.594500  0.173500  0.884700  1.0  0.2145
  C  C129  1  0.701500  0.106300  0.998700  1.0  0.1457
  C  C130  1  0.610100  0.053100  0.103500  1.0  0.1971
  C  C131  1  0.705600  0.161000  0.118300  1.0  0.2008
  C  C132  1  0.094800  0.789700  0.144700  1.0  0.2151
  C  C133  1  0.094500  0.673500  0.884700  1.0  0.2145
  C  C134  1  0.201500  0.606300  0.998700  1.0  0.1457
  C  C135  1  0.110100  0.553100  0.103500  1.0  0.1971
  C  C136  1  0.205600  0.661000  0.118300  1.0  0.2008
  C  C137  1  0.500000  0.347100  0.048200  1.0  0.2106
  C  C138  1  0.500000  0.281700  0.902800  1.0  0.1893
  C  C139  1  0.000000  0.847100  0.048200  1.0  0.2106
  C  C140  1  0.000000  0.781700  0.902800  1.0  0.1893
  C  C141  1  0.500000  0.652900  0.548200  1.0  0.2123
  C  C142  1  0.500000  0.718300  0.402800  1.0  0.1904
  C  C143  1  0.000000  0.152900  0.548200  1.0  0.2123
  C  C144  1  0.000000  0.218300  0.402800  1.0  0.1904
  C  C145  1  0.500000  0.347100  0.451800  1.0  0.2107
  C  C146  1  0.500000  0.281700  0.597200  1.0  0.1868
  C  C147  1  0.000000  0.847100  0.451800  1.0  0.2107
  C  C148  1  0.000000  0.781700  0.597200  1.0  0.1868
  C  C149  1  0.500000  0.652900  0.951800  1.0  0.2123
  C  C150  1  0.500000  0.718300  0.097200  1.0  0.189
  C  C151  1  0.000000  0.152900  0.951800  1.0  0.2123
  C  C152  1  0.000000  0.218300  0.097200  1.0  0.189
  S  S153  1  0.370990  0.241120  0.009910  1.0  -0.1529
  S  S154  1  0.870990  0.741120  0.009910  1.0  -0.1529
  S  S155  1  0.629010  0.758880  0.509910  1.0  -0.1514
  S  S156  1  0.129010  0.258880  0.509910  1.0  -0.1514
  S  S157  1  0.629010  0.241120  0.490090  1.0  -0.151
  S  S158  1  0.129010  0.741120  0.490090  1.0  -0.151
  S  S159  1  0.370990  0.758880  0.990090  1.0  -0.1532
  S  S160  1  0.870990  0.258880  0.990090  1.0  -0.1532
  S  S161  1  0.629010  0.758880  0.990090  1.0  -0.1512
  S  S162  1  0.129010  0.258880  0.990090  1.0  -0.1512
  S  S163  1  0.370990  0.241120  0.490090  1.0  -0.1525
  S  S164  1  0.870990  0.741120  0.490090  1.0  -0.1525
  S  S165  1  0.370990  0.758880  0.509910  1.0  -0.1533
  S  S166  1  0.870990  0.258880  0.509910  1.0  -0.1533
  S  S167  1  0.629010  0.241120  0.009910  1.0  -0.1513
  S  S168  1  0.129010  0.741120  0.009910  1.0  -0.1513
  S  S169  1  0.500000  0.086050  0.980800  1.0  -0.1284
  S  S170  1  0.500000  0.163560  0.147400  1.0  -0.1405
  S  S171  1  0.000000  0.586050  0.980800  1.0  -0.1284
  S  S172  1  0.000000  0.663560  0.147400  1.0  -0.1405
  S  S173  1  0.500000  0.913950  0.480800  1.0  -0.1272
  S  S174  1  0.500000  0.836440  0.647400  1.0  -0.1407
  S  S175  1  0.000000  0.413950  0.480800  1.0  -0.1272
  S  S176  1  0.000000  0.336440  0.647400  1.0  -0.1407
  S  S177  1  0.500000  0.086050  0.519200  1.0  -0.1289
  S  S178  1  0.500000  0.163560  0.352600  1.0  -0.1425
  S  S179  1  0.000000  0.586050  0.519200  1.0  -0.1289
  S  S180  1  0.000000  0.663560  0.352600  1.0  -0.1425
  S  S181  1  0.500000  0.913950  0.019200  1.0  -0.1279
  S  S182  1  0.500000  0.836440  0.852600  1.0  -0.1422
  S  S183  1  0.000000  0.413950  0.019200  1.0  -0.1279
  S  S184  1  0.000000  0.336440  0.852600  1.0  -0.1422
  N  N185  1  0.350900  0.309700  0.180000  1.0  -0.4458
  N  N186  1  0.146400  0.339900  0.345300  1.0  -0.4558
  N  N187  1  0.381100  0.007500  0.132800  1.0  -0.3951
  N  N188  1  0.232200  0.170200  0.151100  1.0  -0.3731
  N  N189  1  0.241400  0.088000  0.965500  1.0  -0.3935
  N  N190  1  0.850900  0.809700  0.180000  1.0  -0.4458
  N  N191  1  0.646400  0.839900  0.345300  1.0  -0.4558
  N  N192  1  0.881100  0.507500  0.132800  1.0  -0.3951
  N  N193  1  0.732200  0.670200  0.151100  1.0  -0.3731
  N  N194  1  0.741400  0.588000  0.965500  1.0  -0.3935
  N  N195  1  0.649100  0.690300  0.680000  1.0  -0.4458
  N  N196  1  0.853600  0.660100  0.845300  1.0  -0.4568
  N  N197  1  0.618900  0.992500  0.632800  1.0  -0.3972
  N  N198  1  0.767800  0.829800  0.651100  1.0  -0.3737
  N  N199  1  0.758600  0.912000  0.465500  1.0  -0.3929
  N  N200  1  0.149100  0.190300  0.680000  1.0  -0.4458
  N  N201  1  0.353600  0.160100  0.845300  1.0  -0.4568
  N  N202  1  0.118900  0.492500  0.632800  1.0  -0.3972
  N  N203  1  0.267800  0.329800  0.651100  1.0  -0.3737
  N  N204  1  0.258600  0.412000  0.465500  1.0  -0.3929
  N  N205  1  0.649100  0.309700  0.320000  1.0  -0.4457
  N  N206  1  0.853600  0.339900  0.154700  1.0  -0.4558
  N  N207  1  0.618900  0.007500  0.367200  1.0  -0.3958
  N  N208  1  0.767800  0.170200  0.348900  1.0  -0.3734
  N  N209  1  0.758600  0.088000  0.534500  1.0  -0.396
  N  N210  1  0.149100  0.809700  0.320000  1.0  -0.4457
  N  N211  1  0.353600  0.839900  0.154700  1.0  -0.4558
  N  N212  1  0.118900  0.507500  0.367200  1.0  -0.3958
  N  N213  1  0.267800  0.670200  0.348900  1.0  -0.3734
  N  N214  1  0.258600  0.588000  0.534500  1.0  -0.396
  N  N215  1  0.350900  0.690300  0.820000  1.0  -0.4435
  N  N216  1  0.146400  0.660100  0.654700  1.0  -0.4536
  N  N217  1  0.381100  0.992500  0.867200  1.0  -0.3976
  N  N218  1  0.232200  0.829800  0.848900  1.0  -0.3736
  N  N219  1  0.241400  0.912000  0.034500  1.0  -0.3963
  N  N220  1  0.850900  0.190300  0.820000  1.0  -0.4435
  N  N221  1  0.646400  0.160100  0.654700  1.0  -0.4536
  N  N222  1  0.881100  0.492500  0.867200  1.0  -0.3976
  N  N223  1  0.732200  0.329800  0.848900  1.0  -0.3736
  N  N224  1  0.741400  0.412000  0.034500  1.0  -0.3963
  N  N225  1  0.649100  0.690300  0.820000  1.0  -0.4446
  N  N226  1  0.853600  0.660100  0.654700  1.0  -0.4547
  N  N227  1  0.618900  0.992500  0.867200  1.0  -0.3955
  N  N228  1  0.767800  0.829800  0.848900  1.0  -0.3731
  N  N229  1  0.758600  0.912000  0.034500  1.0  -0.3962
  N  N230  1  0.149100  0.190300  0.820000  1.0  -0.4446
  N  N231  1  0.353600  0.160100  0.654700  1.0  -0.4547
  N  N232  1  0.118900  0.492500  0.867200  1.0  -0.3955
  N  N233  1  0.267800  0.329800  0.848900  1.0  -0.3731
  N  N234  1  0.258600  0.412000  0.034500  1.0  -0.3962
  N  N235  1  0.350900  0.309700  0.320000  1.0  -0.4438
  N  N236  1  0.146400  0.339900  0.154700  1.0  -0.4547
  N  N237  1  0.381100  0.007500  0.367200  1.0  -0.3962
  N  N238  1  0.232200  0.170200  0.348900  1.0  -0.3737
  N  N239  1  0.241400  0.088000  0.534500  1.0  -0.3959
  N  N240  1  0.850900  0.809700  0.320000  1.0  -0.4438
  N  N241  1  0.646400  0.839900  0.154700  1.0  -0.4547
  N  N242  1  0.881100  0.507500  0.367200  1.0  -0.3962
  N  N243  1  0.732200  0.670200  0.348900  1.0  -0.3737
  N  N244  1  0.741400  0.588000  0.534500  1.0  -0.3959
  N  N245  1  0.350900  0.690300  0.680000  1.0  -0.4432
  N  N246  1  0.146400  0.660100  0.845300  1.0  -0.4553
  N  N247  1  0.381100  0.992500  0.632800  1.0  -0.3962
  N  N248  1  0.232200  0.829800  0.651100  1.0  -0.3735
  N  N249  1  0.241400  0.912000  0.465500  1.0  -0.3931
  N  N250  1  0.850900  0.190300  0.680000  1.0  -0.4432
  N  N251  1  0.646400  0.160100  0.845300  1.0  -0.4553
  N  N252  1  0.881100  0.492500  0.632800  1.0  -0.3962
  N  N253  1  0.732200  0.329800  0.651100  1.0  -0.3735
  N  N254  1  0.741400  0.412000  0.465500  1.0  -0.3931
  N  N255  1  0.649100  0.309700  0.180000  1.0  -0.4462
  N  N256  1  0.853600  0.339900  0.345300  1.0  -0.457
  N  N257  1  0.618900  0.007500  0.132800  1.0  -0.3956
  N  N258  1  0.767800  0.170200  0.151100  1.0  -0.3735
  N  N259  1  0.758600  0.088000  0.965500  1.0  -0.3936
  N  N260  1  0.149100  0.809700  0.180000  1.0  -0.4462
  N  N261  1  0.353600  0.839900  0.345300  1.0  -0.457
  N  N262  1  0.118900  0.507500  0.132800  1.0  -0.3956
  N  N263  1  0.267800  0.670200  0.151100  1.0  -0.3735
  N  N264  1  0.258600  0.588000  0.965500  1.0  -0.3936
  N  N265  1  0.500000  0.399900  0.033300  1.0  -0.4287
  N  N266  1  0.500000  0.327100  0.870900  1.0  -0.3925
  N  N267  1  0.000000  0.899900  0.033300  1.0  -0.4287
  N  N268  1  0.000000  0.827100  0.870900  1.0  -0.3925
  N  N269  1  0.500000  0.600100  0.533300  1.0  -0.4283
  N  N270  1  0.500000  0.672900  0.370900  1.0  -0.3911
  N  N271  1  0.000000  0.100100  0.533300  1.0  -0.4283
  N  N272  1  0.000000  0.172900  0.370900  1.0  -0.3911
  N  N273  1  0.500000  0.399900  0.466700  1.0  -0.4287
  N  N274  1  0.500000  0.327100  0.629100  1.0  -0.3931
  N  N275  1  0.000000  0.899900  0.466700  1.0  -0.4287
  N  N276  1  0.000000  0.827100  0.629100  1.0  -0.3931
  N  N277  1  0.500000  0.600100  0.966700  1.0  -0.4289
  N  N278  1  0.500000  0.672900  0.129100  1.0  -0.391
  N  N279  1  0.000000  0.100100  0.966700  1.0  -0.4289
  N  N280  1  0.000000  0.172900  0.129100  1.0  -0.391
  O  O281  1  0.122100  0.000000  0.000000  1.0  -0.6512
  O  O282  1  0.622100  0.500000  0.000000  1.0  -0.6512
  O  O283  1  0.877900  0.000000  0.500000  1.0  -0.6529
  O  O284  1  0.377900  0.500000  0.500000  1.0  -0.6529
  O  O285  1  0.877900  0.000000  0.000000  1.0  -0.6529
  O  O286  1  0.377900  0.500000  0.000000  1.0  -0.6529
  O  O287  1  0.122100  0.000000  0.500000  1.0  -0.6512
  O  O288  1  0.622100  0.500000  0.500000  1.0  -0.6512
