# generated using pymatgen
data_Ce2Mg3H18C42(NO4)6
_symmetry_space_group_name_H-M   'P 1'
_cell_length_a   15.61150000
_cell_length_b   15.61150000
_cell_length_c   15.18420000
_cell_angle_alpha   90.00000000
_cell_angle_beta   90.00000000
_cell_angle_gamma   120.00000000
_symmetry_Int_Tables_number   1
_chemical_formula_structural   Ce2Mg3H18C42(NO4)6
_chemical_formula_sum   'Ce4 Mg6 H36 C84 N12 O48'
_cell_volume   3204.88030279
_cell_formula_units_Z   2
loop_
 _symmetry_equiv_pos_site_id
 _symmetry_equiv_pos_as_xyz
  1  'x, y, z'
loop_
 _atom_site_type_symbol
 _atom_site_label
 _atom_site_symmetry_multiplicity
 _atom_site_fract_x
 _atom_site_fract_y
 _atom_site_fract_z
 _atom_site_occupancy
 _atom_site_charge
  Ce  Ce1  1  0.666667  0.333333  0.750000  1.0  2.1107
  Ce  Ce2  1  0.333333  0.666667  0.750000  1.0  2.1107
  Ce  Ce3  1  0.333333  0.666667  0.250000  1.0  2.1107
  Ce  Ce4  1  0.666667  0.333333  0.250000  1.0  2.1107
  Mg  Mg5  1  0.000000  0.500000  0.000000  1.0  1.5949
  Mg  Mg6  1  0.500000  0.500000  0.000000  1.0  1.5949
  Mg  Mg7  1  0.500000  0.000000  0.000000  1.0  1.5949
  Mg  Mg8  1  0.500000  0.000000  0.500000  1.0  1.5949
  Mg  Mg9  1  0.500000  0.500000  0.500000  1.0  1.5949
  Mg  Mg10  1  0.000000  0.500000  0.500000  1.0  1.5949
  H  H11  1  0.946100  0.235200  0.844100  1.0  0.1005
  H  H12  1  0.764800  0.710900  0.844100  1.0  0.1012
  H  H13  1  0.289100  0.053900  0.844100  1.0  0.1005
  H  H14  1  0.053900  0.764800  0.844100  1.0  0.1007
  H  H15  1  0.235200  0.289100  0.844100  1.0  0.1011
  H  H16  1  0.710900  0.946100  0.844100  1.0  0.0999
  H  H17  1  0.235200  0.946100  0.655900  1.0  0.0999
  H  H18  1  0.710900  0.764800  0.655900  1.0  0.1001
  H  H19  1  0.053900  0.289100  0.655900  1.0  0.1006
  H  H20  1  0.764800  0.053900  0.655900  1.0  0.0995
  H  H21  1  0.289100  0.235200  0.655900  1.0  0.1005
  H  H22  1  0.946100  0.710900  0.655900  1.0  0.1008
  H  H23  1  0.053900  0.764800  0.155900  1.0  0.1004
  H  H24  1  0.235200  0.289100  0.155900  1.0  0.1008
  H  H25  1  0.710900  0.946100  0.155900  1.0  0.0997
  H  H26  1  0.946100  0.235200  0.155900  1.0  0.1001
  H  H27  1  0.764800  0.710900  0.155900  1.0  0.1009
  H  H28  1  0.289100  0.053900  0.155900  1.0  0.0998
  H  H29  1  0.764800  0.053900  0.344100  1.0  0.1
  H  H30  1  0.289100  0.235200  0.344100  1.0  0.1008
  H  H31  1  0.946100  0.710900  0.344100  1.0  0.101
  H  H32  1  0.235200  0.946100  0.344100  1.0  0.1003
  H  H33  1  0.710900  0.764800  0.344100  1.0  0.1004
  H  H34  1  0.053900  0.289100  0.344100  1.0  0.1011
  H  H35  1  0.899300  0.100700  0.750000  1.0  0.086
  H  H36  1  0.899300  0.798600  0.750000  1.0  0.0845
  H  H37  1  0.201400  0.100700  0.750000  1.0  0.0855
  H  H38  1  0.100700  0.899300  0.750000  1.0  0.0858
  H  H39  1  0.100700  0.201400  0.750000  1.0  0.0834
  H  H40  1  0.798600  0.899300  0.750000  1.0  0.086
  H  H41  1  0.100700  0.899300  0.250000  1.0  0.0858
  H  H42  1  0.100700  0.201400  0.250000  1.0  0.0834
  H  H43  1  0.798600  0.899300  0.250000  1.0  0.086
  H  H44  1  0.899300  0.100700  0.250000  1.0  0.086
  H  H45  1  0.899300  0.798600  0.250000  1.0  0.0845
  H  H46  1  0.201400  0.100700  0.250000  1.0  0.0855
  C  C47  1  0.865350  0.353030  0.860780  1.0  0.6503
  C  C48  1  0.840680  0.264900  0.803100  1.0  0.1308
  C  C49  1  0.893000  0.215300  0.805700  1.0  -0.1195
  C  C50  1  0.646970  0.512320  0.860780  1.0  0.6501
  C  C51  1  0.735100  0.575780  0.803100  1.0  0.1312
  C  C52  1  0.784700  0.677700  0.805700  1.0  -0.1192
  C  C53  1  0.487680  0.134650  0.860780  1.0  0.6496
  C  C54  1  0.424220  0.159320  0.803100  1.0  0.1317
  C  C55  1  0.322300  0.107000  0.805700  1.0  -0.1194
  C  C56  1  0.134650  0.646970  0.860780  1.0  0.6508
  C  C57  1  0.159320  0.735100  0.803100  1.0  0.1306
  C  C58  1  0.107000  0.784700  0.805700  1.0  -0.1201
  C  C59  1  0.353030  0.487680  0.860780  1.0  0.6498
  C  C60  1  0.264900  0.424220  0.803100  1.0  0.1308
  C  C61  1  0.215300  0.322300  0.805700  1.0  -0.1191
  C  C62  1  0.512320  0.865350  0.860780  1.0  0.6482
  C  C63  1  0.575780  0.840680  0.803100  1.0  0.1315
  C  C64  1  0.677700  0.893000  0.805700  1.0  -0.1187
  C  C65  1  0.353030  0.865350  0.639220  1.0  0.6493
  C  C66  1  0.264900  0.840680  0.696900  1.0  0.1313
  C  C67  1  0.215300  0.893000  0.694300  1.0  -0.1211
  C  C68  1  0.512320  0.646970  0.639220  1.0  0.6506
  C  C69  1  0.575780  0.735100  0.696900  1.0  0.1303
  C  C70  1  0.677700  0.784700  0.694300  1.0  -0.1221
  C  C71  1  0.134650  0.487680  0.639220  1.0  0.6504
  C  C72  1  0.159320  0.424220  0.696900  1.0  0.131
  C  C73  1  0.107000  0.322300  0.694300  1.0  -0.121
  C  C74  1  0.646970  0.134650  0.639220  1.0  0.6489
  C  C75  1  0.735100  0.159320  0.696900  1.0  0.1313
  C  C76  1  0.784700  0.107000  0.694300  1.0  -0.121
  C  C77  1  0.487680  0.353030  0.639220  1.0  0.6506
  C  C78  1  0.424220  0.264900  0.696900  1.0  0.1304
  C  C79  1  0.322300  0.215300  0.694300  1.0  -0.1221
  C  C80  1  0.865350  0.512320  0.639220  1.0  0.6494
  C  C81  1  0.840680  0.575780  0.696900  1.0  0.1307
  C  C82  1  0.893000  0.677700  0.694300  1.0  -0.1221
  C  C83  1  0.134650  0.646970  0.139220  1.0  0.6502
  C  C84  1  0.159320  0.735100  0.196900  1.0  0.13
  C  C85  1  0.107000  0.784700  0.194300  1.0  -0.1199
  C  C86  1  0.353030  0.487680  0.139220  1.0  0.65
  C  C87  1  0.264900  0.424220  0.196900  1.0  0.1307
  C  C88  1  0.215300  0.322300  0.194300  1.0  -0.1203
  C  C89  1  0.512320  0.865350  0.139220  1.0  0.6488
  C  C90  1  0.575780  0.840680  0.196900  1.0  0.1311
  C  C91  1  0.677700  0.893000  0.194300  1.0  -0.1201
  C  C92  1  0.865350  0.353030  0.139220  1.0  0.651
  C  C93  1  0.840680  0.264900  0.196900  1.0  0.1308
  C  C94  1  0.893000  0.215300  0.194300  1.0  -0.1214
  C  C95  1  0.646970  0.512320  0.139220  1.0  0.6501
  C  C96  1  0.735100  0.575780  0.196900  1.0  0.1306
  C  C97  1  0.784700  0.677700  0.194300  1.0  -0.1197
  C  C98  1  0.487680  0.134650  0.139220  1.0  0.6491
  C  C99  1  0.424220  0.159320  0.196900  1.0  0.1315
  C  C100  1  0.322300  0.107000  0.194300  1.0  -0.1189
  C  C101  1  0.646970  0.134650  0.360780  1.0  0.6484
  C  C102  1  0.735100  0.159320  0.303100  1.0  0.1317
  C  C103  1  0.784700  0.107000  0.305700  1.0  -0.1201
  C  C104  1  0.487680  0.353030  0.360780  1.0  0.6503
  C  C105  1  0.424220  0.264900  0.303100  1.0  0.1304
  C  C106  1  0.322300  0.215300  0.305700  1.0  -0.1221
  C  C107  1  0.865350  0.512320  0.360780  1.0  0.6501
  C  C108  1  0.840680  0.575780  0.303100  1.0  0.1312
  C  C109  1  0.893000  0.677700  0.305700  1.0  -0.1212
  C  C110  1  0.353030  0.865350  0.360780  1.0  0.6496
  C  C111  1  0.264900  0.840680  0.303100  1.0  0.1315
  C  C112  1  0.215300  0.893000  0.305700  1.0  -0.1211
  C  C113  1  0.512320  0.646970  0.360780  1.0  0.6508
  C  C114  1  0.575780  0.735100  0.303100  1.0  0.131
  C  C115  1  0.677700  0.784700  0.305700  1.0  -0.1207
  C  C116  1  0.134650  0.487680  0.360780  1.0  0.6497
  C  C117  1  0.159320  0.424220  0.303100  1.0  0.1312
  C  C118  1  0.107000  0.322300  0.305700  1.0  -0.1206
  C  C119  1  0.864930  0.135070  0.750000  1.0  -0.0539
  C  C120  1  0.864930  0.729860  0.750000  1.0  -0.0506
  C  C121  1  0.270140  0.135070  0.750000  1.0  -0.0531
  C  C122  1  0.135070  0.864930  0.750000  1.0  -0.0533
  C  C123  1  0.135070  0.270140  0.750000  1.0  -0.05
  C  C124  1  0.729860  0.864930  0.750000  1.0  -0.0537
  C  C125  1  0.135070  0.864930  0.250000  1.0  -0.0533
  C  C126  1  0.135070  0.270140  0.250000  1.0  -0.05
  C  C127  1  0.729860  0.864930  0.250000  1.0  -0.0537
  C  C128  1  0.864930  0.135070  0.250000  1.0  -0.0539
  C  C129  1  0.864930  0.729860  0.250000  1.0  -0.0506
  C  C130  1  0.270140  0.135070  0.250000  1.0  -0.0531
  N  N131  1  0.762990  0.237010  0.750000  1.0  -0.4068
  N  N132  1  0.762990  0.525980  0.750000  1.0  -0.4062
  N  N133  1  0.474020  0.237010  0.750000  1.0  -0.4057
  N  N134  1  0.237010  0.762990  0.750000  1.0  -0.4059
  N  N135  1  0.237010  0.474020  0.750000  1.0  -0.407
  N  N136  1  0.525980  0.762990  0.750000  1.0  -0.4072
  N  N137  1  0.237010  0.762990  0.250000  1.0  -0.4059
  N  N138  1  0.237010  0.474020  0.250000  1.0  -0.407
  N  N139  1  0.525980  0.762990  0.250000  1.0  -0.4072
  N  N140  1  0.762990  0.237010  0.250000  1.0  -0.4068
  N  N141  1  0.762990  0.525980  0.250000  1.0  -0.4062
  N  N142  1  0.474020  0.237010  0.250000  1.0  -0.4057
  O  O143  1  0.804420  0.384490  0.858580  1.0  -0.6849
  O  O144  1  0.941690  0.388390  0.905780  1.0  -0.6398
  O  O145  1  0.615510  0.419930  0.858580  1.0  -0.684
  O  O146  1  0.611610  0.553300  0.905780  1.0  -0.6394
  O  O147  1  0.580070  0.195580  0.858580  1.0  -0.685
  O  O148  1  0.446700  0.058310  0.905780  1.0  -0.638
  O  O149  1  0.195580  0.615510  0.858580  1.0  -0.6857
  O  O150  1  0.058310  0.611610  0.905780  1.0  -0.6392
  O  O151  1  0.384490  0.580070  0.858580  1.0  -0.6839
  O  O152  1  0.388390  0.446700  0.905780  1.0  -0.6392
  O  O153  1  0.419930  0.804420  0.858580  1.0  -0.6848
  O  O154  1  0.553300  0.941690  0.905780  1.0  -0.638
  O  O155  1  0.384490  0.804420  0.641420  1.0  -0.6863
  O  O156  1  0.388390  0.941690  0.594220  1.0  -0.6385
  O  O157  1  0.419930  0.615510  0.641420  1.0  -0.6853
  O  O158  1  0.553300  0.611610  0.594220  1.0  -0.64
  O  O159  1  0.195580  0.580070  0.641420  1.0  -0.6845
  O  O160  1  0.058310  0.446700  0.594220  1.0  -0.6397
  O  O161  1  0.615510  0.195580  0.641420  1.0  -0.6857
  O  O162  1  0.611610  0.058310  0.594220  1.0  -0.6384
  O  O163  1  0.580070  0.384490  0.641420  1.0  -0.6863
  O  O164  1  0.446700  0.388390  0.594220  1.0  -0.6405
  O  O165  1  0.804420  0.419930  0.641420  1.0  -0.6844
  O  O166  1  0.941690  0.553300  0.594220  1.0  -0.6398
  O  O167  1  0.195580  0.615510  0.141420  1.0  -0.6862
  O  O168  1  0.058310  0.611610  0.094220  1.0  -0.6405
  O  O169  1  0.384490  0.580070  0.141420  1.0  -0.6845
  O  O170  1  0.388390  0.446700  0.094220  1.0  -0.6401
  O  O171  1  0.419930  0.804420  0.141420  1.0  -0.6855
  O  O172  1  0.553300  0.941690  0.094220  1.0  -0.6384
  O  O173  1  0.804420  0.384490  0.141420  1.0  -0.6856
  O  O174  1  0.941690  0.388390  0.094220  1.0  -0.6404
  O  O175  1  0.615510  0.419930  0.141420  1.0  -0.6844
  O  O176  1  0.611610  0.553300  0.094220  1.0  -0.6404
  O  O177  1  0.580070  0.195580  0.141420  1.0  -0.686
  O  O178  1  0.446700  0.058310  0.094220  1.0  -0.6392
  O  O179  1  0.615510  0.195580  0.358580  1.0  -0.6846
  O  O180  1  0.611610  0.058310  0.405780  1.0  -0.638
  O  O181  1  0.580070  0.384490  0.358580  1.0  -0.6853
  O  O182  1  0.446700  0.388390  0.405780  1.0  -0.64
  O  O183  1  0.804420  0.419930  0.358580  1.0  -0.6839
  O  O184  1  0.941690  0.553300  0.405780  1.0  -0.6397
  O  O185  1  0.384490  0.804420  0.358580  1.0  -0.6856
  O  O186  1  0.388390  0.941690  0.405780  1.0  -0.6386
  O  O187  1  0.419930  0.615510  0.358580  1.0  -0.685
  O  O188  1  0.553300  0.611610  0.405780  1.0  -0.6398
  O  O189  1  0.195580  0.580070  0.358580  1.0  -0.6839
  O  O190  1  0.058310  0.446700  0.405780  1.0  -0.6396
