# generated using pymatgen
data_Zn4B60H57(C9O7)2
_symmetry_space_group_name_H-M   'P 1'
_cell_length_a   17.68250000
_cell_length_b   22.32870000
_cell_length_c   28.92290000
_cell_angle_alpha   90.00000000
_cell_angle_beta   107.42900000
_cell_angle_gamma   90.00000000
_symmetry_Int_Tables_number   1
_chemical_formula_structural   Zn4B60H57(C9O7)2
_chemical_formula_sum   'Zn16 B240 H228 C72 O56'
_cell_volume   10895.26407958
_cell_formula_units_Z   4
loop_
 _symmetry_equiv_pos_site_id
 _symmetry_equiv_pos_as_xyz
  1  'x, y, z'
loop_
 _atom_site_type_symbol
 _atom_site_label
 _atom_site_symmetry_multiplicity
 _atom_site_fract_x
 _atom_site_fract_y
 _atom_site_fract_z
 _atom_site_occupancy
 _atom_site_charge
  Zn  Zn1  1  0.948570  0.607350  0.155010  1.0  0.8986
  Zn  Zn2  1  0.848240  0.397240  0.246990  1.0  0.8807
  Zn  Zn3  1  0.849240  0.543660  0.221220  1.0  0.9742
  Zn  Zn4  1  0.945700  0.456730  0.177620  1.0  0.91
  Zn  Zn5  1  0.448570  0.892650  0.655010  1.0  0.8989
  Zn  Zn6  1  0.348240  0.102760  0.746990  1.0  0.8799
  Zn  Zn7  1  0.349240  0.956340  0.721220  1.0  0.9752
  Zn  Zn8  1  0.445700  0.043270  0.677620  1.0  0.9071
  Zn  Zn9  1  0.551430  0.107350  0.344990  1.0  0.898
  Zn  Zn10  1  0.651760  0.897240  0.253010  1.0  0.8814
  Zn  Zn11  1  0.650760  0.043660  0.278780  1.0  0.9769
  Zn  Zn12  1  0.554300  0.956730  0.322380  1.0  0.9052
  Zn  Zn13  1  0.051430  0.392650  0.844990  1.0  0.8986
  Zn  Zn14  1  0.151760  0.602760  0.753010  1.0  0.8807
  Zn  Zn15  1  0.150760  0.456340  0.778780  1.0  0.9784
  Zn  Zn16  1  0.054300  0.543270  0.822380  1.0  0.9035
  B  B17  1  0.822900  0.752100  0.023400  1.0  -0.0361
  B  B18  1  0.873300  0.723300  0.984200  1.0  -0.0149
  B  B19  1  0.832600  0.653900  0.963000  1.0  -0.0607
  B  B20  1  0.755300  0.639900  0.987400  1.0  -0.0252
  B  B21  1  0.747700  0.699900  0.024800  1.0  0.1301
  B  B22  1  0.681400  0.693300  0.966900  1.0  -0.0084
  B  B23  1  0.732900  0.664300  0.927900  1.0  0.2688
  B  B24  1  0.808200  0.716600  0.926500  1.0  -0.0286
  B  B25  1  0.802300  0.779100  0.963500  1.0  -0.0332
  B  B26  1  0.722400  0.765700  0.988400  1.0  0.109
  B  B27  1  0.696800  0.814900  0.849800  1.0  -0.0307
  B  B28  1  0.654700  0.745500  0.829400  1.0  -0.0106
  B  B29  1  0.575800  0.732400  0.855300  1.0  0.2053
  B  B30  1  0.569200  0.795000  0.891300  1.0  0.2741
  B  B31  1  0.645000  0.846500  0.888700  1.0  0.0204
  B  B32  1  0.624800  0.869600  0.828100  1.0  0.0198
  B  B33  1  0.546400  0.858000  0.853000  1.0  0.1098
  B  B34  1  0.504000  0.788500  0.833400  1.0  -0.0018
  B  B35  1  0.557100  0.757300  0.794900  1.0  0.0215
  B  B36  1  0.630300  0.807600  0.792400  1.0  -0.0388
  B  B37  1  0.750500  0.356900  0.047800  1.0  0.3519
  B  B38  1  0.790500  0.286800  0.072800  1.0  -0.031
  B  B39  1  0.733500  0.259200  0.108100  1.0  0.0218
  B  B40  1  0.659300  0.311700  0.106000  1.0  0.0178
  B  B41  1  0.668600  0.371500  0.069400  1.0  0.0924
  B  B42  1  0.596400  0.316600  0.046900  1.0  -0.0565
  B  B43  1  0.636000  0.246900  0.071400  1.0  -0.0584
  B  B44  1  0.718600  0.231200  0.050500  1.0  -0.0143
  B  B45  1  0.727200  0.290600  0.012800  1.0  -0.0188
  B  B46  1  0.651600  0.343500  0.010000  1.0  -0.0459
  B  B47  1  0.583800  0.256700  0.913800  1.0  -0.0321
  B  B48  1  0.620000  0.186200  0.939300  1.0  -0.0254
  B  B49  1  0.562400  0.162400  0.976000  1.0  -0.0189
  B  B50  1  0.488200  0.214200  0.973100  1.0  0.0452
  B  B51  1  0.501000  0.274300  0.934000  1.0  -0.0301
  B  B52  1  0.426300  0.217600  0.913800  1.0  0.21
  B  B53  1  0.464700  0.151700  0.939500  1.0  0.0257
  B  B54  1  0.545600  0.131900  0.917800  1.0  -0.0783
  B  B55  1  0.558500  0.189900  0.879300  1.0  -0.0652
  B  B56  1  0.484800  0.244000  0.876300  1.0  -0.0229
  B  B57  1  0.243000  0.529800  0.246200  1.0  -0.0159
  B  B58  1  0.220600  0.461200  0.214400  1.0  -0.0536
  B  B59  1  0.201000  0.477200  0.152200  1.0  -0.0671
  B  B60  1  0.210900  0.555200  0.145700  1.0  -0.0388
  B  B61  1  0.237600  0.588200  0.204000  1.0  -0.0792
  B  B62  1  0.293800  0.447500  0.185600  1.0  -0.0554
  B  B63  1  0.320600  0.481600  0.245100  1.0  -0.0254
  B  B64  1  0.329500  0.557900  0.238800  1.0  -0.0298
  B  B65  1  0.309500  0.575400  0.174900  1.0  -0.0098
  B  B66  1  0.287900  0.506700  0.142600  1.0  0.1279
  B  B67  1  0.486500  0.433500  0.228800  1.0  -0.0129
  B  B68  1  0.512600  0.501200  0.261300  1.0  -0.014
  B  B69  1  0.506600  0.559200  0.218400  1.0  -0.0681
  B  B70  1  0.479800  0.527500  0.159500  1.0  -0.0425
  B  B71  1  0.467400  0.449600  0.166000  1.0  0.0308
  B  B72  1  0.585800  0.452100  0.258500  1.0  0.0047
  B  B73  1  0.559100  0.420000  0.200100  1.0  -0.0694
  B  B74  1  0.555700  0.477400  0.158400  1.0  -0.0174
  B  B75  1  0.579600  0.544700  0.189800  1.0  -0.0471
  B  B76  1  0.598900  0.528100  0.252800  1.0  -0.003
  B  B77  1  0.322900  0.747900  0.523400  1.0  -0.0349
  B  B78  1  0.373300  0.776700  0.484200  1.0  -0.0153
  B  B79  1  0.332600  0.846100  0.463000  1.0  -0.0604
  B  B80  1  0.255300  0.860100  0.487400  1.0  -0.0284
  B  B81  1  0.247700  0.800100  0.524800  1.0  0.13
  B  B82  1  0.181400  0.806700  0.466900  1.0  -0.0086
  B  B83  1  0.232900  0.835700  0.427900  1.0  0.2711
  B  B84  1  0.308200  0.783400  0.426500  1.0  -0.0289
  B  B85  1  0.302300  0.720900  0.463500  1.0  -0.0308
  B  B86  1  0.222400  0.734300  0.488400  1.0  0.1122
  B  B87  1  0.196800  0.685100  0.349800  1.0  -0.0311
  B  B88  1  0.154700  0.754500  0.329400  1.0  -0.01
  B  B89  1  0.075800  0.767600  0.355300  1.0  0.2052
  B  B90  1  0.069200  0.705000  0.391300  1.0  0.2736
  B  B91  1  0.145000  0.653500  0.388700  1.0  0.0201
  B  B92  1  0.124800  0.630400  0.328100  1.0  0.0221
  B  B93  1  0.046400  0.642000  0.353000  1.0  0.1121
  B  B94  1  0.004000  0.711500  0.333400  1.0  -0.0028
  B  B95  1  0.057100  0.742700  0.294900  1.0  0.0235
  B  B96  1  0.130300  0.692400  0.292400  1.0  -0.039
  B  B97  1  0.250500  0.143100  0.547800  1.0  0.3458
  B  B98  1  0.290500  0.213200  0.572800  1.0  -0.0309
  B  B99  1  0.233500  0.240800  0.608100  1.0  0.0184
  B  B100  1  0.159300  0.188300  0.606000  1.0  0.0177
  B  B101  1  0.168600  0.128500  0.569400  1.0  0.0959
  B  B102  1  0.096400  0.183400  0.546900  1.0  -0.0549
  B  B103  1  0.136000  0.253100  0.571400  1.0  -0.0601
  B  B104  1  0.218600  0.268800  0.550500  1.0  -0.0141
  B  B105  1  0.227200  0.209400  0.512800  1.0  -0.0202
  B  B106  1  0.151600  0.156500  0.510000  1.0  -0.0471
  B  B107  1  0.083800  0.243300  0.413800  1.0  -0.0329
  B  B108  1  0.120000  0.313800  0.439300  1.0  -0.0252
  B  B109  1  0.062400  0.337600  0.476000  1.0  -0.0211
  B  B110  1  0.988200  0.285800  0.473100  1.0  0.0463
  B  B111  1  0.001000  0.225700  0.434000  1.0  -0.0302
  B  B112  1  0.926300  0.282400  0.413800  1.0  0.2111
  B  B113  1  0.964700  0.348300  0.439500  1.0  0.0243
  B  B114  1  0.045600  0.368100  0.417800  1.0  -0.0772
  B  B115  1  0.058500  0.310100  0.379300  1.0  -0.0642
  B  B116  1  0.984800  0.256000  0.376300  1.0  -0.0235
  B  B117  1  0.743000  0.970200  0.746200  1.0  -0.0162
  B  B118  1  0.720600  0.038800  0.714400  1.0  -0.0578
  B  B119  1  0.701000  0.022800  0.652200  1.0  -0.0687
  B  B120  1  0.710900  0.944800  0.645700  1.0  -0.0384
  B  B121  1  0.737600  0.911800  0.704000  1.0  -0.078
  B  B122  1  0.793800  0.052500  0.685600  1.0  -0.0555
  B  B123  1  0.820600  0.018400  0.745100  1.0  -0.0242
  B  B124  1  0.829500  0.942100  0.738800  1.0  -0.0274
  B  B125  1  0.809500  0.924600  0.674900  1.0  -0.0105
  B  B126  1  0.787900  0.993300  0.642600  1.0  0.1265
  B  B127  1  0.986500  0.066500  0.728800  1.0  -0.0147
  B  B128  1  0.012600  0.998800  0.761300  1.0  -0.0126
  B  B129  1  0.006600  0.940800  0.718400  1.0  -0.0688
  B  B130  1  0.979800  0.972500  0.659500  1.0  -0.0445
  B  B131  1  0.967400  0.050400  0.666000  1.0  0.031
  B  B132  1  0.085800  0.047900  0.758500  1.0  0.0045
  B  B133  1  0.059100  0.080000  0.700100  1.0  -0.0695
  B  B134  1  0.055700  0.022600  0.658400  1.0  -0.0175
  B  B135  1  0.079600  0.955300  0.689800  1.0  -0.0463
  B  B136  1  0.098900  0.971900  0.752800  1.0  -0.0006
  B  B137  1  0.677100  0.252100  0.476600  1.0  -0.0336
  B  B138  1  0.626700  0.223300  0.515800  1.0  -0.0157
  B  B139  1  0.667400  0.153900  0.537000  1.0  -0.06
  B  B140  1  0.744700  0.139900  0.512600  1.0  -0.0263
  B  B141  1  0.752300  0.199900  0.475200  1.0  0.1307
  B  B142  1  0.818600  0.193300  0.533100  1.0  -0.0106
  B  B143  1  0.767100  0.164300  0.572100  1.0  0.2673
  B  B144  1  0.691800  0.216600  0.573500  1.0  -0.0265
  B  B145  1  0.697700  0.279100  0.536500  1.0  -0.0325
  B  B146  1  0.777600  0.265700  0.511600  1.0  0.1108
  B  B147  1  0.803200  0.314900  0.650200  1.0  -0.0301
  B  B148  1  0.845300  0.245500  0.670600  1.0  -0.0081
  B  B149  1  0.924200  0.232400  0.644700  1.0  0.2016
  B  B150  1  0.930800  0.295000  0.608700  1.0  0.2758
  B  B151  1  0.855000  0.346500  0.611300  1.0  0.0198
  B  B152  1  0.875200  0.369600  0.671900  1.0  0.0184
  B  B153  1  0.953600  0.358000  0.647000  1.0  0.1054
  B  B154  1  0.996000  0.288500  0.666667  1.0  -0.0071
  B  B155  1  0.942900  0.257300  0.705100  1.0  0.0214
  B  B156  1  0.869700  0.307600  0.707600  1.0  -0.0405
  B  B157  1  0.749500  0.856900  0.452200  1.0  0.3501
  B  B158  1  0.709500  0.786800  0.427200  1.0  -0.0292
  B  B159  1  0.766500  0.759200  0.391900  1.0  0.0221
  B  B160  1  0.840700  0.811700  0.394000  1.0  0.0192
  B  B161  1  0.831400  0.871500  0.430600  1.0  0.0935
  B  B162  1  0.903600  0.816600  0.453100  1.0  -0.057
  B  B163  1  0.864000  0.746900  0.428600  1.0  -0.0611
  B  B164  1  0.781400  0.731200  0.449500  1.0  -0.0173
  B  B165  1  0.772800  0.790600  0.487200  1.0  -0.0239
  B  B166  1  0.848400  0.843500  0.490000  1.0  -0.0495
  B  B167  1  0.916200  0.756700  0.586200  1.0  -0.033
  B  B168  1  0.880000  0.686200  0.560700  1.0  -0.027
  B  B169  1  0.937600  0.662400  0.524000  1.0  -0.0183
  B  B170  1  0.011800  0.714200  0.526900  1.0  0.0475
  B  B171  1  0.999000  0.774300  0.566000  1.0  -0.0297
  B  B172  1  0.073700  0.717600  0.586200  1.0  0.2134
  B  B173  1  0.035300  0.651700  0.560500  1.0  0.0245
  B  B174  1  0.954400  0.631900  0.582200  1.0  -0.078
  B  B175  1  0.941500  0.689900  0.620700  1.0  -0.0599
  B  B176  1  0.015200  0.744000  0.623700  1.0  -0.0238
  B  B177  1  0.257000  0.029800  0.253800  1.0  -0.0176
  B  B178  1  0.279400  0.961200  0.285600  1.0  -0.0574
  B  B179  1  0.299000  0.977200  0.347800  1.0  -0.065
  B  B180  1  0.289100  0.055200  0.354300  1.0  -0.0408
  B  B181  1  0.262400  0.088200  0.296000  1.0  -0.0785
  B  B182  1  0.206200  0.947500  0.314400  1.0  -0.0531
  B  B183  1  0.179400  0.981600  0.254900  1.0  -0.0247
  B  B184  1  0.170500  0.057900  0.261200  1.0  -0.0299
  B  B185  1  0.190500  0.075400  0.325100  1.0  -0.0095
  B  B186  1  0.212100  0.006700  0.357400  1.0  0.1305
  B  B187  1  0.013500  0.933500  0.271200  1.0  -0.0115
  B  B188  1  0.987400  0.001200  0.238700  1.0  -0.0206
  B  B189  1  0.993400  0.059200  0.281600  1.0  -0.0693
  B  B190  1  0.020200  0.027500  0.340500  1.0  -0.0444
  B  B191  1  0.032600  0.949600  0.334000  1.0  0.0313
  B  B192  1  0.914200  0.952100  0.241500  1.0  0.0036
  B  B193  1  0.940900  0.920000  0.299900  1.0  -0.0661
  B  B194  1  0.944300  0.977400  0.341600  1.0  -0.0156
  B  B195  1  0.920400  0.044700  0.310200  1.0  -0.0519
  B  B196  1  0.901100  0.028100  0.247200  1.0  -0.0072
  B  B197  1  0.177100  0.247900  0.976600  1.0  -0.0338
  B  B198  1  0.126700  0.276700  0.015800  1.0  -0.015
  B  B199  1  0.167400  0.346100  0.037000  1.0  -0.0606
  B  B200  1  0.244700  0.360100  0.012600  1.0  -0.0257
  B  B201  1  0.252300  0.300100  0.975200  1.0  0.1316
  B  B202  1  0.318600  0.306700  0.033100  1.0  -0.0091
  B  B203  1  0.267100  0.335700  0.072100  1.0  0.2675
  B  B204  1  0.191800  0.283400  0.073500  1.0  -0.0275
  B  B205  1  0.197700  0.220900  0.036500  1.0  -0.0298
  B  B206  1  0.277600  0.234300  0.011600  1.0  0.1119
  B  B207  1  0.303200  0.185100  0.150200  1.0  -0.0283
  B  B208  1  0.345300  0.254500  0.170600  1.0  -0.01
  B  B209  1  0.424200  0.267600  0.144700  1.0  0.2001
  B  B210  1  0.430800  0.205000  0.108700  1.0  0.2752
  B  B211  1  0.355000  0.153500  0.111300  1.0  0.0178
  B  B212  1  0.375200  0.130400  0.171900  1.0  0.0215
  B  B213  1  0.453600  0.142000  0.147000  1.0  0.1073
  B  B214  1  0.496000  0.211500  0.166600  1.0  -0.0024
  B  B215  1  0.442900  0.242700  0.205100  1.0  0.0212
  B  B216  1  0.369700  0.192400  0.207600  1.0  -0.0405
  B  B217  1  0.249500  0.643100  0.952200  1.0  0.3471
  B  B218  1  0.209500  0.713200  0.927200  1.0  -0.0296
  B  B219  1  0.266500  0.740800  0.891900  1.0  0.0203
  B  B220  1  0.340700  0.688300  0.894000  1.0  0.0201
  B  B221  1  0.331400  0.628500  0.930600  1.0  0.0981
  B  B222  1  0.403600  0.683400  0.953100  1.0  -0.0565
  B  B223  1  0.364000  0.753100  0.928600  1.0  -0.0615
  B  B224  1  0.281400  0.768800  0.949500  1.0  -0.0177
  B  B225  1  0.272800  0.709400  0.987200  1.0  -0.0227
  B  B226  1  0.348400  0.656500  0.990000  1.0  -0.0478
  B  B227  1  0.416200  0.743300  0.086200  1.0  -0.0319
  B  B228  1  0.380000  0.813800  0.060700  1.0  -0.0295
  B  B229  1  0.437600  0.837600  0.024000  1.0  -0.0199
  B  B230  1  0.511800  0.785800  0.026900  1.0  0.0484
  B  B231  1  0.499000  0.725700  0.066000  1.0  -0.0283
  B  B232  1  0.573700  0.782400  0.086200  1.0  0.2149
  B  B233  1  0.535300  0.848300  0.060500  1.0  0.0247
  B  B234  1  0.454400  0.868100  0.082200  1.0  -0.0766
  B  B235  1  0.441500  0.810100  0.120700  1.0  -0.0613
  B  B236  1  0.515200  0.756000  0.123700  1.0  -0.0238
  B  B237  1  0.757000  0.470200  0.753800  1.0  -0.017
  B  B238  1  0.779400  0.538800  0.785600  1.0  -0.0593
  B  B239  1  0.799000  0.522800  0.847800  1.0  -0.0662
  B  B240  1  0.789100  0.444800  0.854300  1.0  -0.0398
  B  B241  1  0.762400  0.411800  0.796000  1.0  -0.0779
  B  B242  1  0.706200  0.552500  0.814400  1.0  -0.0543
  B  B243  1  0.679400  0.518400  0.754900  1.0  -0.023
  B  B244  1  0.670500  0.442100  0.761200  1.0  -0.0302
  B  B245  1  0.690500  0.424600  0.825100  1.0  -0.0075
  B  B246  1  0.712100  0.493300  0.857400  1.0  0.1292
  B  B247  1  0.513500  0.566500  0.771200  1.0  -0.01
  B  B248  1  0.487400  0.498800  0.738700  1.0  -0.0213
  B  B249  1  0.493400  0.440800  0.781600  1.0  -0.0702
  B  B250  1  0.520200  0.472500  0.840500  1.0  -0.045
  B  B251  1  0.532600  0.550400  0.834000  1.0  0.0318
  B  B252  1  0.414200  0.547900  0.741500  1.0  0.0044
  B  B253  1  0.440900  0.580000  0.799900  1.0  -0.067
  B  B254  1  0.444300  0.522600  0.841600  1.0  -0.0164
  B  B255  1  0.420400  0.455300  0.810200  1.0  -0.05
  B  B256  1  0.401100  0.471900  0.747200  1.0  -0.0039
  H  H257  1  0.839000  0.774000  0.051000  1.0  0.1464
  H  H258  1  0.924000  0.738000  0.991000  1.0  0.1218
  H  H259  1  0.863000  0.617000  0.959000  1.0  0.059
  H  H260  1  0.746000  0.606000  0.002000  1.0  0.1738
  H  H261  1  0.728000  0.703000  0.063000  1.0  -0.1525
  H  H262  1  0.618900  0.681700  0.964900  1.0  -0.0895
  H  H263  1  0.824000  0.722000  0.896000  1.0  0.0721
  H  H264  1  0.819000  0.820000  0.952000  1.0  0.0556
  H  H265  1  0.682500  0.801000  0.999500  1.0  -0.1164
  H  H266  1  0.748900  0.828000  0.859900  1.0  0.1506
  H  H267  1  0.684000  0.710000  0.822000  1.0  0.0782
  H  H268  1  0.567000  0.670000  0.862000  1.0  -0.175
  H  H269  1  0.652000  0.878000  0.913000  1.0  0.0026
  H  H270  1  0.627000  0.901000  0.821000  1.0  0.2513
  H  H271  1  0.505000  0.896000  0.859000  1.0  -0.0978
  H  H272  1  0.445300  0.788000  0.831300  1.0  0.0715
  H  H273  1  0.544000  0.739000  0.765000  1.0  0.0639
  H  H274  1  0.640000  0.810000  0.764000  1.0  0.1879
  H  H275  1  0.848400  0.278500  0.082400  1.0  0.1752
  H  H276  1  0.757200  0.244000  0.132200  1.0  0.2155
  H  H277  1  0.648700  0.319000  0.127700  1.0  0.2493
  H  H278  1  0.655000  0.421000  0.076000  1.0  -0.1049
  H  H279  1  0.534200  0.324000  0.038200  1.0  0.0474
  H  H280  1  0.596500  0.210000  0.073500  1.0  0.0241
  H  H281  1  0.722700  0.193000  0.042700  1.0  0.1743
  H  H282  1  0.747600  0.282000  0.990600  1.0  0.2429
  H  H283  1  0.626900  0.362000  0.977900  1.0  0.0882
  H  H284  1  0.612100  0.294000  0.906100  1.0  0.0821
  H  H285  1  0.671800  0.176000  0.951800  1.0  0.1576
  H  H286  1  0.584000  0.150000  0.008000  1.0  0.046
  H  H287  1  0.476000  0.217000  0.002000  1.0  0.1367
  H  H288  1  0.486800  0.315000  0.945800  1.0  0.0936
  H  H289  1  0.346000  0.228000  0.909000  1.0  -0.2191
  H  H290  1  0.429000  0.123000  0.944000  1.0  0.1382
  H  H291  1  0.553900  0.086000  0.909900  1.0  -0.0032
  H  H292  1  0.570500  0.184000  0.847500  1.0  0.0608
  H  H293  1  0.462000  0.268000  0.848000  1.0  0.1574
  H  H294  1  0.231000  0.544000  0.271000  1.0  0.2336
  H  H295  1  0.190000  0.432000  0.227000  1.0  0.0589
  H  H296  1  0.161700  0.452000  0.128700  1.0  0.1773
  H  H297  1  0.179000  0.580000  0.113000  1.0  -0.0688
  H  H298  1  0.220200  0.632000  0.208200  1.0  0.0464
  H  H299  1  0.312500  0.402000  0.179500  1.0  0.0264
  H  H300  1  0.352800  0.459000  0.270800  1.0  0.1546
  H  H301  1  0.369000  0.587000  0.259000  1.0  0.0669
  H  H302  1  0.344800  0.600000  0.160800  1.0  0.094
  H  H303  1  0.313100  0.494600  0.110100  1.0  -0.0477
  H  H304  1  0.457200  0.409000  0.238200  1.0  0.2151
  H  H305  1  0.493700  0.510000  0.289700  1.0  0.0594
  H  H306  1  0.487100  0.604000  0.224100  1.0  0.0161
  H  H307  1  0.447500  0.551000  0.130500  1.0  0.2049
  H  H308  1  0.415600  0.441000  0.140600  1.0  0.0967
  H  H309  1  0.614000  0.434000  0.286000  1.0  0.1489
  H  H310  1  0.582700  0.375000  0.193700  1.0  -0.0773
  H  H311  1  0.562000  0.467000  0.129000  1.0  0.1421
  H  H312  1  0.598700  0.567000  0.172700  1.0  0.2425
  H  H313  1  0.639000  0.540000  0.270000  1.0  0.2293
  H  H314  1  0.339000  0.726000  0.551000  1.0  0.1472
  H  H315  1  0.424000  0.762000  0.491000  1.0  0.1207
  H  H316  1  0.363000  0.883000  0.459000  1.0  0.0576
  H  H317  1  0.246000  0.894000  0.502000  1.0  0.172
  H  H318  1  0.228000  0.797000  0.563000  1.0  -0.1526
  H  H319  1  0.118900  0.818300  0.464900  1.0  -0.0897
  H  H320  1  0.324000  0.778000  0.396000  1.0  0.072
  H  H321  1  0.319000  0.680000  0.452000  1.0  0.0571
  H  H322  1  0.182500  0.699000  0.499500  1.0  -0.1148
  H  H323  1  0.248900  0.672000  0.359900  1.0  0.1508
  H  H324  1  0.184000  0.790000  0.322000  1.0  0.0785
  H  H325  1  0.067000  0.830000  0.362000  1.0  -0.1748
  H  H326  1  0.152000  0.622000  0.413000  1.0  0.0036
  H  H327  1  0.127000  0.599000  0.321000  1.0  0.2516
  H  H328  1  0.005000  0.604000  0.359000  1.0  -0.098
  H  H329  1  0.945300  0.712000  0.331300  1.0  0.0713
  H  H330  1  0.044000  0.761000  0.265000  1.0  0.0649
  H  H331  1  0.140000  0.690000  0.264000  1.0  0.188
  H  H332  1  0.348400  0.221500  0.582400  1.0  0.1759
  H  H333  1  0.257200  0.256000  0.632200  1.0  0.2147
  H  H334  1  0.148700  0.181000  0.627700  1.0  0.2495
  H  H335  1  0.155000  0.079000  0.576000  1.0  -0.1052
  H  H336  1  0.034200  0.176000  0.538200  1.0  0.0478
  H  H337  1  0.096500  0.290000  0.573500  1.0  0.0252
  H  H338  1  0.222700  0.307000  0.542700  1.0  0.1751
  H  H339  1  0.247600  0.218000  0.490600  1.0  0.2428
  H  H340  1  0.126900  0.138000  0.477900  1.0  0.0886
  H  H341  1  0.112100  0.206000  0.406100  1.0  0.0824
  H  H342  1  0.171800  0.324000  0.451800  1.0  0.1578
  H  H343  1  0.084000  0.350000  0.508000  1.0  0.0455
  H  H344  1  0.976000  0.283000  0.502000  1.0  0.1367
  H  H345  1  0.986800  0.185000  0.445800  1.0  0.0934
  H  H346  1  0.846000  0.272000  0.409000  1.0  -0.219
  H  H347  1  0.929000  0.377000  0.444000  1.0  0.1386
  H  H348  1  0.053900  0.414000  0.409900  1.0  -0.0032
  H  H349  1  0.070500  0.316000  0.347500  1.0  0.0608
  H  H350  1  0.962000  0.232000  0.348000  1.0  0.1562
  H  H351  1  0.731000  0.956000  0.771000  1.0  0.2342
  H  H352  1  0.690000  0.068000  0.727000  1.0  0.0594
  H  H353  1  0.661700  0.048000  0.628700  1.0  0.1777
  H  H354  1  0.679000  0.920000  0.613000  1.0  -0.0693
  H  H355  1  0.720200  0.868000  0.708200  1.0  0.0484
  H  H356  1  0.812500  0.098000  0.679500  1.0  0.0255
  H  H357  1  0.852800  0.041000  0.770800  1.0  0.1548
  H  H358  1  0.869000  0.913000  0.759000  1.0  0.0677
  H  H359  1  0.844800  0.900000  0.660800  1.0  0.0935
  H  H360  1  0.813100  0.005400  0.610100  1.0  -0.0472
  H  H361  1  0.957200  0.091000  0.738200  1.0  0.2133
  H  H362  1  0.993700  0.990000  0.789700  1.0  0.0594
  H  H363  1  0.987100  0.896000  0.724100  1.0  0.0171
  H  H364  1  0.947500  0.949000  0.630500  1.0  0.2047
  H  H365  1  0.915600  0.059000  0.640600  1.0  0.0973
  H  H366  1  0.114000  0.066000  0.786000  1.0  0.1496
  H  H367  1  0.082700  0.125000  0.693700  1.0  -0.0782
  H  H368  1  0.062000  0.033000  0.629000  1.0  0.1418
  H  H369  1  0.098700  0.933000  0.672700  1.0  0.2438
  H  H370  1  0.139000  0.960000  0.770000  1.0  0.2313
  H  H371  1  0.661000  0.274000  0.449000  1.0  0.1481
  H  H372  1  0.576000  0.238000  0.509000  1.0  0.1256
  H  H373  1  0.637000  0.117000  0.541000  1.0  0.0595
  H  H374  1  0.754000  0.106000  0.498000  1.0  0.172
  H  H375  1  0.772000  0.203000  0.437000  1.0  -0.1469
  H  H376  1  0.881100  0.181700  0.535100  1.0  -0.0904
  H  H377  1  0.676000  0.222000  0.604000  1.0  0.0732
  H  H378  1  0.681000  0.320000  0.548000  1.0  0.0557
  H  H379  1  0.817500  0.301000  0.500500  1.0  -0.1162
  H  H380  1  0.751100  0.328000  0.640100  1.0  0.1542
  H  H381  1  0.816000  0.210000  0.678000  1.0  0.079
  H  H382  1  0.933000  0.170000  0.638000  1.0  -0.174
  H  H383  1  0.848000  0.378000  0.587000  1.0  0.0026
  H  H384  1  0.873000  0.401000  0.679000  1.0  0.251
  H  H385  1  0.995000  0.396000  0.641000  1.0  -0.0968
  H  H386  1  0.054700  0.288000  0.668700  1.0  0.0707
  H  H387  1  0.956000  0.239000  0.735000  1.0  0.0648
  H  H388  1  0.860000  0.310000  0.736000  1.0  0.1881
  H  H389  1  0.651600  0.778500  0.417600  1.0  0.1777
  H  H390  1  0.742800  0.744000  0.367800  1.0  0.2132
  H  H391  1  0.851300  0.819000  0.372300  1.0  0.246
  H  H392  1  0.845000  0.921000  0.424000  1.0  -0.1064
  H  H393  1  0.965800  0.824000  0.461800  1.0  0.047
  H  H394  1  0.903500  0.710000  0.426500  1.0  0.0236
  H  H395  1  0.777300  0.693000  0.457300  1.0  0.1753
  H  H396  1  0.752400  0.782000  0.509400  1.0  0.2442
  H  H397  1  0.873100  0.862000  0.522100  1.0  0.0879
  H  H398  1  0.887900  0.794000  0.593900  1.0  0.0812
  H  H399  1  0.828200  0.676000  0.548200  1.0  0.1636
  H  H400  1  0.916000  0.650000  0.492000  1.0  0.0467
  H  H401  1  0.024000  0.717000  0.498000  1.0  0.1383
  H  H402  1  0.013200  0.815000  0.554200  1.0  0.0928
  H  H403  1  0.154000  0.728000  0.591000  1.0  -0.2184
  H  H404  1  0.071000  0.623000  0.556000  1.0  0.1376
  H  H405  1  0.946100  0.586000  0.590100  1.0  -0.0038
  H  H406  1  0.929500  0.684000  0.652500  1.0  0.0616
  H  H407  1  0.038000  0.768000  0.652000  1.0  0.156
  H  H408  1  0.269000  0.044000  0.229000  1.0  0.2328
  H  H409  1  0.310000  0.932000  0.273000  1.0  0.059
  H  H410  1  0.338300  0.952000  0.371300  1.0  0.1775
  H  H411  1  0.321000  0.080000  0.387000  1.0  -0.0685
  H  H412  1  0.279800  0.132000  0.291800  1.0  0.0467
  H  H413  1  0.187500  0.902000  0.320500  1.0  0.0279
  H  H414  1  0.147200  0.959000  0.229200  1.0  0.1541
  H  H415  1  0.131000  0.087000  0.241000  1.0  0.0668
  H  H416  1  0.155200  0.100000  0.339200  1.0  0.0935
  H  H417  1  0.186900  0.994600  0.389900  1.0  -0.0475
  H  H418  1  0.042800  0.909000  0.261800  1.0  0.2147
  H  H419  1  0.006300  0.010000  0.210300  1.0  0.0614
  H  H420  1  0.012900  0.104000  0.275900  1.0  0.0148
  H  H421  1  0.052500  0.051000  0.369500  1.0  0.2044
  H  H422  1  0.084400  0.941000  0.359400  1.0  0.0952
  H  H423  1  0.886000  0.934000  0.214000  1.0  0.1483
  H  H424  1  0.917300  0.875000  0.306300  1.0  -0.0781
  H  H425  1  0.938000  0.967000  0.371000  1.0  0.1403
  H  H426  1  0.901300  0.067000  0.327300  1.0  0.2416
  H  H427  1  0.861000  0.040000  0.230000  1.0  0.2266
  H  H428  1  0.161000  0.226000  0.949000  1.0  0.1466
  H  H429  1  0.076000  0.262000  0.009000  1.0  0.1261
  H  H430  1  0.137000  0.383000  0.041000  1.0  0.0585
  H  H431  1  0.254000  0.394000  0.998000  1.0  0.1721
  H  H432  1  0.272000  0.297000  0.937000  1.0  -0.1462
  H  H433  1  0.381100  0.318300  0.035100  1.0  -0.0906
  H  H434  1  0.176000  0.278000  0.104000  1.0  0.0736
  H  H435  1  0.181000  0.180000  0.048000  1.0  0.0567
  H  H436  1  0.317500  0.199000  0.000500  1.0  -0.1152
  H  H437  1  0.251100  0.172000  0.140100  1.0  0.1543
  H  H438  1  0.316000  0.290000  0.178000  1.0  0.0783
  H  H439  1  0.433000  0.330000  0.138000  1.0  -0.1729
  H  H440  1  0.348000  0.122000  0.087000  1.0  0.0018
  H  H441  1  0.373000  0.099000  0.179000  1.0  0.2508
  H  H442  1  0.495000  0.104000  0.141000  1.0  -0.0981
  H  H443  1  0.554700  0.212000  0.168700  1.0  0.071
  H  H444  1  0.456000  0.261000  0.235000  1.0  0.0659
  H  H445  1  0.360000  0.190000  0.236000  1.0  0.1877
  H  H446  1  0.151600  0.721500  0.917600  1.0  0.1773
  H  H447  1  0.242800  0.756000  0.867800  1.0  0.214
  H  H448  1  0.351300  0.681000  0.872300  1.0  0.2462
  H  H449  1  0.345000  0.579000  0.924000  1.0  -0.106
  H  H450  1  0.465800  0.676000  0.961800  1.0  0.0478
  H  H451  1  0.403500  0.790000  0.926500  1.0  0.0235
  H  H452  1  0.277300  0.807000  0.957300  1.0  0.1737
  H  H453  1  0.252400  0.718000  0.009400  1.0  0.2441
  H  H454  1  0.373100  0.638000  0.022100  1.0  0.0884
  H  H455  1  0.387900  0.706000  0.093900  1.0  0.0828
  H  H456  1  0.328200  0.824000  0.048200  1.0  0.164
  H  H457  1  0.416000  0.850000  0.992000  1.0  0.0468
  H  H458  1  0.524000  0.783000  0.998000  1.0  0.1385
  H  H459  1  0.513200  0.685000  0.054200  1.0  0.0917
  H  H460  1  0.654000  0.772000  0.091000  1.0  -0.2186
  H  H461  1  0.571000  0.877000  0.056000  1.0  0.1386
  H  H462  1  0.446100  0.914000  0.090100  1.0  -0.0043
  H  H463  1  0.429500  0.816000  0.152500  1.0  0.0612
  H  H464  1  0.538000  0.732000  0.152000  1.0  0.1557
  H  H465  1  0.769000  0.456000  0.729000  1.0  0.2333
  H  H466  1  0.810000  0.568000  0.773000  1.0  0.06
  H  H467  1  0.838300  0.548000  0.871300  1.0  0.1771
  H  H468  1  0.821000  0.420000  0.887000  1.0  -0.0676
  H  H469  1  0.779800  0.368000  0.791800  1.0  0.0478
  H  H470  1  0.687500  0.598000  0.820500  1.0  0.027
  H  H471  1  0.647200  0.541000  0.729200  1.0  0.1555
  H  H472  1  0.631000  0.413000  0.741000  1.0  0.0654
  H  H473  1  0.655200  0.400000  0.839200  1.0  0.0936
  H  H474  1  0.686900  0.505400  0.889900  1.0  -0.0471
  H  H475  1  0.542800  0.591000  0.761800  1.0  0.2156
  H  H476  1  0.506300  0.490000  0.710300  1.0  0.0611
  H  H477  1  0.512900  0.396000  0.775900  1.0  0.0158
  H  H478  1  0.552500  0.449000  0.869500  1.0  0.2051
  H  H479  1  0.584400  0.559000  0.859400  1.0  0.0944
  H  H480  1  0.386000  0.566000  0.714000  1.0  0.1488
  H  H481  1  0.417300  0.625000  0.806300  1.0  -0.0792
  H  H482  1  0.438000  0.533000  0.871000  1.0  0.1403
  H  H483  1  0.401300  0.433000  0.827300  1.0  0.2425
  H  H484  1  0.361000  0.460000  0.730000  1.0  0.2281
  C  C485  1  0.895100  0.644300  0.061900  1.0  0.5269
  C  C486  1  0.837410  0.677600  0.019410  1.0  -0.1831
  C  C487  1  0.719220  0.740500  0.930820  1.0  -0.1838
  C  C488  1  0.659760  0.771500  0.886760  1.0  -0.2015
  C  C489  1  0.542700  0.831700  0.796900  1.0  -0.1755
  C  C490  1  0.804100  0.367600  0.147900  1.0  0.5756
  C  C491  1  0.748730  0.334100  0.104130  1.0  -0.163
  C  C492  1  0.637550  0.268300  0.014750  1.0  -0.107
  C  C493  1  0.581220  0.236400  0.970720  1.0  -0.1268
  C  C494  1  0.466600  0.169900  0.882100  1.0  -0.1984
  C  C495  1  0.411100  0.134800  0.839900  1.0  0.5445
  C  C496  1  0.088100  0.535100  0.184900  1.0  0.5892
  C  C497  1  0.176860  0.525800  0.190160  1.0  -0.1954
  C  C498  1  0.355790  0.509500  0.199790  1.0  -0.2156
  C  C499  1  0.444150  0.499900  0.204550  1.0  -0.1847
  C  C500  1  0.621070  0.478800  0.214270  1.0  -0.1668
  C  C501  1  0.486900  0.862600  0.753100  1.0  0.5864
  C  C502  1  0.709100  0.467300  0.219000  1.0  0.5894
  C  C503  1  0.395100  0.855700  0.561900  1.0  0.5249
  C  C504  1  0.337410  0.822400  0.519410  1.0  -0.1827
  C  C505  1  0.219220  0.759500  0.430820  1.0  -0.1841
  C  C506  1  0.159760  0.728500  0.386760  1.0  -0.201
  C  C507  1  0.042700  0.668300  0.296900  1.0  -0.1767
  C  C508  1  0.304100  0.132400  0.647900  1.0  0.5761
  C  C509  1  0.248730  0.165900  0.604130  1.0  -0.1636
  C  C510  1  0.137550  0.231700  0.514750  1.0  -0.1066
  C  C511  1  0.081220  0.263600  0.470720  1.0  -0.1273
  C  C512  1  0.966600  0.330100  0.382100  1.0  -0.1965
  C  C513  1  0.911100  0.365200  0.339900  1.0  0.5445
  C  C514  1  0.588100  0.964900  0.684900  1.0  0.589
  C  C515  1  0.676860  0.974200  0.690160  1.0  -0.1956
  C  C516  1  0.855790  0.990500  0.699790  1.0  -0.2155
  C  C517  1  0.944150  0.000100  0.704550  1.0  -0.1847
  C  C518  1  0.121070  0.021200  0.714270  1.0  -0.1664
  C  C519  1  0.986900  0.637400  0.253100  1.0  0.5858
  C  C520  1  0.209100  0.032700  0.719000  1.0  0.5899
  C  C521  1  0.604900  0.144300  0.438100  1.0  0.5249
  C  C522  1  0.662590  0.177600  0.480590  1.0  -0.1843
  C  C523  1  0.780780  0.240500  0.569180  1.0  -0.1826
  C  C524  1  0.840240  0.271500  0.613240  1.0  -0.2016
  C  C525  1  0.957300  0.331700  0.703100  1.0  -0.1731
  C  C526  1  0.695900  0.867600  0.352100  1.0  0.5761
  C  C527  1  0.751270  0.834100  0.395870  1.0  -0.1639
  C  C528  1  0.862450  0.768300  0.485250  1.0  -0.1061
  C  C529  1  0.918780  0.736400  0.529280  1.0  -0.1263
  C  C530  1  0.033400  0.669900  0.617900  1.0  -0.1963
  C  C531  1  0.088900  0.634800  0.660100  1.0  0.5426
  C  C532  1  0.411900  0.035100  0.315100  1.0  0.5894
  C  C533  1  0.323140  0.025800  0.309840  1.0  -0.1943
  C  C534  1  0.144210  0.009500  0.300210  1.0  -0.2168
  C  C535  1  0.055850  0.999900  0.295450  1.0  -0.1827
  C  C536  1  0.878930  0.978800  0.285730  1.0  -0.1656
  C  C537  1  0.013100  0.362600  0.746900  1.0  0.5857
  C  C538  1  0.790900  0.967300  0.281000  1.0  0.5892
  C  C539  1  0.104900  0.355700  0.938100  1.0  0.5236
  C  C540  1  0.162590  0.322400  0.980590  1.0  -0.1835
  C  C541  1  0.280780  0.259500  0.069180  1.0  -0.1833
  C  C542  1  0.340240  0.228500  0.113240  1.0  -0.2018
  C  C543  1  0.457300  0.168300  0.203100  1.0  -0.174
  C  C544  1  0.195900  0.632400  0.852100  1.0  0.5758
  C  C545  1  0.251270  0.665900  0.895870  1.0  -0.1647
  C  C546  1  0.362450  0.731700  0.985250  1.0  -0.1059
  C  C547  1  0.418780  0.763600  0.029280  1.0  -0.1265
  C  C548  1  0.533400  0.830100  0.117900  1.0  -0.1958
  C  C549  1  0.588900  0.865200  0.160100  1.0  0.5406
  C  C550  1  0.911900  0.464900  0.815100  1.0  0.5893
  C  C551  1  0.823140  0.474200  0.809840  1.0  -0.1944
  C  C552  1  0.644210  0.490500  0.800210  1.0  -0.2168
  C  C553  1  0.555850  0.500100  0.795450  1.0  -0.1832
  C  C554  1  0.378930  0.521200  0.785730  1.0  -0.1655
  C  C555  1  0.513100  0.137400  0.246900  1.0  0.5855
  C  C556  1  0.290900  0.532700  0.781000  1.0  0.5894
  O  O557  1  0.886400  0.536900  0.159070  1.0  -0.9333
  O  O558  1  0.911870  0.465280  0.239750  1.0  -0.9012
  O  O559  1  0.893690  0.662820  0.103590  1.0  -0.7083
  O  O560  1  0.935040  0.604540  0.053040  1.0  -0.6011
  O  O561  1  0.836650  0.412260  0.139150  1.0  -0.7287
  O  O562  1  0.807580  0.345760  0.188480  1.0  -0.7075
  O  O563  1  0.406050  0.156230  0.798450  1.0  -0.712
  O  O564  1  0.376820  0.091400  0.848320  1.0  -0.6101
  O  O565  1  0.057640  0.497460  0.205540  1.0  -0.7325
  O  O566  1  0.056560  0.578560  0.159960  1.0  -0.6868
  O  O567  1  0.482740  0.840410  0.712840  1.0  -0.7094
  O  O568  1  0.452640  0.908860  0.761140  1.0  -0.7613
  O  O569  1  0.738810  0.500950  0.193810  1.0  -0.738
  O  O570  1  0.741370  0.425560  0.245670  1.0  -0.6757
  O  O571  1  0.386400  0.963100  0.659070  1.0  -0.9332
  O  O572  1  0.411870  0.034720  0.739750  1.0  -0.901
  O  O573  1  0.393690  0.837180  0.603590  1.0  -0.7076
  O  O574  1  0.435040  0.895460  0.553040  1.0  -0.5999
  O  O575  1  0.336650  0.087740  0.639150  1.0  -0.7303
  O  O576  1  0.307580  0.154240  0.688480  1.0  -0.7078
  O  O577  1  0.906050  0.343770  0.298450  1.0  -0.7117
  O  O578  1  0.876820  0.408600  0.348320  1.0  -0.6114
  O  O579  1  0.557640  0.002540  0.705540  1.0  -0.7312
  O  O580  1  0.556560  0.921440  0.659960  1.0  -0.6876
  O  O581  1  0.982740  0.659590  0.212840  1.0  -0.7094
  O  O582  1  0.952640  0.591140  0.261140  1.0  -0.7607
  O  O583  1  0.238810  0.999050  0.693810  1.0  -0.7389
  O  O584  1  0.241370  0.074440  0.745670  1.0  -0.6753
  O  O585  1  0.613600  0.036900  0.340930  1.0  -0.9346
  O  O586  1  0.588130  0.965280  0.260250  1.0  -0.9026
  O  O587  1  0.606310  0.162820  0.396410  1.0  -0.7094
  O  O588  1  0.564960  0.104540  0.446960  1.0  -0.6005
  O  O589  1  0.663350  0.912260  0.360850  1.0  -0.729
  O  O590  1  0.692420  0.845760  0.311520  1.0  -0.7102
  O  O591  1  0.093950  0.656230  0.701550  1.0  -0.7111
  O  O592  1  0.123180  0.591400  0.651680  1.0  -0.6121
  O  O593  1  0.442360  0.997460  0.294460  1.0  -0.731
  O  O594  1  0.443440  0.078560  0.340040  1.0  -0.6867
  O  O595  1  0.017260  0.340410  0.787160  1.0  -0.709
  O  O596  1  0.047360  0.408860  0.738860  1.0  -0.7608
  O  O597  1  0.761190  0.000950  0.306190  1.0  -0.7394
  O  O598  1  0.758630  0.925560  0.254330  1.0  -0.6761
  O  O599  1  0.113600  0.463100  0.840930  1.0  -0.9345
  O  O600  1  0.088130  0.534720  0.760250  1.0  -0.9024
  O  O601  1  0.106310  0.337180  0.896410  1.0  -0.7093
  O  O602  1  0.064960  0.395460  0.946960  1.0  -0.5998
  O  O603  1  0.163350  0.587740  0.860850  1.0  -0.7285
  O  O604  1  0.192420  0.654240  0.811520  1.0  -0.7097
  O  O605  1  0.593950  0.843770  0.201550  1.0  -0.7106
  O  O606  1  0.623180  0.908600  0.151680  1.0  -0.6127
  O  O607  1  0.942360  0.502540  0.794460  1.0  -0.73
  O  O608  1  0.943440  0.421440  0.840040  1.0  -0.6871
  O  O609  1  0.517260  0.159590  0.287160  1.0  -0.7106
  O  O610  1  0.547360  0.091140  0.238860  1.0  -0.7626
  O  O611  1  0.261190  0.499050  0.806190  1.0  -0.7391
  O  O612  1  0.258630  0.574440  0.754330  1.0  -0.6754
