# generated using pymatgen
data_Be3P4(HO4)4
_symmetry_space_group_name_H-M   'P 1'
_cell_length_a   7.42190000
_cell_length_b   31.52890000
_cell_length_c   13.66820000
_cell_angle_alpha   90.00000000
_cell_angle_beta   91.80700000
_cell_angle_gamma   90.00000000
_symmetry_Int_Tables_number   1
_chemical_formula_structural   Be3P4(HO4)4
_chemical_formula_sum   'Be24 P32 H32 O128'
_cell_volume   3196.82763553
_cell_formula_units_Z   8
loop_
 _symmetry_equiv_pos_site_id
 _symmetry_equiv_pos_as_xyz
  1  'x, y, z'
loop_
 _atom_site_type_symbol
 _atom_site_label
 _atom_site_symmetry_multiplicity
 _atom_site_fract_x
 _atom_site_fract_y
 _atom_site_fract_z
 _atom_site_occupancy
 _atom_site_charge
  Be  Be1  1  0.193400  0.506670  0.889800  1.0  1.1737
  Be  Be2  1  0.814000  0.427820  0.762000  1.0  1.1597
  Be  Be3  1  0.172200  0.173010  0.737500  1.0  1.2104
  Be  Be4  1  0.646300  0.265140  0.880100  1.0  1.1279
  Be  Be5  1  0.323700  0.523400  0.606100  1.0  1.1607
  Be  Be6  1  0.402600  0.220930  0.119400  1.0  1.1711
  Be  Be7  1  0.306600  0.006670  0.610200  1.0  1.1745
  Be  Be8  1  0.686000  0.927820  0.738000  1.0  1.1617
  Be  Be9  1  0.327800  0.673010  0.762500  1.0  1.2097
  Be  Be10  1  0.853700  0.765140  0.619900  1.0  1.1291
  Be  Be11  1  0.176300  0.023400  0.893900  1.0  1.1597
  Be  Be12  1  0.097400  0.720930  0.380600  1.0  1.1718
  Be  Be13  1  0.806600  0.493330  0.110200  1.0  1.1752
  Be  Be14  1  0.186000  0.572180  0.238000  1.0  1.1613
  Be  Be15  1  0.827800  0.826990  0.262500  1.0  1.2094
  Be  Be16  1  0.353700  0.734860  0.119900  1.0  1.1283
  Be  Be17  1  0.676300  0.476600  0.393900  1.0  1.1601
  Be  Be18  1  0.597400  0.779070  0.880600  1.0  1.1717
  Be  Be19  1  0.693400  0.993330  0.389800  1.0  1.174
  Be  Be20  1  0.314000  0.072180  0.262000  1.0  1.1591
  Be  Be21  1  0.672200  0.326990  0.237500  1.0  1.2107
  Be  Be22  1  0.146300  0.234860  0.380100  1.0  1.1276
  Be  Be23  1  0.823700  0.976600  0.106100  1.0  1.161
  Be  Be24  1  0.902600  0.279070  0.619400  1.0  1.171
  P  P25  1  0.204990  0.501870  0.102070  1.0  1.6788
  P  P26  1  0.261810  0.080290  0.731590  1.0  1.7687
  P  P27  1  0.794470  0.209550  0.736230  1.0  1.6929
  P  P28  1  0.195550  0.450620  0.724990  1.0  1.6854
  P  P29  1  0.694730  0.484000  0.606130  1.0  1.6985
  P  P30  1  0.713140  0.337010  0.742250  1.0  1.9008
  P  P31  1  0.296400  0.219510  0.908670  1.0  1.8018
  P  P32  1  0.750500  0.262200  0.092280  1.0  1.699
  P  P33  1  0.295010  0.001870  0.397930  1.0  1.68
  P  P34  1  0.238190  0.580290  0.768410  1.0  1.7692
  P  P35  1  0.705530  0.709550  0.763770  1.0  1.6916
  P  P36  1  0.304450  0.950620  0.775010  1.0  1.6854
  P  P37  1  0.805270  0.984000  0.893870  1.0  1.701
  P  P38  1  0.786860  0.837010  0.757750  1.0  1.8987
  P  P39  1  0.203600  0.719510  0.591330  1.0  1.8029
  P  P40  1  0.749500  0.762200  0.407720  1.0  1.6975
  P  P41  1  0.795010  0.498130  0.897930  1.0  1.6803
  P  P42  1  0.738190  0.919710  0.268410  1.0  1.7694
  P  P43  1  0.205530  0.790450  0.263770  1.0  1.6929
  P  P44  1  0.804450  0.549380  0.275010  1.0  1.6855
  P  P45  1  0.305270  0.516000  0.393870  1.0  1.701
  P  P46  1  0.286860  0.662990  0.257750  1.0  1.8971
  P  P47  1  0.703600  0.780490  0.091330  1.0  1.8021
  P  P48  1  0.249500  0.737800  0.907720  1.0  1.6978
  P  P49  1  0.704990  0.998130  0.602070  1.0  1.6791
  P  P50  1  0.761810  0.419710  0.231590  1.0  1.7681
  P  P51  1  0.294470  0.290450  0.236230  1.0  1.6943
  P  P52  1  0.695550  0.049380  0.224990  1.0  1.6854
  P  P53  1  0.194730  0.016000  0.106130  1.0  1.6985
  P  P54  1  0.213140  0.162990  0.242250  1.0  1.8998
  P  P55  1  0.796400  0.280490  0.408670  1.0  1.8009
  P  P56  1  0.250500  0.237800  0.592280  1.0  1.6991
  H  H57  1  0.456700  0.483300  0.162500  1.0  0.1987
  H  H58  1  0.508100  0.065200  0.704700  1.0  0.4068
  H  H59  1  0.525900  0.187700  0.723100  1.0  0.3271
  H  H60  1  0.444500  0.426400  0.696600  1.0  0.3907
  H  H61  1  0.950500  0.506500  0.635600  1.0  0.4148
  H  H62  1  0.541500  0.321200  0.622500  1.0  0.3918
  H  H63  1  0.030400  0.241600  0.886500  1.0  0.3894
  H  H64  1  0.017800  0.247900  0.101000  1.0  0.3693
  H  H65  1  0.043300  0.983300  0.337500  1.0  0.1995
  H  H66  1  0.991900  0.565200  0.795300  1.0  0.4064
  H  H67  1  0.974100  0.687700  0.776900  1.0  0.3275
  H  H68  1  0.055500  0.926400  0.803400  1.0  0.389
  H  H69  1  0.549500  0.006500  0.864400  1.0  0.4159
  H  H70  1  0.958500  0.821200  0.877500  1.0  0.3906
  H  H71  1  0.469600  0.741600  0.613500  1.0  0.389
  H  H72  1  0.482200  0.747900  0.399000  1.0  0.3701
  H  H73  1  0.543300  0.516700  0.837500  1.0  0.1994
  H  H74  1  0.491900  0.934800  0.295300  1.0  0.407
  H  H75  1  0.474100  0.812300  0.276900  1.0  0.3266
  H  H76  1  0.555500  0.573600  0.303400  1.0  0.3885
  H  H77  1  0.049500  0.493500  0.364400  1.0  0.4163
  H  H78  1  0.458500  0.678800  0.377500  1.0  0.3933
  H  H79  1  0.969600  0.758400  0.113500  1.0  0.3899
  H  H80  1  0.982200  0.752100  0.899000  1.0  0.3692
  H  H81  1  0.956700  0.016700  0.662500  1.0  0.1992
  H  H82  1  0.008100  0.434800  0.204700  1.0  0.4075
  H  H83  1  0.025900  0.312300  0.223100  1.0  0.327
  H  H84  1  0.944500  0.073600  0.196600  1.0  0.3901
  H  H85  1  0.450500  0.993500  0.135600  1.0  0.4155
  H  H86  1  0.041500  0.178800  0.122500  1.0  0.3943
  H  H87  1  0.530400  0.258400  0.386500  1.0  0.3904
  H  H88  1  0.517800  0.252100  0.601000  1.0  0.369
  O  O89  1  0.265100  0.498190  0.998630  1.0  -0.7434
  O  O90  1  0.021900  0.481650  0.118850  1.0  -0.8216
  O  O91  1  0.208900  0.547660  0.135540  1.0  -0.7856
  O  O92  1  0.335200  0.473260  0.167630  1.0  -0.511
  O  O93  1  0.184700  0.123320  0.705640  1.0  -0.9197
  O  O94  1  0.204200  0.067600  0.833070  1.0  -0.8597
  O  O95  1  0.202300  0.048510  0.652900  1.0  -0.7552
  O  O96  1  0.473100  0.083510  0.731770  1.0  -0.7232
  O  O97  1  0.958900  0.182100  0.730530  1.0  -0.7884
  O  O98  1  0.793100  0.232230  0.834760  1.0  -0.7439
  O  O99  1  0.770300  0.239930  0.650660  1.0  -0.7296
  O  O100  1  0.634700  0.176700  0.728830  1.0  -0.5659
  O  O101  1  0.017400  0.427020  0.720570  1.0  -0.8924
  O  O102  1  0.193400  0.485930  0.648280  1.0  -0.788
  O  O103  1  0.247400  0.466060  0.825950  1.0  -0.6746
  O  O104  1  0.336100  0.415730  0.695690  1.0  -0.6299
  O  O105  1  0.677700  0.446660  0.676400  1.0  -0.7439
  O  O106  1  0.533500  0.512470  0.609450  1.0  -0.7877
  O  O107  1  0.734600  0.466260  0.505820  1.0  -0.8569
  O  O108  1  0.854200  0.514110  0.639470  1.0  -0.6888
  O  O109  1  0.880400  0.318960  0.695360  1.0  -0.7977
  O  O110  1  0.750700  0.380270  0.783670  1.0  -0.728
  O  O111  1  0.637600  0.309140  0.819850  1.0  -0.8116
  O  O112  1  0.562600  0.342910  0.658990  1.0  -0.6279
  O  O113  1  0.334000  0.205040  0.013120  1.0  -0.7243
  O  O114  1  0.445600  0.246420  0.869130  1.0  -0.7734
  O  O115  1  0.253400  0.180250  0.847720  1.0  -0.7754
  O  O116  1  0.129300  0.250330  0.905550  1.0  -0.6545
  O  O117  1  0.789400  0.299220  0.161270  1.0  -0.7794
  O  O118  1  0.612000  0.232000  0.129810  1.0  -0.7572
  O  O119  1  0.708300  0.278440  0.990600  1.0  -0.7967
  O  O120  1  0.928800  0.234350  0.090690  1.0  -0.588
  O  O121  1  0.234900  0.998190  0.501370  1.0  -0.7388
  O  O122  1  0.478100  0.981650  0.381150  1.0  -0.8212
  O  O123  1  0.291100  0.047660  0.364460  1.0  -0.7851
  O  O124  1  0.164800  0.973260  0.332370  1.0  -0.5104
  O  O125  1  0.315300  0.623320  0.794360  1.0  -0.9217
  O  O126  1  0.295800  0.567600  0.666930  1.0  -0.8608
  O  O127  1  0.297700  0.548510  0.847100  1.0  -0.7538
  O  O128  1  0.026900  0.583510  0.768230  1.0  -0.7227
  O  O129  1  0.541100  0.682100  0.769470  1.0  -0.7897
  O  O130  1  0.706900  0.732230  0.665240  1.0  -0.7422
  O  O131  1  0.729700  0.739930  0.849340  1.0  -0.7291
  O  O132  1  0.865300  0.676700  0.771170  1.0  -0.567
  O  O133  1  0.482600  0.927020  0.779430  1.0  -0.8931
  O  O134  1  0.306600  0.985930  0.851720  1.0  -0.7888
  O  O135  1  0.252600  0.966060  0.674050  1.0  -0.6725
  O  O136  1  0.163900  0.915730  0.804310  1.0  -0.6308
  O  O137  1  0.822300  0.946660  0.823600  1.0  -0.7442
  O  O138  1  0.966500  0.012470  0.890550  1.0  -0.7877
  O  O139  1  0.765400  0.966260  0.994180  1.0  -0.8565
  O  O140  1  0.645800  0.014110  0.860530  1.0  -0.6871
  O  O141  1  0.619600  0.818960  0.804640  1.0  -0.7966
  O  O142  1  0.749300  0.880270  0.716330  1.0  -0.7285
  O  O143  1  0.862400  0.809140  0.680150  1.0  -0.8138
  O  O144  1  0.937400  0.842910  0.841010  1.0  -0.6282
  O  O145  1  0.166000  0.705040  0.486880  1.0  -0.724
  O  O146  1  0.054400  0.746420  0.630870  1.0  -0.7739
  O  O147  1  0.246600  0.680250  0.652280  1.0  -0.7745
  O  O148  1  0.370700  0.750330  0.594450  1.0  -0.6563
  O  O149  1  0.710600  0.799220  0.338730  1.0  -0.7791
  O  O150  1  0.888000  0.732000  0.370190  1.0  -0.7577
  O  O151  1  0.791700  0.778440  0.509400  1.0  -0.7976
  O  O152  1  0.571200  0.734350  0.409310  1.0  -0.5864
  O  O153  1  0.734900  0.501810  0.001370  1.0  -0.739
  O  O154  1  0.978100  0.518350  0.881150  1.0  -0.8229
  O  O155  1  0.791100  0.452340  0.864460  1.0  -0.7862
  O  O156  1  0.664800  0.526740  0.832370  1.0  -0.5101
  O  O157  1  0.815300  0.876680  0.294360  1.0  -0.9213
  O  O158  1  0.795800  0.932400  0.166930  1.0  -0.8593
  O  O159  1  0.797700  0.951490  0.347100  1.0  -0.7541
  O  O160  1  0.526900  0.916490  0.268230  1.0  -0.7258
  O  O161  1  0.041100  0.817900  0.269470  1.0  -0.7896
  O  O162  1  0.206900  0.767770  0.165240  1.0  -0.742
  O  O163  1  0.229700  0.760070  0.349340  1.0  -0.7291
  O  O164  1  0.365300  0.823300  0.271170  1.0  -0.5685
  O  O165  1  0.982600  0.572980  0.279430  1.0  -0.8955
  O  O166  1  0.806600  0.514070  0.351720  1.0  -0.7891
  O  O167  1  0.752600  0.533940  0.174050  1.0  -0.6722
  O  O168  1  0.663900  0.584270  0.304310  1.0  -0.6301
  O  O169  1  0.322300  0.553340  0.323600  1.0  -0.7444
  O  O170  1  0.466500  0.487530  0.390550  1.0  -0.7848
  O  O171  1  0.265400  0.533740  0.494180  1.0  -0.8557
  O  O172  1  0.145800  0.485890  0.360530  1.0  -0.6849
  O  O173  1  0.119600  0.681040  0.304640  1.0  -0.7977
  O  O174  1  0.249300  0.619730  0.216330  1.0  -0.7296
  O  O175  1  0.362400  0.690860  0.180150  1.0  -0.8118
  O  O176  1  0.437400  0.657090  0.341010  1.0  -0.628
  O  O177  1  0.666000  0.794960  0.986880  1.0  -0.726
  O  O178  1  0.554400  0.753580  0.130870  1.0  -0.7729
  O  O179  1  0.746600  0.819750  0.152280  1.0  -0.7744
  O  O180  1  0.870700  0.749670  0.094450  1.0  -0.6556
  O  O181  1  0.210600  0.700780  0.838730  1.0  -0.7786
  O  O182  1  0.388000  0.768000  0.870190  1.0  -0.7576
  O  O183  1  0.291700  0.721560  0.009400  1.0  -0.7966
  O  O184  1  0.071200  0.765650  0.909310  1.0  -0.5861
  O  O185  1  0.765100  0.001810  0.498630  1.0  -0.7435
  O  O186  1  0.521900  0.018350  0.618850  1.0  -0.8228
  O  O187  1  0.708900  0.952340  0.635540  1.0  -0.7853
  O  O188  1  0.835200  0.026740  0.667630  1.0  -0.5101
  O  O189  1  0.684700  0.376680  0.205640  1.0  -0.9197
  O  O190  1  0.704200  0.432400  0.333070  1.0  -0.8596
  O  O191  1  0.702300  0.451490  0.152900  1.0  -0.7553
  O  O192  1  0.973100  0.416490  0.231770  1.0  -0.7268
  O  O193  1  0.458900  0.317900  0.230530  1.0  -0.7889
  O  O194  1  0.293100  0.267770  0.334760  1.0  -0.7444
  O  O195  1  0.270300  0.260070  0.150660  1.0  -0.7293
  O  O196  1  0.134700  0.323300  0.228830  1.0  -0.5666
  O  O197  1  0.517400  0.072980  0.220570  1.0  -0.8955
  O  O198  1  0.693400  0.014070  0.148280  1.0  -0.7879
  O  O199  1  0.747400  0.033940  0.325950  1.0  -0.672
  O  O200  1  0.836100  0.084270  0.195690  1.0  -0.6301
  O  O201  1  0.177700  0.053340  0.176400  1.0  -0.7436
  O  O202  1  0.033500  0.987530  0.109450  1.0  -0.7847
  O  O203  1  0.234600  0.033740  0.005820  1.0  -0.8554
  O  O204  1  0.354200  0.985890  0.139470  1.0  -0.6863
  O  O205  1  0.380400  0.181040  0.195360  1.0  -0.7995
  O  O206  1  0.250700  0.119730  0.283670  1.0  -0.7286
  O  O207  1  0.137600  0.190860  0.319850  1.0  -0.8103
  O  O208  1  0.062600  0.157090  0.158990  1.0  -0.6283
  O  O209  1  0.834000  0.294960  0.513120  1.0  -0.7256
  O  O210  1  0.945600  0.253580  0.369130  1.0  -0.7729
  O  O211  1  0.753400  0.319750  0.347720  1.0  -0.7752
  O  O212  1  0.629300  0.249670  0.405550  1.0  -0.6535
  O  O213  1  0.289400  0.200780  0.661270  1.0  -0.7794
  O  O214  1  0.112000  0.268000  0.629810  1.0  -0.7568
  O  O215  1  0.208300  0.221560  0.490600  1.0  -0.7955
  O  O216  1  0.428800  0.265650  0.590690  1.0  -0.5864
