# generated using pymatgen
data_CaCu6H48C36S6(N2O7)3
_symmetry_space_group_name_H-M   'P 1'
_cell_length_a   17.85000000
_cell_length_b   17.85000000
_cell_length_c   13.06400000
_cell_angle_alpha   90.00000000
_cell_angle_beta   90.00000000
_cell_angle_gamma   120.00000000
_symmetry_Int_Tables_number   1
_chemical_formula_structural   CaCu6H48C36S6(N2O7)3
_chemical_formula_sum   'Ca2 Cu12 H96 C72 S12 N12 O42'
_cell_volume   3604.81718129
_cell_formula_units_Z   2
loop_
 _symmetry_equiv_pos_site_id
 _symmetry_equiv_pos_as_xyz
  1  'x, y, z'
loop_
 _atom_site_type_symbol
 _atom_site_label
 _atom_site_symmetry_multiplicity
 _atom_site_fract_x
 _atom_site_fract_y
 _atom_site_fract_z
 _atom_site_occupancy
 _atom_site_charge
  Ca  Ca1  1  0.666667  0.333333  0.254100  1.0  1.4009
  Ca  Ca2  1  0.333333  0.666667  0.754100  1.0  1.4009
  Cu  Cu3  1  0.580900  0.445200  0.132140  1.0  0.9622
  Cu  Cu4  1  0.579400  0.444100  0.388400  1.0  0.8972
  Cu  Cu5  1  0.554800  0.135700  0.132140  1.0  0.9609
  Cu  Cu6  1  0.555900  0.135300  0.388400  1.0  0.8974
  Cu  Cu7  1  0.864300  0.419100  0.132140  1.0  0.9623
  Cu  Cu8  1  0.864700  0.420600  0.388400  1.0  0.8963
  Cu  Cu9  1  0.419100  0.554800  0.632140  1.0  0.963
  Cu  Cu10  1  0.420600  0.555900  0.888400  1.0  0.8963
  Cu  Cu11  1  0.445200  0.864300  0.632140  1.0  0.9613
  Cu  Cu12  1  0.444100  0.864700  0.888400  1.0  0.8954
  Cu  Cu13  1  0.135700  0.580900  0.632140  1.0  0.9619
  Cu  Cu14  1  0.135300  0.579400  0.888400  1.0  0.8977
  H  H15  1  0.581100  0.726500  0.059200  1.0  0.1249
  H  H16  1  0.442900  0.703600  0.108400  1.0  0.2191
  H  H17  1  0.495600  0.675300  0.176300  1.0  0.1088
  H  H18  1  0.325300  0.591900  0.149500  1.0  0.2484
  H  H19  1  0.381000  0.657700  0.236400  1.0  0.1015
  H  H20  1  0.305400  0.423200  0.143900  1.0  0.1682
  H  H21  1  0.221800  0.399900  0.211600  1.0  0.1309
  H  H22  1  0.288600  0.370300  0.248400  1.0  0.1493
  H  H23  1  0.465600  0.303300  0.930000  1.0  0.1419
  H  H24  1  0.353400  0.225500  0.935100  1.0  0.1476
  H  H25  1  0.336000  0.282100  0.011900  1.0  0.086
  H  H26  1  0.292600  0.111700  0.032700  1.0  0.1441
  H  H27  1  0.234200  0.156800  0.044900  1.0  0.0994
  H  H28  1  0.268400  0.279800  0.154400  1.0  0.0902
  H  H29  1  0.204500  0.211900  0.237400  1.0  0.14
  H  H30  1  0.198400  0.183800  0.120000  1.0  0.0994
  H  H31  1  0.273500  0.854600  0.059200  1.0  0.1232
  H  H32  1  0.296400  0.739300  0.108400  1.0  0.2184
  H  H33  1  0.324700  0.820300  0.176300  1.0  0.106
  H  H34  1  0.408100  0.733400  0.149500  1.0  0.2498
  H  H35  1  0.342300  0.723300  0.236400  1.0  0.1061
  H  H36  1  0.576800  0.882200  0.143900  1.0  0.1685
  H  H37  1  0.600100  0.821900  0.211600  1.0  0.1314
  H  H38  1  0.629700  0.918300  0.248400  1.0  0.1494
  H  H39  1  0.696700  0.162300  0.930000  1.0  0.1413
  H  H40  1  0.774500  0.127900  0.935100  1.0  0.1473
  H  H41  1  0.717900  0.053900  0.011900  1.0  0.0817
  H  H42  1  0.888300  0.180900  0.032700  1.0  0.144
  H  H43  1  0.843200  0.077400  0.044900  1.0  0.0948
  H  H44  1  0.720200  0.988600  0.154400  1.0  0.0916
  H  H45  1  0.788100  0.992600  0.237400  1.0  0.139
  H  H46  1  0.816200  0.014600  0.120000  1.0  0.096
  H  H47  1  0.145400  0.418900  0.059200  1.0  0.1195
  H  H48  1  0.260700  0.557100  0.108400  1.0  0.2179
  H  H49  1  0.179700  0.504400  0.176300  1.0  0.1081
  H  H50  1  0.266600  0.674700  0.149500  1.0  0.2539
  H  H51  1  0.276700  0.619000  0.236400  1.0  0.1056
  H  H52  1  0.117800  0.694600  0.143900  1.0  0.1717
  H  H53  1  0.178100  0.778200  0.211600  1.0  0.1343
  H  H54  1  0.081700  0.711400  0.248400  1.0  0.1492
  H  H55  1  0.837700  0.534400  0.930000  1.0  0.1421
  H  H56  1  0.872100  0.646600  0.935100  1.0  0.1465
  H  H57  1  0.946100  0.664000  0.011900  1.0  0.0788
  H  H58  1  0.819100  0.707400  0.032700  1.0  0.1392
  H  H59  1  0.922600  0.765800  0.044900  1.0  0.0972
  H  H60  1  0.011400  0.731600  0.154400  1.0  0.0911
  H  H61  1  0.007400  0.795500  0.237400  1.0  0.1393
  H  H62  1  0.985400  0.801600  0.120000  1.0  0.1044
  H  H63  1  0.418900  0.273500  0.559200  1.0  0.1213
  H  H64  1  0.557100  0.296400  0.608400  1.0  0.2187
  H  H65  1  0.504400  0.324700  0.676300  1.0  0.106
  H  H66  1  0.674700  0.408100  0.649500  1.0  0.2456
  H  H67  1  0.619000  0.342300  0.736400  1.0  0.1041
  H  H68  1  0.694600  0.576800  0.643900  1.0  0.1686
  H  H69  1  0.778200  0.600100  0.711600  1.0  0.1323
  H  H70  1  0.711400  0.629700  0.748400  1.0  0.1472
  H  H71  1  0.534400  0.696700  0.430000  1.0  0.1403
  H  H72  1  0.646600  0.774500  0.435100  1.0  0.1476
  H  H73  1  0.664000  0.717900  0.511900  1.0  0.0856
  H  H74  1  0.707400  0.888300  0.532700  1.0  0.1441
  H  H75  1  0.765800  0.843200  0.544900  1.0  0.0983
  H  H76  1  0.731600  0.720200  0.654400  1.0  0.0907
  H  H77  1  0.795500  0.788100  0.737400  1.0  0.1383
  H  H78  1  0.801600  0.816200  0.620000  1.0  0.0989
  H  H79  1  0.726500  0.145400  0.559200  1.0  0.1261
  H  H80  1  0.703600  0.260700  0.608400  1.0  0.2159
  H  H81  1  0.675300  0.179700  0.676300  1.0  0.1083
  H  H82  1  0.591900  0.266600  0.649500  1.0  0.2501
  H  H83  1  0.657700  0.276700  0.736400  1.0  0.1061
  H  H84  1  0.423200  0.117800  0.643900  1.0  0.1706
  H  H85  1  0.399900  0.178100  0.711600  1.0  0.1312
  H  H86  1  0.370300  0.081700  0.748400  1.0  0.1487
  H  H87  1  0.303300  0.837700  0.430000  1.0  0.1426
  H  H88  1  0.225500  0.872100  0.435100  1.0  0.1486
  H  H89  1  0.282100  0.946100  0.511900  1.0  0.0829
  H  H90  1  0.111700  0.819100  0.532700  1.0  0.1439
  H  H91  1  0.156800  0.922600  0.544900  1.0  0.1006
  H  H92  1  0.279800  0.011400  0.654400  1.0  0.0902
  H  H93  1  0.211900  0.007400  0.737400  1.0  0.1399
  H  H94  1  0.183800  0.985400  0.620000  1.0  0.1005
  H  H95  1  0.854600  0.581100  0.559200  1.0  0.1203
  H  H96  1  0.739300  0.442900  0.608400  1.0  0.2174
  H  H97  1  0.820300  0.495600  0.676300  1.0  0.1066
  H  H98  1  0.733400  0.325300  0.649500  1.0  0.2528
  H  H99  1  0.723300  0.381000  0.736400  1.0  0.1078
  H  H100  1  0.882200  0.305400  0.643900  1.0  0.1695
  H  H101  1  0.821900  0.221800  0.711600  1.0  0.1347
  H  H102  1  0.918300  0.288600  0.748400  1.0  0.1492
  H  H103  1  0.162300  0.465600  0.430000  1.0  0.1411
  H  H104  1  0.127900  0.353400  0.435100  1.0  0.147
  H  H105  1  0.053900  0.336000  0.511900  1.0  0.0807
  H  H106  1  0.180900  0.292600  0.532700  1.0  0.1412
  H  H107  1  0.077400  0.234200  0.544900  1.0  0.0996
  H  H108  1  0.988600  0.268400  0.654400  1.0  0.0913
  H  H109  1  0.992600  0.204500  0.737400  1.0  0.1392
  H  H110  1  0.014600  0.198400  0.620000  1.0  0.101
  C  C111  1  0.502300  0.270800  0.061000  1.0  0.5118
  C  C112  1  0.489000  0.458000  0.991000  1.0  0.3498
  C  C113  1  0.527700  0.545100  0.039600  1.0  0.527
  C  C114  1  0.478000  0.714000  0.967000  1.0  0.4756
  C  C115  1  0.520800  0.683000  0.038000  1.0  0.0666
  C  C116  1  0.452500  0.654200  0.120300  1.0  -0.0416
  C  C117  1  0.377000  0.610000  0.193000  1.0  -0.2632
  C  C118  1  0.283000  0.416000  0.214000  1.0  -0.4021
  C  C119  1  0.452500  0.311100  0.002000  1.0  -0.0066
  C  C120  1  0.363000  0.245000  0.007000  1.0  -0.0857
  C  C121  1  0.291900  0.163700  0.058000  1.0  -0.2155
  C  C122  1  0.238000  0.219000  0.175000  1.0  -0.317
  C  C123  1  0.729200  0.231500  0.061000  1.0  0.5119
  C  C124  1  0.542000  0.031000  0.991000  1.0  0.3453
  C  C125  1  0.454900  0.982600  0.039600  1.0  0.5267
  C  C126  1  0.286000  0.764000  0.967000  1.0  0.4727
  C  C127  1  0.317000  0.837800  0.038000  1.0  0.0684
  C  C128  1  0.345800  0.798300  0.120300  1.0  -0.0372
  C  C129  1  0.390000  0.767000  0.193000  1.0  -0.2595
  C  C130  1  0.584000  0.867000  0.214000  1.0  -0.3986
  C  C131  1  0.688900  0.141400  0.002000  1.0  -0.0051
  C  C132  1  0.755000  0.118000  0.007000  1.0  -0.0879
  C  C133  1  0.836300  0.128200  0.058000  1.0  -0.2128
  C  C134  1  0.781000  0.019000  0.175000  1.0  -0.3196
  C  C135  1  0.768500  0.497700  0.061000  1.0  0.5126
  C  C136  1  0.969000  0.511000  0.991000  1.0  0.3498
  C  C137  1  0.017400  0.472300  0.039600  1.0  0.5256
  C  C138  1  0.236000  0.522000  0.967000  1.0  0.4787
  C  C139  1  0.162200  0.479200  0.038000  1.0  0.0685
  C  C140  1  0.201700  0.547500  0.120300  1.0  -0.0337
  C  C141  1  0.233000  0.623000  0.193000  1.0  -0.2645
  C  C142  1  0.133000  0.717000  0.214000  1.0  -0.397
  C  C143  1  0.858600  0.547500  0.002000  1.0  -0.0041
  C  C144  1  0.882000  0.637000  0.007000  1.0  -0.0873
  C  C145  1  0.871800  0.708100  0.058000  1.0  -0.2111
  C  C146  1  0.981000  0.762000  0.175000  1.0  -0.3131
  C  C147  1  0.497700  0.729200  0.561000  1.0  0.5129
  C  C148  1  0.511000  0.542000  0.491000  1.0  0.35
  C  C149  1  0.472300  0.454900  0.539600  1.0  0.5274
  C  C150  1  0.522000  0.286000  0.467000  1.0  0.4757
  C  C151  1  0.479200  0.317000  0.538000  1.0  0.0658
  C  C152  1  0.547500  0.345800  0.620300  1.0  -0.0434
  C  C153  1  0.623000  0.390000  0.693000  1.0  -0.2696
  C  C154  1  0.717000  0.584000  0.714000  1.0  -0.3976
  C  C155  1  0.547500  0.688900  0.502000  1.0  -0.0059
  C  C156  1  0.637000  0.755000  0.507000  1.0  -0.0853
  C  C157  1  0.708100  0.836300  0.558000  1.0  -0.2142
  C  C158  1  0.762000  0.781000  0.675000  1.0  -0.3141
  C  C159  1  0.270800  0.768500  0.561000  1.0  0.5125
  C  C160  1  0.458000  0.969000  0.491000  1.0  0.3456
  C  C161  1  0.545100  0.017400  0.539600  1.0  0.5272
  C  C162  1  0.714000  0.236000  0.467000  1.0  0.471
  C  C163  1  0.683000  0.162200  0.538000  1.0  0.0692
  C  C164  1  0.654200  0.201700  0.620300  1.0  -0.0305
  C  C165  1  0.610000  0.233000  0.693000  1.0  -0.2571
  C  C166  1  0.416000  0.133000  0.714000  1.0  -0.3998
  C  C167  1  0.311100  0.858600  0.502000  1.0  -0.0031
  C  C168  1  0.245000  0.882000  0.507000  1.0  -0.0866
  C  C169  1  0.163700  0.871800  0.558000  1.0  -0.2162
  C  C170  1  0.219000  0.981000  0.675000  1.0  -0.3182
  C  C171  1  0.231500  0.502300  0.561000  1.0  0.5126
  C  C172  1  0.031000  0.489000  0.491000  1.0  0.3494
  C  C173  1  0.982600  0.527700  0.539600  1.0  0.5254
  C  C174  1  0.764000  0.478000  0.467000  1.0  0.4769
  C  C175  1  0.837800  0.520800  0.538000  1.0  0.0691
  C  C176  1  0.798300  0.452500  0.620300  1.0  -0.0314
  C  C177  1  0.767000  0.377000  0.693000  1.0  -0.2581
  C  C178  1  0.867000  0.283000  0.714000  1.0  -0.3973
  C  C179  1  0.141400  0.452500  0.502000  1.0  -0.007
  C  C180  1  0.118000  0.363000  0.507000  1.0  -0.0869
  C  C181  1  0.128200  0.291900  0.558000  1.0  -0.2126
  C  C182  1  0.019000  0.238000  0.675000  1.0  -0.3104
  S  S183  1  0.320000  0.181700  0.200000  1.0  0.027
  S  S184  1  0.344700  0.517900  0.284200  1.0  -0.0142
  S  S185  1  0.818300  0.138300  0.200000  1.0  0.0289
  S  S186  1  0.482100  0.826800  0.284200  1.0  -0.0162
  S  S187  1  0.861700  0.680000  0.200000  1.0  0.0267
  S  S188  1  0.173200  0.655300  0.284200  1.0  -0.0127
  S  S189  1  0.680000  0.818300  0.700000  1.0  0.0275
  S  S190  1  0.655300  0.482100  0.784200  1.0  -0.0128
  S  S191  1  0.181700  0.861700  0.700000  1.0  0.0282
  S  S192  1  0.517900  0.173200  0.784200  1.0  -0.0156
  S  S193  1  0.138300  0.320000  0.700000  1.0  0.0269
  S  S194  1  0.826800  0.344700  0.784200  1.0  -0.0131
  N  N195  1  0.504500  0.404700  0.010500  1.0  -0.2639
  N  N196  1  0.509400  0.602000  0.988600  1.0  -0.4215
  N  N197  1  0.595300  0.099800  0.010500  1.0  -0.2644
  N  N198  1  0.398000  0.907400  0.988600  1.0  -0.4295
  N  N199  1  0.900200  0.495500  0.010500  1.0  -0.263
  N  N200  1  0.092600  0.490600  0.988600  1.0  -0.4252
  N  N201  1  0.495500  0.595300  0.510500  1.0  -0.2641
  N  N202  1  0.490600  0.398000  0.488600  1.0  -0.4193
  N  N203  1  0.404700  0.900200  0.510500  1.0  -0.262
  N  N204  1  0.602000  0.092600  0.488600  1.0  -0.4223
  N  N205  1  0.099800  0.504500  0.510500  1.0  -0.264
  N  N206  1  0.907400  0.509400  0.488600  1.0  -0.4287
  O  O207  1  0.641800  0.466100  0.253400  1.0  -0.6999
  O  O208  1  0.556400  0.321700  0.137300  1.0  -0.6476
  O  O209  1  0.494700  0.200000  0.030500  1.0  -0.5996
  O  O210  1  0.436800  0.674600  0.892400  1.0  -0.5989
  O  O211  1  0.514900  0.805000  0.966000  1.0  -0.6353
  O  O212  1  0.424000  0.446200  0.905000  1.0  -0.7476
  O  O213  1  0.571600  0.556000  0.113100  1.0  -0.5367
  O  O214  1  0.533900  0.175700  0.253400  1.0  -0.6986
  O  O215  1  0.678300  0.234700  0.137300  1.0  -0.6484
  O  O216  1  0.800000  0.294700  0.030500  1.0  -0.6004
  O  O217  1  0.325400  0.762200  0.892400  1.0  -0.5975
  O  O218  1  0.195000  0.709900  0.966000  1.0  -0.6279
  O  O219  1  0.553800  0.977800  0.905000  1.0  -0.7478
  O  O220  1  0.444000  0.015600  0.113100  1.0  -0.5378
  O  O221  1  0.824300  0.358200  0.253400  1.0  -0.6961
  O  O222  1  0.765300  0.443600  0.137300  1.0  -0.6479
  O  O223  1  0.705300  0.505300  0.030500  1.0  -0.6011
  O  O224  1  0.237800  0.563200  0.892400  1.0  -0.6004
  O  O225  1  0.290100  0.485100  0.966000  1.0  -0.6331
  O  O226  1  0.022200  0.576000  0.905000  1.0  -0.744
  O  O227  1  0.984400  0.428400  0.113100  1.0  -0.5356
  O  O228  1  0.358200  0.533900  0.753400  1.0  -0.6987
  O  O229  1  0.443600  0.678300  0.637300  1.0  -0.6475
  O  O230  1  0.505300  0.800000  0.530500  1.0  -0.6002
  O  O231  1  0.563200  0.325400  0.392400  1.0  -0.5976
  O  O232  1  0.485100  0.195000  0.466000  1.0  -0.6289
  O  O233  1  0.576000  0.553800  0.405000  1.0  -0.7464
  O  O234  1  0.428400  0.444000  0.613100  1.0  -0.5381
  O  O235  1  0.466100  0.824300  0.753400  1.0  -0.6967
  O  O236  1  0.321700  0.765300  0.637300  1.0  -0.6489
  O  O237  1  0.200000  0.705300  0.530500  1.0  -0.6004
  O  O238  1  0.674600  0.237800  0.392400  1.0  -0.5987
  O  O239  1  0.805000  0.290100  0.466000  1.0  -0.6291
  O  O240  1  0.446200  0.022200  0.405000  1.0  -0.7461
  O  O241  1  0.556000  0.984400  0.613100  1.0  -0.5372
  O  O242  1  0.175700  0.641800  0.753400  1.0  -0.698
  O  O243  1  0.234700  0.556400  0.637300  1.0  -0.6484
  O  O244  1  0.294700  0.494700  0.530500  1.0  -0.6013
  O  O245  1  0.762200  0.436800  0.392400  1.0  -0.5995
  O  O246  1  0.709900  0.514900  0.466000  1.0  -0.6344
  O  O247  1  0.977800  0.424000  0.405000  1.0  -0.7465
  O  O248  1  0.015600  0.571600  0.613100  1.0  -0.5347
