# generated using pymatgen
data_CaCu6H48C36S6(N2O7)3
_symmetry_space_group_name_H-M   'P 1'
_cell_length_a   17.79920000
_cell_length_b   17.79920000
_cell_length_c   12.71450000
_cell_angle_alpha   90.00000000
_cell_angle_beta   90.00000000
_cell_angle_gamma   120.00000000
_symmetry_Int_Tables_number   1
_chemical_formula_structural   CaCu6H48C36S6(N2O7)3
_chemical_formula_sum   'Ca2 Cu12 H96 C72 S12 N12 O42'
_cell_volume   3488.43699755
_cell_formula_units_Z   2
loop_
 _symmetry_equiv_pos_site_id
 _symmetry_equiv_pos_as_xyz
  1  'x, y, z'
loop_
 _atom_site_type_symbol
 _atom_site_label
 _atom_site_symmetry_multiplicity
 _atom_site_fract_x
 _atom_site_fract_y
 _atom_site_fract_z
 _atom_site_occupancy
 _atom_site_charge
  Ca  Ca1  1  0.333333  0.666667  0.134600  1.0  1.391
  Ca  Ca2  1  0.666667  0.333333  0.634600  1.0  1.391
  Cu  Cu3  1  0.136800  0.553800  0.266200  1.0  0.9654
  Cu  Cu4  1  0.137700  0.554800  0.004110  1.0  0.9662
  Cu  Cu5  1  0.446200  0.583000  0.266200  1.0  0.9649
  Cu  Cu6  1  0.445200  0.582900  0.004110  1.0  0.9656
  Cu  Cu7  1  0.417000  0.863200  0.266200  1.0  0.9624
  Cu  Cu8  1  0.417100  0.862300  0.004110  1.0  0.9649
  Cu  Cu9  1  0.863200  0.446200  0.766200  1.0  0.9651
  Cu  Cu10  1  0.862300  0.445200  0.504110  1.0  0.9682
  Cu  Cu11  1  0.553800  0.417000  0.766200  1.0  0.9646
  Cu  Cu12  1  0.554800  0.417100  0.504110  1.0  0.9647
  Cu  Cu13  1  0.583000  0.136800  0.766200  1.0  0.9638
  Cu  Cu14  1  0.582900  0.137700  0.504110  1.0  0.9648
  H  H15  1  0.153200  0.701300  0.476200  1.0  0.1074
  H  H16  1  0.820600  0.321500  0.296900  1.0  0.0941
  H  H17  1  0.036900  0.710100  0.396000  1.0  0.0991
  H  H18  1  0.125500  0.799700  0.381300  1.0  0.1006
  H  H19  1  0.135100  0.780500  0.219900  1.0  0.0705
  H  H20  1  0.037400  0.753200  0.238900  1.0  0.1119
  H  H21  1  0.108200  0.739200  0.992400  1.0  0.1099
  H  H22  1  0.168300  0.785700  0.092400  1.0  0.1071
  H  H23  1  0.080200  0.787800  0.076200  1.0  0.1464
  H  H24  1  0.951000  0.325400  0.275900  1.0  0.14
  H  H25  1  0.866300  0.234300  0.263700  1.0  0.1265
  H  H26  1  0.012800  0.282000  0.375300  1.0  0.1344
  H  H27  1  0.957400  0.199400  0.307700  1.0  0.1029
  H  H28  1  0.037700  0.087400  0.434900  1.0  0.1398
  H  H29  1  0.080700  0.171900  0.361800  1.0  0.1337
  H  H30  1  0.990000  0.089500  0.329200  1.0  0.1311
  H  H31  1  0.298700  0.451900  0.476200  1.0  0.1083
  H  H32  1  0.678500  0.499100  0.296900  1.0  0.0934
  H  H33  1  0.289900  0.326800  0.396000  1.0  0.1016
  H  H34  1  0.200300  0.325800  0.381300  1.0  0.1018
  H  H35  1  0.219500  0.354600  0.219900  1.0  0.0697
  H  H36  1  0.246800  0.284200  0.238900  1.0  0.1031
  H  H37  1  0.260800  0.369000  0.992400  1.0  0.109
  H  H38  1  0.214300  0.382600  0.092400  1.0  0.1069
  H  H39  1  0.212200  0.292400  0.076200  1.0  0.1399
  H  H40  1  0.674600  0.625600  0.275900  1.0  0.1395
  H  H41  1  0.765700  0.632000  0.263700  1.0  0.1273
  H  H42  1  0.718000  0.730800  0.375300  1.0  0.1313
  H  H43  1  0.800600  0.758000  0.307700  1.0  0.1038
  H  H44  1  0.912600  0.950300  0.434900  1.0  0.1389
  H  H45  1  0.828100  0.908800  0.361800  1.0  0.1348
  H  H46  1  0.910500  0.900500  0.329200  1.0  0.131
  H  H47  1  0.548100  0.846800  0.476200  1.0  0.1076
  H  H48  1  0.500900  0.179400  0.296900  1.0  0.0948
  H  H49  1  0.673200  0.963100  0.396000  1.0  0.0992
  H  H50  1  0.674200  0.874500  0.381300  1.0  0.1051
  H  H51  1  0.645400  0.864900  0.219900  1.0  0.0684
  H  H52  1  0.715800  0.962600  0.238900  1.0  0.1079
  H  H53  1  0.631000  0.891800  0.992400  1.0  0.1092
  H  H54  1  0.617400  0.831700  0.092400  1.0  0.1055
  H  H55  1  0.707600  0.919800  0.076200  1.0  0.149
  H  H56  1  0.374400  0.049000  0.275900  1.0  0.14
  H  H57  1  0.368000  0.133700  0.263700  1.0  0.1264
  H  H58  1  0.269200  0.987200  0.375300  1.0  0.1286
  H  H59  1  0.242000  0.042600  0.307700  1.0  0.1052
  H  H60  1  0.049700  0.962300  0.434900  1.0  0.1392
  H  H61  1  0.091200  0.919300  0.361800  1.0  0.1347
  H  H62  1  0.099500  0.010000  0.329200  1.0  0.1305
  H  H63  1  0.846800  0.298700  0.976200  1.0  0.1087
  H  H64  1  0.179400  0.678500  0.796900  1.0  0.0937
  H  H65  1  0.963100  0.289900  0.896000  1.0  0.0978
  H  H66  1  0.874500  0.200300  0.881300  1.0  0.0961
  H  H67  1  0.864900  0.219500  0.719900  1.0  0.0685
  H  H68  1  0.962600  0.246800  0.738900  1.0  0.1116
  H  H69  1  0.891800  0.260800  0.492400  1.0  0.1099
  H  H70  1  0.831700  0.214300  0.592400  1.0  0.1056
  H  H71  1  0.919800  0.212200  0.576200  1.0  0.1485
  H  H72  1  0.049000  0.674600  0.775900  1.0  0.1401
  H  H73  1  0.133700  0.765700  0.763700  1.0  0.1258
  H  H74  1  0.987200  0.718000  0.875300  1.0  0.135
  H  H75  1  0.042600  0.800600  0.807700  1.0  0.1042
  H  H76  1  0.962300  0.912600  0.934900  1.0  0.1396
  H  H77  1  0.919300  0.828100  0.861800  1.0  0.1339
  H  H78  1  0.010000  0.910500  0.829200  1.0  0.1306
  H  H79  1  0.701300  0.548100  0.976200  1.0  0.108
  H  H80  1  0.321500  0.500900  0.796900  1.0  0.0952
  H  H81  1  0.710100  0.673200  0.896000  1.0  0.1031
  H  H82  1  0.799700  0.674200  0.881300  1.0  0.1049
  H  H83  1  0.780500  0.645400  0.719900  1.0  0.0698
  H  H84  1  0.753200  0.715800  0.738900  1.0  0.1064
  H  H85  1  0.739200  0.631000  0.492400  1.0  0.1088
  H  H86  1  0.785700  0.617400  0.592400  1.0  0.1074
  H  H87  1  0.787800  0.707600  0.576200  1.0  0.141
  H  H88  1  0.325400  0.374400  0.775900  1.0  0.1387
  H  H89  1  0.234300  0.368000  0.763700  1.0  0.1251
  H  H90  1  0.282000  0.269200  0.875300  1.0  0.13
  H  H91  1  0.199400  0.242000  0.807700  1.0  0.1047
  H  H92  1  0.087400  0.049700  0.934900  1.0  0.1401
  H  H93  1  0.171900  0.091200  0.861800  1.0  0.1342
  H  H94  1  0.089500  0.099500  0.829200  1.0  0.1307
  H  H95  1  0.451900  0.153200  0.976200  1.0  0.1074
  H  H96  1  0.499100  0.820600  0.796900  1.0  0.0945
  H  H97  1  0.326800  0.036900  0.896000  1.0  0.0997
  H  H98  1  0.325800  0.125500  0.881300  1.0  0.1027
  H  H99  1  0.354600  0.135100  0.719900  1.0  0.0723
  H  H100  1  0.284200  0.037400  0.738900  1.0  0.1074
  H  H101  1  0.369000  0.108200  0.492400  1.0  0.1105
  H  H102  1  0.382600  0.168300  0.592400  1.0  0.1077
  H  H103  1  0.292400  0.080200  0.576200  1.0  0.1469
  H  H104  1  0.625600  0.951000  0.775900  1.0  0.1401
  H  H105  1  0.632000  0.866300  0.763700  1.0  0.1254
  H  H106  1  0.730800  0.012800  0.875300  1.0  0.134
  H  H107  1  0.758000  0.957400  0.807700  1.0  0.1039
  H  H108  1  0.950300  0.037700  0.934900  1.0  0.1389
  H  H109  1  0.908800  0.080700  0.861800  1.0  0.135
  H  H110  1  0.900500  0.990000  0.829200  1.0  0.1316
  C  C111  1  0.236100  0.724000  0.338000  1.0  0.5907
  C  C112  1  0.145000  0.695000  0.398000  1.0  0.0132
  C  C113  1  0.981000  0.453700  0.360000  1.0  0.433
  C  C114  1  0.021000  0.539000  0.417000  1.0  0.5429
  C  C115  1  0.775000  0.275000  0.431000  1.0  0.4836
  C  C116  1  0.848500  0.316300  0.363000  1.0  0.1122
  C  C117  1  0.094000  0.738000  0.360000  1.0  -0.1859
  C  C118  1  0.080000  0.733000  0.248000  1.0  -0.3041
  C  C119  1  0.108000  0.753000  0.067000  1.0  -0.2964
  C  C120  1  0.904800  0.276900  0.316800  1.0  -0.1556
  C  C121  1  0.954100  0.230300  0.370700  1.0  -0.2377
  C  C122  1  0.026000  0.124000  0.388000  1.0  -0.3303
  C  C123  1  0.276000  0.512100  0.338000  1.0  0.591
  C  C124  1  0.305000  0.450000  0.398000  1.0  0.0135
  C  C125  1  0.546300  0.527300  0.360000  1.0  0.4317
  C  C126  1  0.461000  0.482000  0.417000  1.0  0.5413
  C  C127  1  0.725000  0.500000  0.431000  1.0  0.4817
  C  C128  1  0.683700  0.532200  0.363000  1.0  0.1087
  C  C129  1  0.262000  0.356000  0.360000  1.0  -0.1866
  C  C130  1  0.267000  0.347000  0.248000  1.0  -0.2999
  C  C131  1  0.247000  0.355000  0.067000  1.0  -0.2957
  C  C132  1  0.723100  0.627900  0.316800  1.0  -0.1541
  C  C133  1  0.769700  0.723800  0.370700  1.0  -0.2376
  C  C134  1  0.876000  0.902000  0.388000  1.0  -0.3283
  C  C135  1  0.487900  0.763900  0.338000  1.0  0.5928
  C  C136  1  0.550000  0.855000  0.398000  1.0  0.0147
  C  C137  1  0.472700  0.019000  0.360000  1.0  0.4322
  C  C138  1  0.518000  0.979000  0.417000  1.0  0.5424
  C  C139  1  0.500000  0.225000  0.431000  1.0  0.4884
  C  C140  1  0.467800  0.151500  0.363000  1.0  0.1112
  C  C141  1  0.644000  0.906000  0.360000  1.0  -0.1857
  C  C142  1  0.653000  0.920000  0.248000  1.0  -0.2996
  C  C143  1  0.645000  0.892000  0.067000  1.0  -0.2963
  C  C144  1  0.372100  0.095200  0.316800  1.0  -0.1545
  C  C145  1  0.276200  0.045900  0.370700  1.0  -0.2391
  C  C146  1  0.098000  0.974000  0.388000  1.0  -0.3295
  C  C147  1  0.763900  0.276000  0.838000  1.0  0.5904
  C  C148  1  0.855000  0.305000  0.898000  1.0  0.0127
  C  C149  1  0.019000  0.546300  0.860000  1.0  0.4326
  C  C150  1  0.979000  0.461000  0.917000  1.0  0.5425
  C  C151  1  0.225000  0.725000  0.931000  1.0  0.4836
  C  C152  1  0.151500  0.683700  0.863000  1.0  0.108
  C  C153  1  0.906000  0.262000  0.860000  1.0  -0.1857
  C  C154  1  0.920000  0.267000  0.748000  1.0  -0.3052
  C  C155  1  0.892000  0.247000  0.567000  1.0  -0.2978
  C  C156  1  0.095200  0.723100  0.816800  1.0  -0.1545
  C  C157  1  0.045900  0.769700  0.870700  1.0  -0.235
  C  C158  1  0.974000  0.876000  0.888000  1.0  -0.3289
  C  C159  1  0.724000  0.487900  0.838000  1.0  0.5921
  C  C160  1  0.695000  0.550000  0.898000  1.0  0.0145
  C  C161  1  0.453700  0.472700  0.860000  1.0  0.4318
  C  C162  1  0.539000  0.518000  0.917000  1.0  0.5419
  C  C163  1  0.275000  0.500000  0.931000  1.0  0.4821
  C  C164  1  0.316300  0.467800  0.863000  1.0  0.1125
  C  C165  1  0.738000  0.644000  0.860000  1.0  -0.187
  C  C166  1  0.733000  0.653000  0.748000  1.0  -0.3018
  C  C167  1  0.753000  0.645000  0.567000  1.0  -0.2961
  C  C168  1  0.276900  0.372100  0.816800  1.0  -0.1538
  C  C169  1  0.230300  0.276200  0.870700  1.0  -0.2373
  C  C170  1  0.124000  0.098000  0.888000  1.0  -0.3301
  C  C171  1  0.512100  0.236100  0.838000  1.0  0.591
  C  C172  1  0.450000  0.145000  0.898000  1.0  0.0141
  C  C173  1  0.527300  0.981000  0.860000  1.0  0.4314
  C  C174  1  0.482000  0.021000  0.917000  1.0  0.5425
  C  C175  1  0.500000  0.775000  0.931000  1.0  0.4874
  C  C176  1  0.532200  0.848500  0.863000  1.0  0.1107
  C  C177  1  0.356000  0.094000  0.860000  1.0  -0.1866
  C  C178  1  0.347000  0.080000  0.748000  1.0  -0.303
  C  C179  1  0.355000  0.108000  0.567000  1.0  -0.2957
  C  C180  1  0.627900  0.904800  0.816800  1.0  -0.155
  C  C181  1  0.723800  0.954100  0.870700  1.0  -0.2373
  C  C182  1  0.902000  0.026000  0.888000  1.0  -0.3295
  S  S183  1  0.045700  0.646100  0.147000  1.0  -0.0183
  S  S184  1  0.967000  0.168900  0.463100  1.0  0.1587
  S  S185  1  0.353900  0.399600  0.147000  1.0  -0.0106
  S  S186  1  0.831100  0.798100  0.463100  1.0  0.1613
  S  S187  1  0.600400  0.954300  0.147000  1.0  -0.0131
  S  S188  1  0.201900  0.033000  0.463100  1.0  0.1589
  S  S189  1  0.954300  0.353900  0.647000  1.0  -0.0129
  S  S190  1  0.033000  0.831100  0.963100  1.0  0.1598
  S  S191  1  0.646100  0.600400  0.647000  1.0  -0.0121
  S  S192  1  0.168900  0.201900  0.963100  1.0  0.1596
  S  S193  1  0.399600  0.045700  0.647000  1.0  -0.0107
  S  S194  1  0.798100  0.967000  0.963100  1.0  0.1613
  N  N195  1  0.088800  0.595100  0.365000  1.0  -0.412
  N  N196  1  0.898400  0.401600  0.389400  1.0  -0.2863
  N  N197  1  0.404900  0.493700  0.365000  1.0  -0.4151
  N  N198  1  0.598400  0.496800  0.389400  1.0  -0.2853
  N  N199  1  0.506300  0.911200  0.365000  1.0  -0.4146
  N  N200  1  0.503200  0.101600  0.389400  1.0  -0.2851
  N  N201  1  0.911200  0.404900  0.865000  1.0  -0.4148
  N  N202  1  0.101600  0.598400  0.889400  1.0  -0.2851
  N  N203  1  0.595100  0.506300  0.865000  1.0  -0.4151
  N  N204  1  0.401600  0.503200  0.889400  1.0  -0.2833
  N  N205  1  0.493700  0.088800  0.865000  1.0  -0.4132
  N  N206  1  0.496800  0.898400  0.889400  1.0  -0.2854
  O  O207  1  0.176700  0.534000  0.129000  1.0  -0.6969
  O  O208  1  0.234800  0.674700  0.269500  1.0  -0.6177
  O  O209  1  0.023200  0.448100  0.283000  1.0  -0.6263
  O  O210  1  0.294200  0.803200  0.361800  1.0  -0.596
  O  O211  1  0.759900  0.324500  0.500000  1.0  -0.6751
  O  O212  1  0.980100  0.561000  0.486000  1.0  -0.5748
  O  O213  1  0.717100  0.201900  0.426700  1.0  -0.5759
  O  O214  1  0.466000  0.642700  0.129000  1.0  -0.6958
  O  O215  1  0.325300  0.560100  0.269500  1.0  -0.6198
  O  O216  1  0.551900  0.575100  0.283000  1.0  -0.6259
  O  O217  1  0.196800  0.491000  0.361800  1.0  -0.5957
  O  O218  1  0.675500  0.435400  0.500000  1.0  -0.6724
  O  O219  1  0.439000  0.419100  0.486000  1.0  -0.5744
  O  O220  1  0.798100  0.515200  0.426700  1.0  -0.5752
  O  O221  1  0.357300  0.823300  0.129000  1.0  -0.6952
  O  O222  1  0.439900  0.765200  0.269500  1.0  -0.6189
  O  O223  1  0.424900  0.976800  0.283000  1.0  -0.6264
  O  O224  1  0.509000  0.705800  0.361800  1.0  -0.5943
  O  O225  1  0.564600  0.240100  0.500000  1.0  -0.6717
  O  O226  1  0.580900  0.019900  0.486000  1.0  -0.5755
  O  O227  1  0.484800  0.282900  0.426700  1.0  -0.5757
  O  O228  1  0.823300  0.466000  0.629000  1.0  -0.6959
  O  O229  1  0.765200  0.325300  0.769500  1.0  -0.6179
  O  O230  1  0.976800  0.551900  0.783000  1.0  -0.6255
  O  O231  1  0.705800  0.196800  0.861800  1.0  -0.5948
  O  O232  1  0.240100  0.675500  0.000000  1.0  -0.6713
  O  O233  1  0.019900  0.439000  0.986000  1.0  -0.5744
  O  O234  1  0.282900  0.798100  0.926700  1.0  -0.5759
  O  O235  1  0.534000  0.357300  0.629000  1.0  -0.6965
  O  O236  1  0.674700  0.439900  0.769500  1.0  -0.6198
  O  O237  1  0.448100  0.424900  0.783000  1.0  -0.6271
  O  O238  1  0.803200  0.509000  0.861800  1.0  -0.5939
  O  O239  1  0.324500  0.564600  0.000000  1.0  -0.6732
  O  O240  1  0.561000  0.580900  0.986000  1.0  -0.5756
  O  O241  1  0.201900  0.484800  0.926700  1.0  -0.5751
  O  O242  1  0.642700  0.176700  0.629000  1.0  -0.695
  O  O243  1  0.560100  0.234800  0.769500  1.0  -0.6195
  O  O244  1  0.575100  0.023200  0.783000  1.0  -0.6266
  O  O245  1  0.491000  0.294200  0.861800  1.0  -0.5973
  O  O246  1  0.435400  0.759900  0.000000  1.0  -0.6751
  O  O247  1  0.419100  0.980100  0.986000  1.0  -0.5763
  O  O248  1  0.515200  0.717100  0.926700  1.0  -0.5755
