# generated using pymatgen
data_Zn3H16(C2O)16
_symmetry_space_group_name_H-M   'P 1'
_cell_length_a   33.27370000
_cell_length_b   9.85310000
_cell_length_c   18.21800000
_cell_angle_alpha   90.00000000
_cell_angle_beta   90.00000000
_cell_angle_gamma   90.00000000
_symmetry_Int_Tables_number   1
_chemical_formula_structural   Zn3H16(C2O)16
_chemical_formula_sum   'Zn12 H64 C128 O64'
_cell_volume   5972.75478484
_cell_formula_units_Z   4
loop_
 _symmetry_equiv_pos_site_id
 _symmetry_equiv_pos_as_xyz
  1  'x, y, z'
loop_
 _atom_site_type_symbol
 _atom_site_label
 _atom_site_symmetry_multiplicity
 _atom_site_fract_x
 _atom_site_fract_y
 _atom_site_fract_z
 _atom_site_occupancy
 _atom_site_charge
  Zn  Zn1  1  0.596500  0.449290  0.495130  1.0  1.0481
  Zn  Zn2  1  0.903500  0.050710  0.495130  1.0  1.0467
  Zn  Zn3  1  0.403500  0.949290  0.004870  1.0  1.0466
  Zn  Zn4  1  0.096500  0.550710  0.004870  1.0  1.0481
  Zn  Zn5  1  0.403500  0.550710  0.504870  1.0  1.0465
  Zn  Zn6  1  0.096500  0.949290  0.504870  1.0  1.048
  Zn  Zn7  1  0.596500  0.050710  0.995130  1.0  1.0482
  Zn  Zn8  1  0.903500  0.449290  0.995130  1.0  1.0468
  Zn  Zn9  1  0.500000  0.500000  0.500000  1.0  1.1479
  Zn  Zn10  1  0.000000  0.000000  0.500000  1.0  1.1479
  Zn  Zn11  1  0.500000  0.000000  0.000000  1.0  1.1479
  Zn  Zn12  1  0.000000  0.500000  0.000000  1.0  1.1479
  H  H13  1  0.748600  0.481200  0.496400  1.0  0.1179
  H  H14  1  0.690900  0.129300  0.495900  1.0  0.1251
  H  H15  1  0.532700  0.010700  0.388300  1.0  0.113
  H  H16  1  0.497400  0.817700  0.419900  1.0  0.1048
  H  H17  1  0.619500  0.697200  0.305900  1.0  0.1218
  H  H18  1  0.500000  0.660200  0.284400  1.0  0.1193
  H  H19  1  0.622100  0.813700  0.196600  1.0  0.1203
  H  H20  1  0.502800  0.773600  0.174300  1.0  0.1039
  H  H21  1  0.751400  0.018800  0.496400  1.0  0.1209
  H  H22  1  0.809100  0.370700  0.495900  1.0  0.1256
  H  H23  1  0.967300  0.489300  0.388300  1.0  0.1127
  H  H24  1  0.002600  0.682300  0.419900  1.0  0.1047
  H  H25  1  0.880500  0.802800  0.305900  1.0  0.1217
  H  H26  1  0.000000  0.839800  0.284400  1.0  0.119
  H  H27  1  0.877900  0.686300  0.196600  1.0  0.1203
  H  H28  1  0.997200  0.726400  0.174300  1.0  0.1037
  H  H29  1  0.251400  0.981200  0.003600  1.0  0.1178
  H  H30  1  0.309100  0.629300  0.004100  1.0  0.1249
  H  H31  1  0.467300  0.510700  0.111700  1.0  0.1127
  H  H32  1  0.502600  0.317700  0.080100  1.0  0.1052
  H  H33  1  0.380500  0.197200  0.194100  1.0  0.1222
  H  H34  1  0.500000  0.160200  0.215600  1.0  0.1191
  H  H35  1  0.377900  0.313700  0.303400  1.0  0.1201
  H  H36  1  0.497200  0.273600  0.325700  1.0  0.1034
  H  H37  1  0.248600  0.518800  0.003600  1.0  0.121
  H  H38  1  0.190900  0.870700  0.004100  1.0  0.1254
  H  H39  1  0.032700  0.989300  0.111700  1.0  0.1127
  H  H40  1  0.997400  0.182300  0.080100  1.0  0.1049
  H  H41  1  0.119500  0.302800  0.194100  1.0  0.1223
  H  H42  1  0.000000  0.339800  0.215600  1.0  0.1191
  H  H43  1  0.122100  0.186300  0.303400  1.0  0.1199
  H  H44  1  0.002800  0.226400  0.325700  1.0  0.1039
  H  H45  1  0.251400  0.518800  0.503600  1.0  0.121
  H  H46  1  0.309100  0.870700  0.504100  1.0  0.1256
  H  H47  1  0.467300  0.989300  0.611700  1.0  0.1127
  H  H48  1  0.502600  0.182300  0.580100  1.0  0.1048
  H  H49  1  0.380500  0.302800  0.694100  1.0  0.1222
  H  H50  1  0.500000  0.339800  0.715600  1.0  0.1189
  H  H51  1  0.377900  0.186300  0.803400  1.0  0.1201
  H  H52  1  0.497200  0.226400  0.825700  1.0  0.1036
  H  H53  1  0.248600  0.981200  0.503600  1.0  0.1178
  H  H54  1  0.190900  0.629300  0.504100  1.0  0.125
  H  H55  1  0.032700  0.510700  0.611700  1.0  0.1128
  H  H56  1  0.997400  0.317700  0.580100  1.0  0.1052
  H  H57  1  0.119500  0.197200  0.694100  1.0  0.1222
  H  H58  1  0.000000  0.160200  0.715600  1.0  0.1193
  H  H59  1  0.122100  0.313700  0.803400  1.0  0.1201
  H  H60  1  0.002800  0.273600  0.825700  1.0  0.1037
  H  H61  1  0.748600  0.018800  0.996400  1.0  0.1209
  H  H62  1  0.690900  0.370700  0.995900  1.0  0.1254
  H  H63  1  0.532700  0.489300  0.888300  1.0  0.113
  H  H64  1  0.497400  0.682300  0.919900  1.0  0.1048
  H  H65  1  0.619500  0.802800  0.805900  1.0  0.1218
  H  H66  1  0.500000  0.839800  0.784400  1.0  0.1191
  H  H67  1  0.622100  0.686300  0.696600  1.0  0.12
  H  H68  1  0.502800  0.726400  0.674300  1.0  0.104
  H  H69  1  0.751400  0.481200  0.996400  1.0  0.1178
  H  H70  1  0.809100  0.129300  0.995900  1.0  0.1248
  H  H71  1  0.967300  0.010700  0.888300  1.0  0.1127
  H  H72  1  0.002600  0.817700  0.919900  1.0  0.1049
  H  H73  1  0.880500  0.697200  0.805900  1.0  0.1218
  H  H74  1  0.000000  0.660200  0.784400  1.0  0.1192
  H  H75  1  0.877900  0.813700  0.696600  1.0  0.1204
  H  H76  1  0.997200  0.773600  0.674300  1.0  0.1035
  C  C77  1  0.673880  0.391400  0.492500  1.0  0.6833
  C  C78  1  0.713290  0.317300  0.496200  1.0  -0.1144
  C  C79  1  0.749000  0.386800  0.496300  1.0  -0.037
  C  C80  1  0.714670  0.179100  0.496100  1.0  -0.0491
  C  C81  1  0.546700  0.236600  0.461100  1.0  0.6537
  C  C82  1  0.521360  0.116100  0.480900  1.0  -0.1476
  C  C83  1  0.519560  0.006500  0.433300  1.0  -0.0362
  C  C84  1  0.498390  0.890800  0.452100  1.0  -0.0259
  C  C85  1  0.557040  0.591300  0.378130  1.0  0.7124
  C  C86  1  0.559550  0.665900  0.306200  1.0  -0.1233
  C  C87  1  0.596040  0.712900  0.279600  1.0  -0.0391
  C  C88  1  0.524610  0.690400  0.266500  1.0  -0.0428
  C  C89  1  0.597510  0.782600  0.214100  1.0  -0.0366
  C  C90  1  0.526280  0.759100  0.200900  1.0  -0.0221
  C  C91  1  0.562750  0.807300  0.173910  1.0  -0.1248
  C  C92  1  0.563990  0.881400  0.102760  1.0  0.7312
  C  C93  1  0.826120  0.108600  0.492500  1.0  0.6828
  C  C94  1  0.786710  0.182700  0.496200  1.0  -0.1142
  C  C95  1  0.751000  0.113200  0.496300  1.0  -0.0369
  C  C96  1  0.785330  0.320900  0.496100  1.0  -0.0499
  C  C97  1  0.953300  0.263400  0.461100  1.0  0.6555
  C  C98  1  0.978640  0.383900  0.480900  1.0  -0.148
  C  C99  1  0.980440  0.493500  0.433300  1.0  -0.0342
  C  C100  1  0.001610  0.609200  0.452100  1.0  -0.0263
  C  C101  1  0.942960  0.908700  0.378130  1.0  0.713
  C  C102  1  0.940450  0.834100  0.306200  1.0  -0.122
  C  C103  1  0.903960  0.787100  0.279600  1.0  -0.0442
  C  C104  1  0.975390  0.809600  0.266500  1.0  -0.0432
  C  C105  1  0.902490  0.717400  0.214100  1.0  -0.0381
  C  C106  1  0.973720  0.740900  0.200900  1.0  -0.0231
  C  C107  1  0.937250  0.692700  0.173910  1.0  -0.1255
  C  C108  1  0.936010  0.618600  0.102760  1.0  0.7307
  C  C109  1  0.326120  0.891400  0.007500  1.0  0.6834
  C  C110  1  0.286710  0.817300  0.003800  1.0  -0.1144
  C  C111  1  0.251000  0.886800  0.003700  1.0  -0.0368
  C  C112  1  0.285330  0.679100  0.003900  1.0  -0.0498
  C  C113  1  0.453300  0.736600  0.038900  1.0  0.6561
  C  C114  1  0.478640  0.616100  0.019100  1.0  -0.1478
  C  C115  1  0.480440  0.506500  0.066700  1.0  -0.0354
  C  C116  1  0.501610  0.390800  0.047900  1.0  -0.0278
  C  C117  1  0.442960  0.091300  0.121870  1.0  0.7125
  C  C118  1  0.440450  0.165900  0.193800  1.0  -0.1229
  C  C119  1  0.403960  0.212900  0.220400  1.0  -0.0426
  C  C120  1  0.475390  0.190400  0.233500  1.0  -0.0439
  C  C121  1  0.402490  0.282600  0.285900  1.0  -0.0377
  C  C122  1  0.473720  0.259100  0.299100  1.0  -0.0231
  C  C123  1  0.437250  0.307300  0.326090  1.0  -0.124
  C  C124  1  0.436010  0.381400  0.397240  1.0  0.731
  C  C125  1  0.173880  0.608600  0.007500  1.0  0.6831
  C  C126  1  0.213290  0.682700  0.003800  1.0  -0.1144
  C  C127  1  0.249000  0.613200  0.003700  1.0  -0.038
  C  C128  1  0.214670  0.820900  0.003900  1.0  -0.0498
  C  C129  1  0.046700  0.763400  0.038900  1.0  0.654
  C  C130  1  0.021360  0.883900  0.019100  1.0  -0.1475
  C  C131  1  0.019560  0.993500  0.066700  1.0  -0.036
  C  C132  1  0.998390  0.109200  0.047900  1.0  -0.0272
  C  C133  1  0.057040  0.408700  0.121870  1.0  0.7123
  C  C134  1  0.059550  0.334100  0.193800  1.0  -0.1224
  C  C135  1  0.096040  0.287100  0.220400  1.0  -0.0401
  C  C136  1  0.024610  0.309600  0.233500  1.0  -0.0432
  C  C137  1  0.097510  0.217400  0.285900  1.0  -0.0363
  C  C138  1  0.026280  0.240900  0.299100  1.0  -0.0221
  C  C139  1  0.062750  0.192700  0.326090  1.0  -0.1248
  C  C140  1  0.063990  0.118600  0.397240  1.0  0.7317
  C  C141  1  0.326120  0.608600  0.507500  1.0  0.6827
  C  C142  1  0.286710  0.682700  0.503800  1.0  -0.1141
  C  C143  1  0.251000  0.613200  0.503700  1.0  -0.0353
  C  C144  1  0.285330  0.820900  0.503900  1.0  -0.0499
  C  C145  1  0.453300  0.763400  0.538900  1.0  0.6554
  C  C146  1  0.478640  0.883900  0.519100  1.0  -0.1479
  C  C147  1  0.480440  0.993500  0.566700  1.0  -0.0275
  C  C148  1  0.501610  0.109200  0.547900  1.0  -0.0273
  C  C149  1  0.442960  0.408700  0.621870  1.0  0.7129
  C  C150  1  0.440450  0.334100  0.693800  1.0  -0.1226
  C  C151  1  0.403960  0.287100  0.720400  1.0  -0.0431
  C  C152  1  0.475390  0.309600  0.733500  1.0  -0.0437
  C  C153  1  0.402490  0.217400  0.785900  1.0  -0.0376
  C  C154  1  0.473720  0.240900  0.799100  1.0  -0.0228
  C  C155  1  0.437250  0.192700  0.826090  1.0  -0.1235
  C  C156  1  0.436010  0.118600  0.897240  1.0  0.7308
  C  C157  1  0.173880  0.891400  0.507500  1.0  0.6832
  C  C158  1  0.213290  0.817300  0.503800  1.0  -0.1144
  C  C159  1  0.249000  0.886800  0.503700  1.0  -0.0386
  C  C160  1  0.214670  0.679100  0.503900  1.0  -0.049
  C  C161  1  0.046700  0.736600  0.538900  1.0  0.6541
  C  C162  1  0.021360  0.616100  0.519100  1.0  -0.1476
  C  C163  1  0.019560  0.506500  0.566700  1.0  -0.0289
  C  C164  1  0.998390  0.390800  0.547900  1.0  -0.0276
  C  C165  1  0.057040  0.091300  0.621870  1.0  0.7121
  C  C166  1  0.059550  0.165900  0.693800  1.0  -0.1221
  C  C167  1  0.096040  0.212900  0.720400  1.0  -0.0401
  C  C168  1  0.024610  0.190400  0.733500  1.0  -0.0432
  C  C169  1  0.097510  0.282600  0.785900  1.0  -0.0355
  C  C170  1  0.026280  0.259100  0.799100  1.0  -0.0222
  C  C171  1  0.062750  0.307300  0.826090  1.0  -0.1254
  C  C172  1  0.063990  0.381400  0.897240  1.0  0.7318
  C  C173  1  0.673880  0.108600  0.992500  1.0  0.6832
  C  C174  1  0.713290  0.182700  0.996200  1.0  -0.1145
  C  C175  1  0.749000  0.113200  0.996300  1.0  -0.0364
  C  C176  1  0.714670  0.320900  0.996100  1.0  -0.0499
  C  C177  1  0.546700  0.263400  0.961100  1.0  0.654
  C  C178  1  0.521360  0.383900  0.980900  1.0  -0.1476
  C  C179  1  0.519560  0.493500  0.933300  1.0  -0.0286
  C  C180  1  0.498390  0.609200  0.952100  1.0  -0.026
  C  C181  1  0.557040  0.908700  0.878130  1.0  0.7125
  C  C182  1  0.559550  0.834100  0.806200  1.0  -0.1235
  C  C183  1  0.596040  0.787100  0.779600  1.0  -0.0391
  C  C184  1  0.524610  0.809600  0.766500  1.0  -0.0429
  C  C185  1  0.597510  0.717400  0.714100  1.0  -0.0373
  C  C186  1  0.526280  0.740900  0.700900  1.0  -0.022
  C  C187  1  0.562750  0.692700  0.673910  1.0  -0.1246
  C  C188  1  0.563990  0.618600  0.602760  1.0  0.7311
  C  C189  1  0.826120  0.391400  0.992500  1.0  0.6835
  C  C190  1  0.786710  0.317300  0.996200  1.0  -0.1144
  C  C191  1  0.751000  0.386800  0.996300  1.0  -0.0385
  C  C192  1  0.785330  0.179100  0.996100  1.0  -0.0499
  C  C193  1  0.953300  0.236600  0.961100  1.0  0.656
  C  C194  1  0.978640  0.116100  0.980900  1.0  -0.1478
  C  C195  1  0.980440  0.006500  0.933300  1.0  -0.0271
  C  C196  1  0.001610  0.890800  0.952100  1.0  -0.0261
  C  C197  1  0.942960  0.591300  0.878130  1.0  0.7126
  C  C198  1  0.940450  0.665900  0.806200  1.0  -0.1221
  C  C199  1  0.903960  0.712900  0.779600  1.0  -0.0437
  C  C200  1  0.975390  0.690400  0.766500  1.0  -0.0433
  C  C201  1  0.902490  0.782600  0.714100  1.0  -0.0381
  C  C202  1  0.973720  0.759100  0.700900  1.0  -0.0233
  C  C203  1  0.937250  0.807300  0.673910  1.0  -0.1252
  C  C204  1  0.936010  0.881400  0.602760  1.0  0.7311
  O  O205  1  0.642770  0.326400  0.502910  1.0  -0.549
  O  O206  1  0.673470  0.513100  0.478800  1.0  -0.4949
  O  O207  1  0.546500  0.337800  0.507410  1.0  -0.6647
  O  O208  1  0.567360  0.236500  0.405840  1.0  -0.4714
  O  O209  1  0.590300  0.561900  0.407810  1.0  -0.5851
  O  O210  1  0.523080  0.565200  0.402200  1.0  -0.5872
  O  O211  1  0.595420  0.950200  0.089650  1.0  -0.5741
  O  O212  1  0.534850  0.870600  0.060790  1.0  -0.6007
  O  O213  1  0.857230  0.173600  0.502910  1.0  -0.5492
  O  O214  1  0.826530  0.986900  0.478800  1.0  -0.498
  O  O215  1  0.953500  0.162200  0.507410  1.0  -0.6646
  O  O216  1  0.932640  0.263500  0.405840  1.0  -0.4715
  O  O217  1  0.909700  0.938100  0.407810  1.0  -0.5867
  O  O218  1  0.976920  0.934800  0.402200  1.0  -0.5882
  O  O219  1  0.904580  0.549800  0.089650  1.0  -0.5758
  O  O220  1  0.965150  0.629400  0.060790  1.0  -0.6004
  O  O221  1  0.357230  0.826400  0.997090  1.0  -0.5496
  O  O222  1  0.326530  0.013100  0.021200  1.0  -0.4967
  O  O223  1  0.453500  0.837800  0.992590  1.0  -0.6651
  O  O224  1  0.432640  0.736500  0.094160  1.0  -0.4722
  O  O225  1  0.409700  0.061900  0.092190  1.0  -0.5871
  O  O226  1  0.476920  0.065200  0.097800  1.0  -0.5852
  O  O227  1  0.404580  0.450200  0.410350  1.0  -0.5752
  O  O228  1  0.465150  0.370600  0.439210  1.0  -0.6003
  O  O229  1  0.142770  0.673600  0.997090  1.0  -0.5493
  O  O230  1  0.173470  0.486900  0.021200  1.0  -0.4964
  O  O231  1  0.046500  0.662200  0.992590  1.0  -0.6662
  O  O232  1  0.067360  0.763500  0.094160  1.0  -0.4739
  O  O233  1  0.090300  0.438100  0.092190  1.0  -0.5851
  O  O234  1  0.023080  0.434800  0.097800  1.0  -0.5841
  O  O235  1  0.095420  0.049800  0.410350  1.0  -0.5751
  O  O236  1  0.034850  0.129400  0.439210  1.0  -0.601
  O  O237  1  0.357230  0.673600  0.497090  1.0  -0.5502
  O  O238  1  0.326530  0.486900  0.521200  1.0  -0.4976
  O  O239  1  0.453500  0.662200  0.492590  1.0  -0.6663
  O  O240  1  0.432640  0.763500  0.594160  1.0  -0.4734
  O  O241  1  0.409700  0.438100  0.592190  1.0  -0.5869
  O  O242  1  0.476920  0.434800  0.597800  1.0  -0.5872
  O  O243  1  0.404580  0.049800  0.910350  1.0  -0.5757
  O  O244  1  0.465150  0.129400  0.939210  1.0  -0.6007
  O  O245  1  0.142770  0.826400  0.497090  1.0  -0.5496
  O  O246  1  0.173470  0.013100  0.521200  1.0  -0.4944
  O  O247  1  0.046500  0.837800  0.492590  1.0  -0.6655
  O  O248  1  0.067360  0.736500  0.594160  1.0  -0.4736
  O  O249  1  0.090300  0.061900  0.592190  1.0  -0.585
  O  O250  1  0.023080  0.065200  0.597800  1.0  -0.5859
  O  O251  1  0.095420  0.450200  0.910350  1.0  -0.5745
  O  O252  1  0.034850  0.370600  0.939210  1.0  -0.6007
  O  O253  1  0.642770  0.173600  0.002910  1.0  -0.5481
  O  O254  1  0.673470  0.986900  0.978800  1.0  -0.4966
  O  O255  1  0.546500  0.162200  0.007410  1.0  -0.6653
  O  O256  1  0.567360  0.263500  0.905840  1.0  -0.4711
  O  O257  1  0.590300  0.938100  0.907810  1.0  -0.5851
  O  O258  1  0.523080  0.934800  0.902200  1.0  -0.5853
  O  O259  1  0.595420  0.549800  0.589650  1.0  -0.5742
  O  O260  1  0.534850  0.629400  0.560790  1.0  -0.6006
  O  O261  1  0.857230  0.326400  0.002910  1.0  -0.5492
  O  O262  1  0.826530  0.513100  0.978800  1.0  -0.4974
  O  O263  1  0.953500  0.337800  0.007410  1.0  -0.6638
  O  O264  1  0.932640  0.236500  0.905840  1.0  -0.4713
  O  O265  1  0.909700  0.561900  0.907810  1.0  -0.5865
  O  O266  1  0.976920  0.565200  0.902200  1.0  -0.5866
  O  O267  1  0.904580  0.950200  0.589650  1.0  -0.5751
  O  O268  1  0.965150  0.870600  0.560790  1.0  -0.6004
