# generated using pymatgen
data_NiHC4O3
_symmetry_space_group_name_H-M   'P 1'
_cell_length_a   25.85610000
_cell_length_b   25.85610000
_cell_length_c   6.71190000
_cell_angle_alpha   90.00000000
_cell_angle_beta   90.00000000
_cell_angle_gamma   120.00000000
_symmetry_Int_Tables_number   1
_chemical_formula_structural   NiHC4O3
_chemical_formula_sum   'Ni18 H18 C72 O54'
_cell_volume   3885.99418660
_cell_formula_units_Z   18
loop_
 _symmetry_equiv_pos_site_id
 _symmetry_equiv_pos_as_xyz
  1  'x, y, z'
loop_
 _atom_site_type_symbol
 _atom_site_label
 _atom_site_symmetry_multiplicity
 _atom_site_fract_x
 _atom_site_fract_y
 _atom_site_fract_z
 _atom_site_occupancy
 _atom_site_charge
  Ni  Ni1  1  0.383770  0.348870  0.144530  1.0  0.89
  Ni  Ni2  1  0.050440  0.682200  0.477860  1.0  0.8907
  Ni  Ni3  1  0.717100  0.015540  0.811200  1.0  0.8902
  Ni  Ni4  1  0.651130  0.034900  0.144530  1.0  0.8949
  Ni  Ni5  1  0.317800  0.368230  0.477860  1.0  0.8937
  Ni  Ni6  1  0.984460  0.701570  0.811200  1.0  0.8947
  Ni  Ni7  1  0.965100  0.616230  0.144530  1.0  0.8898
  Ni  Ni8  1  0.631770  0.949560  0.477860  1.0  0.8922
  Ni  Ni9  1  0.298430  0.282900  0.811200  1.0  0.8898
  Ni  Ni10  1  0.616230  0.651130  0.855470  1.0  0.8902
  Ni  Ni11  1  0.282900  0.984460  0.188800  1.0  0.8904
  Ni  Ni12  1  0.949560  0.317800  0.522140  1.0  0.8906
  Ni  Ni13  1  0.348870  0.965100  0.855470  1.0  0.8904
  Ni  Ni14  1  0.015540  0.298430  0.188800  1.0  0.8906
  Ni  Ni15  1  0.682200  0.631770  0.522140  1.0  0.889
  Ni  Ni16  1  0.034900  0.383770  0.855470  1.0  0.8954
  Ni  Ni17  1  0.701570  0.717100  0.188800  1.0  0.8954
  Ni  Ni18  1  0.368230  0.050440  0.522140  1.0  0.897
  H  H19  1  0.356100  0.190090  0.809110  1.0  0.1354
  H  H20  1  0.022770  0.523420  0.142440  1.0  0.1374
  H  H21  1  0.689430  0.856760  0.475780  1.0  0.1334
  H  H22  1  0.809910  0.166010  0.809110  1.0  0.1343
  H  H23  1  0.476580  0.499340  0.142440  1.0  0.1331
  H  H24  1  0.143240  0.832680  0.475780  1.0  0.1326
  H  H25  1  0.833990  0.643900  0.809110  1.0  0.1331
  H  H26  1  0.500660  0.977230  0.142440  1.0  0.1345
  H  H27  1  0.167320  0.310570  0.475780  1.0  0.134
  H  H28  1  0.643900  0.809910  0.190890  1.0  0.1357
  H  H29  1  0.310570  0.143240  0.524220  1.0  0.1339
  H  H30  1  0.977230  0.476580  0.857560  1.0  0.1376
  H  H31  1  0.190090  0.833990  0.190890  1.0  0.1345
  H  H32  1  0.856760  0.167320  0.524220  1.0  0.1325
  H  H33  1  0.523420  0.500660  0.857560  1.0  0.1331
  H  H34  1  0.166010  0.356100  0.190890  1.0  0.133
  H  H35  1  0.832680  0.689430  0.524220  1.0  0.1339
  H  H36  1  0.499340  0.022770  0.857560  1.0  0.1349
  C  C37  1  0.323250  0.204450  0.287770  1.0  -0.1176
  C  C38  1  0.336070  0.217630  0.086520  1.0  0.3239
  C  C39  1  0.346150  0.179850  0.965420  1.0  -0.0676
  C  C40  1  0.312410  0.245080  0.418010  1.0  0.7365
  C  C41  1  0.989920  0.537780  0.621100  1.0  -0.1206
  C  C42  1  0.002740  0.550960  0.419850  1.0  0.3275
  C  C43  1  0.012820  0.513180  0.298750  1.0  -0.0696
  C  C44  1  0.979080  0.578410  0.751340  1.0  0.7365
  C  C45  1  0.656580  0.871120  0.954440  1.0  -0.1175
  C  C46  1  0.669400  0.884300  0.753190  1.0  0.3239
  C  C47  1  0.679480  0.846520  0.632090  1.0  -0.0676
  C  C48  1  0.645740  0.911750  0.084680  1.0  0.7366
  C  C49  1  0.795550  0.118800  0.287770  1.0  -0.1194
  C  C50  1  0.782370  0.118440  0.086520  1.0  0.3272
  C  C51  1  0.820150  0.166300  0.965420  1.0  -0.0702
  C  C52  1  0.754920  0.067330  0.418010  1.0  0.7371
  C  C53  1  0.462220  0.452130  0.621100  1.0  -0.1177
  C  C54  1  0.449040  0.451770  0.419850  1.0  0.3293
  C  C55  1  0.486820  0.499630  0.298750  1.0  -0.0643
  C  C56  1  0.421590  0.400660  0.751340  1.0  0.7371
  C  C57  1  0.128880  0.785470  0.954440  1.0  -0.1196
  C  C58  1  0.115700  0.785110  0.753190  1.0  0.3272
  C  C59  1  0.153480  0.832970  0.632090  1.0  -0.0702
  C  C60  1  0.088250  0.734000  0.084680  1.0  0.7369
  C  C61  1  0.881200  0.676750  0.287770  1.0  -0.1181
  C  C62  1  0.881560  0.663930  0.086520  1.0  0.3207
  C  C63  1  0.833700  0.653850  0.965420  1.0  -0.0634
  C  C64  1  0.932670  0.687590  0.418010  1.0  0.7342
  C  C65  1  0.547870  0.010080  0.621100  1.0  -0.1155
  C  C66  1  0.548230  0.997260  0.419850  1.0  0.3245
  C  C67  1  0.500370  0.987180  0.298750  1.0  -0.0646
  C  C68  1  0.599340  0.020920  0.751340  1.0  0.7342
  C  C69  1  0.214530  0.343420  0.954440  1.0  -0.118
  C  C70  1  0.214890  0.330600  0.753190  1.0  0.3205
  C  C71  1  0.167030  0.320520  0.632090  1.0  -0.0634
  C  C72  1  0.266000  0.354260  0.084680  1.0  0.7342
  C  C73  1  0.676750  0.795550  0.712230  1.0  -0.1173
  C  C74  1  0.663930  0.782370  0.913480  1.0  0.3255
  C  C75  1  0.653850  0.820150  0.034580  1.0  -0.0679
  C  C76  1  0.687590  0.754920  0.581990  1.0  0.7354
  C  C77  1  0.343420  0.128880  0.045560  1.0  -0.1172
  C  C78  1  0.330600  0.115700  0.246810  1.0  0.3254
  C  C79  1  0.320520  0.153480  0.367910  1.0  -0.0679
  C  C80  1  0.354260  0.088250  0.915320  1.0  0.7355
  C  C81  1  0.010080  0.462220  0.378900  1.0  -0.1211
  C  C82  1  0.997260  0.449040  0.580150  1.0  0.329
  C  C83  1  0.987180  0.486820  0.701250  1.0  -0.0697
  C  C84  1  0.020920  0.421590  0.248660  1.0  0.7354
  C  C85  1  0.204450  0.881200  0.712230  1.0  -0.1197
  C  C86  1  0.217630  0.881560  0.913480  1.0  0.3279
  C  C87  1  0.179850  0.833700  0.034580  1.0  -0.0694
  C  C88  1  0.245080  0.932670  0.581990  1.0  0.7376
  C  C89  1  0.871120  0.214530  0.045560  1.0  -0.1198
  C  C90  1  0.884300  0.214890  0.246810  1.0  0.3279
  C  C91  1  0.846520  0.167030  0.367910  1.0  -0.0694
  C  C92  1  0.911750  0.266000  0.915320  1.0  0.7374
  C  C93  1  0.537780  0.547870  0.378900  1.0  -0.1174
  C  C94  1  0.550960  0.548230  0.580150  1.0  0.3301
  C  C95  1  0.513180  0.500370  0.701250  1.0  -0.0636
  C  C96  1  0.578410  0.599340  0.248660  1.0  0.7376
  C  C97  1  0.118800  0.323250  0.712230  1.0  -0.118
  C  C98  1  0.118440  0.336070  0.913480  1.0  0.3201
  C  C99  1  0.166300  0.346150  0.034580  1.0  -0.0631
  C  C100  1  0.067330  0.312410  0.581990  1.0  0.7349
  C  C101  1  0.785470  0.656580  0.045560  1.0  -0.118
  C  C102  1  0.785110  0.669400  0.246810  1.0  0.32
  C  C103  1  0.832970  0.679480  0.367910  1.0  -0.0631
  C  C104  1  0.734000  0.645740  0.915320  1.0  0.7349
  C  C105  1  0.452130  0.989920  0.378900  1.0  -0.1154
  C  C106  1  0.451770  0.002740  0.580150  1.0  0.3244
  C  C107  1  0.499630  0.012820  0.701250  1.0  -0.064
  C  C108  1  0.400660  0.979080  0.248660  1.0  0.7349
  O  O109  1  0.314880  0.291030  0.345800  1.0  -0.664
  O  O110  1  0.300860  0.233200  0.599460  1.0  -0.5936
  O  O111  1  0.338720  0.266990  0.008900  1.0  -0.646
  O  O112  1  0.981550  0.624360  0.679130  1.0  -0.664
  O  O113  1  0.967530  0.566530  0.932790  1.0  -0.594
  O  O114  1  0.005390  0.600320  0.342230  1.0  -0.6459
  O  O115  1  0.648210  0.957700  0.012470  1.0  -0.664
  O  O116  1  0.634190  0.899870  0.266130  1.0  -0.5934
  O  O117  1  0.672050  0.933660  0.675570  1.0  -0.6457
  O  O118  1  0.708970  0.023850  0.345800  1.0  -0.665
  O  O119  1  0.766800  0.067660  0.599460  1.0  -0.5905
  O  O120  1  0.733010  0.071730  0.008900  1.0  -0.6455
  O  O121  1  0.375640  0.357180  0.679130  1.0  -0.665
  O  O122  1  0.433470  0.400990  0.932790  1.0  -0.5905
  O  O123  1  0.399680  0.405060  0.342230  1.0  -0.6456
  O  O124  1  0.042300  0.690520  0.012470  1.0  -0.665
  O  O125  1  0.100130  0.734330  0.266130  1.0  -0.5936
  O  O126  1  0.066340  0.738400  0.675570  1.0  -0.6456
  O  O127  1  0.976150  0.685120  0.345800  1.0  -0.6637
  O  O128  1  0.932340  0.699140  0.599460  1.0  -0.5949
  O  O129  1  0.928270  0.661280  0.008900  1.0  -0.6456
  O  O130  1  0.642820  0.018450  0.679130  1.0  -0.6637
  O  O131  1  0.599010  0.032470  0.932790  1.0  -0.5949
  O  O132  1  0.594940  0.994610  0.342230  1.0  -0.6456
  O  O133  1  0.309480  0.351790  0.012470  1.0  -0.6639
  O  O134  1  0.265670  0.365810  0.266130  1.0  -0.5916
  O  O135  1  0.261600  0.327950  0.675570  1.0  -0.6458
  O  O136  1  0.685120  0.708970  0.654200  1.0  -0.6641
  O  O137  1  0.699140  0.766800  0.400540  1.0  -0.5938
  O  O138  1  0.661280  0.733010  0.991100  1.0  -0.6448
  O  O139  1  0.351790  0.042300  0.987530  1.0  -0.6641
  O  O140  1  0.365810  0.100130  0.733870  1.0  -0.5938
  O  O141  1  0.327950  0.066340  0.324430  1.0  -0.6446
  O  O142  1  0.018450  0.375640  0.320870  1.0  -0.6642
  O  O143  1  0.032470  0.433470  0.067210  1.0  -0.594
  O  O144  1  0.994610  0.399680  0.657770  1.0  -0.6448
  O  O145  1  0.291030  0.976150  0.654200  1.0  -0.6653
  O  O146  1  0.233200  0.932340  0.400540  1.0  -0.5907
  O  O147  1  0.266990  0.928270  0.991100  1.0  -0.6448
  O  O148  1  0.957700  0.309480  0.987530  1.0  -0.6653
  O  O149  1  0.899870  0.265670  0.733870  1.0  -0.5935
  O  O150  1  0.933660  0.261600  0.324430  1.0  -0.6449
  O  O151  1  0.624360  0.642820  0.320870  1.0  -0.6653
  O  O152  1  0.566530  0.599010  0.067210  1.0  -0.5903
  O  O153  1  0.600320  0.594940  0.657770  1.0  -0.6449
  O  O154  1  0.023850  0.314880  0.654200  1.0  -0.6637
  O  O155  1  0.067660  0.300860  0.400540  1.0  -0.5938
  O  O156  1  0.071730  0.338720  0.991100  1.0  -0.646
  O  O157  1  0.690520  0.648210  0.987530  1.0  -0.6639
  O  O158  1  0.734330  0.634190  0.733870  1.0  -0.5903
  O  O159  1  0.738400  0.672050  0.324430  1.0  -0.6462
  O  O160  1  0.357180  0.981550  0.320870  1.0  -0.6637
  O  O161  1  0.400990  0.967530  0.067210  1.0  -0.5934
  O  O162  1  0.405060  0.005390  0.657770  1.0  -0.646
