# generated using pymatgen
data_ZnHC4O3
_symmetry_space_group_name_H-M   'P 1'
_cell_length_a   26.17900000
_cell_length_b   26.17900000
_cell_length_c   6.65200000
_cell_angle_alpha   90.00000000
_cell_angle_beta   90.00000000
_cell_angle_gamma   120.00000000
_symmetry_Int_Tables_number   1
_chemical_formula_structural   ZnHC4O3
_chemical_formula_sum   'Zn18 H18 C72 O54'
_cell_volume   3948.10758392
_cell_formula_units_Z   18
loop_
 _symmetry_equiv_pos_site_id
 _symmetry_equiv_pos_as_xyz
  1  'x, y, z'
loop_
 _atom_site_type_symbol
 _atom_site_label
 _atom_site_symmetry_multiplicity
 _atom_site_fract_x
 _atom_site_fract_y
 _atom_site_fract_z
 _atom_site_occupancy
 _atom_site_charge
  Zn  Zn1  1  0.387900  0.350680  0.152110  1.0  0.976
  Zn  Zn2  1  0.054570  0.684010  0.485440  1.0  0.9763
  Zn  Zn3  1  0.721230  0.017350  0.818780  1.0  0.9755
  Zn  Zn4  1  0.649320  0.037220  0.152110  1.0  0.9751
  Zn  Zn5  1  0.315990  0.370550  0.485440  1.0  0.975
  Zn  Zn6  1  0.982650  0.703890  0.818780  1.0  0.9751
  Zn  Zn7  1  0.962780  0.612100  0.152110  1.0  0.9742
  Zn  Zn8  1  0.629450  0.945430  0.485440  1.0  0.9738
  Zn  Zn9  1  0.296110  0.278770  0.818780  1.0  0.9742
  Zn  Zn10  1  0.612100  0.649320  0.847890  1.0  0.9754
  Zn  Zn11  1  0.278770  0.982650  0.181220  1.0  0.9749
  Zn  Zn12  1  0.945430  0.315990  0.514560  1.0  0.9757
  Zn  Zn13  1  0.350680  0.962780  0.847890  1.0  0.976
  Zn  Zn14  1  0.017350  0.296110  0.181220  1.0  0.976
  Zn  Zn15  1  0.684010  0.629450  0.514560  1.0  0.976
  Zn  Zn16  1  0.037220  0.387900  0.847890  1.0  0.9764
  Zn  Zn17  1  0.703890  0.721230  0.181220  1.0  0.9764
  Zn  Zn18  1  0.370550  0.054570  0.514560  1.0  0.9761
  H  H19  1  0.368890  0.196050  0.818170  1.0  0.1371
  H  H20  1  0.035560  0.529380  0.151500  1.0  0.1377
  H  H21  1  0.702220  0.862720  0.484840  1.0  0.1393
  H  H22  1  0.803950  0.172840  0.818170  1.0  0.139
  H  H23  1  0.470620  0.506170  0.151500  1.0  0.139
  H  H24  1  0.137280  0.839510  0.484840  1.0  0.1385
  H  H25  1  0.827160  0.631110  0.818170  1.0  0.1392
  H  H26  1  0.493830  0.964440  0.151500  1.0  0.1391
  H  H27  1  0.160490  0.297780  0.484840  1.0  0.1392
  H  H28  1  0.631110  0.803950  0.181830  1.0  0.1374
  H  H29  1  0.297780  0.137280  0.515160  1.0  0.1396
  H  H30  1  0.964440  0.470620  0.848500  1.0  0.1381
  H  H31  1  0.196050  0.827160  0.181830  1.0  0.1388
  H  H32  1  0.862720  0.160490  0.515160  1.0  0.1387
  H  H33  1  0.529380  0.493830  0.848500  1.0  0.1387
  H  H34  1  0.172840  0.368890  0.181830  1.0  0.1397
  H  H35  1  0.839510  0.702220  0.515160  1.0  0.1397
  H  H36  1  0.506170  0.035560  0.848500  1.0  0.1397
  C  C37  1  0.322900  0.203860  0.287790  1.0  -0.1774
  C  C38  1  0.342910  0.220400  0.091640  1.0  0.3128
  C  C39  1  0.353350  0.183200  0.970520  1.0  -0.0971
  C  C40  1  0.311680  0.243860  0.418050  1.0  0.7096
  C  C41  1  0.989570  0.537190  0.621120  1.0  -0.1814
  C  C42  1  0.009580  0.553730  0.424970  1.0  0.3024
  C  C43  1  0.020020  0.516530  0.303850  1.0  -0.0943
  C  C44  1  0.978350  0.577190  0.751380  1.0  0.7096
  C  C45  1  0.656230  0.870530  0.954460  1.0  -0.1774
  C  C46  1  0.676240  0.887070  0.758310  1.0  0.3128
  C  C47  1  0.686680  0.849870  0.637190  1.0  -0.0971
  C  C48  1  0.645010  0.910530  0.084720  1.0  0.7096
  C  C49  1  0.796140  0.119040  0.287790  1.0  -0.1783
  C  C50  1  0.779600  0.122510  0.091640  1.0  0.3126
  C  C51  1  0.816800  0.170150  0.970520  1.0  -0.0905
  C  C52  1  0.756140  0.067820  0.418050  1.0  0.7092
  C  C53  1  0.462810  0.452370  0.621120  1.0  -0.1787
  C  C54  1  0.446270  0.455840  0.424970  1.0  0.3063
  C  C55  1  0.483470  0.503480  0.303850  1.0  -0.0961
  C  C56  1  0.422810  0.401150  0.751380  1.0  0.7092
  C  C57  1  0.129470  0.785710  0.954460  1.0  -0.1783
  C  C58  1  0.112930  0.789180  0.758310  1.0  0.3126
  C  C59  1  0.150130  0.836820  0.637190  1.0  -0.0905
  C  C60  1  0.089470  0.734490  0.084720  1.0  0.7091
  C  C61  1  0.880960  0.677100  0.287790  1.0  -0.1788
  C  C62  1  0.877490  0.657090  0.091640  1.0  0.3137
  C  C63  1  0.829850  0.646650  0.970520  1.0  -0.0901
  C  C64  1  0.932180  0.688320  0.418050  1.0  0.7073
  C  C65  1  0.547630  0.010430  0.621120  1.0  -0.1789
  C  C66  1  0.544160  0.990420  0.424970  1.0  0.3133
  C  C67  1  0.496520  0.979980  0.303850  1.0  -0.0904
  C  C68  1  0.598850  0.021650  0.751380  1.0  0.7073
  C  C69  1  0.214290  0.343770  0.954460  1.0  -0.1788
  C  C70  1  0.210820  0.323760  0.758310  1.0  0.3136
  C  C71  1  0.163180  0.313320  0.637190  1.0  -0.0901
  C  C72  1  0.265510  0.354990  0.084720  1.0  0.7073
  C  C73  1  0.677100  0.796140  0.712210  1.0  -0.1777
  C  C74  1  0.657090  0.779600  0.908360  1.0  0.3133
  C  C75  1  0.646650  0.816800  0.029480  1.0  -0.0973
  C  C76  1  0.688320  0.756140  0.581950  1.0  0.7085
  C  C77  1  0.343770  0.129470  0.045540  1.0  -0.1777
  C  C78  1  0.323760  0.112930  0.241690  1.0  0.3133
  C  C79  1  0.313320  0.150130  0.362810  1.0  -0.0973
  C  C80  1  0.354990  0.089470  0.915280  1.0  0.7085
  C  C81  1  0.010430  0.462810  0.378880  1.0  -0.182
  C  C82  1  0.990420  0.446270  0.575030  1.0  0.3036
  C  C83  1  0.979980  0.483470  0.696150  1.0  -0.0942
  C  C84  1  0.021650  0.422810  0.248620  1.0  0.7085
  C  C85  1  0.203860  0.880960  0.712210  1.0  -0.177
  C  C86  1  0.220400  0.877490  0.908360  1.0  0.313
  C  C87  1  0.183200  0.829850  0.029480  1.0  -0.0916
  C  C88  1  0.243860  0.932180  0.581950  1.0  0.7088
  C  C89  1  0.870530  0.214290  0.045540  1.0  -0.177
  C  C90  1  0.887070  0.210820  0.241690  1.0  0.313
  C  C91  1  0.849870  0.163180  0.362810  1.0  -0.0916
  C  C92  1  0.910530  0.265510  0.915280  1.0  0.7088
  C  C93  1  0.537190  0.547630  0.378880  1.0  -0.1776
  C  C94  1  0.553730  0.544160  0.575030  1.0  0.3068
  C  C95  1  0.516530  0.496520  0.696150  1.0  -0.0967
  C  C96  1  0.577190  0.598850  0.248620  1.0  0.7088
  C  C97  1  0.119040  0.322900  0.712210  1.0  -0.178
  C  C98  1  0.122510  0.342910  0.908360  1.0  0.3131
  C  C99  1  0.170150  0.353350  0.029480  1.0  -0.0916
  C  C100  1  0.067820  0.311680  0.581950  1.0  0.7064
  C  C101  1  0.785710  0.656230  0.045540  1.0  -0.178
  C  C102  1  0.789180  0.676240  0.241690  1.0  0.3131
  C  C103  1  0.836820  0.686680  0.362810  1.0  -0.0916
  C  C104  1  0.734490  0.645010  0.915280  1.0  0.7064
  C  C105  1  0.452370  0.989570  0.378880  1.0  -0.178
  C  C106  1  0.455840  0.009580  0.575030  1.0  0.3126
  C  C107  1  0.503480  0.020020  0.696150  1.0  -0.0919
  C  C108  1  0.401150  0.978350  0.248620  1.0  0.7063
  O  O109  1  0.320320  0.292300  0.350400  1.0  -0.646
  O  O110  1  0.293640  0.228950  0.594900  1.0  -0.5955
  O  O111  1  0.352200  0.272430  0.019000  1.0  -0.6187
  O  O112  1  0.986990  0.625630  0.683730  1.0  -0.6462
  O  O113  1  0.960310  0.562280  0.928230  1.0  -0.5955
  O  O114  1  0.018870  0.605760  0.352330  1.0  -0.6188
  O  O115  1  0.653650  0.958970  0.017070  1.0  -0.646
  O  O116  1  0.626970  0.895620  0.261570  1.0  -0.5955
  O  O117  1  0.685530  0.939100  0.685670  1.0  -0.6186
  O  O118  1  0.707700  0.028020  0.350400  1.0  -0.6486
  O  O119  1  0.771050  0.064690  0.594900  1.0  -0.5942
  O  O120  1  0.727570  0.079770  0.019000  1.0  -0.6193
  O  O121  1  0.374370  0.361350  0.683730  1.0  -0.6486
  O  O122  1  0.437720  0.398020  0.928230  1.0  -0.5942
  O  O123  1  0.394240  0.413100  0.352330  1.0  -0.619
  O  O124  1  0.041030  0.694690  0.017070  1.0  -0.6486
  O  O125  1  0.104380  0.731360  0.261570  1.0  -0.5942
  O  O126  1  0.060900  0.746440  0.685670  1.0  -0.6195
  O  O127  1  0.971980  0.679680  0.350400  1.0  -0.6473
  O  O128  1  0.935310  0.706360  0.594900  1.0  -0.5971
  O  O129  1  0.920230  0.647800  0.019000  1.0  -0.6193
  O  O130  1  0.638650  0.013010  0.683730  1.0  -0.6473
  O  O131  1  0.601980  0.039690  0.928230  1.0  -0.5971
  O  O132  1  0.586900  0.981130  0.352330  1.0  -0.6195
  O  O133  1  0.305310  0.346350  0.017070  1.0  -0.6476
  O  O134  1  0.268640  0.373030  0.261570  1.0  -0.5972
  O  O135  1  0.253560  0.314470  0.685670  1.0  -0.6193
  O  O136  1  0.679680  0.707700  0.649600  1.0  -0.6463
  O  O137  1  0.706360  0.771050  0.405100  1.0  -0.5972
  O  O138  1  0.647800  0.727570  0.981000  1.0  -0.6198
  O  O139  1  0.346350  0.041030  0.982930  1.0  -0.6463
  O  O140  1  0.373030  0.104380  0.738430  1.0  -0.5972
  O  O141  1  0.314470  0.060900  0.314330  1.0  -0.6196
  O  O142  1  0.013010  0.374370  0.316270  1.0  -0.6465
  O  O143  1  0.039690  0.437720  0.071770  1.0  -0.5972
  O  O144  1  0.981130  0.394240  0.647670  1.0  -0.6199
  O  O145  1  0.292300  0.971980  0.649600  1.0  -0.6485
  O  O146  1  0.228950  0.935310  0.405100  1.0  -0.5947
  O  O147  1  0.272430  0.920230  0.981000  1.0  -0.6178
  O  O148  1  0.958970  0.305310  0.982930  1.0  -0.6485
  O  O149  1  0.895620  0.268640  0.738430  1.0  -0.5948
  O  O150  1  0.939100  0.253560  0.314330  1.0  -0.618
  O  O151  1  0.625630  0.638650  0.316270  1.0  -0.6485
  O  O152  1  0.562280  0.601980  0.071770  1.0  -0.5948
  O  O153  1  0.605760  0.586900  0.647670  1.0  -0.6176
  O  O154  1  0.028020  0.320320  0.649600  1.0  -0.6463
  O  O155  1  0.064690  0.293640  0.405100  1.0  -0.5962
  O  O156  1  0.079770  0.352200  0.981000  1.0  -0.619
  O  O157  1  0.694690  0.653650  0.982930  1.0  -0.6466
  O  O158  1  0.731360  0.626970  0.738430  1.0  -0.5961
  O  O159  1  0.746440  0.685530  0.314330  1.0  -0.619
  O  O160  1  0.361350  0.986990  0.316270  1.0  -0.6463
  O  O161  1  0.398020  0.960310  0.071770  1.0  -0.5962
  O  O162  1  0.413100  0.018870  0.647670  1.0  -0.6192
