# generated using pymatgen
data_CoHC4O3
_symmetry_space_group_name_H-M   'P 1'
_cell_length_a   26.13170000
_cell_length_b   26.13170000
_cell_length_c   6.72200000
_cell_angle_alpha   90.00000000
_cell_angle_beta   90.00000000
_cell_angle_gamma   120.00000000
_symmetry_Int_Tables_number   1
_chemical_formula_structural   CoHC4O3
_chemical_formula_sum   'Co18 H18 C72 O54'
_cell_volume   3975.25019222
_cell_formula_units_Z   18
loop_
 _symmetry_equiv_pos_site_id
 _symmetry_equiv_pos_as_xyz
  1  'x, y, z'
loop_
 _atom_site_type_symbol
 _atom_site_label
 _atom_site_symmetry_multiplicity
 _atom_site_fract_x
 _atom_site_fract_y
 _atom_site_fract_z
 _atom_site_occupancy
 _atom_site_charge
  Co  Co1  1  0.384960  0.349260  0.150080  1.0  0.9779
  Co  Co2  1  0.051630  0.682590  0.483410  1.0  0.9785
  Co  Co3  1  0.718290  0.015930  0.816750  1.0  0.9778
  Co  Co4  1  0.650740  0.035700  0.150080  1.0  0.9787
  Co  Co5  1  0.317410  0.369030  0.483410  1.0  0.9788
  Co  Co6  1  0.984070  0.702370  0.816750  1.0  0.9786
  Co  Co7  1  0.964300  0.615040  0.150080  1.0  0.9775
  Co  Co8  1  0.630970  0.948370  0.483410  1.0  0.9773
  Co  Co9  1  0.297630  0.281710  0.816750  1.0  0.9773
  Co  Co10  1  0.615040  0.650740  0.849920  1.0  0.9775
  Co  Co11  1  0.281710  0.984070  0.183250  1.0  0.9775
  Co  Co12  1  0.948370  0.317410  0.516590  1.0  0.9779
  Co  Co13  1  0.349260  0.964300  0.849920  1.0  0.9772
  Co  Co14  1  0.015930  0.297630  0.183250  1.0  0.9772
  Co  Co15  1  0.682590  0.630970  0.516590  1.0  0.9774
  Co  Co16  1  0.035700  0.384960  0.849920  1.0  0.9758
  Co  Co17  1  0.702370  0.718290  0.183250  1.0  0.9757
  Co  Co18  1  0.369030  0.051630  0.516590  1.0  0.9757
  H  H19  1  0.359800  0.188000  0.811100  1.0  0.1298
  H  H20  1  0.026470  0.521330  0.144430  1.0  0.1298
  H  H21  1  0.693130  0.854670  0.477770  1.0  0.133
  H  H22  1  0.812000  0.171800  0.811100  1.0  0.1302
  H  H23  1  0.478670  0.505130  0.144430  1.0  0.131
  H  H24  1  0.145330  0.838470  0.477770  1.0  0.1323
  H  H25  1  0.828200  0.640200  0.811100  1.0  0.1311
  H  H26  1  0.494870  0.973530  0.144430  1.0  0.1318
  H  H27  1  0.161530  0.306870  0.477770  1.0  0.1312
  H  H28  1  0.640200  0.812000  0.188900  1.0  0.1296
  H  H29  1  0.306870  0.145330  0.522230  1.0  0.133
  H  H30  1  0.973530  0.478670  0.855570  1.0  0.1295
  H  H31  1  0.188000  0.828200  0.188900  1.0  0.1295
  H  H32  1  0.854670  0.161530  0.522230  1.0  0.1319
  H  H33  1  0.521330  0.494870  0.855570  1.0  0.1305
  H  H34  1  0.171800  0.359800  0.188900  1.0  0.1303
  H  H35  1  0.838470  0.693130  0.522230  1.0  0.1305
  H  H36  1  0.505130  0.026470  0.855570  1.0  0.131
  C  C37  1  0.329260  0.208140  0.285400  1.0  -0.2056
  C  C38  1  0.344150  0.220150  0.085200  1.0  0.3225
  C  C39  1  0.348220  0.178670  0.966540  1.0  -0.1127
  C  C40  1  0.313920  0.245620  0.423000  1.0  0.7693
  C  C41  1  0.995930  0.541470  0.618730  1.0  -0.1995
  C  C42  1  0.010820  0.553480  0.418530  1.0  0.3152
  C  C43  1  0.014890  0.512000  0.299870  1.0  -0.1075
  C  C44  1  0.980590  0.578950  0.756330  1.0  0.7693
  C  C45  1  0.662590  0.874810  0.952070  1.0  -0.2057
  C  C46  1  0.677480  0.886820  0.751870  1.0  0.3322
  C  C47  1  0.681550  0.845340  0.633210  1.0  -0.1127
  C  C48  1  0.647250  0.912290  0.089670  1.0  0.7693
  C  C49  1  0.791860  0.121120  0.285400  1.0  -0.1968
  C  C50  1  0.779850  0.124000  0.085200  1.0  0.3232
  C  C51  1  0.821330  0.169550  0.966540  1.0  -0.1129
  C  C52  1  0.754380  0.068300  0.423000  1.0  0.7708
  C  C53  1  0.458530  0.454450  0.618730  1.0  -0.1996
  C  C54  1  0.446520  0.457330  0.418530  1.0  0.3312
  C  C55  1  0.488000  0.502880  0.299870  1.0  -0.1151
  C  C56  1  0.421050  0.401630  0.756330  1.0  0.7708
  C  C57  1  0.125190  0.787790  0.952070  1.0  -0.1968
  C  C58  1  0.113180  0.790670  0.751870  1.0  0.3303
  C  C59  1  0.154660  0.836220  0.633210  1.0  -0.1129
  C  C60  1  0.087710  0.734970  0.089670  1.0  0.7708
  C  C61  1  0.878880  0.670740  0.285400  1.0  -0.2049
  C  C62  1  0.876000  0.655850  0.085200  1.0  0.332
  C  C63  1  0.830450  0.651780  0.966540  1.0  -0.1099
  C  C64  1  0.931700  0.686080  0.423000  1.0  0.7695
  C  C65  1  0.545550  0.004070  0.618730  1.0  -0.1953
  C  C66  1  0.542670  0.989180  0.418530  1.0  0.3211
  C  C67  1  0.497120  0.985110  0.299870  1.0  -0.1116
  C  C68  1  0.598370  0.019410  0.756330  1.0  0.7695
  C  C69  1  0.212210  0.337410  0.952070  1.0  -0.2054
  C  C70  1  0.209330  0.322520  0.751870  1.0  0.3365
  C  C71  1  0.163780  0.318450  0.633210  1.0  -0.1099
  C  C72  1  0.265030  0.352750  0.089670  1.0  0.7695
  C  C73  1  0.670740  0.791860  0.714600  1.0  -0.2061
  C  C74  1  0.655850  0.779850  0.914800  1.0  0.3223
  C  C75  1  0.651780  0.821330  0.033460  1.0  -0.1144
  C  C76  1  0.686080  0.754380  0.577000  1.0  0.7698
  C  C77  1  0.337410  0.125190  0.047930  1.0  -0.2061
  C  C78  1  0.322520  0.113180  0.248130  1.0  0.3329
  C  C79  1  0.318450  0.154660  0.366790  1.0  -0.1144
  C  C80  1  0.352750  0.087710  0.910330  1.0  0.7698
  C  C81  1  0.004070  0.458530  0.381270  1.0  -0.1994
  C  C82  1  0.989180  0.446520  0.581470  1.0  0.3157
  C  C83  1  0.985110  0.488000  0.700130  1.0  -0.1086
  C  C84  1  0.019410  0.421050  0.243670  1.0  0.7698
  C  C85  1  0.208140  0.878880  0.714600  1.0  -0.1959
  C  C86  1  0.220150  0.876000  0.914800  1.0  0.3232
  C  C87  1  0.178670  0.830450  0.033460  1.0  -0.1164
  C  C88  1  0.245620  0.931700  0.577000  1.0  0.7716
  C  C89  1  0.874810  0.212210  0.047930  1.0  -0.1959
  C  C90  1  0.886820  0.209330  0.248130  1.0  0.3306
  C  C91  1  0.845340  0.163780  0.366790  1.0  -0.1164
  C  C92  1  0.912290  0.265030  0.910330  1.0  0.7716
  C  C93  1  0.541470  0.545550  0.381270  1.0  -0.1988
  C  C94  1  0.553480  0.542670  0.581470  1.0  0.3314
  C  C95  1  0.512000  0.497120  0.700130  1.0  -0.1187
  C  C96  1  0.578950  0.598370  0.243670  1.0  0.7716
  C  C97  1  0.121120  0.329260  0.714600  1.0  -0.2062
  C  C98  1  0.124000  0.344150  0.914800  1.0  0.3305
  C  C99  1  0.169550  0.348220  0.033460  1.0  -0.1129
  C  C100  1  0.068300  0.313920  0.577000  1.0  0.769
  C  C101  1  0.787790  0.662590  0.047930  1.0  -0.2068
  C  C102  1  0.790670  0.677480  0.248130  1.0  0.3352
  C  C103  1  0.836220  0.681550  0.366790  1.0  -0.1129
  C  C104  1  0.734970  0.647250  0.910330  1.0  0.769
  C  C105  1  0.454450  0.995930  0.381270  1.0  -0.1966
  C  C106  1  0.457330  0.010820  0.581470  1.0  0.3198
  C  C107  1  0.502880  0.014890  0.700130  1.0  -0.1145
  C  C108  1  0.401630  0.980590  0.243670  1.0  0.769
  O  O109  1  0.323820  0.291950  0.358400  1.0  -0.5973
  O  O110  1  0.299720  0.228920  0.590200  1.0  -0.5808
  O  O111  1  0.355350  0.272140  0.995700  1.0  -0.7116
  O  O112  1  0.990490  0.625280  0.691730  1.0  -0.5973
  O  O113  1  0.966390  0.562250  0.923530  1.0  -0.5812
  O  O114  1  0.022020  0.605470  0.329030  1.0  -0.7118
  O  O115  1  0.657150  0.958620  0.025070  1.0  -0.5973
  O  O116  1  0.633050  0.895590  0.256870  1.0  -0.5811
  O  O117  1  0.688680  0.938810  0.662370  1.0  -0.7117
  O  O118  1  0.708050  0.031870  0.358400  1.0  -0.5996
  O  O119  1  0.771080  0.070800  0.590200  1.0  -0.5788
  O  O120  1  0.727860  0.083210  0.995700  1.0  -0.7101
  O  O121  1  0.374720  0.365200  0.691730  1.0  -0.5996
  O  O122  1  0.437750  0.404130  0.923530  1.0  -0.578
  O  O123  1  0.394530  0.416540  0.329030  1.0  -0.71
  O  O124  1  0.041380  0.698540  0.025070  1.0  -0.5996
  O  O125  1  0.104410  0.737470  0.256870  1.0  -0.5833
  O  O126  1  0.061190  0.749880  0.662370  1.0  -0.71
  O  O127  1  0.968130  0.676180  0.358400  1.0  -0.5998
  O  O128  1  0.929200  0.700280  0.590200  1.0  -0.5824
  O  O129  1  0.916790  0.644650  0.995700  1.0  -0.7107
  O  O130  1  0.634800  0.009510  0.691730  1.0  -0.5998
  O  O131  1  0.595870  0.033610  0.923530  1.0  -0.5851
  O  O132  1  0.583460  0.977980  0.329030  1.0  -0.7104
  O  O133  1  0.301460  0.342850  0.025070  1.0  -0.5998
  O  O134  1  0.262530  0.366950  0.256870  1.0  -0.5835
  O  O135  1  0.250120  0.311320  0.662370  1.0  -0.7107
  O  O136  1  0.676180  0.708050  0.641600  1.0  -0.5985
  O  O137  1  0.700280  0.771080  0.409800  1.0  -0.5806
  O  O138  1  0.644650  0.727860  0.004300  1.0  -0.712
  O  O139  1  0.342850  0.041380  0.974930  1.0  -0.5985
  O  O140  1  0.366950  0.104410  0.743130  1.0  -0.5808
  O  O141  1  0.311320  0.061190  0.337630  1.0  -0.7122
  O  O142  1  0.009510  0.374720  0.308270  1.0  -0.5985
  O  O143  1  0.033610  0.437750  0.076470  1.0  -0.5811
  O  O144  1  0.977980  0.394530  0.670970  1.0  -0.7123
  O  O145  1  0.291950  0.968130  0.641600  1.0  -0.6
  O  O146  1  0.228920  0.929200  0.409800  1.0  -0.5777
  O  O147  1  0.272140  0.916790  0.004300  1.0  -0.7089
  O  O148  1  0.958620  0.301460  0.974930  1.0  -0.6
  O  O149  1  0.895590  0.262530  0.743130  1.0  -0.5832
  O  O150  1  0.938810  0.250120  0.337630  1.0  -0.7088
  O  O151  1  0.625280  0.634800  0.308270  1.0  -0.6
  O  O152  1  0.562250  0.595870  0.076470  1.0  -0.5777
  O  O153  1  0.605470  0.583460  0.670970  1.0  -0.7087
  O  O154  1  0.031870  0.323820  0.641600  1.0  -0.5978
  O  O155  1  0.070800  0.299720  0.409800  1.0  -0.5825
  O  O156  1  0.083210  0.355350  0.004300  1.0  -0.7119
  O  O157  1  0.698540  0.657150  0.974930  1.0  -0.5978
  O  O158  1  0.737470  0.633050  0.743130  1.0  -0.5836
  O  O159  1  0.749880  0.688680  0.337630  1.0  -0.7119
  O  O160  1  0.365200  0.990490  0.308270  1.0  -0.5978
  O  O161  1  0.404130  0.966390  0.076470  1.0  -0.5849
  O  O162  1  0.416540  0.022020  0.670970  1.0  -0.7116
