# generated using pymatgen
data_MnHC4O3
_symmetry_space_group_name_H-M   'P 1'
_cell_length_a   26.57380000
_cell_length_b   26.57380000
_cell_length_c   6.80880000
_cell_angle_alpha   90.00000000
_cell_angle_beta   90.00000000
_cell_angle_gamma   120.00000000
_symmetry_Int_Tables_number   1
_chemical_formula_structural   MnHC4O3
_chemical_formula_sum   'Mn18 H18 C72 O54'
_cell_volume   4163.97902680
_cell_formula_units_Z   18
loop_
 _symmetry_equiv_pos_site_id
 _symmetry_equiv_pos_as_xyz
  1  'x, y, z'
loop_
 _atom_site_type_symbol
 _atom_site_label
 _atom_site_symmetry_multiplicity
 _atom_site_fract_x
 _atom_site_fract_y
 _atom_site_fract_z
 _atom_site_occupancy
 _atom_site_charge
  Mn  Mn1  1  0.390720  0.351770  0.142970  1.0  1.0471
  Mn  Mn2  1  0.057390  0.685100  0.476300  1.0  1.0458
  Mn  Mn3  1  0.724050  0.018440  0.809640  1.0  1.0471
  Mn  Mn4  1  0.648230  0.038950  0.142970  1.0  1.048
  Mn  Mn5  1  0.314900  0.372280  0.476300  1.0  1.0485
  Mn  Mn6  1  0.981560  0.705620  0.809640  1.0  1.0479
  Mn  Mn7  1  0.961050  0.609280  0.142970  1.0  1.0491
  Mn  Mn8  1  0.627720  0.942610  0.476300  1.0  1.0495
  Mn  Mn9  1  0.294380  0.275950  0.809640  1.0  1.0491
  Mn  Mn10  1  0.609280  0.648230  0.857030  1.0  1.0471
  Mn  Mn11  1  0.275950  0.981560  0.190360  1.0  1.0471
  Mn  Mn12  1  0.942610  0.314900  0.523700  1.0  1.0459
  Mn  Mn13  1  0.351770  0.961050  0.857030  1.0  1.0494
  Mn  Mn14  1  0.018440  0.294380  0.190360  1.0  1.0493
  Mn  Mn15  1  0.685100  0.627720  0.523700  1.0  1.0499
  Mn  Mn16  1  0.038950  0.390720  0.857030  1.0  1.0472
  Mn  Mn17  1  0.705620  0.724050  0.190360  1.0  1.0472
  Mn  Mn18  1  0.372280  0.057390  0.523700  1.0  1.0477
  H  H19  1  0.364820  0.195840  0.823380  1.0  0.1249
  H  H20  1  0.031490  0.529170  0.156710  1.0  0.1244
  H  H21  1  0.698150  0.862510  0.490050  1.0  0.1259
  H  H22  1  0.804160  0.168980  0.823380  1.0  0.1243
  H  H23  1  0.470830  0.502310  0.156710  1.0  0.1241
  H  H24  1  0.137490  0.835650  0.490050  1.0  0.1255
  H  H25  1  0.831020  0.635180  0.823380  1.0  0.1253
  H  H26  1  0.497690  0.968510  0.156710  1.0  0.125
  H  H27  1  0.164350  0.301850  0.490050  1.0  0.126
  H  H28  1  0.635180  0.804160  0.176620  1.0  0.1253
  H  H29  1  0.301850  0.137490  0.509950  1.0  0.1263
  H  H30  1  0.968510  0.470830  0.843290  1.0  0.1247
  H  H31  1  0.195840  0.831020  0.176620  1.0  0.1242
  H  H32  1  0.862510  0.164350  0.509950  1.0  0.1253
  H  H33  1  0.529170  0.497690  0.843290  1.0  0.1239
  H  H34  1  0.168980  0.364820  0.176620  1.0  0.1257
  H  H35  1  0.835650  0.698150  0.509950  1.0  0.1265
  H  H36  1  0.502310  0.031490  0.843290  1.0  0.1252
  C  C37  1  0.321250  0.201730  0.286650  1.0  -0.1784
  C  C38  1  0.338970  0.218150  0.093420  1.0  0.2949
  C  C39  1  0.351060  0.183090  0.973440  1.0  -0.1003
  C  C40  1  0.308250  0.239430  0.415700  1.0  0.7181
  C  C41  1  0.987920  0.535060  0.619980  1.0  -0.1797
  C  C42  1  0.005640  0.551480  0.426750  1.0  0.292
  C  C43  1  0.017730  0.516420  0.306770  1.0  -0.0985
  C  C44  1  0.974920  0.572760  0.749030  1.0  0.7181
  C  C45  1  0.654580  0.868400  0.953320  1.0  -0.1785
  C  C46  1  0.672300  0.884820  0.760090  1.0  0.2949
  C  C47  1  0.684390  0.849760  0.640110  1.0  -0.1003
  C  C48  1  0.641580  0.906100  0.082370  1.0  0.7181
  C  C49  1  0.798270  0.119520  0.286650  1.0  -0.1789
  C  C50  1  0.781850  0.120820  0.093420  1.0  0.2956
  C  C51  1  0.816910  0.167970  0.973440  1.0  -0.1003
  C  C52  1  0.760570  0.068820  0.415700  1.0  0.7193
  C  C53  1  0.464940  0.452850  0.619980  1.0  -0.1848
  C  C54  1  0.448520  0.454150  0.426750  1.0  0.2878
  C  C55  1  0.483580  0.501300  0.306770  1.0  -0.102
  C  C56  1  0.427240  0.402150  0.749030  1.0  0.7192
  C  C57  1  0.131600  0.786190  0.953320  1.0  -0.179
  C  C58  1  0.115180  0.787490  0.760090  1.0  0.2956
  C  C59  1  0.150240  0.834640  0.640110  1.0  -0.1003
  C  C60  1  0.093900  0.735490  0.082370  1.0  0.7193
  C  C61  1  0.880480  0.678750  0.286650  1.0  -0.1783
  C  C62  1  0.879180  0.661030  0.093420  1.0  0.2977
  C  C63  1  0.832030  0.648940  0.973440  1.0  -0.0994
  C  C64  1  0.931180  0.691750  0.415700  1.0  0.7165
  C  C65  1  0.547150  0.012080  0.619980  1.0  -0.1783
  C  C66  1  0.545850  0.994360  0.426750  1.0  0.2968
  C  C67  1  0.498700  0.982270  0.306770  1.0  -0.1003
  C  C68  1  0.597850  0.025080  0.749030  1.0  0.7165
  C  C69  1  0.213810  0.345420  0.953320  1.0  -0.1779
  C  C70  1  0.212510  0.327700  0.760090  1.0  0.2977
  C  C71  1  0.165360  0.315610  0.640110  1.0  -0.0994
  C  C72  1  0.264510  0.358420  0.082370  1.0  0.7165
  C  C73  1  0.678750  0.798270  0.713350  1.0  -0.1787
  C  C74  1  0.661030  0.781850  0.906580  1.0  0.2961
  C  C75  1  0.648940  0.816910  0.026560  1.0  -0.1002
  C  C76  1  0.691750  0.760570  0.584300  1.0  0.7179
  C  C77  1  0.345420  0.131600  0.046680  1.0  -0.1787
  C  C78  1  0.327700  0.115180  0.239910  1.0  0.2961
  C  C79  1  0.315610  0.150240  0.359890  1.0  -0.1002
  C  C80  1  0.358420  0.093900  0.917630  1.0  0.7179
  C  C81  1  0.012080  0.464940  0.380020  1.0  -0.1799
  C  C82  1  0.994360  0.448520  0.573250  1.0  0.2933
  C  C83  1  0.982270  0.483580  0.693230  1.0  -0.0979
  C  C84  1  0.025080  0.427240  0.250970  1.0  0.7179
  C  C85  1  0.201730  0.880480  0.713350  1.0  -0.1784
  C  C86  1  0.218150  0.879180  0.906580  1.0  0.2958
  C  C87  1  0.183090  0.832030  0.026560  1.0  -0.1003
  C  C88  1  0.239430  0.931180  0.584300  1.0  0.7171
  C  C89  1  0.868400  0.213810  0.046680  1.0  -0.1784
  C  C90  1  0.884820  0.212510  0.239910  1.0  0.2958
  C  C91  1  0.849760  0.165360  0.359890  1.0  -0.1003
  C  C92  1  0.906100  0.264510  0.917630  1.0  0.7171
  C  C93  1  0.535060  0.547150  0.380020  1.0  -0.1846
  C  C94  1  0.551480  0.545850  0.573250  1.0  0.2878
  C  C95  1  0.516420  0.498700  0.693230  1.0  -0.1017
  C  C96  1  0.572760  0.597850  0.250970  1.0  0.717
  C  C97  1  0.119520  0.321250  0.713350  1.0  -0.1786
  C  C98  1  0.120820  0.338970  0.906580  1.0  0.2971
  C  C99  1  0.167970  0.351060  0.026560  1.0  -0.0999
  C  C100  1  0.068820  0.308250  0.584300  1.0  0.7151
  C  C101  1  0.786190  0.654580  0.046680  1.0  -0.1782
  C  C102  1  0.787490  0.672300  0.239910  1.0  0.2971
  C  C103  1  0.834640  0.684390  0.359890  1.0  -0.0999
  C  C104  1  0.735490  0.641580  0.917630  1.0  0.7151
  C  C105  1  0.452850  0.987920  0.380020  1.0  -0.1785
  C  C106  1  0.454150  0.005640  0.573250  1.0  0.2963
  C  C107  1  0.501300  0.017730  0.693230  1.0  -0.1009
  C  C108  1  0.402150  0.974920  0.250970  1.0  0.7151
  O  O109  1  0.313340  0.285850  0.349600  1.0  -0.6472
  O  O110  1  0.292270  0.224630  0.589900  1.0  -0.6108
  O  O111  1  0.344440  0.268010  0.022500  1.0  -0.6494
  O  O112  1  0.980010  0.619180  0.682930  1.0  -0.6472
  O  O113  1  0.958940  0.557960  0.923230  1.0  -0.6073
  O  O114  1  0.011110  0.601340  0.355830  1.0  -0.6494
  O  O115  1  0.646670  0.952520  0.016270  1.0  -0.6472
  O  O116  1  0.625600  0.891300  0.256570  1.0  -0.6094
  O  O117  1  0.677770  0.934680  0.689170  1.0  -0.6494
  O  O118  1  0.714150  0.027490  0.349600  1.0  -0.649
  O  O119  1  0.775370  0.067640  0.589900  1.0  -0.6095
  O  O120  1  0.731990  0.076430  0.022500  1.0  -0.6471
  O  O121  1  0.380820  0.360820  0.682930  1.0  -0.649
  O  O122  1  0.442040  0.400970  0.923230  1.0  -0.611
  O  O123  1  0.398660  0.409760  0.355830  1.0  -0.6471
  O  O124  1  0.047480  0.694160  0.016270  1.0  -0.649
  O  O125  1  0.108700  0.734310  0.256570  1.0  -0.6081
  O  O126  1  0.065320  0.743100  0.689170  1.0  -0.6471
  O  O127  1  0.972510  0.686660  0.349600  1.0  -0.6474
  O  O128  1  0.932360  0.707730  0.589900  1.0  -0.6132
  O  O129  1  0.923570  0.655560  0.022500  1.0  -0.6465
  O  O130  1  0.639180  0.019990  0.682930  1.0  -0.6474
  O  O131  1  0.599030  0.041060  0.923230  1.0  -0.6112
  O  O132  1  0.590240  0.988890  0.355830  1.0  -0.6465
  O  O133  1  0.305840  0.353330  0.016270  1.0  -0.6474
  O  O134  1  0.265690  0.374400  0.256570  1.0  -0.6128
  O  O135  1  0.256900  0.322230  0.689170  1.0  -0.6465
  O  O136  1  0.686660  0.714150  0.650400  1.0  -0.6479
  O  O137  1  0.707730  0.775370  0.410100  1.0  -0.6118
  O  O138  1  0.655560  0.731990  0.977500  1.0  -0.6488
  O  O139  1  0.353330  0.047480  0.983730  1.0  -0.6479
  O  O140  1  0.374400  0.108700  0.743430  1.0  -0.6105
  O  O141  1  0.322230  0.065320  0.310830  1.0  -0.6488
  O  O142  1  0.019990  0.380820  0.317070  1.0  -0.6479
  O  O143  1  0.041060  0.442040  0.076770  1.0  -0.6086
  O  O144  1  0.988890  0.398660  0.644170  1.0  -0.6488
  O  O145  1  0.285850  0.972510  0.650400  1.0  -0.6496
  O  O146  1  0.224630  0.932360  0.410100  1.0  -0.6094
  O  O147  1  0.268010  0.923570  0.977500  1.0  -0.6464
  O  O148  1  0.952520  0.305840  0.983730  1.0  -0.6496
  O  O149  1  0.891300  0.265690  0.743430  1.0  -0.6079
  O  O150  1  0.934680  0.256900  0.310830  1.0  -0.6464
  O  O151  1  0.619180  0.639180  0.317070  1.0  -0.6496
  O  O152  1  0.557960  0.599030  0.076770  1.0  -0.6106
  O  O153  1  0.601340  0.590240  0.644170  1.0  -0.6464
  O  O154  1  0.027490  0.313340  0.650400  1.0  -0.6466
  O  O155  1  0.067640  0.292270  0.410100  1.0  -0.6122
  O  O156  1  0.076430  0.344440  0.977500  1.0  -0.6471
  O  O157  1  0.694160  0.646670  0.983730  1.0  -0.6466
  O  O158  1  0.734310  0.625600  0.743430  1.0  -0.612
  O  O159  1  0.743100  0.677770  0.310830  1.0  -0.6471
  O  O160  1  0.360820  0.980010  0.317070  1.0  -0.6466
  O  O161  1  0.400970  0.958940  0.076770  1.0  -0.6102
  O  O162  1  0.409760  0.011110  0.644170  1.0  -0.6471
