# generated using pymatgen
data_Nb3CuH3C5S3(N2Cl3)2
_symmetry_space_group_name_H-M   'P 1'
_cell_length_a   12.34310000
_cell_length_b   12.95440000
_cell_length_c   19.39340000
_cell_angle_alpha   90.00000000
_cell_angle_beta   91.94400000
_cell_angle_gamma   90.00000000
_symmetry_Int_Tables_number   1
_chemical_formula_structural   Nb3CuH3C5S3(N2Cl3)2
_chemical_formula_sum   'Nb12 Cu4 H12 C20 S12 N16 Cl24'
_cell_volume   3099.17057266
_cell_formula_units_Z   4
loop_
 _symmetry_equiv_pos_site_id
 _symmetry_equiv_pos_as_xyz
  1  'x, y, z'
loop_
 _atom_site_type_symbol
 _atom_site_label
 _atom_site_symmetry_multiplicity
 _atom_site_fract_x
 _atom_site_fract_y
 _atom_site_fract_z
 _atom_site_occupancy
 _atom_site_charge
  Nb  Nb1  1  0.101010  0.899690  0.054610  1.0  0.812
  Nb  Nb2  1  0.124770  0.107010  0.996010  1.0  0.8059
  Nb  Nb3  1  0.952000  0.064010  0.091130  1.0  0.8058
  Nb  Nb4  1  0.398990  0.399690  0.445390  1.0  0.8117
  Nb  Nb5  1  0.375230  0.607010  0.503990  1.0  0.7982
  Nb  Nb6  1  0.548000  0.564010  0.408870  1.0  0.8067
  Nb  Nb7  1  0.898990  0.100310  0.945390  1.0  0.8108
  Nb  Nb8  1  0.875230  0.892990  0.003990  1.0  0.7988
  Nb  Nb9  1  0.048000  0.935990  0.908870  1.0  0.808
  Nb  Nb10  1  0.601010  0.600310  0.554610  1.0  0.8111
  Nb  Nb11  1  0.624770  0.392990  0.496010  1.0  0.8062
  Nb  Nb12  1  0.452000  0.435990  0.591130  1.0  0.8073
  Cu  Cu13  1  0.519760  0.761250  0.135370  1.0  0.2845
  Cu  Cu14  1  0.980240  0.261250  0.364630  1.0  0.2847
  Cu  Cu15  1  0.480240  0.238750  0.864630  1.0  0.2852
  Cu  Cu16  1  0.019760  0.738750  0.635370  1.0  0.2851
  H  H17  1  0.602800  0.133900  0.111500  1.0  0.1993
  H  H18  1  0.476400  0.142100  0.091100  1.0  0.1951
  H  H19  1  0.560800  0.108300  0.034400  1.0  0.2028
  H  H20  1  0.897200  0.633900  0.388500  1.0  0.1997
  H  H21  1  0.023600  0.642100  0.408900  1.0  0.1967
  H  H22  1  0.939200  0.608300  0.465600  1.0  0.2027
  H  H23  1  0.397200  0.866100  0.888500  1.0  0.1992
  H  H24  1  0.523600  0.857900  0.908900  1.0  0.1969
  H  H25  1  0.439200  0.891700  0.965600  1.0  0.2029
  H  H26  1  0.102800  0.366100  0.611500  1.0  0.1988
  H  H27  1  0.976400  0.357900  0.591100  1.0  0.1955
  H  H28  1  0.060800  0.391700  0.534400  1.0  0.2034
  C  C29  1  0.279300  0.752600  0.145800  1.0  0.3641
  C  C30  1  0.340800  0.262500  0.984000  1.0  0.3493
  C  C31  1  0.864200  0.175800  0.234800  1.0  0.369
  C  C32  1  0.529100  0.996800  0.102200  1.0  0.3561
  C  C33  1  0.543400  0.103900  0.083300  1.0  -0.3292
  C  C34  1  0.220700  0.252600  0.354200  1.0  0.3648
  C  C35  1  0.159200  0.762500  0.516000  1.0  0.351
  C  C36  1  0.635800  0.675800  0.265200  1.0  0.3675
  C  C37  1  0.970900  0.496800  0.397800  1.0  0.356
  C  C38  1  0.956600  0.603900  0.416700  1.0  -0.329
  C  C39  1  0.720700  0.247400  0.854200  1.0  0.3656
  C  C40  1  0.659200  0.737500  0.016000  1.0  0.349
  C  C41  1  0.135800  0.824200  0.765200  1.0  0.3677
  C  C42  1  0.470900  0.003200  0.897800  1.0  0.3533
  C  C43  1  0.456600  0.896100  0.916700  1.0  -0.3283
  C  C44  1  0.779300  0.747400  0.645800  1.0  0.3647
  C  C45  1  0.840800  0.237500  0.484000  1.0  0.3487
  C  C46  1  0.364200  0.324200  0.734800  1.0  0.3695
  C  C47  1  0.029100  0.503200  0.602200  1.0  0.3533
  C  C48  1  0.043400  0.396100  0.583300  1.0  -0.329
  S  S49  1  0.374180  0.695960  0.192650  1.0  -0.1748
  S  S50  1  0.455430  0.322580  0.971740  1.0  -0.1344
  S  S51  1  0.815920  0.238790  0.299880  1.0  -0.1692
  S  S52  1  0.125820  0.195960  0.307350  1.0  -0.1736
  S  S53  1  0.044570  0.822580  0.528260  1.0  -0.1343
  S  S54  1  0.684080  0.738790  0.200120  1.0  -0.1689
  S  S55  1  0.625820  0.304040  0.807350  1.0  -0.1721
  S  S56  1  0.544570  0.677420  0.028260  1.0  -0.1367
  S  S57  1  0.184080  0.761210  0.700120  1.0  -0.1693
  S  S58  1  0.874180  0.804040  0.692650  1.0  -0.1742
  S  S59  1  0.955430  0.177420  0.471740  1.0  -0.1367
  S  S60  1  0.315920  0.261210  0.799880  1.0  -0.1692
  N  N61  1  0.211800  0.794100  0.113500  1.0  -0.3994
  N  N62  1  0.260600  0.218000  0.991700  1.0  -0.3391
  N  N63  1  0.898800  0.133800  0.188100  1.0  -0.3465
  N  N64  1  0.516500  0.912600  0.116400  1.0  -0.3448
  N  N65  1  0.288200  0.294100  0.386500  1.0  -0.3992
  N  N66  1  0.239400  0.718000  0.508300  1.0  -0.3386
  N  N67  1  0.601200  0.633800  0.311900  1.0  -0.3484
  N  N68  1  0.983500  0.412600  0.383600  1.0  -0.3435
  N  N69  1  0.788200  0.205900  0.886500  1.0  -0.3995
  N  N70  1  0.739400  0.782000  0.008300  1.0  -0.3368
  N  N71  1  0.101200  0.866200  0.811900  1.0  -0.3477
  N  N72  1  0.483500  0.087400  0.883600  1.0  -0.3472
  N  N73  1  0.711800  0.705900  0.613500  1.0  -0.3999
  N  N74  1  0.760600  0.282000  0.491700  1.0  -0.3372
  N  N75  1  0.398800  0.366200  0.688100  1.0  -0.3476
  N  N76  1  0.016500  0.587400  0.616400  1.0  -0.3467
  Cl  Cl77  1  0.972850  0.756220  0.068220  1.0  -0.3963
  Cl  Cl78  1  0.176760  0.807280  0.956620  1.0  -0.4246
  Cl  Cl79  1  0.265370  0.007140  0.058950  1.0  -0.4377
  Cl  Cl80  1  0.060790  0.957210  0.171690  1.0  -0.4142
  Cl  Cl81  1  0.201760  0.050080  0.887210  1.0  -0.4289
  Cl  Cl82  1  0.090850  0.200220  0.103450  1.0  -0.4036
  Cl  Cl83  1  0.527150  0.256220  0.431780  1.0  -0.3972
  Cl  Cl84  1  0.323240  0.307280  0.543380  1.0  -0.4248
  Cl  Cl85  1  0.234630  0.507140  0.441050  1.0  -0.4382
  Cl  Cl86  1  0.439210  0.457210  0.328310  1.0  -0.4131
  Cl  Cl87  1  0.298240  0.550080  0.612790  1.0  -0.4273
  Cl  Cl88  1  0.409150  0.700220  0.396550  1.0  -0.4019
  Cl  Cl89  1  0.027150  0.243780  0.931780  1.0  -0.3955
  Cl  Cl90  1  0.823240  0.192720  0.043380  1.0  -0.4247
  Cl  Cl91  1  0.734630  0.992860  0.941050  1.0  -0.4381
  Cl  Cl92  1  0.939210  0.042790  0.828310  1.0  -0.4132
  Cl  Cl93  1  0.798240  0.949920  0.112790  1.0  -0.428
  Cl  Cl94  1  0.909150  0.799780  0.896550  1.0  -0.4024
  Cl  Cl95  1  0.472850  0.743780  0.568220  1.0  -0.3944
  Cl  Cl96  1  0.676760  0.692720  0.456620  1.0  -0.4252
  Cl  Cl97  1  0.765370  0.492860  0.558950  1.0  -0.4377
  Cl  Cl98  1  0.560790  0.542790  0.671690  1.0  -0.4136
  Cl  Cl99  1  0.701760  0.449920  0.387210  1.0  -0.4288
  Cl  Cl100  1  0.590850  0.299780  0.603450  1.0  -0.4045
