# generated using pymatgen
data_Zn3P4(HO3)4
_symmetry_space_group_name_H-M   'P 1'
_cell_length_a   9.63800000
_cell_length_b   20.59790000
_cell_length_c   10.42070000
_cell_angle_alpha   90.00000000
_cell_angle_beta   95.03400000
_cell_angle_gamma   90.00000000
_symmetry_Int_Tables_number   1
_chemical_formula_structural   Zn3P4(HO3)4
_chemical_formula_sum   'Zn12 P16 H16 O48'
_cell_volume   2060.76449066
_cell_formula_units_Z   4
loop_
 _symmetry_equiv_pos_site_id
 _symmetry_equiv_pos_as_xyz
  1  'x, y, z'
loop_
 _atom_site_type_symbol
 _atom_site_label
 _atom_site_symmetry_multiplicity
 _atom_site_fract_x
 _atom_site_fract_y
 _atom_site_fract_z
 _atom_site_occupancy
 _atom_site_charge
  Zn  Zn1  1  0.170070  0.307400  0.360140  1.0  1.1517
  Zn  Zn2  1  0.693790  0.457040  0.591230  1.0  1.1495
  Zn  Zn3  1  0.924220  0.429640  0.120060  1.0  1.165
  Zn  Zn4  1  0.829930  0.807400  0.139860  1.0  1.1521
  Zn  Zn5  1  0.306210  0.957040  0.908770  1.0  1.1503
  Zn  Zn6  1  0.075780  0.929640  0.379940  1.0  1.1652
  Zn  Zn7  1  0.829930  0.692600  0.639860  1.0  1.1518
  Zn  Zn8  1  0.306210  0.542960  0.408770  1.0  1.1501
  Zn  Zn9  1  0.075780  0.570360  0.879940  1.0  1.1655
  Zn  Zn10  1  0.170070  0.192600  0.860140  1.0  1.1517
  Zn  Zn11  1  0.693790  0.042960  0.091230  1.0  1.1494
  Zn  Zn12  1  0.924220  0.070360  0.620060  1.0  1.1652
  P  P13  1  0.061120  0.292410  0.059670  1.0  1.5434
  P  P14  1  0.431480  0.399960  0.436680  1.0  1.6029
  P  P15  1  0.788780  0.498640  0.871750  1.0  1.4972
  P  P16  1  0.885140  0.387870  0.403930  1.0  1.5483
  P  P17  1  0.938880  0.792410  0.440330  1.0  1.5429
  P  P18  1  0.568520  0.899960  0.063320  1.0  1.6
  P  P19  1  0.211220  0.998640  0.628250  1.0  1.498
  P  P20  1  0.114860  0.887870  0.096070  1.0  1.548
  P  P21  1  0.938880  0.707590  0.940330  1.0  1.5436
  P  P22  1  0.568520  0.600040  0.563320  1.0  1.5991
  P  P23  1  0.211220  0.501360  0.128250  1.0  1.5021
  P  P24  1  0.114860  0.612130  0.596070  1.0  1.5458
  P  P25  1  0.061120  0.207590  0.559670  1.0  1.5435
  P  P26  1  0.431480  0.100040  0.936680  1.0  1.6014
  P  P27  1  0.788780  0.001360  0.371750  1.0  1.5023
  P  P28  1  0.885140  0.112130  0.903930  1.0  1.5451
  H  H29  1  0.971000  0.243700  0.080000  1.0  -0.0661
  H  H30  1  0.475000  0.417100  0.326000  1.0  -0.0864
  H  H31  1  0.732000  0.557400  0.868000  1.0  -0.0906
  H  H32  1  0.810000  0.335500  0.415000  1.0  -0.0754
  H  H33  1  0.029000  0.743700  0.420000  1.0  -0.0636
  H  H34  1  0.525000  0.917100  0.174000  1.0  -0.0909
  H  H35  1  0.268000  0.057400  0.632000  1.0  -0.0902
  H  H36  1  0.190000  0.835500  0.085000  1.0  -0.073
  H  H37  1  0.029000  0.756300  0.920000  1.0  -0.0627
  H  H38  1  0.525000  0.582900  0.674000  1.0  -0.0905
  H  H39  1  0.268000  0.442600  0.132000  1.0  -0.0918
  H  H40  1  0.190000  0.664500  0.585000  1.0  -0.072
  H  H41  1  0.971000  0.256300  0.580000  1.0  -0.0658
  H  H42  1  0.475000  0.082900  0.826000  1.0  -0.0868
  H  H43  1  0.732000  0.942600  0.368000  1.0  -0.0908
  H  H44  1  0.810000  0.164500  0.915000  1.0  -0.0751
  O  O45  1  0.977600  0.353260  0.036500  1.0  -0.8293
  O  O46  1  0.159700  0.294280  0.178300  1.0  -0.8318
  O  O47  1  0.133400  0.274310  0.941890  1.0  -0.7412
  O  O48  1  0.355800  0.336350  0.418900  1.0  -0.7745
  O  O49  1  0.337900  0.455460  0.472200  1.0  -0.7803
  O  O50  1  0.557400  0.392550  0.533000  1.0  -0.7534
  O  O51  1  0.698900  0.455880  0.778260  1.0  -0.7369
  O  O52  1  0.783200  0.474720  0.007850  1.0  -0.735
  O  O53  1  0.934100  0.506050  0.829640  1.0  -0.7762
  O  O54  1  0.863800  0.431750  0.518500  1.0  -0.7562
  O  O55  1  0.036000  0.369260  0.411300  1.0  -0.853
  O  O56  1  0.830300  0.418050  0.277700  1.0  -0.7707
  O  O57  1  0.022400  0.853260  0.463500  1.0  -0.8292
  O  O58  1  0.840300  0.794280  0.321700  1.0  -0.8308
  O  O59  1  0.866600  0.774310  0.558110  1.0  -0.7431
  O  O60  1  0.644200  0.836350  0.081100  1.0  -0.775
  O  O61  1  0.662100  0.955460  0.027800  1.0  -0.7809
  O  O62  1  0.442600  0.892550  0.967000  1.0  -0.7547
  O  O63  1  0.301100  0.955880  0.721740  1.0  -0.7385
  O  O64  1  0.216800  0.974720  0.492150  1.0  -0.733
  O  O65  1  0.065900  0.006050  0.670360  1.0  -0.7752
  O  O66  1  0.136200  0.931750  0.981500  1.0  -0.7566
  O  O67  1  0.964000  0.869260  0.088700  1.0  -0.8545
  O  O68  1  0.169700  0.918050  0.222300  1.0  -0.769
  O  O69  1  0.022400  0.646740  0.963500  1.0  -0.8295
  O  O70  1  0.840300  0.705720  0.821700  1.0  -0.8309
  O  O71  1  0.866600  0.725690  0.058110  1.0  -0.7427
  O  O72  1  0.644200  0.663650  0.581100  1.0  -0.7759
  O  O73  1  0.662100  0.544540  0.527800  1.0  -0.7809
  O  O74  1  0.442600  0.607450  0.467000  1.0  -0.7553
  O  O75  1  0.301100  0.544120  0.221740  1.0  -0.7368
  O  O76  1  0.216800  0.525280  0.992150  1.0  -0.734
  O  O77  1  0.065900  0.493950  0.170360  1.0  -0.7753
  O  O78  1  0.136200  0.568250  0.481500  1.0  -0.757
  O  O79  1  0.964000  0.630740  0.588700  1.0  -0.8545
  O  O80  1  0.169700  0.581950  0.722300  1.0  -0.7697
  O  O81  1  0.977600  0.146740  0.536500  1.0  -0.8293
  O  O82  1  0.159700  0.205720  0.678300  1.0  -0.8316
  O  O83  1  0.133400  0.225690  0.441890  1.0  -0.741
  O  O84  1  0.355800  0.163650  0.918900  1.0  -0.7753
  O  O85  1  0.337900  0.044540  0.972200  1.0  -0.78
  O  O86  1  0.557400  0.107450  0.033000  1.0  -0.7524
  O  O87  1  0.698900  0.044120  0.278260  1.0  -0.7355
  O  O88  1  0.783200  0.025280  0.507850  1.0  -0.7364
  O  O89  1  0.934100  0.993950  0.329640  1.0  -0.7755
  O  O90  1  0.863800  0.068250  0.018500  1.0  -0.756
  O  O91  1  0.036000  0.130740  0.911300  1.0  -0.853
  O  O92  1  0.830300  0.081950  0.777700  1.0  -0.7715
