# generated using pymatgen
data_Zn3P4(HO3)4
_symmetry_space_group_name_H-M   'P 1'
_cell_length_a   7.77820000
_cell_length_b   9.91740000
_cell_length_c   12.79460000
_cell_angle_alpha   99.55900000
_cell_angle_beta   94.03000000
_cell_angle_gamma   94.80300000
_symmetry_Int_Tables_number   1
_chemical_formula_structural   Zn3P4(HO3)4
_chemical_formula_sum   'Zn6 P8 H8 O24'
_cell_volume   966.28218714
_cell_formula_units_Z   2
loop_
 _symmetry_equiv_pos_site_id
 _symmetry_equiv_pos_as_xyz
  1  'x, y, z'
loop_
 _atom_site_type_symbol
 _atom_site_label
 _atom_site_symmetry_multiplicity
 _atom_site_fract_x
 _atom_site_fract_y
 _atom_site_fract_z
 _atom_site_occupancy
 _atom_site_charge
  Zn  Zn1  1  0.060720  0.618080  0.136470  1.0  1.1651
  Zn  Zn2  1  0.454310  0.144240  0.123160  1.0  1.1536
  Zn  Zn3  1  0.770070  0.563770  0.500600  1.0  1.1225
  Zn  Zn4  1  0.939280  0.381920  0.863530  1.0  1.1654
  Zn  Zn5  1  0.545690  0.855760  0.876840  1.0  1.1528
  Zn  Zn6  1  0.229930  0.436230  0.499400  1.0  1.1226
  P  P7  1  0.078320  0.663810  0.391250  1.0  1.5168
  P  P8  1  0.239420  0.368860  0.040320  1.0  1.5532
  P  P9  1  0.514330  0.352050  0.346720  1.0  1.6171
  P  P10  1  0.259250  0.854310  0.042320  1.0  1.6201
  P  P11  1  0.921680  0.336190  0.608750  1.0  1.5157
  P  P12  1  0.760580  0.631140  0.959680  1.0  1.5523
  P  P13  1  0.485670  0.647950  0.653280  1.0  1.6171
  P  P14  1  0.740750  0.145690  0.957680  1.0  1.624
  H  H15  1  0.222000  0.748000  0.437000  1.0  -0.0631
  H  H16  1  0.388000  0.452000  0.055000  1.0  -0.0872
  H  H17  1  0.432000  0.438000  0.296000  1.0  -0.1217
  H  H18  1  0.101000  0.903000  0.031000  1.0  -0.0796
  H  H19  1  0.778000  0.252000  0.563000  1.0  -0.0631
  H  H20  1  0.612000  0.548000  0.945000  1.0  -0.0883
  H  H21  1  0.568000  0.562000  0.704000  1.0  -0.1231
  H  H22  1  0.899000  0.097000  0.969000  1.0  -0.078
  O  O23  1  0.047500  0.702000  0.283130  1.0  -0.7796
  O  O24  1  0.930100  0.704000  0.458150  1.0  -0.7186
  O  O25  1  0.114200  0.516200  0.387960  1.0  -0.7819
  O  O26  1  0.166100  0.370700  0.928790  1.0  -0.8161
  O  O27  1  0.272200  0.225700  0.056900  1.0  -0.8442
  O  O28  1  0.125700  0.432200  0.124340  1.0  -0.7881
  O  O29  1  0.697200  0.420500  0.380080  1.0  -0.7996
  O  O30  1  0.414300  0.336200  0.441640  1.0  -0.7733
  O  O31  1  0.520700  0.217700  0.272920  1.0  -0.7197
  O  O32  1  0.239700  0.716600  0.074800  1.0  -0.8102
  O  O33  1  0.371200  0.957200  0.124130  1.0  -0.7677
  O  O34  1  0.319400  0.846900  0.931620  1.0  -0.797
  O  O35  1  0.952500  0.298000  0.716870  1.0  -0.781
  O  O36  1  0.069900  0.296000  0.541850  1.0  -0.7174
  O  O37  1  0.885800  0.483800  0.612040  1.0  -0.7814
  O  O38  1  0.833900  0.629300  0.071210  1.0  -0.8173
  O  O39  1  0.727800  0.774300  0.943100  1.0  -0.8457
  O  O40  1  0.874300  0.567800  0.875660  1.0  -0.788
  O  O41  1  0.302800  0.579500  0.619920  1.0  -0.7999
  O  O42  1  0.585700  0.663800  0.558360  1.0  -0.7719
  O  O43  1  0.479300  0.782300  0.727080  1.0  -0.7194
  O  O44  1  0.760300  0.283400  0.925200  1.0  -0.8114
  O  O45  1  0.628800  0.042800  0.875870  1.0  -0.7656
  O  O46  1  0.680600  0.153100  0.068380  1.0  -0.7997
