# generated using pymatgen
data_Cd2H20C35(N3O4)2
_symmetry_space_group_name_H-M   'P 1'
_cell_length_a   15.47700000
_cell_length_b   25.65600000
_cell_length_c   8.28900000
_cell_angle_alpha   90.00000000
_cell_angle_beta   105.07700000
_cell_angle_gamma   90.00000000
_symmetry_Int_Tables_number   1
_chemical_formula_structural   Cd2H20C35(N3O4)2
_chemical_formula_sum   'Cd8 H80 C140 N24 O32'
_cell_volume   3178.08009540
_cell_formula_units_Z   4
loop_
 _symmetry_equiv_pos_site_id
 _symmetry_equiv_pos_as_xyz
  1  'x, y, z'
loop_
 _atom_site_type_symbol
 _atom_site_label
 _atom_site_symmetry_multiplicity
 _atom_site_fract_x
 _atom_site_fract_y
 _atom_site_fract_z
 _atom_site_occupancy
 _atom_site_charge
  Cd  Cd1  1  0.453140  0.278920  0.172010  1.0  0.9931
  Cd  Cd2  1  0.958400  0.471590  0.770390  1.0  1.0138
  Cd  Cd3  1  0.546860  0.778920  0.327990  1.0  0.9923
  Cd  Cd4  1  0.041600  0.971590  0.729610  1.0  1.0135
  Cd  Cd5  1  0.546860  0.721080  0.827990  1.0  0.9907
  Cd  Cd6  1  0.041600  0.528410  0.229610  1.0  1.014
  Cd  Cd7  1  0.453140  0.221080  0.672010  1.0  0.9914
  Cd  Cd8  1  0.958400  0.028410  0.270390  1.0  1.0141
  H  H9  1  0.864300  0.560000  0.436000  1.0  0.3167
  H  H10  1  0.679800  0.405200  0.117200  1.0  0.113
  H  H11  1  0.818500  0.445100  0.176700  1.0  0.0979
  H  H12  1  0.997800  0.341500  0.592800  1.0  0.1199
  H  H13  1  0.974700  0.266300  0.720900  1.0  0.1124
  H  H14  1  0.833500  0.229000  0.666500  1.0  0.1064
  H  H15  1  0.716100  0.266300  0.478800  1.0  0.1156
  H  H16  1  0.074500  0.344500  0.169500  1.0  0.1108
  H  H17  1  0.174900  0.290900  0.352500  1.0  0.1071
  H  H18  1  0.445700  0.376200  0.447700  1.0  0.1125
  H  H19  1  0.494000  0.451500  0.354800  1.0  0.1126
  H  H20  1  0.395400  0.504600  0.164500  1.0  0.1166
  H  H21  1  0.247600  0.482200  0.072000  1.0  0.1093
  H  H22  1  0.870000  0.365100  0.920600  1.0  0.0943
  H  H23  1  0.737400  0.323300  0.898300  1.0  0.0786
  H  H24  1  0.618500  0.419100  0.548800  1.0  0.0916
  H  H25  1  0.806700  0.624500  0.261200  1.0  0.1356
  H  H26  1  0.736400  0.685000  0.067500  1.0  0.08
  H  H27  1  0.508300  0.616200  0.010100  1.0  0.0728
  H  H28  1  0.569800  0.555200  0.208700  1.0  0.129
  H  H29  1  0.135700  0.060000  0.064000  1.0  0.3154
  H  H30  1  0.320200  0.905200  0.382800  1.0  0.1123
  H  H31  1  0.181500  0.945100  0.323300  1.0  0.0978
  H  H32  1  0.002200  0.841500  0.907200  1.0  0.1189
  H  H33  1  0.025300  0.766300  0.779100  1.0  0.1124
  H  H34  1  0.166500  0.729000  0.833500  1.0  0.106
  H  H35  1  0.283900  0.766300  0.021200  1.0  0.116
  H  H36  1  0.925500  0.844500  0.330500  1.0  0.1102
  H  H37  1  0.825100  0.790900  0.147500  1.0  0.1077
  H  H38  1  0.554300  0.876200  0.052300  1.0  0.112
  H  H39  1  0.506000  0.951500  0.145200  1.0  0.1135
  H  H40  1  0.604600  0.004600  0.335500  1.0  0.1163
  H  H41  1  0.752400  0.982200  0.428000  1.0  0.1092
  H  H42  1  0.130000  0.865100  0.579400  1.0  0.0937
  H  H43  1  0.262600  0.823300  0.601700  1.0  0.0783
  H  H44  1  0.381500  0.919100  0.951200  1.0  0.091
  H  H45  1  0.193300  0.124500  0.238800  1.0  0.1361
  H  H46  1  0.263600  0.185000  0.432500  1.0  0.0802
  H  H47  1  0.491700  0.116200  0.489900  1.0  0.0734
  H  H48  1  0.430200  0.055200  0.291300  1.0  0.1292
  H  H49  1  0.135700  0.440000  0.564000  1.0  0.3175
  H  H50  1  0.320200  0.594800  0.882800  1.0  0.1125
  H  H51  1  0.181500  0.554900  0.823300  1.0  0.0981
  H  H52  1  0.002200  0.658500  0.407200  1.0  0.119
  H  H53  1  0.025300  0.733700  0.279100  1.0  0.1123
  H  H54  1  0.166500  0.771000  0.333500  1.0  0.1062
  H  H55  1  0.283900  0.733700  0.521200  1.0  0.1161
  H  H56  1  0.925500  0.655500  0.830500  1.0  0.1097
  H  H57  1  0.825100  0.709100  0.647500  1.0  0.1075
  H  H58  1  0.554300  0.623800  0.552300  1.0  0.1125
  H  H59  1  0.506000  0.548500  0.645200  1.0  0.1132
  H  H60  1  0.604600  0.495400  0.835500  1.0  0.1167
  H  H61  1  0.752400  0.517800  0.928000  1.0  0.109
  H  H62  1  0.130000  0.634900  0.079400  1.0  0.0938
  H  H63  1  0.262600  0.676700  0.101700  1.0  0.0783
  H  H64  1  0.381500  0.580900  0.451200  1.0  0.0908
  H  H65  1  0.193300  0.375500  0.738800  1.0  0.1351
  H  H66  1  0.263600  0.315000  0.932500  1.0  0.08
  H  H67  1  0.491700  0.383800  0.989900  1.0  0.0731
  H  H68  1  0.430200  0.444800  0.791300  1.0  0.1295
  H  H69  1  0.864300  0.940000  0.936000  1.0  0.318
  H  H70  1  0.679800  0.094800  0.617200  1.0  0.1127
  H  H71  1  0.818500  0.054900  0.676700  1.0  0.098
  H  H72  1  0.997800  0.158500  0.092800  1.0  0.1197
  H  H73  1  0.974700  0.233700  0.220900  1.0  0.112
  H  H74  1  0.833500  0.271000  0.166500  1.0  0.1065
  H  H75  1  0.716100  0.233700  0.978800  1.0  0.1157
  H  H76  1  0.074500  0.155500  0.669500  1.0  0.1106
  H  H77  1  0.174900  0.209100  0.852500  1.0  0.107
  H  H78  1  0.445700  0.123800  0.947700  1.0  0.1124
  H  H79  1  0.494000  0.048500  0.854800  1.0  0.1125
  H  H80  1  0.395400  0.995400  0.664500  1.0  0.1164
  H  H81  1  0.247600  0.017800  0.572000  1.0  0.1086
  H  H82  1  0.870000  0.134900  0.420600  1.0  0.0939
  H  H83  1  0.737400  0.176700  0.398300  1.0  0.0784
  H  H84  1  0.618500  0.080900  0.048800  1.0  0.0916
  H  H85  1  0.806700  0.875500  0.761200  1.0  0.1354
  H  H86  1  0.736400  0.815000  0.567500  1.0  0.0797
  H  H87  1  0.508300  0.883800  0.510100  1.0  0.0724
  H  H88  1  0.569800  0.944800  0.708700  1.0  0.1291
  C  C89  1  0.621700  0.323950  0.236400  1.0  0.6888
  C  C90  1  0.712930  0.348510  0.284600  1.0  -0.0699
  C  C91  1  0.726700  0.391550  0.200500  1.0  -0.0994
  C  C92  1  0.810200  0.415800  0.237100  1.0  -0.077
  C  C93  1  0.879800  0.397230  0.360000  1.0  -0.0917
  C  C94  1  0.964590  0.428930  0.396800  1.0  0.677
  C  C95  1  0.869560  0.350910  0.448800  1.0  0.0375
  C  C96  1  0.941000  0.326690  0.567600  1.0  -0.1355
  C  C97  1  0.927000  0.282070  0.644700  1.0  -0.0858
  C  C98  1  0.842100  0.259340  0.611300  1.0  -0.1427
  C  C99  1  0.772500  0.281490  0.498900  1.0  -0.1003
  C  C100  1  0.783540  0.326880  0.411900  1.0  0.014
  C  C101  1  0.094100  0.431100  0.025200  1.0  0.6825
  C  C102  1  0.162500  0.399620  0.148900  1.0  -0.1402
  C  C103  1  0.134500  0.353940  0.204500  1.0  -0.0848
  C  C104  1  0.195300  0.321260  0.313600  1.0  -0.065
  C  C105  1  0.283460  0.333380  0.363100  1.0  -0.0799
  C  C106  1  0.345480  0.293210  0.464100  1.0  0.6946
  C  C107  1  0.315160  0.381100  0.314500  1.0  -0.0013
  C  C108  1  0.405400  0.396940  0.371500  1.0  -0.1118
  C  C109  1  0.434200  0.441900  0.316500  1.0  -0.0888
  C  C110  1  0.374800  0.474120  0.202700  1.0  -0.1012
  C  C111  1  0.286500  0.460720  0.147900  1.0  -0.0948
  C  C112  1  0.253630  0.415070  0.204200  1.0  0.0152
  C  C113  1  0.818800  0.377220  0.844200  1.0  0.1335
  C  C114  1  0.738900  0.351730  0.829400  1.0  0.1858
  C  C115  1  0.669700  0.407540  0.626600  1.0  0.1604
  C  C116  1  0.748960  0.433400  0.642200  1.0  0.1568
  C  C117  1  0.757540  0.479120  0.542100  1.0  0.3094
  C  C118  1  0.736570  0.542140  0.377600  1.0  0.3027
  C  C119  1  0.696020  0.582290  0.255800  1.0  -0.0081
  C  C120  1  0.745500  0.622030  0.212400  1.0  -0.1904
  C  C121  1  0.702600  0.658120  0.095000  1.0  0.1934
  C  C122  1  0.569100  0.618100  0.062400  1.0  0.1885
  C  C123  1  0.605700  0.580910  0.180400  1.0  -0.1242
  C  C124  1  0.378300  0.823950  0.263600  1.0  0.6893
  C  C125  1  0.287070  0.848510  0.215400  1.0  -0.0698
  C  C126  1  0.273300  0.891550  0.299500  1.0  -0.1013
  C  C127  1  0.189800  0.915800  0.262900  1.0  -0.0752
  C  C128  1  0.120200  0.897230  0.140000  1.0  -0.0919
  C  C129  1  0.035410  0.928930  0.103200  1.0  0.6756
  C  C130  1  0.130440  0.850910  0.051200  1.0  0.037
  C  C131  1  0.059000  0.826690  0.932400  1.0  -0.1337
  C  C132  1  0.073000  0.782070  0.855300  1.0  -0.0863
  C  C133  1  0.157900  0.759340  0.888700  1.0  -0.1419
  C  C134  1  0.227500  0.781490  0.001100  1.0  -0.1028
  C  C135  1  0.216460  0.826880  0.088100  1.0  0.0138
  C  C136  1  0.905900  0.931100  0.474800  1.0  0.6846
  C  C137  1  0.837500  0.899620  0.351100  1.0  -0.1396
  C  C138  1  0.865500  0.853940  0.295500  1.0  -0.0854
  C  C139  1  0.804700  0.821260  0.186400  1.0  -0.0651
  C  C140  1  0.716540  0.833380  0.136900  1.0  -0.0803
  C  C141  1  0.654520  0.793210  0.035900  1.0  0.6945
  C  C142  1  0.684840  0.881100  0.185500  1.0  0.0
  C  C143  1  0.594600  0.896940  0.128500  1.0  -0.1103
  C  C144  1  0.565800  0.941900  0.183500  1.0  -0.0886
  C  C145  1  0.625200  0.974120  0.297300  1.0  -0.1028
  C  C146  1  0.713500  0.960720  0.352100  1.0  -0.0954
  C  C147  1  0.746370  0.915070  0.295800  1.0  0.0143
  C  C148  1  0.181200  0.877220  0.655800  1.0  0.133
  C  C149  1  0.261100  0.851730  0.670600  1.0  0.1858
  C  C150  1  0.330300  0.907540  0.873400  1.0  0.1599
  C  C151  1  0.251040  0.933400  0.857800  1.0  0.1556
  C  C152  1  0.242460  0.979120  0.957900  1.0  0.3103
  C  C153  1  0.263430  0.042140  0.122400  1.0  0.3046
  C  C154  1  0.303980  0.082290  0.244200  1.0  -0.0069
  C  C155  1  0.254500  0.122030  0.287600  1.0  -0.1899
  C  C156  1  0.297400  0.158120  0.405000  1.0  0.1928
  C  C157  1  0.430900  0.118100  0.437600  1.0  0.1897
  C  C158  1  0.394300  0.080910  0.319600  1.0  -0.1255
  C  C159  1  0.378300  0.676050  0.763600  1.0  0.6894
  C  C160  1  0.287070  0.651490  0.715400  1.0  -0.0697
  C  C161  1  0.273300  0.608450  0.799500  1.0  -0.1017
  C  C162  1  0.189800  0.584200  0.762900  1.0  -0.0767
  C  C163  1  0.120200  0.602770  0.640000  1.0  -0.0917
  C  C164  1  0.035410  0.571070  0.603200  1.0  0.676
  C  C165  1  0.130440  0.649090  0.551200  1.0  0.0369
  C  C166  1  0.059000  0.673310  0.432400  1.0  -0.1338
  C  C167  1  0.073000  0.717930  0.355300  1.0  -0.0858
  C  C168  1  0.157900  0.740660  0.388700  1.0  -0.1414
  C  C169  1  0.227500  0.718510  0.501100  1.0  -0.1015
  C  C170  1  0.216460  0.673120  0.588100  1.0  0.0143
  C  C171  1  0.905900  0.568900  0.974800  1.0  0.6838
  C  C172  1  0.837500  0.600380  0.851100  1.0  -0.147
  C  C173  1  0.865500  0.646060  0.795500  1.0  -0.0851
  C  C174  1  0.804700  0.678740  0.686400  1.0  -0.0654
  C  C175  1  0.716540  0.666667  0.636900  1.0  -0.0776
  C  C176  1  0.654520  0.706790  0.535900  1.0  0.6944
  C  C177  1  0.684840  0.618900  0.685500  1.0  0.0018
  C  C178  1  0.594600  0.603060  0.628500  1.0  -0.1091
  C  C179  1  0.565800  0.558100  0.683500  1.0  -0.0879
  C  C180  1  0.625200  0.525880  0.797300  1.0  -0.1038
  C  C181  1  0.713500  0.539280  0.852100  1.0  -0.0954
  C  C182  1  0.746370  0.584930  0.795800  1.0  0.0182
  C  C183  1  0.181200  0.622780  0.155800  1.0  0.1326
  C  C184  1  0.261100  0.648270  0.170600  1.0  0.1857
  C  C185  1  0.330300  0.592460  0.373400  1.0  0.1601
  C  C186  1  0.251040  0.566600  0.357800  1.0  0.1558
  C  C187  1  0.242460  0.520880  0.457900  1.0  0.3107
  C  C188  1  0.263430  0.457860  0.622400  1.0  0.3044
  C  C189  1  0.303980  0.417710  0.744200  1.0  -0.007
  C  C190  1  0.254500  0.377970  0.787600  1.0  -0.1896
  C  C191  1  0.297400  0.341880  0.905000  1.0  0.1926
  C  C192  1  0.430900  0.381900  0.937600  1.0  0.1894
  C  C193  1  0.394300  0.419090  0.819600  1.0  -0.1254
  C  C194  1  0.621700  0.176050  0.736400  1.0  0.6884
  C  C195  1  0.712930  0.151490  0.784600  1.0  -0.0695
  C  C196  1  0.726700  0.108450  0.700500  1.0  -0.0992
  C  C197  1  0.810200  0.084200  0.737100  1.0  -0.0771
  C  C198  1  0.879800  0.102770  0.860000  1.0  -0.0917
  C  C199  1  0.964590  0.071070  0.896800  1.0  0.677
  C  C200  1  0.869560  0.149090  0.948800  1.0  0.0375
  C  C201  1  0.941000  0.173310  0.067600  1.0  -0.1362
  C  C202  1  0.927000  0.217930  0.144700  1.0  -0.086
  C  C203  1  0.842100  0.240660  0.111300  1.0  -0.1422
  C  C204  1  0.772500  0.218510  0.998900  1.0  -0.0996
  C  C205  1  0.783540  0.173120  0.911900  1.0  0.0146
  C  C206  1  0.094100  0.068900  0.525200  1.0  0.6819
  C  C207  1  0.162500  0.100380  0.648900  1.0  -0.1405
  C  C208  1  0.134500  0.146060  0.704500  1.0  -0.0837
  C  C209  1  0.195300  0.178740  0.813600  1.0  -0.0654
  C  C210  1  0.283460  0.166620  0.863100  1.0  -0.0798
  C  C211  1  0.345480  0.206790  0.964100  1.0  0.6945
  C  C212  1  0.315160  0.118900  0.814500  1.0  -0.0006
  C  C213  1  0.405400  0.103060  0.871500  1.0  -0.1114
  C  C214  1  0.434200  0.058100  0.816500  1.0  -0.0881
  C  C215  1  0.374800  0.025880  0.702700  1.0  -0.1022
  C  C216  1  0.286500  0.039280  0.647900  1.0  -0.0947
  C  C217  1  0.253630  0.084930  0.704200  1.0  0.0155
  C  C218  1  0.818800  0.122780  0.344200  1.0  0.1331
  C  C219  1  0.738900  0.148270  0.329400  1.0  0.186
  C  C220  1  0.669700  0.092460  0.126600  1.0  0.1604
  C  C221  1  0.748960  0.066600  0.142200  1.0  0.1572
  C  C222  1  0.757540  0.020880  0.042100  1.0  0.3099
  C  C223  1  0.736570  0.957860  0.877600  1.0  0.3024
  C  C224  1  0.696020  0.917710  0.755800  1.0  -0.0081
  C  C225  1  0.745500  0.877970  0.712400  1.0  -0.1905
  C  C226  1  0.702600  0.841880  0.595000  1.0  0.1928
  C  C227  1  0.569100  0.881900  0.562400  1.0  0.189
  C  C228  1  0.605700  0.919090  0.680400  1.0  -0.1245
  N  N229  1  0.824520  0.418520  0.752700  1.0  -0.3648
  N  N230  1  0.664400  0.366140  0.721000  1.0  -0.4045
  N  N231  1  0.692150  0.504110  0.430100  1.0  -0.4779
  N  N232  1  0.837800  0.499320  0.559400  1.0  -0.3425
  N  N233  1  0.823780  0.539340  0.453000  1.0  -0.0721
  N  N234  1  0.616050  0.656430  0.019500  1.0  -0.3487
  N  N235  1  0.175480  0.918520  0.747300  1.0  -0.3634
  N  N236  1  0.335600  0.866140  0.779000  1.0  -0.4072
  N  N237  1  0.307850  0.004110  0.069900  1.0  -0.4757
  N  N238  1  0.162200  0.999320  0.940600  1.0  -0.3414
  N  N239  1  0.176220  0.039340  0.047000  1.0  -0.0728
  N  N240  1  0.383950  0.156430  0.480500  1.0  -0.3469
  N  N241  1  0.175480  0.581480  0.247300  1.0  -0.3638
  N  N242  1  0.335600  0.633860  0.279000  1.0  -0.4086
  N  N243  1  0.307850  0.495890  0.569900  1.0  -0.4756
  N  N244  1  0.162200  0.500680  0.440600  1.0  -0.3411
  N  N245  1  0.176220  0.460660  0.547000  1.0  -0.0727
  N  N246  1  0.383950  0.343570  0.980500  1.0  -0.3458
  N  N247  1  0.824520  0.081480  0.252700  1.0  -0.364
  N  N248  1  0.664400  0.133860  0.221000  1.0  -0.4064
  N  N249  1  0.692150  0.995890  0.930100  1.0  -0.4766
  N  N250  1  0.837800  0.000680  0.059400  1.0  -0.3428
  N  N251  1  0.823780  0.960660  0.953000  1.0  -0.072
  N  N252  1  0.616050  0.843570  0.519500  1.0  -0.3489
  O  O253  1  0.573160  0.327480  0.331000  1.0  -0.5892
  O  O254  1  0.597600  0.302040  0.100400  1.0  -0.5608
  O  O255  1  0.981270  0.451270  0.277100  1.0  -0.6059
  O  O256  1  0.011990  0.431770  0.548300  1.0  -0.6444
  O  O257  1  0.036610  0.406240  0.917400  1.0  -0.5663
  O  O258  1  0.094140  0.479950  0.032300  1.0  -0.6597
  O  O259  1  0.323880  0.271710  0.582500  1.0  -0.5935
  O  O260  1  0.415350  0.280730  0.421800  1.0  -0.6573
  O  O261  1  0.426840  0.827480  0.169000  1.0  -0.59
  O  O262  1  0.402400  0.802040  0.399600  1.0  -0.5604
  O  O263  1  0.018730  0.951270  0.222900  1.0  -0.6055
  O  O264  1  0.988010  0.931770  0.951700  1.0  -0.6449
  O  O265  1  0.963390  0.906240  0.582600  1.0  -0.567
  O  O266  1  0.905860  0.979950  0.467700  1.0  -0.6581
  O  O267  1  0.676120  0.771710  0.917500  1.0  -0.5925
  O  O268  1  0.584650  0.780730  0.078200  1.0  -0.6581
  O  O269  1  0.426840  0.672520  0.669000  1.0  -0.5891
  O  O270  1  0.402400  0.697960  0.899600  1.0  -0.5603
  O  O271  1  0.018730  0.548730  0.722900  1.0  -0.6052
  O  O272  1  0.988010  0.568230  0.451700  1.0  -0.6451
  O  O273  1  0.963390  0.593760  0.082600  1.0  -0.5666
  O  O274  1  0.905860  0.520050  0.967700  1.0  -0.6593
  O  O275  1  0.676120  0.728290  0.417500  1.0  -0.5919
  O  O276  1  0.584650  0.719270  0.578200  1.0  -0.6585
  O  O277  1  0.573160  0.172520  0.831000  1.0  -0.5893
  O  O278  1  0.597600  0.197960  0.600400  1.0  -0.5592
  O  O279  1  0.981270  0.048730  0.777100  1.0  -0.6058
  O  O280  1  0.011990  0.068230  0.048300  1.0  -0.6451
  O  O281  1  0.036610  0.093760  0.417400  1.0  -0.5654
  O  O282  1  0.094140  0.020050  0.532300  1.0  -0.6607
  O  O283  1  0.323880  0.228290  0.082500  1.0  -0.5931
  O  O284  1  0.415350  0.219270  0.921800  1.0  -0.6567
