# generated using pymatgen
data_MgP2H16C28(NO6)2
_symmetry_space_group_name_H-M   'P 1'
_cell_length_a   18.57100000
_cell_length_b   18.57100000
_cell_length_c   28.87790000
_cell_angle_alpha   90.00000000
_cell_angle_beta   90.00000000
_cell_angle_gamma   120.00000000
_symmetry_Int_Tables_number   1
_chemical_formula_structural   MgP2H16C28(NO6)2
_chemical_formula_sum   'Mg6 P12 H96 C168 N12 O72'
_cell_volume   8625.15324170
_cell_formula_units_Z   6
loop_
 _symmetry_equiv_pos_site_id
 _symmetry_equiv_pos_as_xyz
  1  'x, y, z'
loop_
 _atom_site_type_symbol
 _atom_site_label
 _atom_site_symmetry_multiplicity
 _atom_site_fract_x
 _atom_site_fract_y
 _atom_site_fract_z
 _atom_site_occupancy
 _atom_site_charge
  Mg  Mg1  1  0.469690  0.277380  0.250000  1.0  1.6493
  Mg  Mg2  1  0.722620  0.192310  0.250000  1.0  1.6489
  Mg  Mg3  1  0.807690  0.530310  0.250000  1.0  1.6492
  Mg  Mg4  1  0.530310  0.722620  0.750000  1.0  1.6492
  Mg  Mg5  1  0.277380  0.807690  0.750000  1.0  1.6488
  Mg  Mg6  1  0.192310  0.469690  0.750000  1.0  1.6487
  P  P7  1  0.627640  0.235590  0.961780  1.0  1.4581
  P  P8  1  0.764410  0.392050  0.961780  1.0  1.4578
  P  P9  1  0.607950  0.372360  0.961780  1.0  1.4559
  P  P10  1  0.372360  0.764410  0.461780  1.0  1.458
  P  P11  1  0.235590  0.607950  0.461780  1.0  1.4571
  P  P12  1  0.392050  0.627640  0.461780  1.0  1.4566
  P  P13  1  0.372360  0.764410  0.038220  1.0  1.4582
  P  P14  1  0.235590  0.607950  0.038220  1.0  1.4572
  P  P15  1  0.392050  0.627640  0.038220  1.0  1.4568
  P  P16  1  0.627640  0.235590  0.538220  1.0  1.4584
  P  P17  1  0.764410  0.392050  0.538220  1.0  1.458
  P  P18  1  0.607950  0.372360  0.538220  1.0  1.4559
  H  H19  1  0.385300  0.094000  0.089000  1.0  0.0954
  H  H20  1  0.440200  0.090700  0.018600  1.0  0.1125
  H  H21  1  0.671300  0.225600  0.072000  1.0  0.0905
  H  H22  1  0.615800  0.234800  0.142100  1.0  0.0893
  H  H23  1  0.368400  0.100100  0.853100  1.0  0.096
  H  H24  1  0.487500  0.201000  0.891600  1.0  0.1054
  H  H25  1  0.578600  0.047900  0.889900  1.0  0.1117
  H  H26  1  0.461800  0.950300  0.849600  1.0  0.0748
  H  H27  1  0.906000  0.291300  0.089000  1.0  0.0951
  H  H28  1  0.909300  0.349500  0.018600  1.0  0.1125
  H  H29  1  0.774400  0.445700  0.072000  1.0  0.0907
  H  H30  1  0.765200  0.381000  0.142100  1.0  0.089
  H  H31  1  0.899900  0.268300  0.853100  1.0  0.0956
  H  H32  1  0.799000  0.286500  0.891600  1.0  0.1055
  H  H33  1  0.952100  0.530700  0.889900  1.0  0.1114
  H  H34  1  0.049700  0.511500  0.849600  1.0  0.0745
  H  H35  1  0.708700  0.614700  0.089000  1.0  0.0932
  H  H36  1  0.650500  0.559800  0.018600  1.0  0.1132
  H  H37  1  0.554300  0.328700  0.072000  1.0  0.091
  H  H38  1  0.619000  0.384200  0.142100  1.0  0.0892
  H  H39  1  0.731700  0.631600  0.853100  1.0  0.0963
  H  H40  1  0.713500  0.512500  0.891600  1.0  0.1055
  H  H41  1  0.469300  0.421400  0.889900  1.0  0.1118
  H  H42  1  0.488500  0.538200  0.849600  1.0  0.0745
  H  H43  1  0.614700  0.906000  0.589000  1.0  0.0951
  H  H44  1  0.559800  0.909300  0.518600  1.0  0.1122
  H  H45  1  0.328700  0.774400  0.572000  1.0  0.0908
  H  H46  1  0.384200  0.765200  0.642100  1.0  0.0894
  H  H47  1  0.631600  0.899900  0.353100  1.0  0.0956
  H  H48  1  0.512500  0.799000  0.391600  1.0  0.1048
  H  H49  1  0.421400  0.952100  0.389900  1.0  0.1123
  H  H50  1  0.538200  0.049700  0.349600  1.0  0.0744
  H  H51  1  0.094000  0.708700  0.589000  1.0  0.0957
  H  H52  1  0.090700  0.650500  0.518600  1.0  0.1128
  H  H53  1  0.225600  0.554300  0.572000  1.0  0.0901
  H  H54  1  0.234800  0.619000  0.642100  1.0  0.0896
  H  H55  1  0.100100  0.731700  0.353100  1.0  0.0953
  H  H56  1  0.201000  0.713500  0.391600  1.0  0.1059
  H  H57  1  0.047900  0.469300  0.389900  1.0  0.1116
  H  H58  1  0.950300  0.488500  0.349600  1.0  0.0745
  H  H59  1  0.291300  0.385300  0.589000  1.0  0.0943
  H  H60  1  0.349500  0.440200  0.518600  1.0  0.1127
  H  H61  1  0.445700  0.671300  0.572000  1.0  0.0907
  H  H62  1  0.381000  0.615800  0.642100  1.0  0.0894
  H  H63  1  0.268300  0.368400  0.353100  1.0  0.0953
  H  H64  1  0.286500  0.487500  0.391600  1.0  0.1075
  H  H65  1  0.530700  0.578600  0.389900  1.0  0.1119
  H  H66  1  0.511500  0.461800  0.349600  1.0  0.074
  H  H67  1  0.614700  0.906000  0.911000  1.0  0.0951
  H  H68  1  0.559800  0.909300  0.981400  1.0  0.1121
  H  H69  1  0.328700  0.774400  0.928000  1.0  0.0906
  H  H70  1  0.384200  0.765200  0.857900  1.0  0.0907
  H  H71  1  0.631600  0.899900  0.146900  1.0  0.0956
  H  H72  1  0.512500  0.799000  0.108400  1.0  0.1051
  H  H73  1  0.421400  0.952100  0.110100  1.0  0.1135
  H  H74  1  0.538200  0.049700  0.150400  1.0  0.0745
  H  H75  1  0.094000  0.708700  0.911000  1.0  0.0954
  H  H76  1  0.090700  0.650500  0.981400  1.0  0.1131
  H  H77  1  0.225600  0.554300  0.928000  1.0  0.0899
  H  H78  1  0.234800  0.619000  0.857900  1.0  0.0904
  H  H79  1  0.100100  0.731700  0.146900  1.0  0.0954
  H  H80  1  0.201000  0.713500  0.108400  1.0  0.1059
  H  H81  1  0.047900  0.469300  0.110100  1.0  0.1132
  H  H82  1  0.950300  0.488500  0.150400  1.0  0.0747
  H  H83  1  0.291300  0.385300  0.911000  1.0  0.0942
  H  H84  1  0.349500  0.440200  0.981400  1.0  0.1134
  H  H85  1  0.445700  0.671300  0.928000  1.0  0.0901
  H  H86  1  0.381000  0.615800  0.857900  1.0  0.0907
  H  H87  1  0.268300  0.368400  0.146900  1.0  0.0955
  H  H88  1  0.286500  0.487500  0.108400  1.0  0.1073
  H  H89  1  0.530700  0.578600  0.110100  1.0  0.113
  H  H90  1  0.511500  0.461800  0.150400  1.0  0.0744
  H  H91  1  0.385300  0.094000  0.411000  1.0  0.0952
  H  H92  1  0.440200  0.090700  0.481400  1.0  0.1127
  H  H93  1  0.671300  0.225600  0.428000  1.0  0.0903
  H  H94  1  0.615800  0.234800  0.357900  1.0  0.0905
  H  H95  1  0.368400  0.100100  0.646900  1.0  0.096
  H  H96  1  0.487500  0.201000  0.608400  1.0  0.1057
  H  H97  1  0.578600  0.047900  0.610100  1.0  0.1131
  H  H98  1  0.461800  0.950300  0.650400  1.0  0.0748
  H  H99  1  0.906000  0.291300  0.411000  1.0  0.0954
  H  H100  1  0.909300  0.349500  0.481400  1.0  0.1126
  H  H101  1  0.774400  0.445700  0.428000  1.0  0.0904
  H  H102  1  0.765200  0.381000  0.357900  1.0  0.0903
  H  H103  1  0.899900  0.268300  0.646900  1.0  0.0957
  H  H104  1  0.799000  0.286500  0.608400  1.0  0.1054
  H  H105  1  0.952100  0.530700  0.610100  1.0  0.1122
  H  H106  1  0.049700  0.511500  0.650400  1.0  0.0744
  H  H107  1  0.708700  0.614700  0.411000  1.0  0.0934
  H  H108  1  0.650500  0.559800  0.481400  1.0  0.1135
  H  H109  1  0.554300  0.328700  0.428000  1.0  0.0911
  H  H110  1  0.619000  0.384200  0.357900  1.0  0.0904
  H  H111  1  0.731700  0.631600  0.646900  1.0  0.0962
  H  H112  1  0.713500  0.512500  0.608400  1.0  0.1059
  H  H113  1  0.469300  0.421400  0.610100  1.0  0.1132
  H  H114  1  0.488500  0.538200  0.650400  1.0  0.0743
  C  C115  1  0.454900  0.170100  0.167160  1.0  0.7007
  C  C116  1  0.493800  0.165800  0.123240  1.0  -0.137
  C  C117  1  0.442700  0.121800  0.085320  1.0  -0.0565
  C  C118  1  0.475100  0.118800  0.043380  1.0  -0.1802
  C  C119  1  0.561800  0.158700  0.038160  1.0  0.2107
  C  C120  1  0.613900  0.200700  0.075420  1.0  -0.188
  C  C121  1  0.580700  0.205500  0.117600  1.0  -0.0892
  C  C122  1  0.329200  0.949200  0.819800  1.0  0.7284
  C  C123  1  0.403900  0.015400  0.847000  1.0  -0.1468
  C  C124  1  0.411300  0.089500  0.859900  1.0  -0.0464
  C  C125  1  0.482100  0.150200  0.883200  1.0  -0.1888
  C  C126  1  0.542200  0.131600  0.892810  1.0  0.2549
  C  C127  1  0.536700  0.059000  0.881900  1.0  -0.1809
  C  C128  1  0.466200  0.000700  0.858100  1.0  -0.0196
  C  C129  1  0.829900  0.284800  0.167160  1.0  0.7021
  C  C130  1  0.834200  0.328000  0.123240  1.0  -0.1364
  C  C131  1  0.878200  0.320900  0.085320  1.0  -0.0573
  C  C132  1  0.881200  0.356300  0.043380  1.0  -0.1847
  C  C133  1  0.841300  0.403100  0.038160  1.0  0.2137
  C  C134  1  0.799300  0.413200  0.075420  1.0  -0.1867
  C  C135  1  0.794500  0.375200  0.117600  1.0  -0.0893
  C  C136  1  0.050800  0.380000  0.819800  1.0  0.7269
  C  C137  1  0.984600  0.388500  0.847000  1.0  -0.1441
  C  C138  1  0.910500  0.321800  0.859900  1.0  -0.0489
  C  C139  1  0.849800  0.331900  0.883200  1.0  -0.1887
  C  C140  1  0.868400  0.410600  0.892810  1.0  0.2549
  C  C141  1  0.941000  0.477700  0.881900  1.0  -0.1792
  C  C142  1  0.999300  0.465500  0.858100  1.0  -0.02
  C  C143  1  0.715200  0.545100  0.167160  1.0  0.6998
  C  C144  1  0.672000  0.506200  0.123240  1.0  -0.131
  C  C145  1  0.679100  0.557300  0.085320  1.0  -0.0512
  C  C146  1  0.643700  0.524900  0.043380  1.0  -0.1851
  C  C147  1  0.596900  0.438200  0.038160  1.0  0.2069
  C  C148  1  0.586800  0.386100  0.075420  1.0  -0.1863
  C  C149  1  0.624800  0.419300  0.117600  1.0  -0.0897
  C  C150  1  0.620000  0.670800  0.819800  1.0  0.7282
  C  C151  1  0.611500  0.596100  0.847000  1.0  -0.1471
  C  C152  1  0.678200  0.588700  0.859900  1.0  -0.0456
  C  C153  1  0.668100  0.517900  0.883200  1.0  -0.1891
  C  C154  1  0.589400  0.457800  0.892810  1.0  0.2541
  C  C155  1  0.522300  0.463300  0.881900  1.0  -0.181
  C  C156  1  0.534500  0.533800  0.858100  1.0  -0.0192
  C  C157  1  0.545100  0.829900  0.667160  1.0  0.7016
  C  C158  1  0.506200  0.834200  0.623240  1.0  -0.1356
  C  C159  1  0.557300  0.878200  0.585320  1.0  -0.0555
  C  C160  1  0.524900  0.881200  0.543380  1.0  -0.1818
  C  C161  1  0.438200  0.841300  0.538160  1.0  0.2128
  C  C162  1  0.386100  0.799300  0.575420  1.0  -0.1879
  C  C163  1  0.419300  0.794500  0.617600  1.0  -0.0879
  C  C164  1  0.670800  0.050800  0.319800  1.0  0.727
  C  C165  1  0.596100  0.984600  0.347000  1.0  -0.1467
  C  C166  1  0.588700  0.910500  0.359900  1.0  -0.0462
  C  C167  1  0.517900  0.849800  0.383200  1.0  -0.1891
  C  C168  1  0.457800  0.868400  0.392810  1.0  0.2549
  C  C169  1  0.463300  0.941000  0.381900  1.0  -0.1823
  C  C170  1  0.533800  0.999300  0.358100  1.0  -0.0209
  C  C171  1  0.170100  0.715200  0.667160  1.0  0.7038
  C  C172  1  0.165800  0.672000  0.623240  1.0  -0.1374
  C  C173  1  0.121800  0.679100  0.585320  1.0  -0.0573
  C  C174  1  0.118800  0.643700  0.543380  1.0  -0.1837
  C  C175  1  0.158700  0.596900  0.538160  1.0  0.211
  C  C176  1  0.200700  0.586800  0.575420  1.0  -0.1878
  C  C177  1  0.205500  0.624800  0.617600  1.0  -0.091
  C  C178  1  0.949200  0.620000  0.319800  1.0  0.7276
  C  C179  1  0.015400  0.611500  0.347000  1.0  -0.1464
  C  C180  1  0.089500  0.678200  0.359900  1.0  -0.0492
  C  C181  1  0.150200  0.668100  0.383200  1.0  -0.1894
  C  C182  1  0.131600  0.589400  0.392810  1.0  0.2558
  C  C183  1  0.059000  0.522300  0.381900  1.0  -0.1792
  C  C184  1  0.000700  0.534500  0.358100  1.0  -0.0206
  C  C185  1  0.284800  0.454900  0.667160  1.0  0.6995
  C  C186  1  0.328000  0.493800  0.623240  1.0  -0.1332
  C  C187  1  0.320900  0.442700  0.585320  1.0  -0.0528
  C  C188  1  0.356300  0.475100  0.543380  1.0  -0.1841
  C  C189  1  0.403100  0.561800  0.538160  1.0  0.2078
  C  C190  1  0.413200  0.613900  0.575420  1.0  -0.1865
  C  C191  1  0.375200  0.580700  0.617600  1.0  -0.0905
  C  C192  1  0.380000  0.329200  0.319800  1.0  0.7265
  C  C193  1  0.388500  0.403900  0.347000  1.0  -0.1462
  C  C194  1  0.321800  0.411300  0.359900  1.0  -0.0464
  C  C195  1  0.331900  0.482100  0.383200  1.0  -0.1892
  C  C196  1  0.410600  0.542200  0.392810  1.0  0.2569
  C  C197  1  0.477700  0.536700  0.381900  1.0  -0.1801
  C  C198  1  0.465500  0.466200  0.358100  1.0  -0.0171
  C  C199  1  0.545100  0.829900  0.832840  1.0  0.7002
  C  C200  1  0.506200  0.834200  0.876760  1.0  -0.1338
  C  C201  1  0.557300  0.878200  0.914680  1.0  -0.0558
  C  C202  1  0.524900  0.881200  0.956620  1.0  -0.1817
  C  C203  1  0.438200  0.841300  0.961840  1.0  0.2108
  C  C204  1  0.386100  0.799300  0.924580  1.0  -0.1882
  C  C205  1  0.419300  0.794500  0.882400  1.0  -0.088
  C  C206  1  0.670800  0.050800  0.180200  1.0  0.7277
  C  C207  1  0.596100  0.984600  0.153000  1.0  -0.147
  C  C208  1  0.588700  0.910500  0.140100  1.0  -0.0451
  C  C209  1  0.517900  0.849800  0.116800  1.0  -0.1897
  C  C210  1  0.457800  0.868400  0.107190  1.0  0.2543
  C  C211  1  0.463300  0.941000  0.118100  1.0  -0.182
  C  C212  1  0.533800  0.999300  0.141900  1.0  -0.0201
  C  C213  1  0.170100  0.715200  0.832840  1.0  0.7058
  C  C214  1  0.165800  0.672000  0.876760  1.0  -0.1371
  C  C215  1  0.121800  0.679100  0.914680  1.0  -0.0577
  C  C216  1  0.118800  0.643700  0.956620  1.0  -0.1841
  C  C217  1  0.158700  0.596900  0.961840  1.0  0.2107
  C  C218  1  0.200700  0.586800  0.924580  1.0  -0.1878
  C  C219  1  0.205500  0.624800  0.882400  1.0  -0.0905
  C  C220  1  0.949200  0.620000  0.180200  1.0  0.728
  C  C221  1  0.015400  0.611500  0.153000  1.0  -0.1452
  C  C222  1  0.089500  0.678200  0.140100  1.0  -0.0475
  C  C223  1  0.150200  0.668100  0.116800  1.0  -0.1893
  C  C224  1  0.131600  0.589400  0.107190  1.0  0.2553
  C  C225  1  0.059000  0.522300  0.118100  1.0  -0.179
  C  C226  1  0.000700  0.534500  0.141900  1.0  -0.0212
  C  C227  1  0.284800  0.454900  0.832840  1.0  0.6991
  C  C228  1  0.328000  0.493800  0.876760  1.0  -0.1326
  C  C229  1  0.320900  0.442700  0.914680  1.0  -0.052
  C  C230  1  0.356300  0.475100  0.956620  1.0  -0.1844
  C  C231  1  0.403100  0.561800  0.961840  1.0  0.2071
  C  C232  1  0.413200  0.613900  0.924580  1.0  -0.1867
  C  C233  1  0.375200  0.580700  0.882400  1.0  -0.0906
  C  C234  1  0.380000  0.329200  0.180200  1.0  0.7275
  C  C235  1  0.388500  0.403900  0.153000  1.0  -0.1456
  C  C236  1  0.321800  0.411300  0.140100  1.0  -0.0457
  C  C237  1  0.331900  0.482100  0.116800  1.0  -0.1896
  C  C238  1  0.410600  0.542200  0.107190  1.0  0.2563
  C  C239  1  0.477700  0.536700  0.118100  1.0  -0.1795
  C  C240  1  0.465500  0.466200  0.141900  1.0  -0.0175
  C  C241  1  0.454900  0.170100  0.332840  1.0  0.7025
  C  C242  1  0.493800  0.165800  0.376760  1.0  -0.1375
  C  C243  1  0.442700  0.121800  0.414680  1.0  -0.056
  C  C244  1  0.475100  0.118800  0.456620  1.0  -0.1803
  C  C245  1  0.561800  0.158700  0.461840  1.0  0.2099
  C  C246  1  0.613900  0.200700  0.424580  1.0  -0.1884
  C  C247  1  0.580700  0.205500  0.382400  1.0  -0.0891
  C  C248  1  0.329200  0.949200  0.680200  1.0  0.7287
  C  C249  1  0.403900  0.015400  0.653000  1.0  -0.1455
  C  C250  1  0.411300  0.089500  0.640100  1.0  -0.0455
  C  C251  1  0.482100  0.150200  0.616800  1.0  -0.1889
  C  C252  1  0.542200  0.131600  0.607190  1.0  0.2547
  C  C253  1  0.536700  0.059000  0.618100  1.0  -0.1808
  C  C254  1  0.466200  0.000700  0.641900  1.0  -0.0201
  C  C255  1  0.829900  0.284800  0.332840  1.0  0.7009
  C  C256  1  0.834200  0.328000  0.376760  1.0  -0.1349
  C  C257  1  0.878200  0.320900  0.414680  1.0  -0.0573
  C  C258  1  0.881200  0.356300  0.456620  1.0  -0.1846
  C  C259  1  0.841300  0.403100  0.461840  1.0  0.212
  C  C260  1  0.799300  0.413200  0.424580  1.0  -0.1869
  C  C261  1  0.794500  0.375200  0.382400  1.0  -0.0891
  C  C262  1  0.050800  0.380000  0.680200  1.0  0.7277
  C  C263  1  0.984600  0.388500  0.653000  1.0  -0.1449
  C  C264  1  0.910500  0.321800  0.640100  1.0  -0.0483
  C  C265  1  0.849800  0.331900  0.616800  1.0  -0.1894
  C  C266  1  0.868400  0.410600  0.607190  1.0  0.2546
  C  C267  1  0.941000  0.477700  0.618100  1.0  -0.1788
  C  C268  1  0.999300  0.465500  0.641900  1.0  -0.0196
  C  C269  1  0.715200  0.545100  0.332840  1.0  0.6995
  C  C270  1  0.672000  0.506200  0.376760  1.0  -0.1296
  C  C271  1  0.679100  0.557300  0.414680  1.0  -0.0518
  C  C272  1  0.643700  0.524900  0.456620  1.0  -0.1858
  C  C273  1  0.596900  0.438200  0.461840  1.0  0.2062
  C  C274  1  0.586800  0.386100  0.424580  1.0  -0.1858
  C  C275  1  0.624800  0.419300  0.382400  1.0  -0.0892
  C  C276  1  0.620000  0.670800  0.680200  1.0  0.7281
  C  C277  1  0.611500  0.596100  0.653000  1.0  -0.1467
  C  C278  1  0.678200  0.588700  0.640100  1.0  -0.0445
  C  C279  1  0.668100  0.517900  0.616800  1.0  -0.19
  C  C280  1  0.589400  0.457800  0.607190  1.0  0.2538
  C  C281  1  0.522300  0.463300  0.618100  1.0  -0.1806
  C  C282  1  0.534500  0.533800  0.641900  1.0  -0.0189
  N  N283  1  0.570000  0.275300  0.967210  1.0  -0.5185
  N  N284  1  0.724700  0.294700  0.967210  1.0  -0.5179
  N  N285  1  0.705300  0.430000  0.967210  1.0  -0.5192
  N  N286  1  0.430000  0.724700  0.467210  1.0  -0.5176
  N  N287  1  0.275300  0.705300  0.467210  1.0  -0.517
  N  N288  1  0.294700  0.570000  0.467210  1.0  -0.5197
  N  N289  1  0.430000  0.724700  0.032790  1.0  -0.5176
  N  N290  1  0.275300  0.705300  0.032790  1.0  -0.5166
  N  N291  1  0.294700  0.570000  0.032790  1.0  -0.5196
  N  N292  1  0.570000  0.275300  0.532790  1.0  -0.5183
  N  N293  1  0.724700  0.294700  0.532790  1.0  -0.5175
  N  N294  1  0.705300  0.430000  0.532790  1.0  -0.5196
  O  O295  1  0.594600  0.157300  0.995210  1.0  -0.4229
  O  O296  1  0.618400  0.192800  0.913240  1.0  -0.495
  O  O297  1  0.377400  0.127800  0.170050  1.0  -0.5211
  O  O298  1  0.501200  0.219200  0.198910  1.0  -0.639
  O  O299  1  0.268900  0.961300  0.815800  1.0  -0.496
  O  O300  1  0.336900  0.894800  0.800800  1.0  -0.6297
  O  O301  1  0.842700  0.437300  0.995210  1.0  -0.4219
  O  O302  1  0.807200  0.425600  0.913240  1.0  -0.4939
  O  O303  1  0.872200  0.249600  0.170050  1.0  -0.5226
  O  O304  1  0.780800  0.282000  0.198910  1.0  -0.6369
  O  O305  1  0.038700  0.307600  0.815800  1.0  -0.4931
  O  O306  1  0.105200  0.442100  0.800800  1.0  -0.6293
  O  O307  1  0.562700  0.405400  0.995210  1.0  -0.4223
  O  O308  1  0.574400  0.381600  0.913240  1.0  -0.4959
  O  O309  1  0.750400  0.622600  0.170050  1.0  -0.5226
  O  O310  1  0.718000  0.498800  0.198910  1.0  -0.6377
  O  O311  1  0.692400  0.731100  0.815800  1.0  -0.4937
  O  O312  1  0.557900  0.663100  0.800800  1.0  -0.6282
  O  O313  1  0.405400  0.842700  0.495210  1.0  -0.4237
  O  O314  1  0.381600  0.807200  0.413240  1.0  -0.4954
  O  O315  1  0.622600  0.872200  0.670050  1.0  -0.523
  O  O316  1  0.498800  0.780800  0.698910  1.0  -0.6387
  O  O317  1  0.731100  0.038700  0.315800  1.0  -0.4977
  O  O318  1  0.663100  0.105200  0.300800  1.0  -0.6291
  O  O319  1  0.157300  0.562700  0.495210  1.0  -0.4224
  O  O320  1  0.192800  0.574400  0.413240  1.0  -0.4961
  O  O321  1  0.127800  0.750400  0.670050  1.0  -0.5215
  O  O322  1  0.219200  0.718000  0.698910  1.0  -0.6405
  O  O323  1  0.961300  0.692400  0.315800  1.0  -0.493
  O  O324  1  0.894800  0.557900  0.300800  1.0  -0.6297
  O  O325  1  0.437300  0.594600  0.495210  1.0  -0.4228
  O  O326  1  0.425600  0.618400  0.413240  1.0  -0.4952
  O  O327  1  0.249600  0.377400  0.670050  1.0  -0.5217
  O  O328  1  0.282000  0.501200  0.698910  1.0  -0.6388
  O  O329  1  0.307600  0.268900  0.315800  1.0  -0.4941
  O  O330  1  0.442100  0.336900  0.300800  1.0  -0.6295
  O  O331  1  0.405400  0.842700  0.004790  1.0  -0.4237
  O  O332  1  0.381600  0.807200  0.086760  1.0  -0.4956
  O  O333  1  0.622600  0.872200  0.829950  1.0  -0.5213
  O  O334  1  0.498800  0.780800  0.801090  1.0  -0.6372
  O  O335  1  0.731100  0.038700  0.184200  1.0  -0.4984
  O  O336  1  0.663100  0.105200  0.199200  1.0  -0.6298
  O  O337  1  0.157300  0.562700  0.004790  1.0  -0.4222
  O  O338  1  0.192800  0.574400  0.086760  1.0  -0.4962
  O  O339  1  0.127800  0.750400  0.829950  1.0  -0.5214
  O  O340  1  0.219200  0.718000  0.801090  1.0  -0.6377
  O  O341  1  0.961300  0.692400  0.184200  1.0  -0.4934
  O  O342  1  0.894800  0.557900  0.199200  1.0  -0.6306
  O  O343  1  0.437300  0.594600  0.004790  1.0  -0.4231
  O  O344  1  0.425600  0.618400  0.086760  1.0  -0.4961
  O  O345  1  0.249600  0.377400  0.829950  1.0  -0.5214
  O  O346  1  0.282000  0.501200  0.801090  1.0  -0.6375
  O  O347  1  0.307600  0.268900  0.184200  1.0  -0.4946
  O  O348  1  0.442100  0.336900  0.199200  1.0  -0.6304
  O  O349  1  0.594600  0.157300  0.504790  1.0  -0.4228
  O  O350  1  0.618400  0.192800  0.586760  1.0  -0.4953
  O  O351  1  0.377400  0.127800  0.329950  1.0  -0.5219
  O  O352  1  0.501200  0.219200  0.301090  1.0  -0.6377
  O  O353  1  0.268900  0.961300  0.684200  1.0  -0.4963
  O  O354  1  0.336900  0.894800  0.699200  1.0  -0.6311
  O  O355  1  0.842700  0.437300  0.504790  1.0  -0.4217
  O  O356  1  0.807200  0.425600  0.586760  1.0  -0.4948
  O  O357  1  0.872200  0.249600  0.329950  1.0  -0.5215
  O  O358  1  0.780800  0.282000  0.301090  1.0  -0.6357
  O  O359  1  0.038700  0.307600  0.684200  1.0  -0.4939
  O  O360  1  0.105200  0.442100  0.699200  1.0  -0.6302
  O  O361  1  0.562700  0.405400  0.504790  1.0  -0.4223
  O  O362  1  0.574400  0.381600  0.586760  1.0  -0.4968
  O  O363  1  0.750400  0.622600  0.329950  1.0  -0.5216
  O  O364  1  0.718000  0.498800  0.301090  1.0  -0.6368
  O  O365  1  0.692400  0.731100  0.684200  1.0  -0.4944
  O  O366  1  0.557900  0.663100  0.699200  1.0  -0.6286
