# generated using pymatgen
data_BaPH8C14NO6
_symmetry_space_group_name_H-M   'P 1'
_cell_length_a   21.08180000
_cell_length_b   9.47660000
_cell_length_c   33.64670000
_cell_angle_alpha   90.00000000
_cell_angle_beta   126.57300000
_cell_angle_gamma   90.00000000
_symmetry_Int_Tables_number   1
_chemical_formula_structural   BaPH8C14NO6
_chemical_formula_sum   'Ba12 P12 H96 C168 N12 O72'
_cell_volume   5398.47939978
_cell_formula_units_Z   12
loop_
 _symmetry_equiv_pos_site_id
 _symmetry_equiv_pos_as_xyz
  1  'x, y, z'
loop_
 _atom_site_type_symbol
 _atom_site_label
 _atom_site_symmetry_multiplicity
 _atom_site_fract_x
 _atom_site_fract_y
 _atom_site_fract_z
 _atom_site_occupancy
 _atom_site_charge
  Ba  Ba1  1  0.023400  0.318070  0.277880  1.0  1.5971
  Ba  Ba2  1  0.129850  0.963530  0.369690  1.0  1.6346
  Ba  Ba3  1  0.002840  0.784760  0.097800  1.0  1.6336
  Ba  Ba4  1  0.976600  0.818070  0.222120  1.0  1.5966
  Ba  Ba5  1  0.870150  0.463530  0.130310  1.0  1.6337
  Ba  Ba6  1  0.997160  0.284760  0.402200  1.0  1.6329
  Ba  Ba7  1  0.976600  0.681930  0.722120  1.0  1.6012
  Ba  Ba8  1  0.870150  0.036470  0.630310  1.0  1.6337
  Ba  Ba9  1  0.997160  0.215240  0.902200  1.0  1.633
  Ba  Ba10  1  0.023400  0.181930  0.777880  1.0  1.5999
  Ba  Ba11  1  0.129850  0.536470  0.869690  1.0  1.634
  Ba  Ba12  1  0.002840  0.715240  0.597800  1.0  1.6335
  P  P13  1  0.493560  0.234300  0.346150  1.0  1.4286
  P  P14  1  0.433700  0.442700  0.275100  1.0  1.3913
  P  P15  1  0.511670  0.515900  0.373010  1.0  1.4472
  P  P16  1  0.506440  0.734300  0.153850  1.0  1.428
  P  P17  1  0.566300  0.942700  0.224900  1.0  1.3916
  P  P18  1  0.488330  0.015900  0.126990  1.0  1.4454
  P  P19  1  0.506440  0.765700  0.653850  1.0  1.429
  P  P20  1  0.566300  0.557300  0.724900  1.0  1.3918
  P  P21  1  0.488330  0.484100  0.626990  1.0  1.4456
  P  P22  1  0.493560  0.265700  0.846150  1.0  1.4293
  P  P23  1  0.433700  0.057300  0.775100  1.0  1.3916
  P  P24  1  0.511670  0.984100  0.873010  1.0  1.4473
  H  H25  1  0.349300  0.016300  0.267500  1.0  0.1
  H  H26  1  0.214800  0.975400  0.227800  1.0  0.0811
  H  H27  1  0.233900  0.141800  0.344100  1.0  0.0876
  H  H28  1  0.369200  0.169000  0.384800  1.0  0.1056
  H  H29  1  0.255400  0.276400  0.209800  1.0  0.1011
  H  H30  1  0.134900  0.289500  0.196900  1.0  0.0867
  H  H31  1  0.164600  0.707700  0.223500  1.0  0.0978
  H  H32  1  0.289200  0.689500  0.241200  1.0  0.0933
  H  H33  1  0.377000  0.395000  0.374800  1.0  0.1009
  H  H34  1  0.244600  0.421800  0.338700  1.0  0.0683
  H  H35  1  0.265600  0.838200  0.343500  1.0  0.0679
  H  H36  1  0.396300  0.817000  0.375000  1.0  0.1181
  H  H37  1  0.597900  0.761300  0.460800  1.0  0.1046
  H  H38  1  0.700600  0.795000  0.543400  1.0  0.0839
  H  H39  1  0.824300  0.490200  0.536000  1.0  0.0898
  H  H40  1  0.723000  0.456600  0.453400  1.0  0.1061
  H  H41  1  0.573900  0.675600  0.297500  1.0  0.1074
  H  H42  1  0.711300  0.677500  0.345400  1.0  0.0871
  H  H43  1  0.711600  0.258200  0.329100  1.0  0.0762
  H  H44  1  0.574800  0.254800  0.281000  1.0  0.1097
  H  H45  1  0.654400  0.226900  0.446900  1.0  0.099
  H  H46  1  0.769800  0.115000  0.512000  1.0  0.0626
  H  H47  1  0.745900  0.825800  0.419100  1.0  0.0932
  H  H48  1  0.631700  0.932700  0.355200  1.0  0.093
  H  H49  1  0.650700  0.516300  0.232500  1.0  0.0995
  H  H50  1  0.785200  0.475400  0.272200  1.0  0.0814
  H  H51  1  0.766100  0.641800  0.155900  1.0  0.0881
  H  H52  1  0.630800  0.669000  0.115200  1.0  0.1045
  H  H53  1  0.744600  0.776400  0.290200  1.0  0.1013
  H  H54  1  0.865100  0.789500  0.303100  1.0  0.0876
  H  H55  1  0.835400  0.207700  0.276500  1.0  0.0981
  H  H56  1  0.710800  0.189500  0.258800  1.0  0.0932
  H  H57  1  0.623000  0.895000  0.125200  1.0  0.1003
  H  H58  1  0.755400  0.921800  0.161300  1.0  0.0683
  H  H59  1  0.734400  0.338200  0.156500  1.0  0.067
  H  H60  1  0.603700  0.317000  0.125000  1.0  0.1177
  H  H61  1  0.402100  0.261300  0.039200  1.0  0.1049
  H  H62  1  0.299400  0.295000  0.956600  1.0  0.0836
  H  H63  1  0.175700  0.990200  0.964000  1.0  0.0897
  H  H64  1  0.277000  0.956600  0.046600  1.0  0.1069
  H  H65  1  0.426100  0.175600  0.202500  1.0  0.1078
  H  H66  1  0.288700  0.177500  0.154600  1.0  0.0876
  H  H67  1  0.288400  0.758200  0.170900  1.0  0.0769
  H  H68  1  0.425200  0.754800  0.219000  1.0  0.1102
  H  H69  1  0.345600  0.726900  0.053100  1.0  0.0988
  H  H70  1  0.230200  0.615000  0.988000  1.0  0.0637
  H  H71  1  0.254100  0.325800  0.080900  1.0  0.0928
  H  H72  1  0.368300  0.432700  0.144800  1.0  0.0935
  H  H73  1  0.650700  0.983700  0.732500  1.0  0.0991
  H  H74  1  0.785200  0.024600  0.772200  1.0  0.0812
  H  H75  1  0.766100  0.858200  0.655900  1.0  0.0882
  H  H76  1  0.630800  0.831000  0.615200  1.0  0.1047
  H  H77  1  0.744600  0.723600  0.790200  1.0  0.1013
  H  H78  1  0.865100  0.710500  0.803100  1.0  0.0871
  H  H79  1  0.835400  0.292300  0.776500  1.0  0.0982
  H  H80  1  0.710800  0.310500  0.758800  1.0  0.0931
  H  H81  1  0.623000  0.605000  0.625200  1.0  0.1007
  H  H82  1  0.755400  0.578200  0.661300  1.0  0.0685
  H  H83  1  0.734400  0.161800  0.656500  1.0  0.0672
  H  H84  1  0.603700  0.183000  0.625000  1.0  0.117
  H  H85  1  0.402100  0.238700  0.539200  1.0  0.1046
  H  H86  1  0.299400  0.205000  0.456600  1.0  0.0834
  H  H87  1  0.175700  0.509800  0.464000  1.0  0.09
  H  H88  1  0.277000  0.543400  0.546600  1.0  0.1063
  H  H89  1  0.426100  0.324400  0.702500  1.0  0.1075
  H  H90  1  0.288700  0.322500  0.654600  1.0  0.0871
  H  H91  1  0.288400  0.741800  0.670900  1.0  0.0762
  H  H92  1  0.425200  0.745200  0.719000  1.0  0.1101
  H  H93  1  0.345600  0.773100  0.553100  1.0  0.0987
  H  H94  1  0.230200  0.885000  0.488000  1.0  0.0643
  H  H95  1  0.254100  0.174200  0.580900  1.0  0.0934
  H  H96  1  0.368300  0.067300  0.644800  1.0  0.0932
  H  H97  1  0.349300  0.483700  0.767500  1.0  0.0998
  H  H98  1  0.214800  0.524600  0.727800  1.0  0.0812
  H  H99  1  0.233900  0.358200  0.844100  1.0  0.0878
  H  H100  1  0.369200  0.331000  0.884800  1.0  0.1056
  H  H101  1  0.255400  0.223600  0.709800  1.0  0.1015
  H  H102  1  0.134900  0.210500  0.696900  1.0  0.0877
  H  H103  1  0.164600  0.792300  0.723500  1.0  0.098
  H  H104  1  0.289200  0.810500  0.741200  1.0  0.0934
  H  H105  1  0.377000  0.105000  0.874800  1.0  0.1007
  H  H106  1  0.244600  0.078200  0.838700  1.0  0.0681
  H  H107  1  0.265600  0.661800  0.843500  1.0  0.0679
  H  H108  1  0.396300  0.683000  0.875000  1.0  0.1182
  H  H109  1  0.597900  0.738700  0.960800  1.0  0.1048
  H  H110  1  0.700600  0.705000  0.043400  1.0  0.0841
  H  H111  1  0.824300  0.009800  0.036000  1.0  0.0904
  H  H112  1  0.723000  0.043400  0.953400  1.0  0.1062
  H  H113  1  0.573900  0.824400  0.797500  1.0  0.1074
  H  H114  1  0.711300  0.822500  0.845400  1.0  0.0873
  H  H115  1  0.711600  0.241800  0.829100  1.0  0.0771
  H  H116  1  0.574800  0.245200  0.781000  1.0  0.1101
  H  H117  1  0.654400  0.273100  0.946900  1.0  0.099
  H  H118  1  0.769800  0.385000  0.012000  1.0  0.0625
  H  H119  1  0.745900  0.674200  0.919100  1.0  0.0935
  H  H120  1  0.631700  0.567300  0.855200  1.0  0.0929
  C  C121  1  0.370300  0.095700  0.329000  1.0  0.251
  C  C122  1  0.326200  0.039800  0.283000  1.0  -0.1633
  C  C123  1  0.245200  0.017400  0.258900  1.0  -0.0402
  C  C124  1  0.210400  0.058100  0.281700  1.0  -0.1249
  C  C125  1  0.256700  0.115100  0.328600  1.0  -0.0842
  C  C126  1  0.337600  0.132700  0.352800  1.0  -0.2122
  C  C127  1  0.124600  0.028000  0.256800  1.0  0.668
  C  C128  1  0.280700  0.482600  0.224800  1.0  0.2466
  C  C129  1  0.236900  0.362200  0.212600  1.0  -0.1781
  C  C130  1  0.164700  0.370900  0.204300  1.0  -0.0322
  C  C131  1  0.135500  0.500100  0.207000  1.0  -0.1333
  C  C132  1  0.182700  0.621200  0.220900  1.0  -0.0414
  C  C133  1  0.256500  0.610900  0.230800  1.0  -0.2126
  C  C134  1  0.055200  0.507800  0.195300  1.0  0.6886
  C  C135  1  0.398600  0.606300  0.377400  1.0  0.2451
  C  C136  1  0.354300  0.484200  0.367600  1.0  -0.2133
  C  C137  1  0.275600  0.501800  0.346800  1.0  -0.0436
  C  C138  1  0.240300  0.632000  0.337400  1.0  -0.1636
  C  C139  1  0.287500  0.748800  0.348900  1.0  -0.0265
  C  C140  1  0.366000  0.736800  0.368300  1.0  -0.2385
  C  C141  1  0.153800  0.645800  0.314400  1.0  0.6914
  C  C142  1  0.651300  0.606800  0.449900  1.0  0.2447
  C  C143  1  0.643500  0.706900  0.476000  1.0  -0.2196
  C  C144  1  0.704800  0.725300  0.525600  1.0  -0.0397
  C  C145  1  0.773000  0.642100  0.549700  1.0  -0.1629
  C  C146  1  0.778600  0.544000  0.521200  1.0  -0.0455
  C  C147  1  0.718500  0.524000  0.471700  1.0  -0.2194
  C  C148  1  0.841600  0.672000  0.601800  1.0  0.688
  C  C149  1  0.562300  0.466000  0.283100  1.0  0.2232
  C  C150  1  0.601700  0.592600  0.303300  1.0  -0.1929
  C  C151  1  0.683900  0.593100  0.332300  1.0  -0.0622
  C  C152  1  0.726000  0.465600  0.342100  1.0  -0.1371
  C  C153  1  0.684300  0.342300  0.322600  1.0  -0.033
  C  C154  1  0.602200  0.339500  0.293400  1.0  -0.2
  C  C155  1  0.813800  0.473300  0.366900  1.0  0.6759
  C  C156  1  0.631100  0.087600  0.394900  1.0  0.3066
  C  C157  1  0.672200  0.145200  0.441200  1.0  -0.2079
  C  C158  1  0.742400  0.078400  0.480200  1.0  -0.04
  C  C159  1  0.770300  0.963500  0.472100  1.0  -0.138
  C  C160  1  0.727900  0.907000  0.425000  1.0  -0.0612
  C  C161  1  0.659300  0.970500  0.386900  1.0  -0.2145
  C  C162  1  0.846100  0.895200  0.514100  1.0  0.7086
  C  C163  1  0.629700  0.595700  0.171000  1.0  0.2478
  C  C164  1  0.673800  0.539800  0.217000  1.0  -0.1635
  C  C165  1  0.754800  0.517400  0.241100  1.0  -0.0417
  C  C166  1  0.789600  0.558100  0.218300  1.0  -0.1214
  C  C167  1  0.743300  0.615100  0.171400  1.0  -0.0857
  C  C168  1  0.662400  0.632700  0.147200  1.0  -0.2129
  C  C169  1  0.875400  0.528000  0.243200  1.0  0.6645
  C  C170  1  0.719300  0.982600  0.275200  1.0  0.246
  C  C171  1  0.763100  0.862200  0.287400  1.0  -0.176
  C  C172  1  0.835300  0.870900  0.295700  1.0  -0.0324
  C  C173  1  0.864500  0.000100  0.293000  1.0  -0.1324
  C  C174  1  0.817300  0.121200  0.279100  1.0  -0.0408
  C  C175  1  0.743500  0.110900  0.269200  1.0  -0.2119
  C  C176  1  0.944800  0.007800  0.304700  1.0  0.6862
  C  C177  1  0.601400  0.106300  0.122600  1.0  0.2424
  C  C178  1  0.645700  0.984200  0.132400  1.0  -0.2119
  C  C179  1  0.724400  0.001800  0.153200  1.0  -0.0417
  C  C180  1  0.759700  0.132000  0.162600  1.0  -0.1637
  C  C181  1  0.712500  0.248800  0.151100  1.0  -0.0272
  C  C182  1  0.634000  0.236800  0.131700  1.0  -0.2378
  C  C183  1  0.846200  0.145800  0.185600  1.0  0.6919
  C  C184  1  0.348700  0.106800  0.050100  1.0  0.2465
  C  C185  1  0.356500  0.206900  0.024000  1.0  -0.2214
  C  C186  1  0.295200  0.225300  0.974400  1.0  -0.0401
  C  C187  1  0.227000  0.142100  0.950300  1.0  -0.1642
  C  C188  1  0.221400  0.044000  0.978800  1.0  -0.0428
  C  C189  1  0.281500  0.024000  0.028300  1.0  -0.2189
  C  C190  1  0.158400  0.172000  0.898200  1.0  0.6886
  C  C191  1  0.437700  0.966000  0.216900  1.0  0.2246
  C  C192  1  0.398300  0.092600  0.196700  1.0  -0.1929
  C  C193  1  0.316100  0.093100  0.167700  1.0  -0.0614
  C  C194  1  0.274000  0.965600  0.157900  1.0  -0.1378
  C  C195  1  0.315700  0.842300  0.177400  1.0  -0.0329
  C  C196  1  0.397800  0.839500  0.206600  1.0  -0.1994
  C  C197  1  0.186200  0.973300  0.133100  1.0  0.678
  C  C198  1  0.368900  0.587600  0.105100  1.0  0.3074
  C  C199  1  0.327800  0.645200  0.058800  1.0  -0.208
  C  C200  1  0.257600  0.578400  0.019800  1.0  -0.0393
  C  C201  1  0.229700  0.463500  0.027900  1.0  -0.1363
  C  C202  1  0.272100  0.407000  0.075000  1.0  -0.0618
  C  C203  1  0.340700  0.470500  0.113100  1.0  -0.2126
  C  C204  1  0.153900  0.395200  0.985900  1.0  0.708
  C  C205  1  0.629700  0.904300  0.671000  1.0  0.2472
  C  C206  1  0.673800  0.960200  0.717000  1.0  -0.164
  C  C207  1  0.754800  0.982600  0.741100  1.0  -0.0415
  C  C208  1  0.789600  0.941900  0.718300  1.0  -0.1217
  C  C209  1  0.743300  0.884900  0.671400  1.0  -0.0858
  C  C210  1  0.662400  0.867300  0.647200  1.0  -0.2131
  C  C211  1  0.875400  0.972000  0.743200  1.0  0.6642
  C  C212  1  0.719300  0.517400  0.775200  1.0  0.246
  C  C213  1  0.763100  0.637800  0.787400  1.0  -0.1756
  C  C214  1  0.835300  0.629100  0.795700  1.0  -0.0326
  C  C215  1  0.864500  0.499900  0.793000  1.0  -0.1326
  C  C216  1  0.817300  0.378800  0.779100  1.0  -0.0408
  C  C217  1  0.743500  0.389100  0.769200  1.0  -0.2124
  C  C218  1  0.944800  0.492200  0.804700  1.0  0.6853
  C  C219  1  0.601400  0.393700  0.622600  1.0  0.2429
  C  C220  1  0.645700  0.515800  0.632400  1.0  -0.2112
  C  C221  1  0.724400  0.498200  0.653200  1.0  -0.042
  C  C222  1  0.759700  0.368000  0.662600  1.0  -0.1635
  C  C223  1  0.712500  0.251200  0.651100  1.0  -0.0267
  C  C224  1  0.634000  0.263200  0.631700  1.0  -0.2381
  C  C225  1  0.846200  0.354200  0.685600  1.0  0.6918
  C  C226  1  0.348700  0.393200  0.550100  1.0  0.2461
  C  C227  1  0.356500  0.293100  0.524000  1.0  -0.2214
  C  C228  1  0.295200  0.274700  0.474400  1.0  -0.04
  C  C229  1  0.227000  0.357900  0.450300  1.0  -0.1627
  C  C230  1  0.221400  0.456000  0.478800  1.0  -0.0428
  C  C231  1  0.281500  0.476000  0.528300  1.0  -0.2205
  C  C232  1  0.158400  0.328000  0.398200  1.0  0.6887
  C  C233  1  0.437700  0.534000  0.716900  1.0  0.2246
  C  C234  1  0.398300  0.407400  0.696700  1.0  -0.1924
  C  C235  1  0.316100  0.406900  0.667700  1.0  -0.062
  C  C236  1  0.274000  0.534400  0.657900  1.0  -0.1377
  C  C237  1  0.315700  0.657700  0.677400  1.0  -0.0317
  C  C238  1  0.397800  0.660500  0.706600  1.0  -0.1996
  C  C239  1  0.186200  0.526700  0.633100  1.0  0.6782
  C  C240  1  0.368900  0.912400  0.605100  1.0  0.3069
  C  C241  1  0.327800  0.854800  0.558800  1.0  -0.2076
  C  C242  1  0.257600  0.921600  0.519800  1.0  -0.0401
  C  C243  1  0.229700  0.036500  0.527900  1.0  -0.1376
  C  C244  1  0.272100  0.093000  0.575000  1.0  -0.0615
  C  C245  1  0.340700  0.029500  0.613100  1.0  -0.2129
  C  C246  1  0.153900  0.104800  0.485900  1.0  0.7077
  C  C247  1  0.370300  0.404300  0.829000  1.0  0.251
  C  C248  1  0.326200  0.460200  0.783000  1.0  -0.1633
  C  C249  1  0.245200  0.482600  0.758900  1.0  -0.0402
  C  C250  1  0.210400  0.441900  0.781700  1.0  -0.1255
  C  C251  1  0.256700  0.384900  0.828600  1.0  -0.0844
  C  C252  1  0.337600  0.367300  0.852800  1.0  -0.212
  C  C253  1  0.124600  0.472000  0.756800  1.0  0.668
  C  C254  1  0.280700  0.017400  0.724800  1.0  0.2466
  C  C255  1  0.236900  0.137800  0.712600  1.0  -0.1776
  C  C256  1  0.164700  0.129100  0.704300  1.0  -0.0329
  C  C257  1  0.135500  0.999900  0.707000  1.0  -0.1334
  C  C258  1  0.182700  0.878800  0.720900  1.0  -0.0412
  C  C259  1  0.256500  0.889100  0.730800  1.0  -0.2129
  C  C260  1  0.055200  0.992200  0.695300  1.0  0.6882
  C  C261  1  0.398600  0.893700  0.877400  1.0  0.245
  C  C262  1  0.354300  0.015800  0.867600  1.0  -0.2125
  C  C263  1  0.275600  0.998200  0.846800  1.0  -0.0428
  C  C264  1  0.240300  0.868000  0.837400  1.0  -0.1633
  C  C265  1  0.287500  0.751200  0.848900  1.0  -0.0254
  C  C266  1  0.366000  0.763200  0.868300  1.0  -0.2395
  C  C267  1  0.153800  0.854200  0.814400  1.0  0.6916
  C  C268  1  0.651300  0.893200  0.949900  1.0  0.2446
  C  C269  1  0.643500  0.793100  0.976000  1.0  -0.2196
  C  C270  1  0.704800  0.774700  0.025600  1.0  -0.04
  C  C271  1  0.773000  0.857900  0.049700  1.0  -0.1632
  C  C272  1  0.778600  0.956000  0.021200  1.0  -0.045
  C  C273  1  0.718500  0.976000  0.971700  1.0  -0.2193
  C  C274  1  0.841600  0.828000  0.101800  1.0  0.6879
  C  C275  1  0.562300  0.034000  0.783100  1.0  0.2232
  C  C276  1  0.601700  0.907400  0.803300  1.0  -0.1931
  C  C277  1  0.683900  0.906900  0.832300  1.0  -0.0624
  C  C278  1  0.726000  0.034400  0.842100  1.0  -0.1373
  C  C279  1  0.684300  0.157700  0.822600  1.0  -0.0336
  C  C280  1  0.602200  0.160500  0.793400  1.0  -0.1999
  C  C281  1  0.813800  0.026700  0.866900  1.0  0.6758
  C  C282  1  0.631100  0.412400  0.894900  1.0  0.3063
  C  C283  1  0.672200  0.354800  0.941200  1.0  -0.2084
  C  C284  1  0.742400  0.421600  0.980200  1.0  -0.0402
  C  C285  1  0.770300  0.536500  0.972100  1.0  -0.1385
  C  C286  1  0.727900  0.593000  0.925000  1.0  -0.0611
  C  C287  1  0.659300  0.529500  0.886900  1.0  -0.2144
  C  C288  1  0.846100  0.604800  0.014100  1.0  0.7096
  N  N289  1  0.438700  0.283800  0.289900  1.0  -0.6738
  N  N290  1  0.460000  0.558100  0.316600  1.0  -0.5899
  N  N291  1  0.521800  0.354000  0.386600  1.0  -0.5283
  N  N292  1  0.561300  0.783800  0.210100  1.0  -0.673
  N  N293  1  0.540000  0.058100  0.183400  1.0  -0.5908
  N  N294  1  0.478200  0.854000  0.113400  1.0  -0.5262
  N  N295  1  0.561300  0.716200  0.710100  1.0  -0.6733
  N  N296  1  0.540000  0.441900  0.683400  1.0  -0.5909
  N  N297  1  0.478200  0.646000  0.613400  1.0  -0.5244
  N  N298  1  0.438700  0.216200  0.789900  1.0  -0.6738
  N  N299  1  0.460000  0.941900  0.816600  1.0  -0.5902
  N  N300  1  0.521800  0.146000  0.886600  1.0  -0.5274
  O  O301  1  0.453000  0.110300  0.355400  1.0  -0.458
  O  O302  1  0.349300  0.478600  0.226000  1.0  -0.4283
  O  O303  1  0.479500  0.596300  0.399400  1.0  -0.4555
  O  O304  1  0.593400  0.594000  0.398100  1.0  -0.4418
  O  O305  1  0.478900  0.467000  0.251000  1.0  -0.4041
  O  O306  1  0.564200  0.150900  0.353100  1.0  -0.5639
  O  O307  1  0.094400  0.067900  0.278200  1.0  -0.7058
  O  O308  1  0.086000  0.960000  0.216300  1.0  -0.6873
  O  O309  1  0.026600  0.397300  0.200400  1.0  -0.7394
  O  O310  1  0.017500  0.623000  0.178200  1.0  -0.7366
  O  O311  1  0.111500  0.541300  0.299100  1.0  -0.7034
  O  O312  1  0.127200  0.770500  0.310500  1.0  -0.7867
  O  O313  1  0.906100  0.610700  0.619500  1.0  -0.7356
  O  O314  1  0.832200  0.760000  0.626500  1.0  -0.8466
  O  O315  1  0.847000  0.592900  0.379500  1.0  -0.575
  O  O316  1  0.847500  0.359000  0.370700  1.0  -0.6702
  O  O317  1  0.873200  0.924400  0.558200  1.0  -0.7434
  O  O318  1  0.881200  0.810200  0.504400  1.0  -0.646
  O  O319  1  0.547000  0.610300  0.144600  1.0  -0.4594
  O  O320  1  0.650700  0.978600  0.274000  1.0  -0.428
  O  O321  1  0.520500  0.096300  0.100600  1.0  -0.4565
  O  O322  1  0.406600  0.094000  0.101900  1.0  -0.4414
  O  O323  1  0.521100  0.967000  0.249000  1.0  -0.4036
  O  O324  1  0.435800  0.650900  0.146900  1.0  -0.5617
  O  O325  1  0.905600  0.567900  0.221800  1.0  -0.703
  O  O326  1  0.914000  0.460000  0.283700  1.0  -0.6858
  O  O327  1  0.973400  0.897300  0.299600  1.0  -0.7391
  O  O328  1  0.982500  0.123000  0.321800  1.0  -0.7364
  O  O329  1  0.888500  0.041300  0.200900  1.0  -0.7046
  O  O330  1  0.872800  0.270500  0.189500  1.0  -0.7876
  O  O331  1  0.093900  0.110700  0.880500  1.0  -0.736
  O  O332  1  0.167800  0.260000  0.873500  1.0  -0.8464
  O  O333  1  0.153000  0.092900  0.120500  1.0  -0.575
  O  O334  1  0.152500  0.859000  0.129300  1.0  -0.6682
  O  O335  1  0.126800  0.424400  0.941800  1.0  -0.7425
  O  O336  1  0.118800  0.310200  0.995600  1.0  -0.6429
  O  O337  1  0.547000  0.889700  0.644600  1.0  -0.4582
  O  O338  1  0.650700  0.521400  0.774000  1.0  -0.4283
  O  O339  1  0.520500  0.403700  0.600600  1.0  -0.4566
  O  O340  1  0.406600  0.406000  0.601900  1.0  -0.442
  O  O341  1  0.521100  0.533000  0.749000  1.0  -0.4039
  O  O342  1  0.435800  0.849100  0.646900  1.0  -0.5624
  O  O343  1  0.905600  0.932100  0.721800  1.0  -0.7037
  O  O344  1  0.914000  0.040000  0.783700  1.0  -0.6856
  O  O345  1  0.973400  0.602700  0.799600  1.0  -0.7383
  O  O346  1  0.982500  0.377000  0.821800  1.0  -0.7353
  O  O347  1  0.888500  0.458700  0.700900  1.0  -0.704
  O  O348  1  0.872800  0.229500  0.689500  1.0  -0.7896
  O  O349  1  0.093900  0.389300  0.380500  1.0  -0.7356
  O  O350  1  0.167800  0.240000  0.373500  1.0  -0.8457
  O  O351  1  0.153000  0.407100  0.620500  1.0  -0.5753
  O  O352  1  0.152500  0.641000  0.629300  1.0  -0.6666
  O  O353  1  0.126800  0.075600  0.441800  1.0  -0.7414
  O  O354  1  0.118800  0.189800  0.495600  1.0  -0.6437
  O  O355  1  0.453000  0.389700  0.855400  1.0  -0.4574
  O  O356  1  0.349300  0.021400  0.726000  1.0  -0.4287
  O  O357  1  0.479500  0.903700  0.899400  1.0  -0.4555
  O  O358  1  0.593400  0.906000  0.898100  1.0  -0.4426
  O  O359  1  0.478900  0.033000  0.751000  1.0  -0.4045
  O  O360  1  0.564200  0.349100  0.853100  1.0  -0.5634
  O  O361  1  0.094400  0.432100  0.778200  1.0  -0.7055
  O  O362  1  0.086000  0.540000  0.716300  1.0  -0.6865
  O  O363  1  0.026600  0.102700  0.700400  1.0  -0.7402
  O  O364  1  0.017500  0.877000  0.678200  1.0  -0.7357
  O  O365  1  0.111500  0.958700  0.799100  1.0  -0.703
  O  O366  1  0.127200  0.729500  0.810500  1.0  -0.7884
  O  O367  1  0.906100  0.889300  0.119500  1.0  -0.7359
  O  O368  1  0.832200  0.740000  0.126500  1.0  -0.8453
  O  O369  1  0.847000  0.907100  0.879500  1.0  -0.5772
  O  O370  1  0.847500  0.141000  0.870700  1.0  -0.6681
  O  O371  1  0.873200  0.575600  0.058200  1.0  -0.7414
  O  O372  1  0.881200  0.689800  0.004400  1.0  -0.6464
