# generated using pymatgen
data_Co3H15C27N3O11
_symmetry_space_group_name_H-M   'P 1'
_cell_length_a   11.54500000
_cell_length_b   20.22500000
_cell_length_c   14.39000000
_cell_angle_alpha   90.00000000
_cell_angle_beta   90.52800000
_cell_angle_gamma   90.00000000
_symmetry_Int_Tables_number   1
_chemical_formula_structural   Co3H15C27N3O11
_chemical_formula_sum   'Co12 H60 C108 N12 O44'
_cell_volume   3359.88815371
_cell_formula_units_Z   4
loop_
 _symmetry_equiv_pos_site_id
 _symmetry_equiv_pos_as_xyz
  1  'x, y, z'
loop_
 _atom_site_type_symbol
 _atom_site_label
 _atom_site_symmetry_multiplicity
 _atom_site_fract_x
 _atom_site_fract_y
 _atom_site_fract_z
 _atom_site_occupancy
 _atom_site_charge
  Co  Co1  1  0.246130  0.121780  0.231270  1.0  0.9352
  Co  Co2  1  0.311920  0.138560  0.000570  1.0  0.9419
  Co  Co3  1  0.147800  0.255330  0.096420  1.0  1.0625
  Co  Co4  1  0.253870  0.621780  0.268730  1.0  0.9358
  Co  Co5  1  0.188080  0.638560  0.499430  1.0  0.9407
  Co  Co6  1  0.352200  0.755330  0.403580  1.0  1.0626
  Co  Co7  1  0.753870  0.878220  0.768730  1.0  0.936
  Co  Co8  1  0.688080  0.861440  0.999430  1.0  0.9407
  Co  Co9  1  0.852200  0.744670  0.903580  1.0  1.0624
  Co  Co10  1  0.746130  0.378220  0.731270  1.0  0.9353
  Co  Co11  1  0.811920  0.361440  0.500570  1.0  0.9418
  Co  Co12  1  0.647800  0.244670  0.596420  1.0  1.0625
  H  H13  1  0.141000  0.137000  0.088000  1.0  0.4159
  H  H14  1  0.429500  0.962200  0.622500  1.0  0.2219
  H  H15  1  0.552300  0.180300  0.314100  1.0  0.1047
  H  H16  1  0.883900  0.233200  0.286500  1.0  0.1111
  H  H17  1  0.719600  0.246600  0.965000  1.0  0.1066
  H  H18  1  0.742600  0.096000  0.783300  1.0  0.1097
  H  H19  1  0.700800  0.059300  0.054700  1.0  0.1081
  H  H20  1  0.371500  0.159600  0.410200  1.0  0.081
  H  H21  1  0.431700  0.120000  0.551000  1.0  0.1271
  H  H22  1  0.304900  0.942000  0.478100  1.0  0.1406
  H  H23  1  0.248700  0.987600  0.338500  1.0  0.0869
  H  H24  1  0.502800  0.980500  0.778300  1.0  0.1295
  H  H25  1  0.477900  0.036400  0.915500  1.0  0.0819
  H  H26  1  0.258800  0.157100  0.799600  1.0  0.0654
  H  H27  1  0.272500  0.105100  0.660200  1.0  0.1392
  H  H28  1  0.359000  0.637000  0.412000  1.0  0.4139
  H  H29  1  0.070500  0.462200  0.877500  1.0  0.2242
  H  H30  1  0.947700  0.680300  0.185900  1.0  0.1054
  H  H31  1  0.616100  0.733200  0.213500  1.0  0.1106
  H  H32  1  0.780400  0.746600  0.535000  1.0  0.1062
  H  H33  1  0.757400  0.596000  0.716700  1.0  0.1099
  H  H34  1  0.799200  0.559300  0.445300  1.0  0.1075
  H  H35  1  0.128500  0.659600  0.089800  1.0  0.081
  H  H36  1  0.068300  0.620000  0.949000  1.0  0.1278
  H  H37  1  0.195100  0.442000  0.021900  1.0  0.1414
  H  H38  1  0.251300  0.487600  0.161500  1.0  0.0881
  H  H39  1  0.997200  0.480500  0.721700  1.0  0.129
  H  H40  1  0.022100  0.536400  0.584500  1.0  0.0816
  H  H41  1  0.241200  0.657100  0.700400  1.0  0.0652
  H  H42  1  0.227500  0.605100  0.839800  1.0  0.1385
  H  H43  1  0.859000  0.863000  0.912000  1.0  0.4137
  H  H44  1  0.570500  0.037800  0.377500  1.0  0.2251
  H  H45  1  0.447700  0.819700  0.685900  1.0  0.1051
  H  H46  1  0.116100  0.766800  0.713500  1.0  0.1106
  H  H47  1  0.280400  0.753400  0.035000  1.0  0.1068
  H  H48  1  0.257400  0.904000  0.216700  1.0  0.1098
  H  H49  1  0.299200  0.940700  0.945300  1.0  0.1076
  H  H50  1  0.628500  0.840400  0.589800  1.0  0.0814
  H  H51  1  0.568300  0.880000  0.449000  1.0  0.1271
  H  H52  1  0.695100  0.058000  0.521900  1.0  0.1411
  H  H53  1  0.751300  0.012400  0.661500  1.0  0.0886
  H  H54  1  0.497200  0.019500  0.221700  1.0  0.1291
  H  H55  1  0.522100  0.963600  0.084500  1.0  0.0815
  H  H56  1  0.741200  0.842900  0.200400  1.0  0.0658
  H  H57  1  0.727500  0.894900  0.339800  1.0  0.1385
  H  H58  1  0.641000  0.363000  0.588000  1.0  0.4159
  H  H59  1  0.929500  0.537800  0.122500  1.0  0.2248
  H  H60  1  0.052300  0.319700  0.814100  1.0  0.1044
  H  H61  1  0.383900  0.266800  0.786500  1.0  0.1109
  H  H62  1  0.219600  0.253400  0.465000  1.0  0.1071
  H  H63  1  0.242600  0.404000  0.283300  1.0  0.1092
  H  H64  1  0.200800  0.440700  0.554700  1.0  0.108
  H  H65  1  0.871500  0.340400  0.910200  1.0  0.0812
  H  H66  1  0.931700  0.380000  0.051000  1.0  0.1271
  H  H67  1  0.804900  0.558000  0.978100  1.0  0.1413
  H  H68  1  0.748700  0.512400  0.838500  1.0  0.0878
  H  H69  1  0.002800  0.519500  0.278300  1.0  0.129
  H  H70  1  0.977900  0.463600  0.415500  1.0  0.0818
  H  H71  1  0.758800  0.342900  0.299600  1.0  0.065
  H  H72  1  0.772500  0.394900  0.160200  1.0  0.1389
  C  C73  1  0.608300  0.172610  0.181900  1.0  -0.1486
  C  C74  1  0.617000  0.186090  0.277000  1.0  -0.0309
  C  C75  1  0.720000  0.208050  0.317300  1.0  -0.1286
  C  C76  1  0.815700  0.216380  0.261100  1.0  -0.0561
  C  C77  1  0.811400  0.199980  0.167100  1.0  -0.0932
  C  C78  1  0.707200  0.177970  0.125890  1.0  -0.0079
  C  C79  1  0.725600  0.226200  0.418400  1.0  0.7132
  C  C80  1  0.923400  0.204010  0.114600  1.0  0.7007
  C  C81  1  0.708800  0.156540  0.026200  1.0  -0.0088
  C  C82  1  0.719300  0.201410  0.952900  1.0  -0.0318
  C  C83  1  0.729400  0.178680  0.861500  1.0  -0.134
  C  C84  1  0.733700  0.111180  0.843800  1.0  0.0051
  C  C85  1  0.724700  0.066410  0.916500  1.0  -0.1488
  C  C86  1  0.710000  0.089510  0.006600  1.0  -0.014
  C  C87  1  0.731000  0.226220  0.781400  1.0  0.6908
  C  C88  1  0.726600  0.993350  0.898400  1.0  0.6997
  C  C89  1  0.356800  0.115530  0.424500  1.0  0.1679
  C  C90  1  0.392700  0.092400  0.509600  1.0  -0.2711
  C  C91  1  0.369900  0.026840  0.533100  1.0  0.2344
  C  C92  1  0.317500  0.986660  0.466500  1.0  -0.1925
  C  C93  1  0.284600  0.014600  0.382300  1.0  0.1921
  C  C94  1  0.392100  0.036690  0.702700  1.0  0.2431
  C  C95  1  0.452400  0.016340  0.781000  1.0  -0.2333
  C  C96  1  0.436500  0.050170  0.863300  1.0  0.1857
  C  C97  1  0.307700  0.120740  0.795200  1.0  0.186
  C  C98  1  0.315960  0.090520  0.710870  1.0  -0.265
  C  C99  1  0.488280  0.155640  0.145110  1.0  0.6851
  C  C100  1  0.891700  0.672610  0.318100  1.0  -0.1489
  C  C101  1  0.883000  0.686090  0.223000  1.0  -0.0299
  C  C102  1  0.780000  0.708050  0.182700  1.0  -0.1292
  C  C103  1  0.684300  0.716380  0.238900  1.0  -0.056
  C  C104  1  0.688600  0.699980  0.332900  1.0  -0.0943
  C  C105  1  0.792800  0.677970  0.374110  1.0  -0.008
  C  C106  1  0.774400  0.726200  0.081600  1.0  0.7125
  C  C107  1  0.576600  0.704010  0.385400  1.0  0.7
  C  C108  1  0.791200  0.656540  0.473800  1.0  -0.0099
  C  C109  1  0.780700  0.701410  0.547100  1.0  -0.0315
  C  C110  1  0.770600  0.678680  0.638500  1.0  -0.1354
  C  C111  1  0.766300  0.611180  0.656200  1.0  0.0067
  C  C112  1  0.775300  0.566410  0.583500  1.0  -0.1491
  C  C113  1  0.790000  0.589510  0.493400  1.0  -0.0131
  C  C114  1  0.769000  0.726220  0.718600  1.0  0.689
  C  C115  1  0.773400  0.493350  0.601600  1.0  0.6996
  C  C116  1  0.143200  0.615530  0.075500  1.0  0.1673
  C  C117  1  0.107300  0.592400  0.990400  1.0  -0.2697
  C  C118  1  0.130100  0.526840  0.966900  1.0  0.2336
  C  C119  1  0.182500  0.486660  0.033500  1.0  -0.1893
  C  C120  1  0.215400  0.514600  0.117700  1.0  0.1928
  C  C121  1  0.107900  0.536690  0.797300  1.0  0.2413
  C  C122  1  0.047600  0.516340  0.719000  1.0  -0.2342
  C  C123  1  0.063500  0.550170  0.636700  1.0  0.1853
  C  C124  1  0.192300  0.620740  0.704800  1.0  0.1867
  C  C125  1  0.184040  0.590520  0.789130  1.0  -0.2636
  C  C126  1  0.011720  0.655640  0.354890  1.0  0.6865
  C  C127  1  0.391700  0.827390  0.818100  1.0  -0.1486
  C  C128  1  0.383000  0.813910  0.723000  1.0  -0.0301
  C  C129  1  0.280000  0.791950  0.682700  1.0  -0.1285
  C  C130  1  0.184300  0.783620  0.738900  1.0  -0.0556
  C  C131  1  0.188600  0.800020  0.832900  1.0  -0.0947
  C  C132  1  0.292800  0.822030  0.874110  1.0  -0.0079
  C  C133  1  0.274400  0.773800  0.581600  1.0  0.7125
  C  C134  1  0.076600  0.795990  0.885400  1.0  0.7001
  C  C135  1  0.291200  0.843460  0.973800  1.0  -0.0099
  C  C136  1  0.280700  0.798590  0.047100  1.0  -0.0313
  C  C137  1  0.270600  0.821320  0.138500  1.0  -0.1352
  C  C138  1  0.266300  0.888820  0.156200  1.0  0.007
  C  C139  1  0.275300  0.933590  0.083500  1.0  -0.1491
  C  C140  1  0.290000  0.910490  0.993400  1.0  -0.0124
  C  C141  1  0.269000  0.773780  0.218600  1.0  0.6895
  C  C142  1  0.273400  0.006650  0.101600  1.0  0.6995
  C  C143  1  0.643200  0.884470  0.575500  1.0  0.1694
  C  C144  1  0.607300  0.907600  0.490400  1.0  -0.2678
  C  C145  1  0.630100  0.973160  0.466900  1.0  0.2334
  C  C146  1  0.682500  0.013340  0.533500  1.0  -0.1895
  C  C147  1  0.715400  0.985400  0.617700  1.0  0.1927
  C  C148  1  0.607900  0.963310  0.297300  1.0  0.2414
  C  C149  1  0.547600  0.983660  0.219000  1.0  -0.2339
  C  C150  1  0.563500  0.949830  0.136700  1.0  0.1852
  C  C151  1  0.692300  0.879260  0.204800  1.0  0.1865
  C  C152  1  0.684040  0.909480  0.289130  1.0  -0.2635
  C  C153  1  0.511720  0.844360  0.854890  1.0  0.6853
  C  C154  1  0.108300  0.327390  0.681900  1.0  -0.149
  C  C155  1  0.117000  0.313910  0.777000  1.0  -0.0305
  C  C156  1  0.220000  0.291950  0.817300  1.0  -0.1289
  C  C157  1  0.315700  0.283620  0.761100  1.0  -0.0559
  C  C158  1  0.311400  0.300020  0.667100  1.0  -0.094
  C  C159  1  0.207200  0.322030  0.625890  1.0  -0.0078
  C  C160  1  0.225600  0.273800  0.918400  1.0  0.712
  C  C161  1  0.423400  0.295990  0.614600  1.0  0.7011
  C  C162  1  0.208800  0.343460  0.526200  1.0  -0.0087
  C  C163  1  0.219300  0.298590  0.452900  1.0  -0.031
  C  C164  1  0.229400  0.321320  0.361500  1.0  -0.1351
  C  C165  1  0.233700  0.388820  0.343800  1.0  0.0048
  C  C166  1  0.224700  0.433590  0.416500  1.0  -0.1489
  C  C167  1  0.210000  0.410490  0.506600  1.0  -0.0144
  C  C168  1  0.231000  0.273780  0.281400  1.0  0.6903
  C  C169  1  0.226600  0.506650  0.398400  1.0  0.6991
  C  C170  1  0.856800  0.384470  0.924500  1.0  0.1689
  C  C171  1  0.892700  0.407600  0.009600  1.0  -0.269
  C  C172  1  0.869900  0.473160  0.033100  1.0  0.2343
  C  C173  1  0.817500  0.513340  0.966500  1.0  -0.1921
  C  C174  1  0.784600  0.485400  0.882300  1.0  0.1918
  C  C175  1  0.892100  0.463310  0.202700  1.0  0.243
  C  C176  1  0.952400  0.483660  0.281000  1.0  -0.2331
  C  C177  1  0.936500  0.449830  0.363300  1.0  0.1856
  C  C178  1  0.807700  0.379260  0.295200  1.0  0.1866
  C  C179  1  0.815960  0.409480  0.210870  1.0  -0.2651
  C  C180  1  0.988280  0.344360  0.645110  1.0  0.6839
  N  N181  1  0.301600  0.078370  0.360370  1.0  -0.3244
  N  N182  1  0.401900  0.001700  0.620000  1.0  -0.3315
  N  N183  1  0.364100  0.102120  0.871640  1.0  -0.3291
  N  N184  1  0.198400  0.578370  0.139630  1.0  -0.3234
  N  N185  1  0.098100  0.501700  0.880000  1.0  -0.332
  N  N186  1  0.135900  0.602120  0.628360  1.0  -0.3293
  N  N187  1  0.698400  0.921630  0.639630  1.0  -0.3226
  N  N188  1  0.598100  0.998300  0.380000  1.0  -0.3308
  N  N189  1  0.635900  0.897880  0.128360  1.0  -0.3295
  N  N190  1  0.801600  0.421630  0.860370  1.0  -0.3255
  N  N191  1  0.901900  0.498300  0.120000  1.0  -0.3302
  N  N192  1  0.864100  0.397880  0.371640  1.0  -0.3279
  O  O193  1  0.419900  0.133970  0.204820  1.0  -0.6001
  O  O194  1  0.466300  0.164780  0.061280  1.0  -0.5658
  O  O195  1  0.648600  0.203130  0.471640  1.0  -0.5997
  O  O196  1  0.805700  0.263500  0.445400  1.0  -0.6373
  O  O197  1  0.982300  0.256180  0.129000  1.0  -0.5768
  O  O198  1  0.955100  0.156080  0.066700  1.0  -0.5481
  O  O199  1  0.683000  0.957950  0.959700  1.0  -0.592
  O  O200  1  0.770200  0.973050  0.823850  1.0  -0.5902
  O  O201  1  0.735700  0.286170  0.798880  1.0  -0.6121
  O  O202  1  0.725900  0.200780  0.700620  1.0  -0.6112
  O  O203  1  0.196910  0.162180  0.102610  1.0  -0.9962
  O  O204  1  0.080100  0.633970  0.295180  1.0  -0.5993
  O  O205  1  0.033700  0.664780  0.438720  1.0  -0.5657
  O  O206  1  0.851400  0.703130  0.028360  1.0  -0.5994
  O  O207  1  0.694300  0.763500  0.054600  1.0  -0.6371
  O  O208  1  0.517700  0.756180  0.371000  1.0  -0.5761
  O  O209  1  0.544900  0.656080  0.433300  1.0  -0.5464
  O  O210  1  0.817000  0.457950  0.540300  1.0  -0.5927
  O  O211  1  0.729800  0.473050  0.676150  1.0  -0.5885
  O  O212  1  0.764300  0.786170  0.701120  1.0  -0.6108
  O  O213  1  0.774100  0.700780  0.799380  1.0  -0.6124
  O  O214  1  0.303090  0.662180  0.397390  1.0  -0.9945
  O  O215  1  0.580100  0.866030  0.795180  1.0  -0.5987
  O  O216  1  0.533700  0.835220  0.938720  1.0  -0.5656
  O  O217  1  0.351400  0.796870  0.528360  1.0  -0.5997
  O  O218  1  0.194300  0.736500  0.554600  1.0  -0.6375
  O  O219  1  0.017700  0.743820  0.871000  1.0  -0.5755
  O  O220  1  0.044900  0.843920  0.933300  1.0  -0.5474
  O  O221  1  0.317000  0.042050  0.040300  1.0  -0.5926
  O  O222  1  0.229800  0.026950  0.176150  1.0  -0.5889
  O  O223  1  0.264300  0.713830  0.201120  1.0  -0.6102
  O  O224  1  0.274100  0.799220  0.299380  1.0  -0.6131
  O  O225  1  0.803090  0.837820  0.897390  1.0  -0.9935
  O  O226  1  0.919900  0.366030  0.704820  1.0  -0.5988
  O  O227  1  0.966300  0.335220  0.561280  1.0  -0.5665
  O  O228  1  0.148600  0.296870  0.971640  1.0  -0.5997
  O  O229  1  0.305700  0.236500  0.945400  1.0  -0.6389
  O  O230  1  0.482300  0.243820  0.629000  1.0  -0.5759
  O  O231  1  0.455100  0.343920  0.566700  1.0  -0.5504
  O  O232  1  0.183000  0.542050  0.459700  1.0  -0.5921
  O  O233  1  0.270200  0.526950  0.323850  1.0  -0.5902
  O  O234  1  0.235700  0.213830  0.298880  1.0  -0.6111
  O  O235  1  0.225900  0.299220  0.200620  1.0  -0.6122
  O  O236  1  0.696910  0.337820  0.602610  1.0  -0.9952
