# generated using pymatgen
data_CaH4(C2O)4
_symmetry_space_group_name_H-M   'P 1'
_cell_length_a   6.72990000
_cell_length_b   10.93750000
_cell_length_c   18.58400000
_cell_angle_alpha   90.00000000
_cell_angle_beta   90.00000000
_cell_angle_gamma   90.00000000
_symmetry_Int_Tables_number   1
_chemical_formula_structural   CaH4(C2O)4
_chemical_formula_sum   'Ca4 H16 C32 O16'
_cell_volume   1367.93629875
_cell_formula_units_Z   4
loop_
 _symmetry_equiv_pos_site_id
 _symmetry_equiv_pos_as_xyz
  1  'x, y, z'
loop_
 _atom_site_type_symbol
 _atom_site_label
 _atom_site_symmetry_multiplicity
 _atom_site_fract_x
 _atom_site_fract_y
 _atom_site_fract_z
 _atom_site_occupancy
 _atom_site_charge
  Ca  Ca1  1  0.250000  0.590470  0.013480  1.0  1.6147
  Ca  Ca2  1  0.750000  0.909530  0.513480  1.0  1.6151
  Ca  Ca3  1  0.750000  0.409530  0.986520  1.0  1.6148
  Ca  Ca4  1  0.250000  0.090470  0.486520  1.0  1.6149
  H  H5  1  0.543700  0.743800  0.782200  1.0  0.1072
  H  H6  1  0.546300  0.815000  0.665900  1.0  0.0806
  H  H7  1  0.456300  0.756200  0.282200  1.0  0.1069
  H  H8  1  0.453700  0.685000  0.165900  1.0  0.0793
  H  H9  1  0.043700  0.256200  0.217800  1.0  0.1067
  H  H10  1  0.046300  0.185000  0.334100  1.0  0.0797
  H  H11  1  0.956300  0.243800  0.717800  1.0  0.1066
  H  H12  1  0.953700  0.315000  0.834100  1.0  0.0792
  H  H13  1  0.456300  0.256200  0.217800  1.0  0.1066
  H  H14  1  0.453700  0.185000  0.334100  1.0  0.0788
  H  H15  1  0.543700  0.243800  0.717800  1.0  0.1067
  H  H16  1  0.546300  0.315000  0.834100  1.0  0.0801
  H  H17  1  0.956300  0.743800  0.782200  1.0  0.107
  H  H18  1  0.953700  0.815000  0.665900  1.0  0.0793
  H  H19  1  0.043700  0.756200  0.282200  1.0  0.1072
  H  H20  1  0.046300  0.685000  0.165900  1.0  0.0805
  C  C21  1  0.424000  0.758600  0.758700  1.0  -0.0647
  C  C22  1  0.425700  0.802300  0.689200  1.0  -0.0399
  C  C23  1  0.576000  0.741400  0.258700  1.0  -0.0648
  C  C24  1  0.574300  0.697700  0.189200  1.0  -0.041
  C  C25  1  0.924000  0.241400  0.241300  1.0  -0.0649
  C  C26  1  0.925700  0.197700  0.310800  1.0  -0.0407
  C  C27  1  0.076000  0.258600  0.741300  1.0  -0.0647
  C  C28  1  0.074300  0.302300  0.810800  1.0  -0.0407
  C  C29  1  0.576000  0.241400  0.241300  1.0  -0.0676
  C  C30  1  0.574300  0.197700  0.310800  1.0  -0.0412
  C  C31  1  0.424000  0.258600  0.741300  1.0  -0.0672
  C  C32  1  0.425700  0.302300  0.810800  1.0  -0.0404
  C  C33  1  0.076000  0.758600  0.758700  1.0  -0.0671
  C  C34  1  0.074300  0.802300  0.689200  1.0  -0.0402
  C  C35  1  0.924000  0.741400  0.258700  1.0  -0.0676
  C  C36  1  0.925700  0.697700  0.189200  1.0  -0.0396
  C  C37  1  0.250000  0.693700  0.871400  1.0  0.6701
  C  C38  1  0.250000  0.736600  0.793700  1.0  -0.0761
  C  C39  1  0.250000  0.827400  0.653600  1.0  -0.1591
  C  C40  1  0.250000  0.883100  0.580700  1.0  0.7765
  C  C41  1  0.750000  0.806300  0.371400  1.0  0.6696
  C  C42  1  0.750000  0.763400  0.293700  1.0  -0.0767
  C  C43  1  0.750000  0.672600  0.153600  1.0  -0.1584
  C  C44  1  0.750000  0.616900  0.080700  1.0  0.7806
  C  C45  1  0.750000  0.306300  0.128600  1.0  0.6707
  C  C46  1  0.750000  0.263400  0.206300  1.0  -0.0763
  C  C47  1  0.750000  0.172600  0.346400  1.0  -0.1607
  C  C48  1  0.750000  0.116900  0.419300  1.0  0.7888
  C  C49  1  0.250000  0.193700  0.628600  1.0  0.6721
  C  C50  1  0.250000  0.236600  0.706300  1.0  -0.0768
  C  C51  1  0.250000  0.327400  0.846400  1.0  -0.1604
  C  C52  1  0.250000  0.383100  0.919300  1.0  0.7868
  O  O53  1  0.088100  0.678400  0.902930  1.0  -0.6984
  O  O54  1  0.087700  0.909800  0.551090  1.0  -0.7977
  O  O55  1  0.911900  0.821600  0.402930  1.0  -0.6983
  O  O56  1  0.912300  0.590200  0.051090  1.0  -0.7974
  O  O57  1  0.588100  0.321600  0.097070  1.0  -0.6979
  O  O58  1  0.587700  0.090200  0.448910  1.0  -0.7985
  O  O59  1  0.411900  0.178400  0.597070  1.0  -0.7
  O  O60  1  0.412300  0.409800  0.948910  1.0  -0.7972
  O  O61  1  0.911900  0.321600  0.097070  1.0  -0.6997
  O  O62  1  0.912300  0.090200  0.448910  1.0  -0.798
  O  O63  1  0.088100  0.178400  0.597070  1.0  -0.699
  O  O64  1  0.087700  0.409800  0.948910  1.0  -0.7971
  O  O65  1  0.411900  0.678400  0.902930  1.0  -0.6988
  O  O66  1  0.412300  0.909800  0.551090  1.0  -0.7975
  O  O67  1  0.588100  0.821600  0.402930  1.0  -0.6974
  O  O68  1  0.587700  0.590200  0.051090  1.0  -0.7978
