# generated using pymatgen
data_CaH4(C4O3)2
_symmetry_space_group_name_H-M   'P 1'
_cell_length_a   9.66500000
_cell_length_b   10.25690000
_cell_length_c   10.34550000
_cell_angle_alpha   119.71700000
_cell_angle_beta   94.51810000
_cell_angle_gamma   90.00000000
_symmetry_Int_Tables_number   1
_chemical_formula_structural   CaH4(C4O3)2
_chemical_formula_sum   'Ca2 H8 C16 O12'
_cell_volume   887.02867737
_cell_formula_units_Z   2
loop_
 _symmetry_equiv_pos_site_id
 _symmetry_equiv_pos_as_xyz
  1  'x, y, z'
loop_
 _atom_site_type_symbol
 _atom_site_label
 _atom_site_symmetry_multiplicity
 _atom_site_fract_x
 _atom_site_fract_y
 _atom_site_fract_z
 _atom_site_occupancy
 _atom_site_charge
  Ca  Ca1  1  0.750000  0.078250  0.000000  1.0  1.6205
  Ca  Ca2  1  0.250000  0.921750  0.000000  1.0  1.6202
  H  H3  1  0.741300  0.045100  0.324200  1.0  0.4005
  H  H4  1  0.188900  0.968300  0.365200  1.0  0.1138
  H  H5  1  0.758700  0.720900  0.675800  1.0  0.4024
  H  H6  1  0.311100  0.603100  0.634800  1.0  0.1149
  H  H7  1  0.258700  0.954900  0.675800  1.0  0.4008
  H  H8  1  0.811100  0.031700  0.634800  1.0  0.1136
  H  H9  1  0.241300  0.279100  0.324200  1.0  0.4023
  H  H10  1  0.688900  0.396900  0.365200  1.0  0.1144
  C  C11  1  0.970800  0.004470  0.220340  1.0  0.8146
  C  C12  1  0.984200  0.003410  0.366020  1.0  -0.2801
  C  C13  1  0.869400  0.023760  0.448520  1.0  0.3343
  C  C14  1  0.112700  0.980750  0.419300  1.0  -0.1334
  C  C15  1  0.529200  0.784130  0.779660  1.0  0.8107
  C  C16  1  0.515800  0.637390  0.633980  1.0  -0.2791
  C  C17  1  0.630600  0.575240  0.551480  1.0  0.3328
  C  C18  1  0.387300  0.561450  0.580700  1.0  -0.1338
  C  C19  1  0.029200  0.995530  0.779660  1.0  0.8092
  C  C20  1  0.015800  0.996590  0.633980  1.0  -0.2797
  C  C21  1  0.130600  0.976240  0.551480  1.0  0.327
  C  C22  1  0.887300  0.019250  0.580700  1.0  -0.1333
  C  C23  1  0.470800  0.215870  0.220340  1.0  0.8087
  C  C24  1  0.484200  0.362610  0.366020  1.0  -0.279
  C  C25  1  0.369400  0.424760  0.448520  1.0  0.3292
  C  C26  1  0.612700  0.438550  0.419300  1.0  -0.133
  O  O27  1  0.849000  0.012490  0.170580  1.0  -0.7415
  O  O28  1  0.740700  0.049840  0.405680  1.0  -0.5257
  O  O29  1  0.075840  0.993780  0.156160  1.0  -0.7803
  O  O30  1  0.651000  0.841910  0.829420  1.0  -0.7448
  O  O31  1  0.759300  0.644160  0.594320  1.0  -0.5332
  O  O32  1  0.424160  0.837620  0.843840  1.0  -0.7818
  O  O33  1  0.151000  0.987510  0.829420  1.0  -0.7443
  O  O34  1  0.259300  0.950160  0.594320  1.0  -0.5309
  O  O35  1  0.924160  0.006220  0.843840  1.0  -0.7829
  O  O36  1  0.349000  0.158090  0.170580  1.0  -0.7416
  O  O37  1  0.240700  0.355840  0.405680  1.0  -0.5311
  O  O38  1  0.575840  0.162380  0.156160  1.0  -0.7805
