# generated using pymatgen
data_CaH4(C4O3)2
_symmetry_space_group_name_H-M   'P 1'
_cell_length_a   8.33280000
_cell_length_b   8.67940000
_cell_length_c   9.93930000
_cell_angle_alpha   70.52000000
_cell_angle_beta   84.45900000
_cell_angle_gamma   73.72200000
_symmetry_Int_Tables_number   1
_chemical_formula_structural   CaH4(C4O3)2
_chemical_formula_sum   'Ca2 H8 C16 O12'
_cell_volume   650.52802654
_cell_formula_units_Z   2
loop_
 _symmetry_equiv_pos_site_id
 _symmetry_equiv_pos_as_xyz
  1  'x, y, z'
loop_
 _atom_site_type_symbol
 _atom_site_label
 _atom_site_symmetry_multiplicity
 _atom_site_fract_x
 _atom_site_fract_y
 _atom_site_fract_z
 _atom_site_occupancy
 _atom_site_charge
  Ca  Ca1  1  0.326480  0.363370  0.042490  1.0  1.5787
  Ca  Ca2  1  0.673520  0.636630  0.957510  1.0  1.5753
  H  H3  1  0.223900  0.442600  0.354200  1.0  0.1063
  H  H4  1  0.675800  0.557600  0.333200  1.0  0.4069
  H  H5  1  0.654500  0.976600  0.920700  1.0  0.4149
  H  H6  1  0.955100  0.264900  0.025100  1.0  0.1129
  H  H7  1  0.776100  0.557400  0.645800  1.0  0.1059
  H  H8  1  0.324200  0.442400  0.666800  1.0  0.4072
  H  H9  1  0.345500  0.023400  0.079300  1.0  0.4149
  H  H10  1  0.044900  0.735100  0.974900  1.0  0.1116
  C  C11  1  0.951100  0.476500  0.224100  1.0  0.7633
  C  C12  1  0.973600  0.491700  0.365800  1.0  -0.2636
  C  C13  1  0.133200  0.465200  0.413500  1.0  -0.1237
  C  C14  1  0.837700  0.528700  0.454600  1.0  0.3259
  C  C15  1  0.669200  0.232100  0.957400  1.0  0.7466
  C  C16  1  0.841500  0.113100  0.976100  1.0  -0.2402
  C  C17  1  0.973300  0.158600  0.014900  1.0  -0.1409
  C  C18  1  0.869200  0.952700  0.961700  1.0  0.3332
  C  C19  1  0.048900  0.523500  0.775900  1.0  0.7672
  C  C20  1  0.026400  0.508300  0.634200  1.0  -0.2633
  C  C21  1  0.866800  0.534800  0.586500  1.0  -0.1208
  C  C22  1  0.162300  0.471300  0.545400  1.0  0.3269
  C  C23  1  0.330800  0.767900  0.042600  1.0  0.7466
  C  C24  1  0.158500  0.886900  0.023900  1.0  -0.2406
  C  C25  1  0.026700  0.841400  0.985100  1.0  -0.1394
  C  C26  1  0.130800  0.047300  0.038300  1.0  0.3334
  O  O27  1  0.076400  0.418900  0.159600  1.0  -0.7418
  O  O28  1  0.803000  0.523900  0.177200  1.0  -0.7179
  O  O29  1  0.549700  0.179100  0.938500  1.0  -0.6542
  O  O30  1  0.645900  0.377200  0.965400  1.0  -0.7886
  O  O31  1  0.677100  0.560800  0.414700  1.0  -0.5207
  O  O32  1  0.742500  0.903200  0.924800  1.0  -0.5989
  O  O33  1  0.923600  0.581100  0.840400  1.0  -0.7405
  O  O34  1  0.197000  0.476100  0.822800  1.0  -0.7188
  O  O35  1  0.450300  0.820900  0.061500  1.0  -0.655
  O  O36  1  0.354100  0.622800  0.034600  1.0  -0.7882
  O  O37  1  0.322900  0.439200  0.585300  1.0  -0.5227
  O  O38  1  0.257500  0.096800  0.075200  1.0  -0.5979
