# generated using pymatgen
data_ZnH16C24(NO)4
_symmetry_space_group_name_H-M   'P 1'
_cell_length_a   11.43600000
_cell_length_b   13.37170000
_cell_length_c   18.38600000
_cell_angle_alpha   100.38900000
_cell_angle_beta   90.00000000
_cell_angle_gamma   115.31700000
_symmetry_Int_Tables_number   1
_chemical_formula_structural   ZnH16C24(NO)4
_chemical_formula_sum   'Zn4 H64 C96 N16 O16'
_cell_volume   2490.44444088
_cell_formula_units_Z   4
loop_
 _symmetry_equiv_pos_site_id
 _symmetry_equiv_pos_as_xyz
  1  'x, y, z'
loop_
 _atom_site_type_symbol
 _atom_site_label
 _atom_site_symmetry_multiplicity
 _atom_site_fract_x
 _atom_site_fract_y
 _atom_site_fract_z
 _atom_site_occupancy
 _atom_site_charge
  Zn  Zn1  1  0.973750  0.393020  0.403190  1.0  0.908
  Zn  Zn2  1  0.580730  0.606980  0.096810  1.0  0.9084
  Zn  Zn3  1  0.026250  0.606980  0.596810  1.0  0.9083
  Zn  Zn4  1  0.419270  0.393020  0.903190  1.0  0.9077
  H  H5  1  0.155100  0.651600  0.304800  1.0  0.0935
  H  H6  1  0.233500  0.793000  0.237400  1.0  0.0943
  H  H7  1  0.250900  0.018800  0.418400  1.0  0.1165
  H  H8  1  0.167900  0.875800  0.485600  1.0  0.1098
  H  H9  1  0.814400  0.328600  0.130500  1.0  0.0884
  H  H10  1  0.659000  0.204200  0.036800  1.0  0.0941
  H  H11  1  0.583300  0.957000  0.147400  1.0  0.1122
  H  H12  1  0.733500  0.083200  0.242400  1.0  0.1042
  H  H13  1  0.139700  0.295600  0.477500  1.0  0.0823
  H  H14  1  0.339200  0.293600  0.474400  1.0  0.1292
  H  H15  1  0.414100  0.468400  0.311300  1.0  0.1191
  H  H16  1  0.212700  0.464600  0.317900  1.0  0.0794
  H  H17  1  0.491000  0.238400  0.421900  1.0  0.1194
  H  H18  1  0.697300  0.255000  0.428800  1.0  0.0748
  H  H19  1  0.831900  0.545600  0.370700  1.0  0.0752
  H  H20  1  0.628900  0.538400  0.361200  1.0  0.1281
  H  H21  1  0.503500  0.348400  0.195200  1.0  0.0939
  H  H22  1  0.440500  0.207000  0.262600  1.0  0.0945
  H  H23  1  0.232100  0.981200  0.081600  1.0  0.1167
  H  H24  1  0.292100  0.124200  0.014400  1.0  0.1096
  H  H25  1  0.485800  0.671400  0.369500  1.0  0.0879
  H  H26  1  0.454800  0.795800  0.463200  1.0  0.0943
  H  H27  1  0.626300  0.043000  0.352600  1.0  0.1119
  H  H28  1  0.650300  0.916800  0.257600  1.0  0.105
  H  H29  1  0.844100  0.704400  0.022500  1.0  0.083
  H  H30  1  0.045600  0.706400  0.025600  1.0  0.1285
  H  H31  1  0.945700  0.531600  0.188700  1.0  0.1186
  H  H32  1  0.748100  0.535400  0.182100  1.0  0.0797
  H  H33  1  0.252600  0.761600  0.078100  1.0  0.1201
  H  H34  1  0.442300  0.745000  0.071200  1.0  0.0743
  H  H35  1  0.286300  0.454400  0.129300  1.0  0.0757
  H  H36  1  0.090500  0.461600  0.138800  1.0  0.1283
  H  H37  1  0.844900  0.348400  0.695200  1.0  0.0941
  H  H38  1  0.766500  0.207000  0.762600  1.0  0.0937
  H  H39  1  0.749100  0.981200  0.581600  1.0  0.1163
  H  H40  1  0.832100  0.124200  0.514400  1.0  0.1097
  H  H41  1  0.185600  0.671400  0.869500  1.0  0.0878
  H  H42  1  0.341000  0.795800  0.963200  1.0  0.0943
  H  H43  1  0.416700  0.043000  0.852600  1.0  0.1121
  H  H44  1  0.266500  0.916800  0.757600  1.0  0.103
  H  H45  1  0.860300  0.704400  0.522500  1.0  0.0829
  H  H46  1  0.660800  0.706400  0.525600  1.0  0.1285
  H  H47  1  0.585900  0.531600  0.688700  1.0  0.1197
  H  H48  1  0.787300  0.535400  0.682100  1.0  0.0799
  H  H49  1  0.509000  0.761600  0.578100  1.0  0.1189
  H  H50  1  0.302700  0.745000  0.571200  1.0  0.0744
  H  H51  1  0.168100  0.454400  0.629300  1.0  0.0775
  H  H52  1  0.371100  0.461600  0.638800  1.0  0.1282
  H  H53  1  0.496500  0.651600  0.804800  1.0  0.0934
  H  H54  1  0.559500  0.793000  0.737400  1.0  0.0938
  H  H55  1  0.767900  0.018800  0.918400  1.0  0.116
  H  H56  1  0.707900  0.875800  0.985600  1.0  0.1098
  H  H57  1  0.514200  0.328600  0.630500  1.0  0.0885
  H  H58  1  0.545200  0.204200  0.536800  1.0  0.0938
  H  H59  1  0.373700  0.957000  0.647400  1.0  0.1123
  H  H60  1  0.349700  0.083200  0.742400  1.0  0.1027
  H  H61  1  0.155900  0.295600  0.977500  1.0  0.0827
  H  H62  1  0.954400  0.293600  0.974400  1.0  0.1288
  H  H63  1  0.054300  0.468400  0.811300  1.0  0.1201
  H  H64  1  0.251900  0.464600  0.817900  1.0  0.0797
  H  H65  1  0.747400  0.238400  0.921900  1.0  0.1185
  H  H66  1  0.557700  0.255000  0.928800  1.0  0.0744
  H  H67  1  0.713700  0.545600  0.870700  1.0  0.0775
  H  H68  1  0.909500  0.538400  0.861200  1.0  0.1277
  C  C69  1  0.092850  0.655500  0.443930  1.0  0.6665
  C  C70  1  0.150060  0.748720  0.401240  1.0  -0.1501
  C  C71  1  0.172580  0.725160  0.327340  1.0  -0.0148
  C  C72  1  0.220480  0.809560  0.287220  1.0  -0.1367
  C  C73  1  0.249480  0.920160  0.321600  1.0  0.1928
  C  C74  1  0.230390  0.944780  0.395430  1.0  -0.1504
  C  C75  1  0.180700  0.859200  0.435710  1.0  -0.0221
  C  C76  1  0.885450  0.299900  0.260880  1.0  0.643
  C  C77  1  0.789430  0.218460  0.196820  1.0  -0.1321
  C  C78  1  0.767030  0.253660  0.134600  1.0  -0.0267
  C  C79  1  0.674680  0.178960  0.078100  1.0  -0.1418
  C  C80  1  0.606150  0.067700  0.082870  1.0  0.1738
  C  C81  1  0.628820  0.032240  0.143800  1.0  -0.1624
  C  C82  1  0.719860  0.108320  0.200600  1.0  -0.0365
  C  C83  1  0.195740  0.331080  0.443810  1.0  0.1738
  C  C84  1  0.315980  0.329960  0.442500  1.0  -0.2025
  C  C85  1  0.402160  0.383320  0.393230  1.0  0.0928
  C  C86  1  0.360290  0.433180  0.345920  1.0  -0.1906
  C  C87  1  0.238980  0.430560  0.350170  1.0  0.1784
  C  C88  1  0.534620  0.389040  0.393560  1.0  0.1014
  C  C89  1  0.559170  0.303140  0.412200  1.0  -0.2083
  C  C90  1  0.683690  0.313780  0.416300  1.0  0.1802
  C  C91  1  0.762240  0.483680  0.382200  1.0  0.1772
  C  C92  1  0.640210  0.480220  0.376400  1.0  -0.1943
  C  C93  1  0.437350  0.344500  0.056070  1.0  0.6728
  C  C94  1  0.401340  0.251280  0.098760  1.0  -0.1502
  C  C95  1  0.447420  0.274840  0.172660  1.0  -0.0151
  C  C96  1  0.410920  0.190440  0.212780  1.0  -0.1414
  C  C97  1  0.329320  0.079840  0.178400  1.0  0.1892
  C  C98  1  0.285610  0.055220  0.104570  1.0  -0.15
  C  C99  1  0.321500  0.140800  0.064290  1.0  -0.0219
  C  C100  1  0.585550  0.700100  0.239120  1.0  0.6429
  C  C101  1  0.570970  0.781540  0.303180  1.0  -0.132
  C  C102  1  0.513370  0.746340  0.365400  1.0  -0.0316
  C  C103  1  0.495720  0.821040  0.421900  1.0  -0.1421
  C  C104  1  0.538450  0.932300  0.417130  1.0  0.1736
  C  C105  1  0.596580  0.967760  0.356200  1.0  -0.1568
  C  C106  1  0.611540  0.891680  0.299400  1.0  -0.0375
  C  C107  1  0.864660  0.668920  0.056190  1.0  0.1739
  C  C108  1  0.986020  0.670040  0.057500  1.0  -0.2027
  C  C109  1  0.018840  0.616680  0.106770  1.0  0.0927
  C  C110  1  0.927110  0.566820  0.154080  1.0  -0.19
  C  C111  1  0.808420  0.569440  0.149830  1.0  0.1816
  C  C112  1  0.145580  0.610960  0.106440  1.0  0.1015
  C  C113  1  0.256030  0.696860  0.087800  1.0  -0.2092
  C  C114  1  0.369910  0.686220  0.083700  1.0  0.1798
  C  C115  1  0.278560  0.516320  0.117800  1.0  0.1771
  C  C116  1  0.159990  0.519780  0.123600  1.0  -0.193
  C  C117  1  0.907150  0.344500  0.556070  1.0  0.666
  C  C118  1  0.849940  0.251280  0.598760  1.0  -0.1509
  C  C119  1  0.827420  0.274840  0.672660  1.0  -0.0152
  C  C120  1  0.779520  0.190440  0.712780  1.0  -0.1428
  C  C121  1  0.750520  0.079840  0.678400  1.0  0.1959
  C  C122  1  0.769610  0.055220  0.604570  1.0  -0.1419
  C  C123  1  0.819300  0.140800  0.564290  1.0  -0.0216
  C  C124  1  0.114550  0.700100  0.739120  1.0  0.6481
  C  C125  1  0.210570  0.781540  0.803180  1.0  -0.1323
  C  C126  1  0.232970  0.746340  0.865400  1.0  -0.0258
  C  C127  1  0.325320  0.821040  0.921900  1.0  -0.1423
  C  C128  1  0.393850  0.932300  0.917130  1.0  0.1805
  C  C129  1  0.371180  0.967760  0.856200  1.0  -0.157
  C  C130  1  0.280140  0.891680  0.799400  1.0  -0.0403
  C  C131  1  0.804260  0.668920  0.556190  1.0  0.1747
  C  C132  1  0.684020  0.670040  0.557500  1.0  -0.2021
  C  C133  1  0.597840  0.616680  0.606770  1.0  0.0934
  C  C134  1  0.639710  0.566820  0.654080  1.0  -0.1923
  C  C135  1  0.761020  0.569440  0.649830  1.0  0.1815
  C  C136  1  0.465380  0.610960  0.606440  1.0  0.1004
  C  C137  1  0.440830  0.696860  0.587800  1.0  -0.2079
  C  C138  1  0.316310  0.686220  0.583700  1.0  0.1796
  C  C139  1  0.237760  0.516320  0.617800  1.0  0.1766
  C  C140  1  0.359790  0.519780  0.623600  1.0  -0.1931
  C  C141  1  0.562650  0.655500  0.943930  1.0  0.6656
  C  C142  1  0.598660  0.748720  0.901240  1.0  -0.1515
  C  C143  1  0.552580  0.725160  0.827340  1.0  -0.0145
  C  C144  1  0.589080  0.809560  0.787220  1.0  -0.1378
  C  C145  1  0.670680  0.920160  0.821600  1.0  0.1988
  C  C146  1  0.714390  0.944780  0.895430  1.0  -0.1425
  C  C147  1  0.678500  0.859200  0.935710  1.0  -0.0219
  C  C148  1  0.414450  0.299900  0.760880  1.0  0.6442
  C  C149  1  0.429030  0.218460  0.696820  1.0  -0.1308
  C  C150  1  0.486630  0.253660  0.634600  1.0  -0.0277
  C  C151  1  0.504280  0.178960  0.578100  1.0  -0.1422
  C  C152  1  0.461550  0.067700  0.582870  1.0  0.1805
  C  C153  1  0.403420  0.032240  0.643800  1.0  -0.1605
  C  C154  1  0.388460  0.108320  0.700600  1.0  -0.0375
  C  C155  1  0.135340  0.331080  0.943810  1.0  0.1734
  C  C156  1  0.013980  0.329960  0.942500  1.0  -0.2063
  C  C157  1  0.981160  0.383320  0.893230  1.0  0.0933
  C  C158  1  0.072890  0.433180  0.845920  1.0  -0.191
  C  C159  1  0.191580  0.430560  0.850170  1.0  0.1787
  C  C160  1  0.854420  0.389040  0.893560  1.0  0.1004
  C  C161  1  0.743970  0.303140  0.912200  1.0  -0.2068
  C  C162  1  0.630090  0.313780  0.916300  1.0  0.1801
  C  C163  1  0.721440  0.483680  0.882200  1.0  0.1766
  C  C164  1  0.840010  0.480220  0.876400  1.0  -0.1947
  N  N165  1  0.156650  0.381100  0.398730  1.0  -0.3247
  N  N166  1  0.786420  0.403840  0.403280  1.0  -0.3295
  N  N167  1  0.296750  0.014100  0.284610  1.0  -0.1606
  N  N168  1  0.507140  0.981880  0.027410  1.0  -0.1424
  N  N169  1  0.775550  0.618900  0.101270  1.0  -0.3236
  N  N170  1  0.382580  0.596160  0.096720  1.0  -0.3299
  N  N171  1  0.282650  0.985900  0.215390  1.0  -0.1605
  N  N172  1  0.525260  0.018120  0.472590  1.0  -0.1423
  N  N173  1  0.843350  0.618900  0.601270  1.0  -0.324
  N  N174  1  0.213580  0.596160  0.596720  1.0  -0.3301
  N  N175  1  0.703250  0.985900  0.715390  1.0  -0.1606
  N  N176  1  0.492860  0.018120  0.972590  1.0  -0.142
  N  N177  1  0.224450  0.381100  0.898730  1.0  -0.3232
  N  N178  1  0.617420  0.403840  0.903280  1.0  -0.3298
  N  N179  1  0.717350  0.014100  0.784610  1.0  -0.1614
  N  N180  1  0.474740  0.981880  0.527410  1.0  -0.1419
  O  O181  1  0.076630  0.559460  0.412010  1.0  -0.6088
  O  O182  1  0.954420  0.397640  0.255200  1.0  -0.5878
  O  O183  1  0.885150  0.260840  0.319110  1.0  -0.6006
  O  O184  1  0.065480  0.681400  0.508840  1.0  -0.5937
  O  O185  1  0.517170  0.440540  0.087990  1.0  -0.6086
  O  O186  1  0.556780  0.602360  0.244800  1.0  -0.5878
  O  O187  1  0.624310  0.739160  0.180890  1.0  -0.6025
  O  O188  1  0.384080  0.318600  0.991160  1.0  -0.5946
  O  O189  1  0.923370  0.440540  0.587990  1.0  -0.6084
  O  O190  1  0.045580  0.602360  0.744800  1.0  -0.5877
  O  O191  1  0.114850  0.739160  0.680890  1.0  -0.6032
  O  O192  1  0.934520  0.318600  0.491160  1.0  -0.5937
  O  O193  1  0.482830  0.559460  0.912010  1.0  -0.6083
  O  O194  1  0.443220  0.397640  0.755200  1.0  -0.5883
  O  O195  1  0.375690  0.260840  0.819110  1.0  -0.6006
  O  O196  1  0.615920  0.681400  0.008840  1.0  -0.5946
