# generated using pymatgen
data_ZnH8C12(BrN2)2
_symmetry_space_group_name_H-M   'P 1'
_cell_length_a   26.20410000
_cell_length_b   13.76630000
_cell_length_c   43.60390000
_cell_angle_alpha   90.00000000
_cell_angle_beta   90.00000000
_cell_angle_gamma   90.00000000
_symmetry_Int_Tables_number   1
_chemical_formula_structural   ZnH8C12(BrN2)2
_chemical_formula_sum   'Zn24 H192 C288 Br48 N96'
_cell_volume   15729.38754045
_cell_formula_units_Z   24
loop_
 _symmetry_equiv_pos_site_id
 _symmetry_equiv_pos_as_xyz
  1  'x, y, z'
loop_
 _atom_site_type_symbol
 _atom_site_label
 _atom_site_symmetry_multiplicity
 _atom_site_fract_x
 _atom_site_fract_y
 _atom_site_fract_z
 _atom_site_occupancy
 _atom_site_charge
  Zn  Zn1  1  0.264330  0.780300  0.652960  1.0  0.8749
  Zn  Zn2  1  0.512350  0.096600  0.908360  1.0  0.88
  Zn  Zn3  1  0.019200  0.138400  0.885560  1.0  0.9418
  Zn  Zn4  1  0.235670  0.219700  0.152960  1.0  0.8732
  Zn  Zn5  1  0.987650  0.903400  0.408360  1.0  0.8827
  Zn  Zn6  1  0.480800  0.861600  0.385560  1.0  0.9415
  Zn  Zn7  1  0.735670  0.280300  0.847040  1.0  0.8757
  Zn  Zn8  1  0.487650  0.596600  0.591640  1.0  0.8802
  Zn  Zn9  1  0.980800  0.638400  0.614440  1.0  0.9415
  Zn  Zn10  1  0.764330  0.719700  0.347040  1.0  0.8722
  Zn  Zn11  1  0.012350  0.403400  0.091640  1.0  0.8811
  Zn  Zn12  1  0.519200  0.361600  0.114440  1.0  0.9415
  Zn  Zn13  1  0.735670  0.219700  0.347040  1.0  0.873
  Zn  Zn14  1  0.487650  0.903400  0.091640  1.0  0.8825
  Zn  Zn15  1  0.980800  0.861600  0.114440  1.0  0.9425
  Zn  Zn16  1  0.764330  0.780300  0.847040  1.0  0.8749
  Zn  Zn17  1  0.012350  0.096600  0.591640  1.0  0.8799
  Zn  Zn18  1  0.519200  0.138400  0.614440  1.0  0.9405
  Zn  Zn19  1  0.264330  0.719700  0.152960  1.0  0.8722
  Zn  Zn20  1  0.512350  0.403400  0.408360  1.0  0.8813
  Zn  Zn21  1  0.019200  0.361600  0.385560  1.0  0.9413
  Zn  Zn22  1  0.235670  0.280300  0.652960  1.0  0.8759
  Zn  Zn23  1  0.987650  0.596600  0.908360  1.0  0.8804
  Zn  Zn24  1  0.480800  0.638400  0.885560  1.0  0.9419
  H  H25  1  0.354720  0.881550  0.761050  1.0  0.0795
  H  H26  1  0.194350  0.959880  0.743350  1.0  0.0826
  H  H27  1  0.363270  0.854540  0.701400  1.0  0.0935
  H  H28  1  0.202280  0.868350  0.691260  1.0  0.0756
  H  H29  1  0.324720  0.008710  0.894950  1.0  0.0751
  H  H30  1  0.408560  0.984670  0.811530  1.0  0.0719
  H  H31  1  0.140040  0.015390  0.797000  1.0  0.0788
  H  H32  1  0.202150  0.049210  0.890260  1.0  0.0796
  H  H33  1  0.403100  0.087250  0.919470  1.0  0.0784
  H  H34  1  0.488520  0.039180  0.839740  1.0  0.0939
  H  H35  1  0.052300  0.999260  0.821750  1.0  0.0801
  H  H36  1  0.110560  0.088640  0.907100  1.0  0.0466
  H  H37  1  0.331150  0.739280  0.594630  1.0  0.0946
  H  H38  1  0.301430  0.988530  0.650920  1.0  0.0753
  H  H39  1  0.384790  0.841390  0.558360  1.0  0.0795
  H  H40  1  0.326320  0.100960  0.604860  1.0  0.0758
  H  H41  1  0.492980  0.283030  0.518570  1.0  0.0865
  H  H42  1  0.385700  0.283070  0.594830  1.0  0.0692
  H  H43  1  0.474560  0.150030  0.466630  1.0  0.0767
  H  H44  1  0.425900  0.859550  0.495710  1.0  0.0755
  H  H45  1  0.518650  0.452720  0.534390  1.0  0.0723
  H  H46  1  0.425780  0.438280  0.611910  1.0  0.0788
  H  H47  1  0.513330  0.070030  0.417800  1.0  0.0773
  H  H48  1  0.453900  0.787980  0.445170  1.0  0.0793
  H  H49  1  0.145280  0.118450  0.261050  1.0  0.0793
  H  H50  1  0.305650  0.040120  0.243350  1.0  0.0838
  H  H51  1  0.136730  0.145460  0.201400  1.0  0.0945
  H  H52  1  0.297720  0.131650  0.191260  1.0  0.0775
  H  H53  1  0.175280  0.991290  0.394950  1.0  0.075
  H  H54  1  0.091440  0.015330  0.311530  1.0  0.0723
  H  H55  1  0.359960  0.984610  0.297000  1.0  0.0789
  H  H56  1  0.297850  0.950790  0.390260  1.0  0.0788
  H  H57  1  0.096900  0.912750  0.419470  1.0  0.0763
  H  H58  1  0.011480  0.960820  0.339740  1.0  0.0931
  H  H59  1  0.447700  0.000740  0.321750  1.0  0.0823
  H  H60  1  0.389440  0.911360  0.407100  1.0  0.0477
  H  H61  1  0.168850  0.260720  0.094630  1.0  0.0945
  H  H62  1  0.198570  0.011470  0.150920  1.0  0.0754
  H  H63  1  0.115210  0.158610  0.058360  1.0  0.0808
  H  H64  1  0.173680  0.899040  0.104860  1.0  0.0752
  H  H65  1  0.007020  0.716970  0.018570  1.0  0.0857
  H  H66  1  0.114300  0.716930  0.094830  1.0  0.0668
  H  H67  1  0.025440  0.849970  0.966630  1.0  0.0774
  H  H68  1  0.074100  0.140450  0.995710  1.0  0.0751
  H  H69  1  0.981350  0.547280  0.034390  1.0  0.0714
  H  H70  1  0.074220  0.561720  0.111910  1.0  0.0786
  H  H71  1  0.986670  0.929970  0.917800  1.0  0.0771
  H  H72  1  0.046100  0.212020  0.945170  1.0  0.081
  H  H73  1  0.645280  0.381550  0.738950  1.0  0.0785
  H  H74  1  0.805650  0.459880  0.756650  1.0  0.0842
  H  H75  1  0.636730  0.354540  0.798600  1.0  0.0935
  H  H76  1  0.797720  0.368350  0.808740  1.0  0.0775
  H  H77  1  0.675280  0.508710  0.605050  1.0  0.0755
  H  H78  1  0.591440  0.484670  0.688470  1.0  0.0706
  H  H79  1  0.859960  0.515390  0.703000  1.0  0.0791
  H  H80  1  0.797850  0.549210  0.609740  1.0  0.0798
  H  H81  1  0.596900  0.587250  0.580530  1.0  0.0763
  H  H82  1  0.511480  0.539180  0.660260  1.0  0.0921
  H  H83  1  0.947700  0.499260  0.678250  1.0  0.0806
  H  H84  1  0.889440  0.588640  0.592900  1.0  0.0478
  H  H85  1  0.668850  0.239280  0.905370  1.0  0.0942
  H  H86  1  0.698570  0.488530  0.849080  1.0  0.0742
  H  H87  1  0.615210  0.341390  0.941640  1.0  0.0799
  H  H88  1  0.673680  0.600960  0.895140  1.0  0.0754
  H  H89  1  0.507020  0.783030  0.981430  1.0  0.0828
  H  H90  1  0.614300  0.783070  0.905170  1.0  0.0661
  H  H91  1  0.525440  0.650030  0.033370  1.0  0.0767
  H  H92  1  0.574100  0.359550  0.004290  1.0  0.0748
  H  H93  1  0.481350  0.952720  0.965610  1.0  0.0716
  H  H94  1  0.574220  0.938280  0.888090  1.0  0.0774
  H  H95  1  0.486670  0.570030  0.082200  1.0  0.0783
  H  H96  1  0.546100  0.287980  0.054830  1.0  0.0801
  H  H97  1  0.854720  0.618450  0.238950  1.0  0.0798
  H  H98  1  0.694350  0.540120  0.256650  1.0  0.0829
  H  H99  1  0.863270  0.645460  0.298600  1.0  0.094
  H  H100  1  0.702280  0.631650  0.308740  1.0  0.0758
  H  H101  1  0.824720  0.491290  0.105050  1.0  0.0753
  H  H102  1  0.908560  0.515330  0.188470  1.0  0.0708
  H  H103  1  0.640040  0.484610  0.203000  1.0  0.0789
  H  H104  1  0.702150  0.450790  0.109740  1.0  0.0805
  H  H105  1  0.903100  0.412750  0.080530  1.0  0.0766
  H  H106  1  0.988520  0.460820  0.160260  1.0  0.092
  H  H107  1  0.552300  0.500740  0.178250  1.0  0.0796
  H  H108  1  0.610560  0.411360  0.092900  1.0  0.0469
  H  H109  1  0.831150  0.760720  0.405370  1.0  0.0934
  H  H110  1  0.801430  0.511470  0.349080  1.0  0.0744
  H  H111  1  0.884790  0.658610  0.441640  1.0  0.079
  H  H112  1  0.826320  0.399040  0.395140  1.0  0.0751
  H  H113  1  0.992980  0.216970  0.481430  1.0  0.0833
  H  H114  1  0.885700  0.216930  0.405170  1.0  0.0677
  H  H115  1  0.974560  0.349970  0.533370  1.0  0.0767
  H  H116  1  0.925900  0.640450  0.504290  1.0  0.0759
  H  H117  1  0.018650  0.047280  0.465610  1.0  0.0715
  H  H118  1  0.925780  0.061720  0.388090  1.0  0.0769
  H  H119  1  0.013330  0.429970  0.582200  1.0  0.0773
  H  H120  1  0.953900  0.712020  0.554830  1.0  0.0798
  H  H121  1  0.645280  0.118450  0.238950  1.0  0.0788
  H  H122  1  0.805650  0.040120  0.256650  1.0  0.0839
  H  H123  1  0.636730  0.145460  0.298600  1.0  0.0937
  H  H124  1  0.797720  0.131650  0.308740  1.0  0.0773
  H  H125  1  0.675280  0.991290  0.105050  1.0  0.0754
  H  H126  1  0.591440  0.015330  0.188470  1.0  0.0704
  H  H127  1  0.859960  0.984610  0.203000  1.0  0.0788
  H  H128  1  0.797850  0.950790  0.109740  1.0  0.0798
  H  H129  1  0.596900  0.912750  0.080530  1.0  0.0759
  H  H130  1  0.511480  0.960820  0.160260  1.0  0.0922
  H  H131  1  0.947700  0.000740  0.178250  1.0  0.0818
  H  H132  1  0.889440  0.911360  0.092900  1.0  0.0471
  H  H133  1  0.668850  0.260720  0.405370  1.0  0.0932
  H  H134  1  0.698570  0.011470  0.349080  1.0  0.0742
  H  H135  1  0.615210  0.158610  0.441640  1.0  0.0801
  H  H136  1  0.673680  0.899040  0.395140  1.0  0.0749
  H  H137  1  0.507020  0.716970  0.481430  1.0  0.0828
  H  H138  1  0.614300  0.716930  0.405170  1.0  0.0662
  H  H139  1  0.525440  0.849970  0.533370  1.0  0.0772
  H  H140  1  0.574100  0.140450  0.504290  1.0  0.0751
  H  H141  1  0.481350  0.547280  0.465610  1.0  0.0719
  H  H142  1  0.574220  0.561720  0.388090  1.0  0.0775
  H  H143  1  0.486670  0.929970  0.582200  1.0  0.0773
  H  H144  1  0.546100  0.212020  0.554830  1.0  0.0802
  H  H145  1  0.854720  0.881550  0.738950  1.0  0.0794
  H  H146  1  0.694350  0.959880  0.756650  1.0  0.0827
  H  H147  1  0.863270  0.854540  0.798600  1.0  0.0932
  H  H148  1  0.702280  0.868350  0.808740  1.0  0.0759
  H  H149  1  0.824720  0.008710  0.605050  1.0  0.0751
  H  H150  1  0.908560  0.984670  0.688470  1.0  0.0711
  H  H151  1  0.640040  0.015390  0.703000  1.0  0.079
  H  H152  1  0.702150  0.049210  0.609740  1.0  0.0805
  H  H153  1  0.903100  0.087250  0.580530  1.0  0.0769
  H  H154  1  0.988520  0.039180  0.660260  1.0  0.0923
  H  H155  1  0.552300  0.999260  0.678250  1.0  0.0793
  H  H156  1  0.610560  0.088640  0.592900  1.0  0.047
  H  H157  1  0.831150  0.739280  0.905370  1.0  0.094
  H  H158  1  0.801430  0.988530  0.849080  1.0  0.0742
  H  H159  1  0.884790  0.841390  0.941640  1.0  0.0792
  H  H160  1  0.826320  0.100960  0.895140  1.0  0.0754
  H  H161  1  0.992980  0.283030  0.981430  1.0  0.0833
  H  H162  1  0.885700  0.283070  0.905170  1.0  0.0673
  H  H163  1  0.974560  0.150030  0.033370  1.0  0.0766
  H  H164  1  0.925900  0.859550  0.004290  1.0  0.0746
  H  H165  1  0.018650  0.452720  0.965610  1.0  0.0717
  H  H166  1  0.925780  0.438280  0.888090  1.0  0.0767
  H  H167  1  0.013330  0.070030  0.082200  1.0  0.078
  H  H168  1  0.953900  0.787980  0.054830  1.0  0.0796
  H  H169  1  0.354720  0.618450  0.261050  1.0  0.0797
  H  H170  1  0.194350  0.540120  0.243350  1.0  0.0828
  H  H171  1  0.363270  0.645460  0.201400  1.0  0.0943
  H  H172  1  0.202280  0.631650  0.191260  1.0  0.0756
  H  H173  1  0.324720  0.491290  0.394950  1.0  0.0753
  H  H174  1  0.408560  0.515330  0.311530  1.0  0.0721
  H  H175  1  0.140040  0.484610  0.297000  1.0  0.0788
  H  H176  1  0.202150  0.450790  0.390260  1.0  0.0796
  H  H177  1  0.403100  0.412750  0.419470  1.0  0.0772
  H  H178  1  0.488520  0.460820  0.339740  1.0  0.0935
  H  H179  1  0.052300  0.500740  0.321750  1.0  0.0801
  H  H180  1  0.110560  0.411360  0.407100  1.0  0.047
  H  H181  1  0.331150  0.760720  0.094630  1.0  0.0946
  H  H182  1  0.301430  0.511470  0.150920  1.0  0.0756
  H  H183  1  0.384790  0.658610  0.058360  1.0  0.0796
  H  H184  1  0.326320  0.399040  0.104860  1.0  0.0759
  H  H185  1  0.492980  0.216970  0.018570  1.0  0.0861
  H  H186  1  0.385700  0.216930  0.094830  1.0  0.0695
  H  H187  1  0.474560  0.349970  0.966630  1.0  0.0767
  H  H188  1  0.425900  0.640450  0.995710  1.0  0.0754
  H  H189  1  0.518650  0.047280  0.034390  1.0  0.0718
  H  H190  1  0.425780  0.061720  0.111910  1.0  0.0784
  H  H191  1  0.513330  0.429970  0.917800  1.0  0.0776
  H  H192  1  0.453900  0.712020  0.945170  1.0  0.08
  H  H193  1  0.145280  0.381550  0.761050  1.0  0.0792
  H  H194  1  0.305650  0.459880  0.743350  1.0  0.0839
  H  H195  1  0.136730  0.354540  0.701400  1.0  0.094
  H  H196  1  0.297720  0.368350  0.691260  1.0  0.0777
  H  H197  1  0.175280  0.508710  0.894950  1.0  0.075
  H  H198  1  0.091440  0.484670  0.811530  1.0  0.072
  H  H199  1  0.359960  0.515390  0.797000  1.0  0.0791
  H  H200  1  0.297850  0.549210  0.890260  1.0  0.0789
  H  H201  1  0.096900  0.587250  0.919470  1.0  0.0777
  H  H202  1  0.011480  0.539180  0.839740  1.0  0.0933
  H  H203  1  0.447700  0.499260  0.821750  1.0  0.0815
  H  H204  1  0.389440  0.588640  0.907100  1.0  0.0476
  H  H205  1  0.168850  0.239280  0.594630  1.0  0.095
  H  H206  1  0.198570  0.488530  0.650920  1.0  0.0752
  H  H207  1  0.115210  0.341390  0.558360  1.0  0.0801
  H  H208  1  0.173680  0.600960  0.604860  1.0  0.0755
  H  H209  1  0.007020  0.783030  0.518570  1.0  0.0865
  H  H210  1  0.114300  0.783070  0.594830  1.0  0.0668
  H  H211  1  0.025440  0.650030  0.466630  1.0  0.0772
  H  H212  1  0.074100  0.359550  0.495710  1.0  0.0746
  H  H213  1  0.981350  0.952720  0.534390  1.0  0.0714
  H  H214  1  0.074220  0.938280  0.611910  1.0  0.0791
  H  H215  1  0.986670  0.570030  0.417800  1.0  0.0773
  H  H216  1  0.046100  0.287980  0.445170  1.0  0.0806
  C  C217  1  0.273900  0.979000  0.786500  1.0  0.2845
  C  C218  1  0.278200  0.936000  0.753700  1.0  -0.2059
  C  C219  1  0.322000  0.893000  0.744200  1.0  -0.1143
  C  C220  1  0.231900  0.928000  0.734800  1.0  -0.0071
  C  C221  1  0.313100  0.011000  0.832600  1.0  0.3044
  C  C222  1  0.226400  0.005000  0.829700  1.0  0.3147
  C  C223  1  0.324600  0.864000  0.713000  1.0  0.2244
  C  C224  1  0.237100  0.880000  0.706500  1.0  0.3292
  C  C225  1  0.361500  0.014000  0.851000  1.0  0.2141
  C  C226  1  0.176200  0.023000  0.842800  1.0  -0.0654
  C  C227  1  0.360800  0.026000  0.881400  1.0  -0.0898
  C  C228  1  0.406700  0.010000  0.836400  1.0  -0.1311
  C  C229  1  0.133900  0.022000  0.822800  1.0  -0.0646
  C  C230  1  0.168500  0.048000  0.873700  1.0  -0.1351
  C  C231  1  0.404200  0.059000  0.894900  1.0  0.2705
  C  C232  1  0.450200  0.037000  0.852100  1.0  0.2427
  C  C233  1  0.086500  0.029000  0.834900  1.0  0.1465
  C  C234  1  0.119500  0.070000  0.882200  1.0  0.0959
  C  C235  1  0.337500  0.819800  0.599400  1.0  0.1659
  C  C236  1  0.317100  0.956000  0.628800  1.0  0.2764
  C  C237  1  0.363500  0.877000  0.578200  1.0  -0.123
  C  C238  1  0.335400  0.020000  0.604200  1.0  0.0171
  C  C239  1  0.363100  0.975000  0.581500  1.0  -0.1195
  C  C240  1  0.379700  0.038000  0.556600  1.0  0.1862
  C  C241  1  0.416000  0.177000  0.544000  1.0  0.4759
  C  C242  1  0.428100  0.048000  0.514000  1.0  0.2988
  C  C243  1  0.431500  0.278000  0.553200  1.0  -0.187
  C  C244  1  0.443200  0.007000  0.482000  1.0  -0.0979
  C  C245  1  0.472300  0.323000  0.537800  1.0  -0.1794
  C  C246  1  0.415200  0.321000  0.579800  1.0  -0.1348
  C  C247  1  0.469000  0.070000  0.460800  1.0  -0.0781
  C  C248  1  0.440400  0.910000  0.476900  1.0  -0.1458
  C  C249  1  0.485900  0.414000  0.546500  1.0  0.2177
  C  C250  1  0.434100  0.408000  0.588100  1.0  0.1378
  C  C251  1  0.486300  0.028000  0.433400  1.0  0.2916
  C  C252  1  0.455100  0.870000  0.448700  1.0  0.1839
  C  C253  1  0.226100  0.021000  0.286500  1.0  0.2841
  C  C254  1  0.221800  0.064000  0.253700  1.0  -0.2056
  C  C255  1  0.178000  0.107000  0.244200  1.0  -0.1153
  C  C256  1  0.268100  0.072000  0.234800  1.0  -0.007
  C  C257  1  0.186900  0.989000  0.332600  1.0  0.3049
  C  C258  1  0.273600  0.995000  0.329700  1.0  0.3147
  C  C259  1  0.175400  0.136000  0.213000  1.0  0.2272
  C  C260  1  0.262900  0.120000  0.206500  1.0  0.3298
  C  C261  1  0.138500  0.986000  0.351000  1.0  0.2148
  C  C262  1  0.323800  0.977000  0.342800  1.0  -0.0657
  C  C263  1  0.139200  0.974000  0.381400  1.0  -0.0896
  C  C264  1  0.093300  0.990000  0.336400  1.0  -0.1301
  C  C265  1  0.366100  0.978000  0.322800  1.0  -0.0646
  C  C266  1  0.331500  0.952000  0.373700  1.0  -0.1359
  C  C267  1  0.095800  0.941000  0.394900  1.0  0.2721
  C  C268  1  0.049800  0.963000  0.352100  1.0  0.2443
  C  C269  1  0.413500  0.971000  0.334900  1.0  0.1457
  C  C270  1  0.380500  0.930000  0.382200  1.0  0.0961
  C  C271  1  0.162500  0.180200  0.099400  1.0  0.1635
  C  C272  1  0.182900  0.044000  0.128800  1.0  0.2764
  C  C273  1  0.136500  0.123000  0.078200  1.0  -0.1238
  C  C274  1  0.164600  0.980000  0.104200  1.0  0.0194
  C  C275  1  0.136900  0.025000  0.081500  1.0  -0.1194
  C  C276  1  0.120300  0.962000  0.056600  1.0  0.1858
  C  C277  1  0.084000  0.823000  0.044000  1.0  0.4731
  C  C278  1  0.071900  0.952000  0.014000  1.0  0.3011
  C  C279  1  0.068500  0.722000  0.053200  1.0  -0.1878
  C  C280  1  0.056800  0.993000  0.982000  1.0  -0.0968
  C  C281  1  0.027700  0.677000  0.037800  1.0  -0.1778
  C  C282  1  0.084800  0.679000  0.079800  1.0  -0.1329
  C  C283  1  0.031000  0.930000  0.960800  1.0  -0.0792
  C  C284  1  0.059600  0.090000  0.976900  1.0  -0.1436
  C  C285  1  0.014100  0.586000  0.046500  1.0  0.2197
  C  C286  1  0.065900  0.592000  0.088100  1.0  0.1399
  C  C287  1  0.013700  0.972000  0.933400  1.0  0.2915
  C  C288  1  0.044900  0.130000  0.948700  1.0  0.1833
  C  C289  1  0.726100  0.479000  0.713500  1.0  0.2846
  C  C290  1  0.721800  0.436000  0.746300  1.0  -0.205
  C  C291  1  0.678000  0.393000  0.755800  1.0  -0.1144
  C  C292  1  0.768100  0.428000  0.765200  1.0  -0.0076
  C  C293  1  0.686900  0.511000  0.667400  1.0  0.3046
  C  C294  1  0.773600  0.505000  0.670300  1.0  0.3148
  C  C295  1  0.675400  0.364000  0.787000  1.0  0.2271
  C  C296  1  0.762900  0.380000  0.793500  1.0  0.3313
  C  C297  1  0.638500  0.514000  0.649000  1.0  0.2149
  C  C298  1  0.823800  0.523000  0.657200  1.0  -0.0657
  C  C299  1  0.639200  0.526000  0.618600  1.0  -0.0893
  C  C300  1  0.593300  0.510000  0.663600  1.0  -0.131
  C  C301  1  0.866100  0.522000  0.677200  1.0  -0.0647
  C  C302  1  0.831500  0.548000  0.626300  1.0  -0.1365
  C  C303  1  0.595800  0.559000  0.605100  1.0  0.2723
  C  C304  1  0.549800  0.537000  0.647900  1.0  0.2435
  C  C305  1  0.913500  0.529000  0.665100  1.0  0.1466
  C  C306  1  0.880500  0.570000  0.617800  1.0  0.0962
  C  C307  1  0.662500  0.319800  0.900600  1.0  0.1659
  C  C308  1  0.682900  0.456000  0.871200  1.0  0.2777
  C  C309  1  0.636500  0.377000  0.921800  1.0  -0.1254
  C  C310  1  0.664600  0.520000  0.895800  1.0  0.0177
  C  C311  1  0.636900  0.475000  0.918500  1.0  -0.1199
  C  C312  1  0.620300  0.538000  0.943400  1.0  0.186
  C  C313  1  0.584000  0.677000  0.956000  1.0  0.4743
  C  C314  1  0.571900  0.548000  0.986000  1.0  0.3007
  C  C315  1  0.568500  0.778000  0.946800  1.0  -0.1878
  C  C316  1  0.556800  0.507000  0.018000  1.0  -0.0971
  C  C317  1  0.527700  0.823000  0.962200  1.0  -0.1783
  C  C318  1  0.584800  0.821000  0.920200  1.0  -0.1332
  C  C319  1  0.531000  0.570000  0.039200  1.0  -0.0789
  C  C320  1  0.559600  0.410000  0.023100  1.0  -0.145
  C  C321  1  0.514100  0.914000  0.953500  1.0  0.219
  C  C322  1  0.565900  0.908000  0.911900  1.0  0.138
  C  C323  1  0.513700  0.528000  0.066600  1.0  0.292
  C  C324  1  0.544900  0.370000  0.051300  1.0  0.1848
  C  C325  1  0.773900  0.521000  0.213500  1.0  0.2846
  C  C326  1  0.778200  0.564000  0.246300  1.0  -0.2064
  C  C327  1  0.822000  0.607000  0.255800  1.0  -0.1149
  C  C328  1  0.731900  0.572000  0.265200  1.0  -0.0069
  C  C329  1  0.813100  0.489000  0.167400  1.0  0.3048
  C  C330  1  0.726400  0.495000  0.170300  1.0  0.3151
  C  C331  1  0.824600  0.636000  0.287000  1.0  0.225
  C  C332  1  0.737100  0.620000  0.293500  1.0  0.3296
  C  C333  1  0.861500  0.486000  0.149000  1.0  0.2142
  C  C334  1  0.676200  0.477000  0.157200  1.0  -0.0655
  C  C335  1  0.860800  0.474000  0.118600  1.0  -0.0886
  C  C336  1  0.906700  0.490000  0.163600  1.0  -0.1313
  C  C337  1  0.633900  0.478000  0.177200  1.0  -0.066
  C  C338  1  0.668500  0.452000  0.126300  1.0  -0.1384
  C  C339  1  0.904200  0.441000  0.105100  1.0  0.2725
  C  C340  1  0.950200  0.463000  0.147900  1.0  0.2438
  C  C341  1  0.586500  0.471000  0.165100  1.0  0.1459
  C  C342  1  0.619500  0.430000  0.117800  1.0  0.0962
  C  C343  1  0.837500  0.680200  0.400600  1.0  0.1631
  C  C344  1  0.817100  0.544000  0.371200  1.0  0.2776
  C  C345  1  0.863500  0.623000  0.421800  1.0  -0.1242
  C  C346  1  0.835400  0.480000  0.395800  1.0  0.0188
  C  C347  1  0.863100  0.525000  0.418500  1.0  -0.1191
  C  C348  1  0.879700  0.462000  0.443400  1.0  0.1857
  C  C349  1  0.916000  0.323000  0.456000  1.0  0.4725
  C  C350  1  0.928100  0.452000  0.486000  1.0  0.2988
  C  C351  1  0.931500  0.222000  0.446800  1.0  -0.1884
  C  C352  1  0.943200  0.493000  0.518000  1.0  -0.0986
  C  C353  1  0.972300  0.177000  0.462200  1.0  -0.1786
  C  C354  1  0.915200  0.179000  0.420200  1.0  -0.1342
  C  C355  1  0.969000  0.430000  0.539200  1.0  -0.0779
  C  C356  1  0.940400  0.590000  0.523100  1.0  -0.1462
  C  C357  1  0.985900  0.086000  0.453500  1.0  0.2187
  C  C358  1  0.934100  0.092000  0.411900  1.0  0.1396
  C  C359  1  0.986300  0.472000  0.566600  1.0  0.2911
  C  C360  1  0.955100  0.630000  0.551300  1.0  0.1843
  C  C361  1  0.726100  0.021000  0.213500  1.0  0.2844
  C  C362  1  0.721800  0.064000  0.246300  1.0  -0.2057
  C  C363  1  0.678000  0.107000  0.255800  1.0  -0.1148
  C  C364  1  0.768100  0.072000  0.265200  1.0  -0.0073
  C  C365  1  0.686900  0.989000  0.167400  1.0  0.305
  C  C366  1  0.773600  0.995000  0.170300  1.0  0.315
  C  C367  1  0.675400  0.136000  0.287000  1.0  0.2275
  C  C368  1  0.762900  0.120000  0.293500  1.0  0.3311
  C  C369  1  0.638500  0.986000  0.149000  1.0  0.2147
  C  C370  1  0.823800  0.977000  0.157200  1.0  -0.0657
  C  C371  1  0.639200  0.974000  0.118600  1.0  -0.0899
  C  C372  1  0.593300  0.990000  0.163600  1.0  -0.1313
  C  C373  1  0.866100  0.978000  0.177200  1.0  -0.065
  C  C374  1  0.831500  0.952000  0.126300  1.0  -0.1367
  C  C375  1  0.595800  0.941000  0.105100  1.0  0.2736
  C  C376  1  0.549800  0.963000  0.147900  1.0  0.2438
  C  C377  1  0.913500  0.971000  0.165100  1.0  0.1465
  C  C378  1  0.880500  0.930000  0.117800  1.0  0.096
  C  C379  1  0.662500  0.180200  0.400600  1.0  0.1636
  C  C380  1  0.682900  0.044000  0.371200  1.0  0.2775
  C  C381  1  0.636500  0.123000  0.421800  1.0  -0.1254
  C  C382  1  0.664600  0.980000  0.395800  1.0  0.0194
  C  C383  1  0.636900  0.025000  0.418500  1.0  -0.1194
  C  C384  1  0.620300  0.962000  0.443400  1.0  0.1857
  C  C385  1  0.584000  0.823000  0.456000  1.0  0.4742
  C  C386  1  0.571900  0.952000  0.486000  1.0  0.3007
  C  C387  1  0.568500  0.722000  0.446800  1.0  -0.1887
  C  C388  1  0.556800  0.993000  0.518000  1.0  -0.096
  C  C389  1  0.527700  0.677000  0.462200  1.0  -0.178
  C  C390  1  0.584800  0.679000  0.420200  1.0  -0.1333
  C  C391  1  0.531000  0.930000  0.539200  1.0  -0.078
  C  C392  1  0.559600  0.090000  0.523100  1.0  -0.1447
  C  C393  1  0.514100  0.586000  0.453500  1.0  0.2198
  C  C394  1  0.565900  0.592000  0.411900  1.0  0.1387
  C  C395  1  0.513700  0.972000  0.566600  1.0  0.2914
  C  C396  1  0.544900  0.130000  0.551300  1.0  0.184
  C  C397  1  0.773900  0.979000  0.713500  1.0  0.2847
  C  C398  1  0.778200  0.936000  0.746300  1.0  -0.2058
  C  C399  1  0.822000  0.893000  0.755800  1.0  -0.1143
  C  C400  1  0.731900  0.928000  0.765200  1.0  -0.0073
  C  C401  1  0.813100  0.011000  0.667400  1.0  0.3046
  C  C402  1  0.726400  0.005000  0.670300  1.0  0.3148
  C  C403  1  0.824600  0.864000  0.787000  1.0  0.2253
  C  C404  1  0.737100  0.880000  0.793500  1.0  0.3302
  C  C405  1  0.861500  0.014000  0.649000  1.0  0.2143
  C  C406  1  0.676200  0.023000  0.657200  1.0  -0.0654
  C  C407  1  0.860800  0.026000  0.618600  1.0  -0.0881
  C  C408  1  0.906700  0.010000  0.663600  1.0  -0.1312
  C  C409  1  0.633900  0.022000  0.677200  1.0  -0.0657
  C  C410  1  0.668500  0.048000  0.626300  1.0  -0.1383
  C  C411  1  0.904200  0.059000  0.605100  1.0  0.2713
  C  C412  1  0.950200  0.037000  0.647900  1.0  0.2432
  C  C413  1  0.586500  0.029000  0.665100  1.0  0.1456
  C  C414  1  0.619500  0.070000  0.617800  1.0  0.0962
  C  C415  1  0.837500  0.819800  0.900600  1.0  0.1665
  C  C416  1  0.817100  0.956000  0.871200  1.0  0.2779
  C  C417  1  0.863500  0.877000  0.921800  1.0  -0.1241
  C  C418  1  0.835400  0.020000  0.895800  1.0  0.017
  C  C419  1  0.863100  0.975000  0.918500  1.0  -0.1194
  C  C420  1  0.879700  0.038000  0.943400  1.0  0.1862
  C  C421  1  0.916000  0.177000  0.956000  1.0  0.475
  C  C422  1  0.928100  0.048000  0.986000  1.0  0.2986
  C  C423  1  0.931500  0.278000  0.946800  1.0  -0.1863
  C  C424  1  0.943200  0.007000  0.018000  1.0  -0.0979
  C  C425  1  0.972300  0.323000  0.962200  1.0  -0.1789
  C  C426  1  0.915200  0.321000  0.920200  1.0  -0.1343
  C  C427  1  0.969000  0.070000  0.039200  1.0  -0.0782
  C  C428  1  0.940400  0.910000  0.023100  1.0  -0.1468
  C  C429  1  0.985900  0.414000  0.953500  1.0  0.2183
  C  C430  1  0.934100  0.408000  0.911900  1.0  0.139
  C  C431  1  0.986300  0.028000  0.066600  1.0  0.2916
  C  C432  1  0.955100  0.870000  0.051300  1.0  0.1852
  C  C433  1  0.273900  0.521000  0.286500  1.0  0.2843
  C  C434  1  0.278200  0.564000  0.253700  1.0  -0.2062
  C  C435  1  0.322000  0.607000  0.244200  1.0  -0.115
  C  C436  1  0.231900  0.572000  0.234800  1.0  -0.0065
  C  C437  1  0.313100  0.489000  0.332600  1.0  0.3047
  C  C438  1  0.226400  0.495000  0.329700  1.0  0.315
  C  C439  1  0.324600  0.636000  0.213000  1.0  0.2243
  C  C440  1  0.237100  0.620000  0.206500  1.0  0.329
  C  C441  1  0.361500  0.486000  0.351000  1.0  0.2141
  C  C442  1  0.176200  0.477000  0.342800  1.0  -0.0655
  C  C443  1  0.360800  0.474000  0.381400  1.0  -0.09
  C  C444  1  0.406700  0.490000  0.336400  1.0  -0.1312
  C  C445  1  0.133900  0.478000  0.322800  1.0  -0.0647
  C  C446  1  0.168500  0.452000  0.373700  1.0  -0.1354
  C  C447  1  0.404200  0.441000  0.394900  1.0  0.2709
  C  C448  1  0.450200  0.463000  0.352100  1.0  0.243
  C  C449  1  0.086500  0.471000  0.334900  1.0  0.1467
  C  C450  1  0.119500  0.430000  0.382200  1.0  0.0965
  C  C451  1  0.337500  0.680200  0.099400  1.0  0.1631
  C  C452  1  0.317100  0.544000  0.128800  1.0  0.2764
  C  C453  1  0.363500  0.623000  0.078200  1.0  -0.1229
  C  C454  1  0.335400  0.480000  0.104200  1.0  0.019
  C  C455  1  0.363100  0.525000  0.081500  1.0  -0.1191
  C  C456  1  0.379700  0.462000  0.056600  1.0  0.1857
  C  C457  1  0.416000  0.323000  0.044000  1.0  0.4726
  C  C458  1  0.428100  0.452000  0.014000  1.0  0.299
  C  C459  1  0.431500  0.222000  0.053200  1.0  -0.1886
  C  C460  1  0.443200  0.493000  0.982000  1.0  -0.0989
  C  C461  1  0.472300  0.177000  0.037800  1.0  -0.1787
  C  C462  1  0.415200  0.179000  0.079800  1.0  -0.1345
  C  C463  1  0.469000  0.430000  0.960800  1.0  -0.0796
  C  C464  1  0.440400  0.590000  0.976900  1.0  -0.1458
  C  C465  1  0.485900  0.086000  0.046500  1.0  0.2179
  C  C466  1  0.434100  0.092000  0.088100  1.0  0.1398
  C  C467  1  0.486300  0.472000  0.933400  1.0  0.2912
  C  C468  1  0.455100  0.630000  0.948700  1.0  0.1834
  C  C469  1  0.226100  0.479000  0.786500  1.0  0.2844
  C  C470  1  0.221800  0.436000  0.753700  1.0  -0.2052
  C  C471  1  0.178000  0.393000  0.744200  1.0  -0.1147
  C  C472  1  0.268100  0.428000  0.734800  1.0  -0.0074
  C  C473  1  0.186900  0.511000  0.832600  1.0  0.3045
  C  C474  1  0.273600  0.505000  0.829700  1.0  0.3145
  C  C475  1  0.175400  0.364000  0.713000  1.0  0.2265
  C  C476  1  0.262900  0.380000  0.706500  1.0  0.3298
  C  C477  1  0.138500  0.514000  0.851000  1.0  0.2149
  C  C478  1  0.323800  0.523000  0.842800  1.0  -0.0657
  C  C479  1  0.139200  0.526000  0.881400  1.0  -0.0892
  C  C480  1  0.093300  0.510000  0.836400  1.0  -0.13
  C  C481  1  0.366100  0.522000  0.822800  1.0  -0.0645
  C  C482  1  0.331500  0.548000  0.873700  1.0  -0.1357
  C  C483  1  0.095800  0.559000  0.894900  1.0  0.2717
  C  C484  1  0.049800  0.537000  0.852100  1.0  0.2442
  C  C485  1  0.413500  0.529000  0.834900  1.0  0.1457
  C  C486  1  0.380500  0.570000  0.882200  1.0  0.0959
  C  C487  1  0.162500  0.319800  0.599400  1.0  0.1653
  C  C488  1  0.182900  0.456000  0.628800  1.0  0.2764
  C  C489  1  0.136500  0.377000  0.578200  1.0  -0.1244
  C  C490  1  0.164600  0.520000  0.604200  1.0  0.0177
  C  C491  1  0.136900  0.475000  0.581500  1.0  -0.1199
  C  C492  1  0.120300  0.538000  0.556600  1.0  0.186
  C  C493  1  0.084000  0.677000  0.544000  1.0  0.4747
  C  C494  1  0.071900  0.548000  0.514000  1.0  0.3008
  C  C495  1  0.068500  0.778000  0.553200  1.0  -0.1872
  C  C496  1  0.056800  0.507000  0.482000  1.0  -0.0979
  C  C497  1  0.027700  0.823000  0.537800  1.0  -0.1783
  C  C498  1  0.084800  0.821000  0.579800  1.0  -0.1325
  C  C499  1  0.031000  0.570000  0.460800  1.0  -0.0786
  C  C500  1  0.059600  0.410000  0.476900  1.0  -0.1436
  C  C501  1  0.014100  0.914000  0.546500  1.0  0.2192
  C  C502  1  0.065900  0.908000  0.588100  1.0  0.1377
  C  C503  1  0.013700  0.528000  0.433400  1.0  0.2918
  C  C504  1  0.044900  0.370000  0.448700  1.0  0.1837
  Br  Br505  1  0.301090  0.614000  0.665670  1.0  -0.4668
  Br  Br506  1  0.179980  0.779700  0.638000  1.0  -0.424
  Br  Br507  1  0.574090  0.154800  0.876400  1.0  -0.4383
  Br  Br508  1  0.476410  0.170600  0.950490  1.0  -0.4379
  Br  Br509  1  0.954740  0.071500  0.859200  1.0  -0.3539
  Br  Br510  1  0.049400  0.298600  0.890980  1.0  -0.459
  Br  Br511  1  0.198910  0.386000  0.165670  1.0  -0.4667
  Br  Br512  1  0.320020  0.220300  0.138000  1.0  -0.4236
  Br  Br513  1  0.925910  0.845200  0.376400  1.0  -0.4396
  Br  Br514  1  0.023590  0.829400  0.450490  1.0  -0.4375
  Br  Br515  1  0.545260  0.928500  0.359200  1.0  -0.3541
  Br  Br516  1  0.450600  0.701400  0.390980  1.0  -0.4594
  Br  Br517  1  0.698910  0.114000  0.834330  1.0  -0.4668
  Br  Br518  1  0.820020  0.279700  0.862000  1.0  -0.4228
  Br  Br519  1  0.425910  0.654800  0.623600  1.0  -0.4399
  Br  Br520  1  0.523590  0.670600  0.549510  1.0  -0.4379
  Br  Br521  1  0.045260  0.571500  0.640800  1.0  -0.3541
  Br  Br522  1  0.950600  0.798600  0.609020  1.0  -0.4583
  Br  Br523  1  0.801090  0.886000  0.334330  1.0  -0.4664
  Br  Br524  1  0.679980  0.720300  0.362000  1.0  -0.424
  Br  Br525  1  0.074090  0.345200  0.123600  1.0  -0.4387
  Br  Br526  1  0.976410  0.329400  0.049510  1.0  -0.4386
  Br  Br527  1  0.454740  0.428500  0.140800  1.0  -0.3553
  Br  Br528  1  0.549400  0.201400  0.109020  1.0  -0.4588
  Br  Br529  1  0.698910  0.386000  0.334330  1.0  -0.4665
  Br  Br530  1  0.820020  0.220300  0.362000  1.0  -0.4231
  Br  Br531  1  0.425910  0.845200  0.123600  1.0  -0.4403
  Br  Br532  1  0.523590  0.829400  0.049510  1.0  -0.4378
  Br  Br533  1  0.045260  0.928500  0.140800  1.0  -0.3543
  Br  Br534  1  0.950600  0.701400  0.109020  1.0  -0.4586
  Br  Br535  1  0.801090  0.614000  0.834330  1.0  -0.4667
  Br  Br536  1  0.679980  0.779700  0.862000  1.0  -0.4237
  Br  Br537  1  0.074090  0.154800  0.623600  1.0  -0.4384
  Br  Br538  1  0.976410  0.170600  0.549510  1.0  -0.4387
  Br  Br539  1  0.454740  0.071500  0.640800  1.0  -0.3551
  Br  Br540  1  0.549400  0.298600  0.609020  1.0  -0.4586
  Br  Br541  1  0.301090  0.886000  0.165670  1.0  -0.4666
  Br  Br542  1  0.179980  0.720300  0.138000  1.0  -0.4243
  Br  Br543  1  0.574090  0.345200  0.376400  1.0  -0.4384
  Br  Br544  1  0.476410  0.329400  0.450490  1.0  -0.4381
  Br  Br545  1  0.954740  0.428500  0.359200  1.0  -0.3538
  Br  Br546  1  0.049400  0.201400  0.390980  1.0  -0.4592
  Br  Br547  1  0.198910  0.114000  0.665670  1.0  -0.467
  Br  Br548  1  0.320020  0.279700  0.638000  1.0  -0.4234
  Br  Br549  1  0.925910  0.654800  0.876400  1.0  -0.4395
  Br  Br550  1  0.023590  0.670600  0.950490  1.0  -0.4373
  Br  Br551  1  0.545260  0.571500  0.859200  1.0  -0.3543
  Br  Br552  1  0.450600  0.798600  0.890980  1.0  -0.4592
  N  N553  1  0.317900  0.990000  0.802200  1.0  -0.4656
  N  N554  1  0.226600  0.992000  0.798500  1.0  -0.4676
  N  N555  1  0.268000  0.009900  0.848400  1.0  -0.4622
  N  N556  1  0.281000  0.847000  0.696400  1.0  -0.3695
  N  N557  1  0.318200  0.850000  0.626000  1.0  -0.3245
  N  N558  1  0.447600  0.060000  0.881000  1.0  -0.3028
  N  N559  1  0.079500  0.071400  0.862700  1.0  -0.3591
  N  N560  1  0.385700  0.132000  0.561800  1.0  -0.4304
  N  N561  1  0.402200  0.990300  0.532500  1.0  -0.3787
  N  N562  1  0.443000  0.138000  0.522700  1.0  -0.4537
  N  N563  1  0.463300  0.461200  0.568400  1.0  -0.3555
  N  N564  1  0.470900  0.940000  0.426100  1.0  -0.4229
  N  N565  1  0.182100  0.010000  0.302200  1.0  -0.4644
  N  N566  1  0.273400  0.008000  0.298500  1.0  -0.4654
  N  N567  1  0.232000  0.990100  0.348400  1.0  -0.4617
  N  N568  1  0.219000  0.153000  0.196400  1.0  -0.3692
  N  N569  1  0.181800  0.150000  0.126000  1.0  -0.3274
  N  N570  1  0.052400  0.940000  0.381000  1.0  -0.3047
  N  N571  1  0.420500  0.928600  0.362700  1.0  -0.3614
  N  N572  1  0.114300  0.868000  0.061800  1.0  -0.4326
  N  N573  1  0.097800  0.009700  0.032500  1.0  -0.379
  N  N574  1  0.057000  0.862000  0.022700  1.0  -0.4555
  N  N575  1  0.036700  0.538800  0.068400  1.0  -0.3527
  N  N576  1  0.029100  0.060000  0.926100  1.0  -0.4216
  N  N577  1  0.682100  0.490000  0.697800  1.0  -0.4647
  N  N578  1  0.773400  0.492000  0.701500  1.0  -0.4649
  N  N579  1  0.732000  0.509900  0.651600  1.0  -0.4606
  N  N580  1  0.719000  0.347000  0.803600  1.0  -0.3688
  N  N581  1  0.681800  0.350000  0.874000  1.0  -0.3256
  N  N582  1  0.552400  0.560000  0.619000  1.0  -0.3031
  N  N583  1  0.920500  0.571400  0.637300  1.0  -0.3614
  N  N584  1  0.614300  0.632000  0.938200  1.0  -0.4336
  N  N585  1  0.597800  0.490300  0.967500  1.0  -0.3774
  N  N586  1  0.557000  0.638000  0.977300  1.0  -0.4559
  N  N587  1  0.536700  0.961200  0.931600  1.0  -0.3551
  N  N588  1  0.529100  0.440000  0.073900  1.0  -0.4216
  N  N589  1  0.817900  0.510000  0.197800  1.0  -0.4656
  N  N590  1  0.726600  0.508000  0.201500  1.0  -0.4668
  N  N591  1  0.768000  0.490100  0.151600  1.0  -0.4614
  N  N592  1  0.781000  0.653000  0.303600  1.0  -0.369
  N  N593  1  0.818200  0.650000  0.374000  1.0  -0.3254
  N  N594  1  0.947600  0.440000  0.119000  1.0  -0.3012
  N  N595  1  0.579500  0.428600  0.137300  1.0  -0.3606
  N  N596  1  0.885700  0.368000  0.438200  1.0  -0.4304
  N  N597  1  0.902200  0.509700  0.467500  1.0  -0.3792
  N  N598  1  0.943000  0.362000  0.477300  1.0  -0.4529
  N  N599  1  0.963300  0.038800  0.431600  1.0  -0.3521
  N  N600  1  0.970900  0.560000  0.573900  1.0  -0.4232
  N  N601  1  0.682100  0.010000  0.197800  1.0  -0.4647
  N  N602  1  0.773400  0.008000  0.201500  1.0  -0.4648
  N  N603  1  0.732000  0.990100  0.151600  1.0  -0.4606
  N  N604  1  0.719000  0.153000  0.303600  1.0  -0.3692
  N  N605  1  0.681800  0.150000  0.374000  1.0  -0.3273
  N  N606  1  0.552400  0.940000  0.119000  1.0  -0.3039
  N  N607  1  0.920500  0.928600  0.137300  1.0  -0.3613
  N  N608  1  0.614300  0.868000  0.438200  1.0  -0.4334
  N  N609  1  0.597800  0.009700  0.467500  1.0  -0.3792
  N  N610  1  0.557000  0.862000  0.477300  1.0  -0.4557
  N  N611  1  0.536700  0.538800  0.431600  1.0  -0.3522
  N  N612  1  0.529100  0.060000  0.573900  1.0  -0.4219
  N  N613  1  0.817900  0.990000  0.697800  1.0  -0.4658
  N  N614  1  0.726600  0.992000  0.701500  1.0  -0.4669
  N  N615  1  0.768000  0.009900  0.651600  1.0  -0.4613
  N  N616  1  0.781000  0.847000  0.803600  1.0  -0.3688
  N  N617  1  0.818200  0.850000  0.874000  1.0  -0.3242
  N  N618  1  0.947600  0.060000  0.619000  1.0  -0.3018
  N  N619  1  0.579500  0.071400  0.637300  1.0  -0.3596
  N  N620  1  0.885700  0.132000  0.938200  1.0  -0.4299
  N  N621  1  0.902200  0.990300  0.967500  1.0  -0.3786
  N  N622  1  0.943000  0.138000  0.977300  1.0  -0.4532
  N  N623  1  0.963300  0.461200  0.931600  1.0  -0.3549
  N  N624  1  0.970900  0.940000  0.073900  1.0  -0.4229
  N  N625  1  0.317900  0.510000  0.302200  1.0  -0.4658
  N  N626  1  0.226600  0.508000  0.298500  1.0  -0.4675
  N  N627  1  0.268000  0.490100  0.348400  1.0  -0.4622
  N  N628  1  0.281000  0.653000  0.196400  1.0  -0.369
  N  N629  1  0.318200  0.650000  0.126000  1.0  -0.3256
  N  N630  1  0.447600  0.440000  0.381000  1.0  -0.3021
  N  N631  1  0.079500  0.428600  0.362700  1.0  -0.3601
  N  N632  1  0.385700  0.368000  0.061800  1.0  -0.4303
  N  N633  1  0.402200  0.509700  0.032500  1.0  -0.3789
  N  N634  1  0.443000  0.362000  0.022700  1.0  -0.454
  N  N635  1  0.463300  0.038800  0.068400  1.0  -0.3527
  N  N636  1  0.470900  0.560000  0.926100  1.0  -0.4218
  N  N637  1  0.182100  0.490000  0.802200  1.0  -0.4638
  N  N638  1  0.273400  0.492000  0.798500  1.0  -0.4654
  N  N639  1  0.232000  0.509900  0.848400  1.0  -0.4617
  N  N640  1  0.219000  0.347000  0.696400  1.0  -0.3696
  N  N641  1  0.181800  0.350000  0.626000  1.0  -0.326
  N  N642  1  0.052400  0.560000  0.881000  1.0  -0.3046
  N  N643  1  0.420500  0.571400  0.862700  1.0  -0.3611
  N  N644  1  0.114300  0.632000  0.561800  1.0  -0.4337
  N  N645  1  0.097800  0.490300  0.532500  1.0  -0.3779
  N  N646  1  0.057000  0.638000  0.522700  1.0  -0.4549
  N  N647  1  0.036700  0.961200  0.568400  1.0  -0.3556
  N  N648  1  0.029100  0.440000  0.426100  1.0  -0.423
