# generated using pymatgen
data_ZnH8C12(IN2)2
_symmetry_space_group_name_H-M   'P 1'
_cell_length_a   13.68880000
_cell_length_b   27.46900000
_cell_length_c   45.99610000
_cell_angle_alpha   90.00000000
_cell_angle_beta   90.00000000
_cell_angle_gamma   90.00000000
_symmetry_Int_Tables_number   1
_chemical_formula_structural   ZnH8C12(IN2)2
_chemical_formula_sum   'Zn24 H192 C288 I48 N96'
_cell_volume   17295.34530238
_cell_formula_units_Z   24
loop_
 _symmetry_equiv_pos_site_id
 _symmetry_equiv_pos_as_xyz
  1  'x, y, z'
loop_
 _atom_site_type_symbol
 _atom_site_label
 _atom_site_symmetry_multiplicity
 _atom_site_fract_x
 _atom_site_fract_y
 _atom_site_fract_z
 _atom_site_occupancy
 _atom_site_charge
  Zn  Zn1  1  0.146300  0.469580  0.909970  1.0  0.8367
  Zn  Zn2  1  0.350100  0.254070  0.811820  1.0  0.8694
  Zn  Zn3  1  0.652630  0.054210  0.571960  1.0  0.8634
  Zn  Zn4  1  0.853700  0.030420  0.409970  1.0  0.8351
  Zn  Zn5  1  0.649900  0.245930  0.311820  1.0  0.8695
  Zn  Zn6  1  0.347370  0.445790  0.071960  1.0  0.8623
  Zn  Zn7  1  0.646300  0.530420  0.590030  1.0  0.8366
  Zn  Zn8  1  0.850100  0.745930  0.688180  1.0  0.8677
  Zn  Zn9  1  0.152630  0.945790  0.928040  1.0  0.8623
  Zn  Zn10  1  0.353700  0.969580  0.090030  1.0  0.8357
  Zn  Zn11  1  0.149900  0.754070  0.188180  1.0  0.8706
  Zn  Zn12  1  0.847370  0.554210  0.428040  1.0  0.8632
  Zn  Zn13  1  0.853700  0.530420  0.090030  1.0  0.835
  Zn  Zn14  1  0.649900  0.745930  0.188180  1.0  0.8693
  Zn  Zn15  1  0.347370  0.945790  0.428040  1.0  0.862
  Zn  Zn16  1  0.146300  0.969580  0.590030  1.0  0.8366
  Zn  Zn17  1  0.350100  0.754070  0.688180  1.0  0.8691
  Zn  Zn18  1  0.652630  0.554210  0.928040  1.0  0.8624
  Zn  Zn19  1  0.353700  0.469580  0.409970  1.0  0.8359
  Zn  Zn20  1  0.149900  0.254070  0.311820  1.0  0.8708
  Zn  Zn21  1  0.847370  0.054210  0.071960  1.0  0.8644
  Zn  Zn22  1  0.646300  0.030420  0.909970  1.0  0.8366
  Zn  Zn23  1  0.850100  0.245930  0.811820  1.0  0.8678
  Zn  Zn24  1  0.152630  0.445790  0.571960  1.0  0.8626
  H  H25  1  0.991200  0.414100  0.878400  1.0  0.0948
  H  H26  1  0.835700  0.383000  0.885400  1.0  0.1231
  H  H27  1  0.846000  0.432000  0.968500  1.0  0.1256
  H  H28  1  0.002900  0.459600  0.959400  1.0  0.083
  H  H29  1  0.634800  0.443300  0.003900  1.0  0.1167
  H  H30  1  0.543600  0.466000  0.044500  1.0  0.0887
  H  H31  1  0.312500  0.397200  0.014400  1.0  0.0854
  H  H32  1  0.396700  0.372800  0.972800  1.0  0.1295
  H  H33  1  0.393900  0.343700  0.904700  1.0  0.1263
  H  H34  1  0.312800  0.307200  0.866200  1.0  0.0938
  H  H35  1  0.561300  0.273700  0.828600  1.0  0.0893
  H  H36  1  0.649400  0.311700  0.865400  1.0  0.116
  H  H37  1  0.490900  0.346900  0.728700  1.0  0.1211
  H  H38  1  0.425600  0.334700  0.775100  1.0  0.0935
  H  H39  1  0.464600  0.193100  0.769000  1.0  0.0886
  H  H40  1  0.528000  0.200500  0.722300  1.0  0.1191
  H  H41  1  0.592000  0.351000  0.594600  1.0  0.1162
  H  H42  1  0.613600  0.426500  0.573400  1.0  0.0902
  H  H43  1  0.597700  0.491000  0.649900  1.0  0.0984
  H  H44  1  0.573100  0.416100  0.673100  1.0  0.1172
  H  H45  1  0.554100  0.150800  0.659800  1.0  0.1242
  H  H46  1  0.576000  0.082500  0.631000  1.0  0.104
  H  H47  1  0.648500  0.163700  0.563600  1.0  0.0946
  H  H48  1  0.620800  0.234400  0.589500  1.0  0.1271
  H  H49  1  0.008800  0.085900  0.378400  1.0  0.0944
  H  H50  1  0.164300  0.117000  0.385400  1.0  0.1232
  H  H51  1  0.154000  0.068000  0.468500  1.0  0.1259
  H  H52  1  0.997100  0.040400  0.459400  1.0  0.0831
  H  H53  1  0.365200  0.056700  0.503900  1.0  0.1165
  H  H54  1  0.456400  0.034000  0.544500  1.0  0.0887
  H  H55  1  0.687500  0.102800  0.514400  1.0  0.0853
  H  H56  1  0.603300  0.127200  0.472800  1.0  0.1294
  H  H57  1  0.606100  0.156300  0.404700  1.0  0.1265
  H  H58  1  0.687200  0.192800  0.366200  1.0  0.093
  H  H59  1  0.438700  0.226300  0.328600  1.0  0.0893
  H  H60  1  0.350600  0.188300  0.365400  1.0  0.1175
  H  H61  1  0.509100  0.153100  0.228700  1.0  0.1208
  H  H62  1  0.574400  0.165300  0.275100  1.0  0.0929
  H  H63  1  0.535400  0.306900  0.269000  1.0  0.0872
  H  H64  1  0.472000  0.299500  0.222300  1.0  0.12
  H  H65  1  0.408000  0.149000  0.094600  1.0  0.1162
  H  H66  1  0.386400  0.073500  0.073400  1.0  0.0897
  H  H67  1  0.402300  0.009000  0.149900  1.0  0.0989
  H  H68  1  0.426900  0.083900  0.173100  1.0  0.1174
  H  H69  1  0.445900  0.349200  0.159800  1.0  0.124
  H  H70  1  0.424000  0.417500  0.131000  1.0  0.103
  H  H71  1  0.351500  0.336300  0.063600  1.0  0.0946
  H  H72  1  0.379200  0.265600  0.089500  1.0  0.127
  H  H73  1  0.491200  0.585900  0.621600  1.0  0.0948
  H  H74  1  0.335700  0.617000  0.614600  1.0  0.1233
  H  H75  1  0.346000  0.568000  0.531500  1.0  0.1257
  H  H76  1  0.502900  0.540400  0.540600  1.0  0.0822
  H  H77  1  0.134800  0.556700  0.496100  1.0  0.1169
  H  H78  1  0.043600  0.534000  0.455500  1.0  0.0893
  H  H79  1  0.812500  0.602800  0.485600  1.0  0.085
  H  H80  1  0.896700  0.627200  0.527200  1.0  0.1289
  H  H81  1  0.893900  0.656300  0.595300  1.0  0.1261
  H  H82  1  0.812800  0.692800  0.633800  1.0  0.0938
  H  H83  1  0.061300  0.726300  0.671400  1.0  0.089
  H  H84  1  0.149400  0.688300  0.634600  1.0  0.116
  H  H85  1  0.990900  0.653100  0.771300  1.0  0.121
  H  H86  1  0.925600  0.665300  0.724900  1.0  0.093
  H  H87  1  0.964600  0.806900  0.731000  1.0  0.0874
  H  H88  1  0.028000  0.799500  0.777700  1.0  0.1195
  H  H89  1  0.092000  0.649000  0.905400  1.0  0.116
  H  H90  1  0.113600  0.573500  0.926600  1.0  0.0905
  H  H91  1  0.097700  0.509000  0.850100  1.0  0.098
  H  H92  1  0.073100  0.583900  0.826900  1.0  0.1178
  H  H93  1  0.054100  0.849200  0.840200  1.0  0.1239
  H  H94  1  0.076000  0.917500  0.869000  1.0  0.1027
  H  H95  1  0.148500  0.836300  0.936400  1.0  0.0948
  H  H96  1  0.120800  0.765600  0.910500  1.0  0.1268
  H  H97  1  0.508800  0.914100  0.121600  1.0  0.0952
  H  H98  1  0.664300  0.883000  0.114600  1.0  0.1237
  H  H99  1  0.654000  0.932000  0.031500  1.0  0.1257
  H  H100  1  0.497100  0.959600  0.040600  1.0  0.0813
  H  H101  1  0.865200  0.943300  0.996100  1.0  0.1163
  H  H102  1  0.956400  0.966000  0.955500  1.0  0.0884
  H  H103  1  0.187500  0.897200  0.985600  1.0  0.0851
  H  H104  1  0.103300  0.872800  0.027200  1.0  0.1287
  H  H105  1  0.106100  0.843700  0.095300  1.0  0.1262
  H  H106  1  0.187200  0.807200  0.133800  1.0  0.0927
  H  H107  1  0.938700  0.773700  0.171400  1.0  0.0897
  H  H108  1  0.850600  0.811700  0.134600  1.0  0.1173
  H  H109  1  0.009100  0.846900  0.271300  1.0  0.1211
  H  H110  1  0.074400  0.834700  0.224900  1.0  0.0934
  H  H111  1  0.035400  0.693100  0.231000  1.0  0.0881
  H  H112  1  0.972000  0.700500  0.277700  1.0  0.1189
  H  H113  1  0.908000  0.851000  0.405400  1.0  0.1166
  H  H114  1  0.886400  0.926500  0.426600  1.0  0.0907
  H  H115  1  0.902300  0.991000  0.350100  1.0  0.0977
  H  H116  1  0.926900  0.916100  0.326900  1.0  0.1175
  H  H117  1  0.945900  0.650800  0.340200  1.0  0.124
  H  H118  1  0.924000  0.582500  0.369000  1.0  0.1033
  H  H119  1  0.851500  0.663700  0.436400  1.0  0.0948
  H  H120  1  0.879200  0.734400  0.410500  1.0  0.1271
  H  H121  1  0.008800  0.585900  0.121600  1.0  0.0949
  H  H122  1  0.164300  0.617000  0.114600  1.0  0.1234
  H  H123  1  0.154000  0.568000  0.031500  1.0  0.1257
  H  H124  1  0.997100  0.540400  0.040600  1.0  0.0819
  H  H125  1  0.365200  0.556700  0.996100  1.0  0.1166
  H  H126  1  0.456400  0.534000  0.955500  1.0  0.0884
  H  H127  1  0.687500  0.602800  0.985600  1.0  0.0853
  H  H128  1  0.603300  0.627200  0.027200  1.0  0.1285
  H  H129  1  0.606100  0.656300  0.095300  1.0  0.1263
  H  H130  1  0.687200  0.692800  0.133800  1.0  0.0928
  H  H131  1  0.438700  0.726300  0.171400  1.0  0.089
  H  H132  1  0.350600  0.688300  0.134600  1.0  0.1173
  H  H133  1  0.509100  0.653100  0.271300  1.0  0.1209
  H  H134  1  0.574400  0.665300  0.224900  1.0  0.0928
  H  H135  1  0.535400  0.806900  0.231000  1.0  0.0872
  H  H136  1  0.472000  0.799500  0.277700  1.0  0.1195
  H  H137  1  0.408000  0.649000  0.405400  1.0  0.1161
  H  H138  1  0.386400  0.573500  0.426600  1.0  0.0906
  H  H139  1  0.402300  0.509000  0.350100  1.0  0.0979
  H  H140  1  0.426900  0.583900  0.326900  1.0  0.1176
  H  H141  1  0.445900  0.849200  0.340200  1.0  0.124
  H  H142  1  0.424000  0.917500  0.369000  1.0  0.1025
  H  H143  1  0.351500  0.836300  0.436400  1.0  0.095
  H  H144  1  0.379200  0.765600  0.410500  1.0  0.1271
  H  H145  1  0.991200  0.914100  0.621600  1.0  0.0951
  H  H146  1  0.835700  0.883000  0.614600  1.0  0.1234
  H  H147  1  0.846000  0.932000  0.531500  1.0  0.1257
  H  H148  1  0.002900  0.959600  0.540600  1.0  0.0817
  H  H149  1  0.634800  0.943300  0.496100  1.0  0.1166
  H  H150  1  0.543600  0.966000  0.455500  1.0  0.0889
  H  H151  1  0.312500  0.897200  0.485600  1.0  0.0852
  H  H152  1  0.396700  0.872800  0.527200  1.0  0.1292
  H  H153  1  0.393900  0.843700  0.595300  1.0  0.1262
  H  H154  1  0.312800  0.807200  0.633800  1.0  0.0938
  H  H155  1  0.561300  0.773700  0.671400  1.0  0.0895
  H  H156  1  0.649400  0.811700  0.634600  1.0  0.116
  H  H157  1  0.490900  0.846900  0.771300  1.0  0.1211
  H  H158  1  0.425600  0.834700  0.724900  1.0  0.0935
  H  H159  1  0.464600  0.693100  0.731000  1.0  0.0883
  H  H160  1  0.528000  0.700500  0.777700  1.0  0.119
  H  H161  1  0.592000  0.851000  0.905400  1.0  0.1164
  H  H162  1  0.613600  0.926500  0.926600  1.0  0.0908
  H  H163  1  0.597700  0.991000  0.850100  1.0  0.0978
  H  H164  1  0.573100  0.916100  0.826900  1.0  0.1177
  H  H165  1  0.554100  0.650800  0.840200  1.0  0.1239
  H  H166  1  0.576000  0.582500  0.869000  1.0  0.1036
  H  H167  1  0.648500  0.663700  0.936400  1.0  0.0948
  H  H168  1  0.620800  0.734400  0.910500  1.0  0.127
  H  H169  1  0.508800  0.414100  0.378400  1.0  0.0944
  H  H170  1  0.664300  0.383000  0.385400  1.0  0.1234
  H  H171  1  0.654000  0.432000  0.468500  1.0  0.1257
  H  H172  1  0.497100  0.459600  0.459400  1.0  0.0826
  H  H173  1  0.865200  0.443300  0.503900  1.0  0.1163
  H  H174  1  0.956400  0.466000  0.544500  1.0  0.0887
  H  H175  1  0.187500  0.397200  0.514400  1.0  0.0851
  H  H176  1  0.103300  0.372800  0.472800  1.0  0.1293
  H  H177  1  0.106100  0.343700  0.404700  1.0  0.1262
  H  H178  1  0.187200  0.307200  0.366200  1.0  0.0927
  H  H179  1  0.938700  0.273700  0.328600  1.0  0.0894
  H  H180  1  0.850600  0.311700  0.365400  1.0  0.1173
  H  H181  1  0.009100  0.346900  0.228700  1.0  0.1212
  H  H182  1  0.074400  0.334700  0.275100  1.0  0.0933
  H  H183  1  0.035400  0.193100  0.269000  1.0  0.0883
  H  H184  1  0.972000  0.200500  0.222300  1.0  0.1192
  H  H185  1  0.908000  0.351000  0.094600  1.0  0.1163
  H  H186  1  0.886400  0.426500  0.073400  1.0  0.09
  H  H187  1  0.902300  0.491000  0.149900  1.0  0.0984
  H  H188  1  0.926900  0.416100  0.173100  1.0  0.1173
  H  H189  1  0.945900  0.150800  0.159800  1.0  0.1241
  H  H190  1  0.924000  0.082500  0.131000  1.0  0.1035
  H  H191  1  0.851500  0.163700  0.063600  1.0  0.0946
  H  H192  1  0.879200  0.234400  0.089500  1.0  0.1271
  H  H193  1  0.491200  0.085900  0.878400  1.0  0.0947
  H  H194  1  0.335700  0.117000  0.885400  1.0  0.123
  H  H195  1  0.346000  0.068000  0.968500  1.0  0.1259
  H  H196  1  0.502900  0.040400  0.959400  1.0  0.0833
  H  H197  1  0.134800  0.056700  0.003900  1.0  0.1169
  H  H198  1  0.043600  0.034000  0.044500  1.0  0.0889
  H  H199  1  0.812500  0.102800  0.014400  1.0  0.0851
  H  H200  1  0.896700  0.127200  0.972800  1.0  0.1296
  H  H201  1  0.893900  0.156300  0.904700  1.0  0.1264
  H  H202  1  0.812800  0.192800  0.866200  1.0  0.0938
  H  H203  1  0.061300  0.226300  0.828600  1.0  0.0892
  H  H204  1  0.149400  0.188300  0.865400  1.0  0.1162
  H  H205  1  0.990900  0.153100  0.728700  1.0  0.1208
  H  H206  1  0.925600  0.165300  0.775100  1.0  0.0933
  H  H207  1  0.964600  0.306900  0.769000  1.0  0.0876
  H  H208  1  0.028000  0.299500  0.722300  1.0  0.1198
  H  H209  1  0.092000  0.149000  0.594600  1.0  0.1163
  H  H210  1  0.113600  0.073500  0.573400  1.0  0.0899
  H  H211  1  0.097700  0.009000  0.649900  1.0  0.099
  H  H212  1  0.073100  0.083900  0.673100  1.0  0.1174
  H  H213  1  0.054100  0.349200  0.659800  1.0  0.1238
  H  H214  1  0.076000  0.417500  0.631000  1.0  0.1033
  H  H215  1  0.148500  0.336300  0.563600  1.0  0.0945
  H  H216  1  0.120800  0.265600  0.589500  1.0  0.1267
  C  C217  1  0.961100  0.417450  0.896890  1.0  0.1335
  C  C218  1  0.868200  0.399100  0.900850  1.0  -0.1188
  C  C219  1  0.822500  0.404410  0.927740  1.0  -0.1058
  C  C220  1  0.874400  0.427660  0.949840  1.0  -0.1503
  C  C221  1  0.967600  0.444310  0.944130  1.0  0.1391
  C  C222  1  0.568800  0.433000  0.005660  1.0  -0.0926
  C  C223  1  0.513900  0.446530  0.029900  1.0  0.1313
  C  C224  1  0.379000  0.406370  0.012250  1.0  0.1406
  C  C225  1  0.428700  0.391430  0.987360  1.0  -0.1425
  C  C226  1  0.526700  0.404560  0.984260  1.0  -0.1026
  C  C227  1  0.720600  0.388550  0.931730  1.0  0.3971
  C  C228  1  0.582200  0.389070  0.958140  1.0  0.3569
  C  C229  1  0.583600  0.354690  0.913780  1.0  0.3922
  C  C230  1  0.531000  0.330750  0.889320  1.0  -0.0942
  C  C231  1  0.429900  0.329580  0.889200  1.0  -0.1313
  C  C232  1  0.382200  0.307590  0.866280  1.0  0.1395
  C  C233  1  0.527000  0.288410  0.844290  1.0  0.1503
  C  C234  1  0.580100  0.310530  0.866260  1.0  -0.1251
  C  C235  1  0.483600  0.314890  0.736240  1.0  -0.1458
  C  C236  1  0.445700  0.307260  0.763990  1.0  0.1286
  C  C237  1  0.468200  0.224400  0.760360  1.0  0.1301
  C  C238  1  0.505700  0.228400  0.732560  1.0  -0.1493
  C  C239  1  0.510200  0.274600  0.719840  1.0  -0.0998
  C  C240  1  0.593100  0.379340  0.606440  1.0  -0.0913
  C  C241  1  0.606400  0.424420  0.593890  1.0  0.1274
  C  C242  1  0.596700  0.462020  0.638660  1.0  0.1354
  C  C243  1  0.582300  0.417490  0.652650  1.0  -0.1265
  C  C244  1  0.581600  0.375280  0.636120  1.0  -0.1012
  C  C245  1  0.571600  0.326750  0.649940  1.0  0.3955
  C  C246  1  0.540600  0.279830  0.688930  1.0  0.3796
  C  C247  1  0.573800  0.244810  0.645820  1.0  0.426
  C  C248  1  0.586500  0.200520  0.627930  1.0  -0.1076
  C  C249  1  0.572800  0.154220  0.640060  1.0  -0.1391
  C  C250  1  0.586900  0.113770  0.622780  1.0  0.1366
  C  C251  1  0.628100  0.161250  0.583330  1.0  0.1436
  C  C252  1  0.613200  0.203610  0.598630  1.0  -0.1466
  C  C253  1  0.038900  0.082550  0.396890  1.0  0.1346
  C  C254  1  0.131800  0.100900  0.400850  1.0  -0.1186
  C  C255  1  0.177500  0.095590  0.427740  1.0  -0.104
  C  C256  1  0.125600  0.072340  0.449840  1.0  -0.1502
  C  C257  1  0.032400  0.055690  0.444130  1.0  0.14
  C  C258  1  0.431200  0.067000  0.505660  1.0  -0.0957
  C  C259  1  0.486100  0.053470  0.529900  1.0  0.13
  C  C260  1  0.621000  0.093630  0.512250  1.0  0.142
  C  C261  1  0.571300  0.108570  0.487360  1.0  -0.142
  C  C262  1  0.473300  0.095440  0.484260  1.0  -0.1038
  C  C263  1  0.279400  0.111450  0.431730  1.0  0.397
  C  C264  1  0.417800  0.110930  0.458140  1.0  0.3568
  C  C265  1  0.416400  0.145310  0.413780  1.0  0.3924
  C  C266  1  0.469000  0.169250  0.389320  1.0  -0.0933
  C  C267  1  0.570100  0.170420  0.389200  1.0  -0.1305
  C  C268  1  0.617800  0.192410  0.366280  1.0  0.139
  C  C269  1  0.473000  0.211590  0.344290  1.0  0.151
  C  C270  1  0.419900  0.189470  0.366260  1.0  -0.1263
  C  C271  1  0.516400  0.185110  0.236240  1.0  -0.1457
  C  C272  1  0.554300  0.192740  0.263990  1.0  0.1291
  C  C273  1  0.531800  0.275600  0.260360  1.0  0.1297
  C  C274  1  0.494300  0.271600  0.232560  1.0  -0.1507
  C  C275  1  0.489800  0.225400  0.219840  1.0  -0.1002
  C  C276  1  0.406900  0.120660  0.106440  1.0  -0.0905
  C  C277  1  0.393600  0.075580  0.093890  1.0  0.1281
  C  C278  1  0.403300  0.037980  0.138660  1.0  0.1354
  C  C279  1  0.417700  0.082510  0.152650  1.0  -0.1265
  C  C280  1  0.418400  0.124720  0.136120  1.0  -0.1016
  C  C281  1  0.428400  0.173250  0.149940  1.0  0.3954
  C  C282  1  0.459400  0.220170  0.188930  1.0  0.3797
  C  C283  1  0.426200  0.255190  0.145820  1.0  0.4259
  C  C284  1  0.413500  0.299480  0.127930  1.0  -0.1079
  C  C285  1  0.427200  0.345780  0.140060  1.0  -0.1392
  C  C286  1  0.413100  0.386230  0.122780  1.0  0.1365
  C  C287  1  0.371900  0.338750  0.083330  1.0  0.1439
  C  C288  1  0.386800  0.296390  0.098630  1.0  -0.145
  C  C289  1  0.461100  0.582550  0.603110  1.0  0.1339
  C  C290  1  0.368200  0.600900  0.599150  1.0  -0.1187
  C  C291  1  0.322500  0.595590  0.572260  1.0  -0.1043
  C  C292  1  0.374400  0.572340  0.550160  1.0  -0.1488
  C  C293  1  0.467600  0.555690  0.555870  1.0  0.1387
  C  C294  1  0.068800  0.567000  0.494340  1.0  -0.0919
  C  C295  1  0.013900  0.553470  0.470100  1.0  0.1309
  C  C296  1  0.879000  0.593630  0.487750  1.0  0.1406
  C  C297  1  0.928700  0.608570  0.512640  1.0  -0.1426
  C  C298  1  0.026700  0.595440  0.515740  1.0  -0.103
  C  C299  1  0.220600  0.611450  0.568270  1.0  0.398
  C  C300  1  0.082200  0.610930  0.541860  1.0  0.3573
  C  C301  1  0.083600  0.645310  0.586220  1.0  0.3926
  C  C302  1  0.031000  0.669250  0.610680  1.0  -0.0927
  C  C303  1  0.929900  0.670420  0.610800  1.0  -0.1305
  C  C304  1  0.882200  0.692410  0.633720  1.0  0.1391
  C  C305  1  0.027000  0.711590  0.655710  1.0  0.1505
  C  C306  1  0.080100  0.689470  0.633740  1.0  -0.1249
  C  C307  1  0.983600  0.685110  0.763760  1.0  -0.1453
  C  C308  1  0.945700  0.692740  0.736010  1.0  0.1289
  C  C309  1  0.968200  0.775600  0.739640  1.0  0.1301
  C  C310  1  0.005700  0.771600  0.767440  1.0  -0.1495
  C  C311  1  0.010200  0.725400  0.780160  1.0  -0.1003
  C  C312  1  0.093100  0.620660  0.893560  1.0  -0.091
  C  C313  1  0.106400  0.575580  0.906110  1.0  0.1273
  C  C314  1  0.096700  0.537980  0.861340  1.0  0.1341
  C  C315  1  0.082300  0.582510  0.847350  1.0  -0.1253
  C  C316  1  0.081600  0.624720  0.863880  1.0  -0.1009
  C  C317  1  0.071600  0.673250  0.850060  1.0  0.3958
  C  C318  1  0.040600  0.720170  0.811070  1.0  0.3794
  C  C319  1  0.073800  0.755190  0.854180  1.0  0.4262
  C  C320  1  0.086500  0.799480  0.872070  1.0  -0.1079
  C  C321  1  0.072800  0.845780  0.859940  1.0  -0.1377
  C  C322  1  0.086900  0.886230  0.877220  1.0  0.1353
  C  C323  1  0.128100  0.838750  0.916670  1.0  0.1456
  C  C324  1  0.113200  0.796390  0.901370  1.0  -0.1458
  C  C325  1  0.538900  0.917450  0.103110  1.0  0.1349
  C  C326  1  0.631800  0.899100  0.099150  1.0  -0.1168
  C  C327  1  0.677500  0.904410  0.072260  1.0  -0.1049
  C  C328  1  0.625600  0.927660  0.050160  1.0  -0.1478
  C  C329  1  0.532400  0.944310  0.055870  1.0  0.1402
  C  C330  1  0.931200  0.933000  0.994340  1.0  -0.0948
  C  C331  1  0.986100  0.946530  0.970100  1.0  0.1312
  C  C332  1  0.121000  0.906370  0.987750  1.0  0.1411
  C  C333  1  0.071300  0.891430  0.012640  1.0  -0.1419
  C  C334  1  0.973300  0.904560  0.015740  1.0  -0.1042
  C  C335  1  0.779400  0.888550  0.068270  1.0  0.3974
  C  C336  1  0.917800  0.889070  0.041860  1.0  0.357
  C  C337  1  0.916400  0.854690  0.086220  1.0  0.3927
  C  C338  1  0.969000  0.830750  0.110680  1.0  -0.0919
  C  C339  1  0.070100  0.829580  0.110800  1.0  -0.1303
  C  C340  1  0.117800  0.807590  0.133720  1.0  0.1386
  C  C341  1  0.973000  0.788410  0.155710  1.0  0.1524
  C  C342  1  0.919900  0.810530  0.133740  1.0  -0.126
  C  C343  1  0.016400  0.814890  0.263760  1.0  -0.1459
  C  C344  1  0.054300  0.807260  0.236010  1.0  0.1301
  C  C345  1  0.031800  0.724400  0.239640  1.0  0.1287
  C  C346  1  0.994300  0.728400  0.267440  1.0  -0.1509
  C  C347  1  0.989800  0.774600  0.280160  1.0  -0.1005
  C  C348  1  0.906900  0.879340  0.393560  1.0  -0.0916
  C  C349  1  0.893600  0.924420  0.406110  1.0  0.1271
  C  C350  1  0.903300  0.962020  0.361340  1.0  0.1346
  C  C351  1  0.917700  0.917490  0.347350  1.0  -0.1257
  C  C352  1  0.918400  0.875280  0.363880  1.0  -0.1016
  C  C353  1  0.928400  0.826750  0.350060  1.0  0.395
  C  C354  1  0.959400  0.779830  0.311070  1.0  0.3793
  C  C355  1  0.926200  0.744810  0.354180  1.0  0.4262
  C  C356  1  0.913500  0.700520  0.372070  1.0  -0.1072
  C  C357  1  0.927200  0.654220  0.359940  1.0  -0.1389
  C  C358  1  0.913100  0.613770  0.377220  1.0  0.1365
  C  C359  1  0.871900  0.661250  0.416670  1.0  0.1442
  C  C360  1  0.886800  0.703610  0.401370  1.0  -0.1466
  C  C361  1  0.038900  0.582550  0.103110  1.0  0.1342
  C  C362  1  0.131800  0.600900  0.099150  1.0  -0.118
  C  C363  1  0.177500  0.595590  0.072260  1.0  -0.1039
  C  C364  1  0.125600  0.572340  0.050160  1.0  -0.148
  C  C365  1  0.032400  0.555690  0.055870  1.0  0.1403
  C  C366  1  0.431200  0.567000  0.994340  1.0  -0.0949
  C  C367  1  0.486100  0.553470  0.970100  1.0  0.131
  C  C368  1  0.621000  0.593630  0.987750  1.0  0.1416
  C  C369  1  0.571300  0.608570  0.012640  1.0  -0.1419
  C  C370  1  0.473300  0.595440  0.015740  1.0  -0.1039
  C  C371  1  0.279400  0.611450  0.068270  1.0  0.3976
  C  C372  1  0.417800  0.610930  0.041860  1.0  0.3571
  C  C373  1  0.416400  0.645310  0.086220  1.0  0.3927
  C  C374  1  0.469000  0.669250  0.110680  1.0  -0.0921
  C  C375  1  0.570100  0.670420  0.110800  1.0  -0.1301
  C  C376  1  0.617800  0.692410  0.133720  1.0  0.1387
  C  C377  1  0.473000  0.711590  0.155710  1.0  0.1511
  C  C378  1  0.419900  0.689470  0.133740  1.0  -0.1263
  C  C379  1  0.516400  0.685110  0.263760  1.0  -0.146
  C  C380  1  0.554300  0.692740  0.236010  1.0  0.1285
  C  C381  1  0.531800  0.775600  0.239640  1.0  0.1297
  C  C382  1  0.494300  0.771600  0.267440  1.0  -0.151
  C  C383  1  0.489800  0.725400  0.280160  1.0  -0.1005
  C  C384  1  0.406900  0.620660  0.393560  1.0  -0.0912
  C  C385  1  0.393600  0.575580  0.406110  1.0  0.1273
  C  C386  1  0.403300  0.537980  0.361340  1.0  0.1343
  C  C387  1  0.417700  0.582510  0.347350  1.0  -0.1252
  C  C388  1  0.418400  0.624720  0.363880  1.0  -0.1013
  C  C389  1  0.428400  0.673250  0.350060  1.0  0.3954
  C  C390  1  0.459400  0.720170  0.311070  1.0  0.3794
  C  C391  1  0.426200  0.755190  0.354180  1.0  0.4262
  C  C392  1  0.413500  0.799480  0.372070  1.0  -0.1079
  C  C393  1  0.427200  0.845780  0.359940  1.0  -0.1389
  C  C394  1  0.413100  0.886230  0.377220  1.0  0.1354
  C  C395  1  0.371900  0.838750  0.416670  1.0  0.1446
  C  C396  1  0.386800  0.796390  0.401370  1.0  -0.1455
  C  C397  1  0.961100  0.917450  0.603110  1.0  0.1345
  C  C398  1  0.868200  0.899100  0.599150  1.0  -0.118
  C  C399  1  0.822500  0.904410  0.572260  1.0  -0.1057
  C  C400  1  0.874400  0.927660  0.550160  1.0  -0.1484
  C  C401  1  0.967600  0.944310  0.555870  1.0  0.1386
  C  C402  1  0.568800  0.933000  0.494340  1.0  -0.0919
  C  C403  1  0.513900  0.946530  0.470100  1.0  0.1308
  C  C404  1  0.379000  0.906370  0.487750  1.0  0.1407
  C  C405  1  0.428700  0.891430  0.512640  1.0  -0.1421
  C  C406  1  0.526700  0.904560  0.515740  1.0  -0.1033
  C  C407  1  0.720600  0.888550  0.568270  1.0  0.3977
  C  C408  1  0.582200  0.889070  0.541860  1.0  0.3572
  C  C409  1  0.583600  0.854690  0.586220  1.0  0.3926
  C  C410  1  0.531000  0.830750  0.610680  1.0  -0.0924
  C  C411  1  0.429900  0.829580  0.610800  1.0  -0.1305
  C  C412  1  0.382200  0.807590  0.633720  1.0  0.1392
  C  C413  1  0.527000  0.788410  0.655710  1.0  0.1517
  C  C414  1  0.580100  0.810530  0.633740  1.0  -0.1249
  C  C415  1  0.483600  0.814890  0.763760  1.0  -0.1453
  C  C416  1  0.445700  0.807260  0.736010  1.0  0.1298
  C  C417  1  0.468200  0.724400  0.739640  1.0  0.1296
  C  C418  1  0.505700  0.728400  0.767440  1.0  -0.1497
  C  C419  1  0.510200  0.774600  0.780160  1.0  -0.1003
  C  C420  1  0.593100  0.879340  0.893560  1.0  -0.0919
  C  C421  1  0.606400  0.924420  0.906110  1.0  0.1276
  C  C422  1  0.596700  0.962020  0.861340  1.0  0.135
  C  C423  1  0.582300  0.917490  0.847350  1.0  -0.1258
  C  C424  1  0.581600  0.875280  0.863880  1.0  -0.1012
  C  C425  1  0.571600  0.826750  0.850060  1.0  0.3954
  C  C426  1  0.540600  0.779830  0.811070  1.0  0.3793
  C  C427  1  0.573800  0.744810  0.854180  1.0  0.4262
  C  C428  1  0.586500  0.700520  0.872070  1.0  -0.1074
  C  C429  1  0.572800  0.654220  0.859940  1.0  -0.1372
  C  C430  1  0.586900  0.613770  0.877220  1.0  0.1363
  C  C431  1  0.628100  0.661250  0.916670  1.0  0.1451
  C  C432  1  0.613200  0.703610  0.901370  1.0  -0.1461
  C  C433  1  0.538900  0.417450  0.396890  1.0  0.1344
  C  C434  1  0.631800  0.399100  0.400850  1.0  -0.118
  C  C435  1  0.677500  0.404410  0.427740  1.0  -0.1051
  C  C436  1  0.625600  0.427660  0.449840  1.0  -0.1502
  C  C437  1  0.532400  0.444310  0.444130  1.0  0.1394
  C  C438  1  0.931200  0.433000  0.505660  1.0  -0.0953
  C  C439  1  0.986100  0.446530  0.529900  1.0  0.1304
  C  C440  1  0.121000  0.406370  0.512250  1.0  0.1415
  C  C441  1  0.071300  0.391430  0.487360  1.0  -0.1427
  C  C442  1  0.973300  0.404560  0.484260  1.0  -0.1038
  C  C443  1  0.779400  0.388550  0.431730  1.0  0.3969
  C  C444  1  0.917800  0.389070  0.458140  1.0  0.3566
  C  C445  1  0.916400  0.354690  0.413780  1.0  0.3923
  C  C446  1  0.969000  0.330750  0.389320  1.0  -0.0934
  C  C447  1  0.070100  0.329580  0.389200  1.0  -0.1309
  C  C448  1  0.117800  0.307590  0.366280  1.0  0.1389
  C  C449  1  0.973000  0.288410  0.344290  1.0  0.151
  C  C450  1  0.919900  0.310530  0.366260  1.0  -0.126
  C  C451  1  0.016400  0.314890  0.236240  1.0  -0.1462
  C  C452  1  0.054300  0.307260  0.263990  1.0  0.1295
  C  C453  1  0.031800  0.224400  0.260360  1.0  0.1293
  C  C454  1  0.994300  0.228400  0.232560  1.0  -0.1506
  C  C455  1  0.989800  0.274600  0.219840  1.0  -0.1002
  C  C456  1  0.906900  0.379340  0.106440  1.0  -0.0907
  C  C457  1  0.893600  0.424420  0.093890  1.0  0.1285
  C  C458  1  0.903300  0.462020  0.138660  1.0  0.1346
  C  C459  1  0.917700  0.417490  0.152650  1.0  -0.1261
  C  C460  1  0.918400  0.375280  0.136120  1.0  -0.1017
  C  C461  1  0.928400  0.326750  0.149940  1.0  0.3951
  C  C462  1  0.959400  0.279830  0.188930  1.0  0.3797
  C  C463  1  0.926200  0.244810  0.145820  1.0  0.426
  C  C464  1  0.913500  0.200520  0.127930  1.0  -0.1075
  C  C465  1  0.927200  0.154220  0.140060  1.0  -0.1394
  C  C466  1  0.913100  0.113770  0.122780  1.0  0.137
  C  C467  1  0.871900  0.161250  0.083330  1.0  0.1435
  C  C468  1  0.886800  0.203610  0.098630  1.0  -0.146
  C  C469  1  0.461100  0.082550  0.896890  1.0  0.1337
  C  C470  1  0.368200  0.100900  0.900850  1.0  -0.1193
  C  C471  1  0.322500  0.095590  0.927740  1.0  -0.1045
  C  C472  1  0.374400  0.072340  0.949840  1.0  -0.1505
  C  C473  1  0.467600  0.055690  0.944130  1.0  0.1397
  C  C474  1  0.068800  0.067000  0.005660  1.0  -0.0929
  C  C475  1  0.013900  0.053470  0.029900  1.0  0.1312
  C  C476  1  0.879000  0.093630  0.012250  1.0  0.1405
  C  C477  1  0.928700  0.108570  0.987360  1.0  -0.1422
  C  C478  1  0.026700  0.095440  0.984260  1.0  -0.1028
  C  C479  1  0.220600  0.111450  0.931730  1.0  0.3973
  C  C480  1  0.082200  0.110930  0.958140  1.0  0.3571
  C  C481  1  0.083600  0.145310  0.913780  1.0  0.3923
  C  C482  1  0.031000  0.169250  0.889320  1.0  -0.0942
  C  C483  1  0.929900  0.170420  0.889200  1.0  -0.1311
  C  C484  1  0.882200  0.192410  0.866280  1.0  0.1393
  C  C485  1  0.027000  0.211590  0.844290  1.0  0.1503
  C  C486  1  0.080100  0.189470  0.866260  1.0  -0.1251
  C  C487  1  0.983600  0.185110  0.736240  1.0  -0.145
  C  C488  1  0.945700  0.192740  0.763990  1.0  0.129
  C  C489  1  0.968200  0.275600  0.760360  1.0  0.13
  C  C490  1  0.005700  0.271600  0.732560  1.0  -0.1492
  C  C491  1  0.010200  0.225400  0.719840  1.0  -0.0998
  C  C492  1  0.093100  0.120660  0.606440  1.0  -0.0907
  C  C493  1  0.106400  0.075580  0.593890  1.0  0.1268
  C  C494  1  0.096700  0.037980  0.638660  1.0  0.1354
  C  C495  1  0.082300  0.082510  0.652650  1.0  -0.127
  C  C496  1  0.081600  0.124720  0.636120  1.0  -0.1011
  C  C497  1  0.071600  0.173250  0.649940  1.0  0.3959
  C  C498  1  0.040600  0.220170  0.688930  1.0  0.3797
  C  C499  1  0.073800  0.255190  0.645820  1.0  0.426
  C  C500  1  0.086500  0.299480  0.627930  1.0  -0.1078
  C  C501  1  0.072800  0.345780  0.640060  1.0  -0.1393
  C  C502  1  0.086900  0.386230  0.622780  1.0  0.1361
  C  C503  1  0.128100  0.338750  0.583330  1.0  0.1441
  C  C504  1  0.113200  0.296390  0.598630  1.0  -0.146
  I  I505  1  0.198090  0.307070  0.803720  1.0  -0.3963
  I  I506  1  0.566900  0.985140  0.598420  1.0  -0.3951
  I  I507  1  0.226740  0.487090  0.958960  1.0  -0.4183
  I  I508  1  0.835230  0.063270  0.562130  1.0  -0.3891
  I  I509  1  0.328800  0.163240  0.821700  1.0  -0.3261
  I  I510  1  0.230190  0.419810  0.870760  1.0  -0.3108
  I  I511  1  0.801910  0.192930  0.303720  1.0  -0.3968
  I  I512  1  0.433100  0.514860  0.098420  1.0  -0.3959
  I  I513  1  0.773260  0.012910  0.458960  1.0  -0.419
  I  I514  1  0.164770  0.436730  0.062130  1.0  -0.3878
  I  I515  1  0.671200  0.336760  0.321700  1.0  -0.3278
  I  I516  1  0.769810  0.080190  0.370760  1.0  -0.3084
  I  I517  1  0.698090  0.692930  0.696280  1.0  -0.3965
  I  I518  1  0.066900  0.014860  0.901580  1.0  -0.3945
  I  I519  1  0.726740  0.512910  0.541040  1.0  -0.4185
  I  I520  1  0.335230  0.936730  0.937870  1.0  -0.389
  I  I521  1  0.828800  0.836760  0.678300  1.0  -0.328
  I  I522  1  0.730190  0.580190  0.629240  1.0  -0.3095
  I  I523  1  0.301910  0.807070  0.196280  1.0  -0.3968
  I  I524  1  0.933100  0.485140  0.401580  1.0  -0.3958
  I  I525  1  0.273260  0.987090  0.041040  1.0  -0.4192
  I  I526  1  0.664770  0.563270  0.437870  1.0  -0.3872
  I  I527  1  0.171200  0.663240  0.178300  1.0  -0.3268
  I  I528  1  0.269810  0.919810  0.129240  1.0  -0.3082
  I  I529  1  0.801910  0.692930  0.196280  1.0  -0.3969
  I  I530  1  0.433100  0.014860  0.401580  1.0  -0.3954
  I  I531  1  0.773260  0.512910  0.041040  1.0  -0.4192
  I  I532  1  0.164770  0.936730  0.437870  1.0  -0.3876
  I  I533  1  0.671200  0.836760  0.178300  1.0  -0.3285
  I  I534  1  0.769810  0.580190  0.129240  1.0  -0.3082
  I  I535  1  0.198090  0.807070  0.696280  1.0  -0.3963
  I  I536  1  0.566900  0.485140  0.901580  1.0  -0.3952
  I  I537  1  0.226740  0.987090  0.541040  1.0  -0.4186
  I  I538  1  0.835230  0.563270  0.937870  1.0  -0.389
  I  I539  1  0.328800  0.663240  0.678300  1.0  -0.3267
  I  I540  1  0.230190  0.919810  0.629240  1.0  -0.3095
  I  I541  1  0.301910  0.307070  0.303720  1.0  -0.3968
  I  I542  1  0.933100  0.985140  0.098420  1.0  -0.3956
  I  I543  1  0.273260  0.487090  0.458960  1.0  -0.4189
  I  I544  1  0.664770  0.063270  0.062130  1.0  -0.3873
  I  I545  1  0.171200  0.163240  0.321700  1.0  -0.3262
  I  I546  1  0.269810  0.419810  0.370760  1.0  -0.3089
  I  I547  1  0.698090  0.192930  0.803720  1.0  -0.3965
  I  I548  1  0.066900  0.514860  0.598420  1.0  -0.3954
  I  I549  1  0.726740  0.012910  0.958960  1.0  -0.4183
  I  I550  1  0.335230  0.436730  0.562130  1.0  -0.3892
  I  I551  1  0.828800  0.336760  0.821700  1.0  -0.3273
  I  I552  1  0.730190  0.080190  0.870760  1.0  -0.3102
  N  N553  1  0.010600  0.439950  0.918350  1.0  -0.3042
  N  N554  1  0.676100  0.401240  0.956830  1.0  -0.4667
  N  N555  1  0.678600  0.364170  0.910020  1.0  -0.4722
  N  N556  1  0.532000  0.365570  0.937430  1.0  -0.4837
  N  N557  1  0.429900  0.286950  0.844290  1.0  -0.2894
  N  N558  1  0.436700  0.262970  0.775570  1.0  -0.3181
  N  N559  1  0.549900  0.324750  0.678320  1.0  -0.4641
  N  N560  1  0.551900  0.238720  0.673890  1.0  -0.4901
  N  N561  1  0.584300  0.287810  0.632540  1.0  -0.4534
  N  N562  1  0.615400  0.116610  0.594660  1.0  -0.3517
  N  N563  1  0.420400  0.432880  0.033270  1.0  -0.3082
  N  N564  1  0.609400  0.465290  0.609640  1.0  -0.3144
  N  N565  1  0.989400  0.060050  0.418350  1.0  -0.3057
  N  N566  1  0.323900  0.098760  0.456830  1.0  -0.4668
  N  N567  1  0.321400  0.135830  0.410020  1.0  -0.4711
  N  N568  1  0.468000  0.134430  0.437430  1.0  -0.4834
  N  N569  1  0.570100  0.213050  0.344290  1.0  -0.2872
  N  N570  1  0.563300  0.237030  0.275570  1.0  -0.3191
  N  N571  1  0.450100  0.175250  0.178320  1.0  -0.4638
  N  N572  1  0.448100  0.261280  0.173890  1.0  -0.4901
  N  N573  1  0.415700  0.212190  0.132540  1.0  -0.4536
  N  N574  1  0.384600  0.383390  0.094660  1.0  -0.3519
  N  N575  1  0.579600  0.067120  0.533270  1.0  -0.3063
  N  N576  1  0.390600  0.034710  0.109640  1.0  -0.3134
  N  N577  1  0.510600  0.560050  0.581650  1.0  -0.3041
  N  N578  1  0.176100  0.598760  0.543170  1.0  -0.4665
  N  N579  1  0.178600  0.635830  0.589980  1.0  -0.4723
  N  N580  1  0.032000  0.634430  0.562570  1.0  -0.4826
  N  N581  1  0.929900  0.713050  0.655710  1.0  -0.2897
  N  N582  1  0.936700  0.737030  0.724430  1.0  -0.3189
  N  N583  1  0.049900  0.675250  0.821680  1.0  -0.4631
  N  N584  1  0.051900  0.761280  0.826110  1.0  -0.4891
  N  N585  1  0.084300  0.712190  0.867460  1.0  -0.4519
  N  N586  1  0.115400  0.883390  0.905340  1.0  -0.353
  N  N587  1  0.920400  0.567120  0.466730  1.0  -0.3088
  N  N588  1  0.109400  0.534710  0.890360  1.0  -0.315
  N  N589  1  0.489400  0.939950  0.081650  1.0  -0.3049
  N  N590  1  0.823900  0.901240  0.043170  1.0  -0.4672
  N  N591  1  0.821400  0.864170  0.089980  1.0  -0.4727
  N  N592  1  0.968000  0.865570  0.062570  1.0  -0.4836
  N  N593  1  0.070100  0.786950  0.155710  1.0  -0.2872
  N  N594  1  0.063300  0.762970  0.224430  1.0  -0.3195
  N  N595  1  0.950100  0.824750  0.321680  1.0  -0.4625
  N  N596  1  0.948100  0.738720  0.326110  1.0  -0.4901
  N  N597  1  0.915700  0.787810  0.367460  1.0  -0.4518
  N  N598  1  0.884600  0.616610  0.405340  1.0  -0.3523
  N  N599  1  0.079600  0.932880  0.966730  1.0  -0.3078
  N  N600  1  0.890600  0.965290  0.390360  1.0  -0.3151
  N  N601  1  0.989400  0.560050  0.081650  1.0  -0.3055
  N  N602  1  0.323900  0.598760  0.043170  1.0  -0.4668
  N  N603  1  0.321400  0.635830  0.089980  1.0  -0.4725
  N  N604  1  0.468000  0.634430  0.062570  1.0  -0.4831
  N  N605  1  0.570100  0.713050  0.155710  1.0  -0.288
  N  N606  1  0.563300  0.737030  0.224430  1.0  -0.3197
  N  N607  1  0.450100  0.675250  0.321680  1.0  -0.463
  N  N608  1  0.448100  0.761280  0.326110  1.0  -0.4892
  N  N609  1  0.415700  0.712190  0.367460  1.0  -0.4517
  N  N610  1  0.384600  0.883390  0.405340  1.0  -0.353
  N  N611  1  0.579600  0.567120  0.966730  1.0  -0.3083
  N  N612  1  0.390600  0.534710  0.390360  1.0  -0.3145
  N  N613  1  0.010600  0.939950  0.581650  1.0  -0.3042
  N  N614  1  0.676100  0.901240  0.543170  1.0  -0.4668
  N  N615  1  0.678600  0.864170  0.589980  1.0  -0.4722
  N  N616  1  0.532000  0.865570  0.562570  1.0  -0.4835
  N  N617  1  0.429900  0.786950  0.655710  1.0  -0.2889
  N  N618  1  0.436700  0.762970  0.724430  1.0  -0.319
  N  N619  1  0.549900  0.824750  0.821680  1.0  -0.4625
  N  N620  1  0.551900  0.738720  0.826110  1.0  -0.4902
  N  N621  1  0.584300  0.787810  0.867460  1.0  -0.4519
  N  N622  1  0.615400  0.616610  0.905340  1.0  -0.3516
  N  N623  1  0.420400  0.932880  0.466730  1.0  -0.3081
  N  N624  1  0.609400  0.965290  0.890360  1.0  -0.3162
  N  N625  1  0.489400  0.439950  0.418350  1.0  -0.305
  N  N626  1  0.823900  0.401240  0.456830  1.0  -0.4674
  N  N627  1  0.821400  0.364170  0.410020  1.0  -0.4724
  N  N628  1  0.968000  0.365570  0.437430  1.0  -0.4839
  N  N629  1  0.070100  0.286950  0.344290  1.0  -0.2876
  N  N630  1  0.063300  0.262970  0.275570  1.0  -0.3186
  N  N631  1  0.950100  0.324750  0.178320  1.0  -0.4642
  N  N632  1  0.948100  0.238720  0.173890  1.0  -0.49
  N  N633  1  0.915700  0.287810  0.132540  1.0  -0.4532
  N  N634  1  0.884600  0.116610  0.094660  1.0  -0.3523
  N  N635  1  0.079600  0.432880  0.533270  1.0  -0.3074
  N  N636  1  0.890600  0.465290  0.109640  1.0  -0.3131
  N  N637  1  0.510600  0.060050  0.918350  1.0  -0.3041
  N  N638  1  0.176100  0.098760  0.956830  1.0  -0.4664
  N  N639  1  0.178600  0.135830  0.910020  1.0  -0.4709
  N  N640  1  0.032000  0.134430  0.937430  1.0  -0.4829
  N  N641  1  0.929900  0.213050  0.844290  1.0  -0.289
  N  N642  1  0.936700  0.237030  0.775570  1.0  -0.3186
  N  N643  1  0.049900  0.175250  0.678320  1.0  -0.4639
  N  N644  1  0.051900  0.261280  0.673890  1.0  -0.4901
  N  N645  1  0.084300  0.212190  0.632540  1.0  -0.4537
  N  N646  1  0.115400  0.383390  0.594660  1.0  -0.3519
  N  N647  1  0.920400  0.067120  0.033270  1.0  -0.3068
  N  N648  1  0.109400  0.034710  0.609640  1.0  -0.314
