# generated using pymatgen
data_Cu2H12C12N16ClO12
_symmetry_space_group_name_H-M   'P 1'
_cell_length_a   4.99500000
_cell_length_b   16.87570000
_cell_length_c   16.87570000
_cell_angle_alpha   88.74500000
_cell_angle_beta   81.48930000
_cell_angle_gamma   81.48930000
_symmetry_Int_Tables_number   1
_chemical_formula_structural   Cu2H12C12N16ClO12
_chemical_formula_sum   'Cu4 H24 C24 N32 Cl2 O24'
_cell_volume   1391.36585869
_cell_formula_units_Z   2
loop_
 _symmetry_equiv_pos_site_id
 _symmetry_equiv_pos_as_xyz
  1  'x, y, z'
loop_
 _atom_site_type_symbol
 _atom_site_label
 _atom_site_symmetry_multiplicity
 _atom_site_fract_x
 _atom_site_fract_y
 _atom_site_fract_z
 _atom_site_occupancy
 _atom_site_charge
  Cu  Cu1  1  0.500000  0.000000  0.000000  1.0  0.8772
  Cu  Cu2  1  0.000000  0.500000  0.500000  1.0  0.8772
  Cu  Cu3  1  0.500000  0.000000  0.500000  1.0  0.8772
  Cu  Cu4  1  0.500000  0.500000  0.000000  1.0  0.8772
  H  H5  1  0.875700  0.274000  0.104000  1.0  0.1386
  H  H6  1  0.073800  0.287400  0.025200  1.0  0.1452
  H  H7  1  0.526800  0.165200  0.083800  1.0  0.1369
  H  H8  1  0.753700  0.226000  0.396000  1.0  0.1368
  H  H9  1  0.886400  0.212600  0.474800  1.0  0.1428
  H  H10  1  0.275800  0.334800  0.416200  1.0  0.1377
  H  H11  1  0.979700  0.896000  0.774000  1.0  0.1408
  H  H12  1  0.099000  0.974800  0.787400  1.0  0.1442
  H  H13  1  0.610600  0.916200  0.665200  1.0  0.1384
  H  H14  1  0.149700  0.604000  0.726000  1.0  0.1418
  H  H15  1  0.361200  0.525200  0.712600  1.0  0.147
  H  H16  1  0.692000  0.583800  0.834800  1.0  0.1377
  H  H17  1  0.124300  0.726000  0.896000  1.0  0.1375
  H  H18  1  0.926200  0.712600  0.974800  1.0  0.1444
  H  H19  1  0.473200  0.834800  0.916200  1.0  0.1373
  H  H20  1  0.246300  0.774000  0.604000  1.0  0.1385
  H  H21  1  0.113600  0.787400  0.525200  1.0  0.143
  H  H22  1  0.724200  0.665200  0.583800  1.0  0.1384
  H  H23  1  0.020300  0.104000  0.226000  1.0  0.142
  H  H24  1  0.901000  0.025200  0.212600  1.0  0.1439
  H  H25  1  0.389400  0.083800  0.334800  1.0  0.1378
  H  H26  1  0.850300  0.396000  0.274000  1.0  0.1408
  H  H27  1  0.638800  0.474800  0.287400  1.0  0.146
  H  H28  1  0.308000  0.416200  0.165200  1.0  0.1385
  C  C29  1  0.891100  0.276600  0.046000  1.0  -0.1114
  C  C30  1  0.682500  0.345000  0.022600  1.0  0.7189
  C  C31  1  0.664700  0.154600  0.040400  1.0  0.1526
  C  C32  1  0.713700  0.223400  0.454000  1.0  -0.1166
  C  C33  1  0.550100  0.155000  0.477400  1.0  0.7146
  C  C34  1  0.359700  0.345400  0.459600  1.0  0.1521
  C  C35  1  0.937100  0.954000  0.776600  1.0  -0.1137
  C  C36  1  0.705100  0.977400  0.845000  1.0  0.7134
  C  C37  1  0.705100  0.959600  0.654600  1.0  0.1516
  C  C38  1  0.167700  0.546000  0.723400  1.0  -0.113
  C  C39  1  0.027500  0.522600  0.655000  1.0  0.7189
  C  C40  1  0.819300  0.540400  0.845400  1.0  0.1502
  C  C41  1  0.108900  0.723400  0.954000  1.0  -0.1111
  C  C42  1  0.317500  0.655000  0.977400  1.0  0.7176
  C  C43  1  0.335300  0.845400  0.959600  1.0  0.1526
  C  C44  1  0.286300  0.776600  0.546000  1.0  -0.1136
  C  C45  1  0.449900  0.845000  0.522600  1.0  0.7168
  C  C46  1  0.640300  0.654600  0.540400  1.0  0.1521
  C  C47  1  0.062900  0.046000  0.223400  1.0  -0.1118
  C  C48  1  0.294900  0.022600  0.155000  1.0  0.715
  C  C49  1  0.294900  0.040400  0.345400  1.0  0.1507
  C  C50  1  0.832300  0.454000  0.276600  1.0  -0.1128
  C  C51  1  0.972500  0.477400  0.345000  1.0  0.7188
  C  C52  1  0.180700  0.459600  0.154600  1.0  0.1505
  N  N53  1  0.703200  0.092200  0.993400  1.0  -0.1954
  N  N54  1  0.925600  0.098800  0.939600  1.0  -0.1408
  N  N55  1  0.017400  0.166200  0.954800  1.0  -0.213
  N  N56  1  0.853400  0.200100  0.015900  1.0  0.2036
  N  N57  1  0.288800  0.407800  0.506600  1.0  -0.1968
  N  N58  1  0.464000  0.401200  0.560400  1.0  -0.142
  N  N59  1  0.638400  0.333800  0.545200  1.0  -0.2061
  N  N60  1  0.569400  0.299900  0.484100  1.0  0.2058
  N  N61  1  0.696600  0.006600  0.592200  1.0  -0.1947
  N  N62  1  0.865200  0.060400  0.598800  1.0  -0.1422
  N  N63  1  0.972200  0.045200  0.666200  1.0  -0.2065
  N  N64  1  0.869300  0.984100  0.700100  1.0  0.2037
  N  N65  1  0.795400  0.493400  0.907800  1.0  -0.1947
  N  N66  1  0.024400  0.439600  0.901200  1.0  -0.1398
  N  N67  1  0.183600  0.454800  0.833800  1.0  -0.2092
  N  N68  1  0.053500  0.515900  0.799900  1.0  0.2044
  N  N69  1  0.296800  0.907800  0.006600  1.0  -0.1977
  N  N70  1  0.074400  0.901200  0.060400  1.0  -0.1423
  N  N71  1  0.982600  0.833800  0.045200  1.0  -0.2077
  N  N72  1  0.146600  0.799900  0.984100  1.0  0.204
  N  N73  1  0.711200  0.592200  0.493400  1.0  -0.1964
  N  N74  1  0.536000  0.598800  0.439600  1.0  -0.1404
  N  N75  1  0.361600  0.666200  0.454800  1.0  -0.2018
  N  N76  1  0.430600  0.700100  0.515900  1.0  0.2048
  N  N77  1  0.303400  0.993400  0.407800  1.0  -0.1943
  N  N78  1  0.134800  0.939600  0.401200  1.0  -0.1399
  N  N79  1  0.027800  0.954800  0.333800  1.0  -0.207
  N  N80  1  0.130700  0.015900  0.299900  1.0  0.2042
  N  N81  1  0.204600  0.506600  0.092200  1.0  -0.1962
  N  N82  1  0.975600  0.560400  0.098800  1.0  -0.142
  N  N83  1  0.816400  0.545200  0.166200  1.0  -0.2064
  N  N84  1  0.946500  0.484100  0.200100  1.0  0.2034
  Cl  Cl85  1  0.375000  0.250000  0.250000  1.0  1.6056
  Cl  Cl86  1  0.625000  0.750000  0.750000  1.0  1.6054
  O  O87  1  0.518900  0.332500  0.978500  1.0  -0.5602
  O  O88  1  0.701400  0.411600  0.051200  1.0  -0.5507
  O  O89  1  0.329900  0.167500  0.521500  1.0  -0.5617
  O  O90  1  0.664200  0.088400  0.448800  1.0  -0.548
  O  O91  1  0.497400  0.021500  0.832500  1.0  -0.5591
  O  O92  1  0.752600  0.948800  0.911600  1.0  -0.5522
  O  O93  1  0.851400  0.478500  0.667500  1.0  -0.5597
  O  O94  1  0.113000  0.551200  0.588400  1.0  -0.5519
  O  O95  1  0.481100  0.667500  0.021500  1.0  -0.5605
  O  O96  1  0.298600  0.588400  0.948800  1.0  -0.5491
  O  O97  1  0.670100  0.832500  0.478500  1.0  -0.5634
  O  O98  1  0.335800  0.911600  0.551200  1.0  -0.55
  O  O99  1  0.502600  0.978500  0.167500  1.0  -0.5591
  O  O100  1  0.247400  0.051200  0.088400  1.0  -0.5516
  O  O101  1  0.148600  0.521500  0.332500  1.0  -0.5579
  O  O102  1  0.887000  0.448800  0.411600  1.0  -0.5512
  O  O103  1  0.246000  0.263200  0.183200  1.0  -0.5659
  O  O104  1  0.192400  0.236800  0.316800  1.0  -0.5686
  O  O105  1  0.570800  0.183200  0.236800  1.0  -0.566
  O  O106  1  0.490800  0.316800  0.263200  1.0  -0.5664
  O  O107  1  0.429200  0.816800  0.763200  1.0  -0.566
  O  O108  1  0.509200  0.683200  0.736800  1.0  -0.5663
  O  O109  1  0.754000  0.736800  0.816800  1.0  -0.5672
  O  O110  1  0.807600  0.763200  0.683200  1.0  -0.5659
