# generated using pymatgen
data_AgH6C4N3
_symmetry_space_group_name_H-M   'P 1'
_cell_length_a   11.70340000
_cell_length_b   11.98090000
_cell_length_c   12.53160000
_cell_angle_alpha   107.48900000
_cell_angle_beta   106.57400000
_cell_angle_gamma   112.34100000
_symmetry_Int_Tables_number   1
_chemical_formula_structural   AgH6C4N3
_chemical_formula_sum   'Ag8 H48 C32 N24'
_cell_volume   1382.07759686
_cell_formula_units_Z   8
loop_
 _symmetry_equiv_pos_site_id
 _symmetry_equiv_pos_as_xyz
  1  'x, y, z'
loop_
 _atom_site_type_symbol
 _atom_site_label
 _atom_site_symmetry_multiplicity
 _atom_site_fract_x
 _atom_site_fract_y
 _atom_site_fract_z
 _atom_site_occupancy
 _atom_site_charge
  Ag  Ag1  1  0.593030  0.775390  0.397100  1.0  0.315
  Ag  Ag2  1  0.268690  0.711380  0.125560  1.0  0.3355
  Ag  Ag3  1  0.304070  0.621710  0.397100  1.0  0.315
  Ag  Ag4  1  0.356870  0.414180  0.125560  1.0  0.3347
  Ag  Ag5  1  0.406970  0.224610  0.602900  1.0  0.3149
  Ag  Ag6  1  0.731310  0.288620  0.874440  1.0  0.3352
  Ag  Ag7  1  0.695930  0.378290  0.602900  1.0  0.3147
  Ag  Ag8  1  0.643130  0.585820  0.874440  1.0  0.3353
  H  H9  1  0.403500  0.653500  0.920600  1.0  0.0664
  H  H10  1  0.742000  0.651600  0.262400  1.0  0.0955
  H  H11  1  0.779300  0.645300  0.151000  1.0  0.0791
  H  H12  1  0.957900  0.829500  0.333600  1.0  0.102
  H  H13  1  0.859700  0.884900  0.352600  1.0  0.082
  H  H14  1  0.897000  0.878800  0.241200  1.0  0.0915
  H  H15  1  0.516300  0.301700  0.305800  1.0  0.0728
  H  H16  1  0.770500  0.677300  0.699600  1.0  0.0905
  H  H17  1  0.732300  0.771100  0.651600  1.0  0.0835
  H  H18  1  0.966100  0.858500  0.730800  1.0  0.1004
  H  H19  1  0.943400  0.721400  0.638600  1.0  0.1002
  H  H20  1  0.903700  0.811800  0.586200  1.0  0.0879
  H  H21  1  0.017100  0.267100  0.920600  1.0  0.0677
  H  H22  1  0.020400  0.610800  0.262400  1.0  0.095
  H  H23  1  0.871700  0.505700  0.151000  1.0  0.0792
  H  H24  1  0.875700  0.504100  0.333600  1.0  0.1004
  H  H25  1  0.992900  0.467700  0.352600  1.0  0.0818
  H  H26  1  0.844200  0.362400  0.241200  1.0  0.0891
  H  H27  1  0.289500  0.004100  0.305800  1.0  0.0737
  H  H28  1  0.429100  0.022300  0.699600  1.0  0.0913
  H  H29  1  0.419300  0.880500  0.651600  1.0  0.0781
  H  H30  1  0.264700  0.872300  0.730800  1.0  0.1006
  H  H31  1  0.195200  0.917200  0.638600  1.0  0.1002
  H  H32  1  0.182500  0.774400  0.586200  1.0  0.0886
  H  H33  1  0.596500  0.346500  0.079400  1.0  0.0675
  H  H34  1  0.258000  0.348400  0.737600  1.0  0.0955
  H  H35  1  0.220700  0.354700  0.849000  1.0  0.0795
  H  H36  1  0.042100  0.170500  0.666400  1.0  0.1005
  H  H37  1  0.140300  0.115100  0.647400  1.0  0.0814
  H  H38  1  0.103000  0.121200  0.758800  1.0  0.0923
  H  H39  1  0.483700  0.698300  0.694200  1.0  0.0727
  H  H40  1  0.229500  0.322700  0.300400  1.0  0.0908
  H  H41  1  0.267700  0.228900  0.348400  1.0  0.0842
  H  H42  1  0.033900  0.141500  0.269200  1.0  0.1005
  H  H43  1  0.056600  0.278600  0.361400  1.0  0.099
  H  H44  1  0.096300  0.188200  0.413800  1.0  0.0884
  H  H45  1  0.982900  0.732900  0.079400  1.0  0.0663
  H  H46  1  0.979600  0.389200  0.737600  1.0  0.0939
  H  H47  1  0.128300  0.494300  0.849000  1.0  0.0789
  H  H48  1  0.124300  0.495900  0.666400  1.0  0.1009
  H  H49  1  0.007100  0.532300  0.647400  1.0  0.0815
  H  H50  1  0.155800  0.637600  0.758800  1.0  0.0916
  H  H51  1  0.710500  0.995900  0.694200  1.0  0.0738
  H  H52  1  0.570900  0.977700  0.300400  1.0  0.0891
  H  H53  1  0.580700  0.119500  0.348400  1.0  0.0802
  H  H54  1  0.735300  0.127700  0.269200  1.0  0.1004
  H  H55  1  0.804800  0.082800  0.361400  1.0  0.1
  H  H56  1  0.817500  0.225600  0.413800  1.0  0.0898
  C  C57  1  0.627630  0.691130  0.139860  1.0  0.3702
  C  C58  1  0.462600  0.669100  0.998000  1.0  0.2436
  C  C59  1  0.758100  0.696300  0.210800  1.0  -0.1876
  C  C60  1  0.878600  0.834300  0.291400  1.0  -0.2679
  C  C61  1  0.667400  0.589200  0.509000  1.0  0.372
  C  C62  1  0.553000  0.394000  0.355000  1.0  0.2179
  C  C63  1  0.766400  0.708600  0.636400  1.0  -0.188
  C  C64  1  0.907200  0.781400  0.649000  1.0  -0.2664
  C  C65  1  0.012230  0.448730  0.139860  1.0  0.3707
  C  C66  1  0.035400  0.328900  0.998000  1.0  0.2413
  C  C67  1  0.952700  0.514500  0.210800  1.0  -0.1858
  C  C68  1  0.912800  0.457100  0.291400  1.0  -0.2691
  C  C69  1  0.341600  0.919800  0.509000  1.0  0.372
  C  C70  1  0.302000  0.961000  0.355000  1.0  0.2228
  C  C71  1  0.370000  0.927800  0.636400  1.0  -0.1836
  C  C72  1  0.241800  0.867600  0.649000  1.0  -0.2699
  C  C73  1  0.372370  0.308870  0.860140  1.0  0.3706
  C  C74  1  0.537400  0.330900  0.002000  1.0  0.2429
  C  C75  1  0.241900  0.303700  0.789200  1.0  -0.186
  C  C76  1  0.121400  0.165700  0.708600  1.0  -0.2677
  C  C77  1  0.332600  0.410800  0.491000  1.0  0.3717
  C  C78  1  0.447000  0.606000  0.645000  1.0  0.2187
  C  C79  1  0.233600  0.291400  0.363600  1.0  -0.1871
  C  C80  1  0.092800  0.218600  0.351000  1.0  -0.2673
  C  C81  1  0.987770  0.551270  0.860140  1.0  0.3707
  C  C82  1  0.964600  0.671100  0.002000  1.0  0.2412
  C  C83  1  0.047300  0.485500  0.789200  1.0  -0.1865
  C  C84  1  0.087200  0.542900  0.708600  1.0  -0.2683
  C  C85  1  0.658400  0.080200  0.491000  1.0  0.3722
  C  C86  1  0.698000  0.039000  0.645000  1.0  0.2224
  C  C87  1  0.630000  0.072200  0.363600  1.0  -0.1841
  C  C88  1  0.758200  0.132400  0.351000  1.0  -0.2701
  N  N89  1  0.547560  0.710760  0.190320  1.0  -0.2979
  N  N90  1  0.438660  0.696560  0.096320  1.0  -0.2618
  N  N91  1  0.579490  0.665690  0.019380  1.0  -0.4609
  N  N92  1  0.595500  0.597400  0.411600  1.0  -0.2854
  N  N93  1  0.521430  0.470130  0.311860  1.0  -0.2365
  N  N94  1  0.644150  0.462250  0.478300  1.0  -0.4543
  N  N95  1  0.142760  0.479560  0.190320  1.0  -0.298
  N  N96  1  0.157660  0.399760  0.096320  1.0  -0.2608
  N  N97  1  0.939890  0.353690  0.019380  1.0  -0.4608
  N  N98  1  0.316100  0.814200  0.411600  1.0  -0.283
  N  N99  1  0.290430  0.841730  0.311860  1.0  -0.2366
  N  N100  1  0.334150  0.016050  0.478300  1.0  -0.4563
  N  N101  1  0.452440  0.289240  0.809680  1.0  -0.2957
  N  N102  1  0.561340  0.303440  0.903680  1.0  -0.2611
  N  N103  1  0.420510  0.334310  0.980620  1.0  -0.4595
  N  N104  1  0.404500  0.402600  0.588400  1.0  -0.2845
  N  N105  1  0.478570  0.529870  0.688140  1.0  -0.2362
  N  N106  1  0.355850  0.537750  0.521700  1.0  -0.456
  N  N107  1  0.857240  0.520440  0.809680  1.0  -0.2982
  N  N108  1  0.842340  0.600240  0.903680  1.0  -0.261
  N  N109  1  0.060110  0.646310  0.980620  1.0  -0.4624
  N  N110  1  0.683900  0.185800  0.588400  1.0  -0.2846
  N  N111  1  0.709570  0.158270  0.688140  1.0  -0.2361
  N  N112  1  0.665850  0.983950  0.521700  1.0  -0.4543
