# generated using pymatgen
data_AgH6C4N3
_symmetry_space_group_name_H-M   'P 1'
_cell_length_a   11.65630000
_cell_length_b   11.93180000
_cell_length_c   21.38660000
_cell_angle_alpha   90.00000000
_cell_angle_beta   90.00000000
_cell_angle_gamma   113.84400000
_symmetry_Int_Tables_number   1
_chemical_formula_structural   AgH6C4N3
_chemical_formula_sum   'Ag16 H96 C64 N48'
_cell_volume   2720.59019453
_cell_formula_units_Z   16
loop_
 _symmetry_equiv_pos_site_id
 _symmetry_equiv_pos_as_xyz
  1  'x, y, z'
loop_
 _atom_site_type_symbol
 _atom_site_label
 _atom_site_symmetry_multiplicity
 _atom_site_fract_x
 _atom_site_fract_y
 _atom_site_fract_z
 _atom_site_occupancy
 _atom_site_charge
  Ag  Ag1  1  0.465730  0.412060  0.813820  1.0  0.3304
  Ag  Ag2  1  0.650850  0.323550  0.947100  1.0  0.3198
  Ag  Ag3  1  0.555040  0.098940  0.813680  1.0  0.3433
  Ag  Ag4  1  0.358970  0.181550  0.947710  1.0  0.3177
  Ag  Ag5  1  0.034270  0.587940  0.313820  1.0  0.3306
  Ag  Ag6  1  0.849150  0.676450  0.447100  1.0  0.3197
  Ag  Ag7  1  0.944960  0.901060  0.313680  1.0  0.3439
  Ag  Ag8  1  0.141030  0.818450  0.447710  1.0  0.3176
  Ag  Ag9  1  0.534270  0.587940  0.186180  1.0  0.3303
  Ag  Ag10  1  0.349150  0.676450  0.052900  1.0  0.3197
  Ag  Ag11  1  0.444960  0.901060  0.186320  1.0  0.3435
  Ag  Ag12  1  0.641030  0.818450  0.052290  1.0  0.3178
  Ag  Ag13  1  0.965730  0.412060  0.686180  1.0  0.33
  Ag  Ag14  1  0.150850  0.323550  0.552900  1.0  0.3198
  Ag  Ag15  1  0.055040  0.098940  0.686320  1.0  0.3431
  Ag  Ag16  1  0.858970  0.181550  0.552290  1.0  0.3179
  H  H17  1  0.704600  0.461300  0.712900  1.0  0.0701
  H  H18  1  0.864600  0.267300  0.876800  1.0  0.0922
  H  H19  1  0.959300  0.320900  0.821600  1.0  0.0817
  H  H20  1  0.052600  0.411800  0.913100  1.0  0.103
  H  H21  1  0.944500  0.455100  0.926000  1.0  0.0924
  H  H22  1  0.037200  0.511300  0.870200  1.0  0.0911
  H  H23  1  0.633300  0.897100  0.903700  1.0  0.0704
  H  H24  1  0.647100  0.190800  0.073300  1.0  0.085
  H  H25  1  0.644800  0.067400  0.099800  1.0  0.0858
  H  H26  1  0.830500  0.226100  0.126700  1.0  0.1022
  H  H27  1  0.860600  0.260500  0.056100  1.0  0.0908
  H  H28  1  0.858800  0.136700  0.081700  1.0  0.1033
  H  H29  1  0.312000  0.039700  0.713300  1.0  0.0638
  H  H30  1  0.155600  0.240600  0.876400  1.0  0.0917
  H  H31  1  0.062100  0.189800  0.820400  1.0  0.0805
  H  H32  1  0.964500  0.097200  0.911200  1.0  0.1015
  H  H33  1  0.979200  0.997600  0.868000  1.0  0.0942
  H  H34  1  0.070500  0.051300  0.924600  1.0  0.0853
  H  H35  1  0.396900  0.615800  0.904800  1.0  0.0714
  H  H36  1  0.317400  0.421700  0.097400  1.0  0.0926
  H  H37  1  0.329300  0.303500  0.072500  1.0  0.081
  H  H38  1  0.133900  0.255200  0.109900  1.0  0.0989
  H  H39  1  0.115000  0.348900  0.064000  1.0  0.0941
  H  H40  1  0.126600  0.231300  0.037600  1.0  0.0842
  H  H41  1  0.795400  0.538700  0.212900  1.0  0.0709
  H  H42  1  0.635400  0.732700  0.376800  1.0  0.091
  H  H43  1  0.540700  0.679100  0.321600  1.0  0.082
  H  H44  1  0.447400  0.588200  0.413100  1.0  0.1025
  H  H45  1  0.555500  0.544900  0.426000  1.0  0.0932
  H  H46  1  0.462800  0.488700  0.370200  1.0  0.0887
  H  H47  1  0.866700  0.102900  0.403700  1.0  0.0705
  H  H48  1  0.852900  0.809200  0.573300  1.0  0.0864
  H  H49  1  0.855200  0.932600  0.599800  1.0  0.0874
  H  H50  1  0.669500  0.773900  0.626700  1.0  0.1022
  H  H51  1  0.639400  0.739500  0.556100  1.0  0.0904
  H  H52  1  0.641200  0.863300  0.581700  1.0  0.1
  H  H53  1  0.188000  0.960300  0.213300  1.0  0.064
  H  H54  1  0.344400  0.759400  0.376400  1.0  0.0932
  H  H55  1  0.437900  0.810200  0.320400  1.0  0.0802
  H  H56  1  0.535500  0.902800  0.411200  1.0  0.1025
  H  H57  1  0.520800  0.002400  0.368000  1.0  0.0946
  H  H58  1  0.429500  0.948700  0.424600  1.0  0.0843
  H  H59  1  0.103100  0.384200  0.404800  1.0  0.0712
  H  H60  1  0.182600  0.578300  0.597400  1.0  0.0923
  H  H61  1  0.170700  0.696500  0.572500  1.0  0.0807
  H  H62  1  0.366100  0.744800  0.609900  1.0  0.0986
  H  H63  1  0.385000  0.651100  0.564000  1.0  0.0955
  H  H64  1  0.373400  0.768700  0.537600  1.0  0.0848
  H  H65  1  0.295400  0.538700  0.287100  1.0  0.0714
  H  H66  1  0.135400  0.732700  0.123200  1.0  0.0915
  H  H67  1  0.040700  0.679100  0.178400  1.0  0.0822
  H  H68  1  0.947400  0.588200  0.086900  1.0  0.1027
  H  H69  1  0.055500  0.544900  0.074000  1.0  0.0922
  H  H70  1  0.962800  0.488700  0.129800  1.0  0.0884
  H  H71  1  0.366700  0.102900  0.096300  1.0  0.0706
  H  H72  1  0.352900  0.809200  0.926700  1.0  0.0874
  H  H73  1  0.355200  0.932600  0.900200  1.0  0.0868
  H  H74  1  0.169500  0.773900  0.873300  1.0  0.1021
  H  H75  1  0.139400  0.739500  0.943900  1.0  0.0919
  H  H76  1  0.141200  0.863300  0.918300  1.0  0.0991
  H  H77  1  0.688000  0.960300  0.286700  1.0  0.0639
  H  H78  1  0.844400  0.759400  0.123600  1.0  0.0925
  H  H79  1  0.937900  0.810200  0.179600  1.0  0.0808
  H  H80  1  0.035500  0.902800  0.088800  1.0  0.1031
  H  H81  1  0.020800  0.002400  0.132000  1.0  0.0936
  H  H82  1  0.929500  0.948700  0.075400  1.0  0.0841
  H  H83  1  0.603100  0.384200  0.095200  1.0  0.0713
  H  H84  1  0.682600  0.578300  0.902600  1.0  0.0899
  H  H85  1  0.670700  0.696500  0.927500  1.0  0.0783
  H  H86  1  0.866100  0.744800  0.890100  1.0  0.0983
  H  H87  1  0.885000  0.651100  0.936000  1.0  0.0949
  H  H88  1  0.873400  0.768700  0.962400  1.0  0.0848
  H  H89  1  0.204600  0.461300  0.787100  1.0  0.0703
  H  H90  1  0.364600  0.267300  0.623200  1.0  0.0916
  H  H91  1  0.459300  0.320900  0.678400  1.0  0.0815
  H  H92  1  0.552600  0.411800  0.586900  1.0  0.1031
  H  H93  1  0.444500  0.455100  0.574000  1.0  0.0918
  H  H94  1  0.537200  0.511300  0.629800  1.0  0.0903
  H  H95  1  0.133300  0.897100  0.596300  1.0  0.0705
  H  H96  1  0.147100  0.190800  0.426700  1.0  0.0839
  H  H97  1  0.144800  0.067400  0.400200  1.0  0.0846
  H  H98  1  0.330500  0.226100  0.373300  1.0  0.1018
  H  H99  1  0.360600  0.260500  0.443900  1.0  0.0919
  H  H100  1  0.358800  0.136700  0.418300  1.0  0.1033
  H  H101  1  0.812000  0.039700  0.786700  1.0  0.0645
  H  H102  1  0.655600  0.240600  0.623600  1.0  0.0922
  H  H103  1  0.562100  0.189800  0.679600  1.0  0.081
  H  H104  1  0.464500  0.097200  0.588800  1.0  0.102
  H  H105  1  0.479200  0.997600  0.632000  1.0  0.0938
  H  H106  1  0.570500  0.051300  0.575400  1.0  0.0847
  H  H107  1  0.896900  0.615800  0.595200  1.0  0.0712
  H  H108  1  0.817400  0.421700  0.402600  1.0  0.0906
  H  H109  1  0.829300  0.303500  0.427500  1.0  0.0817
  H  H110  1  0.633900  0.255200  0.390100  1.0  0.0981
  H  H111  1  0.615000  0.348900  0.436000  1.0  0.0933
  H  H112  1  0.626600  0.231300  0.462400  1.0  0.085
  C  C113  1  0.814700  0.374300  0.818550  1.0  0.3714
  C  C114  1  0.723200  0.432500  0.750340  1.0  0.2355
  C  C115  1  0.908800  0.340400  0.852200  1.0  -0.1879
  C  C116  1  0.993200  0.438300  0.894100  1.0  -0.2715
  C  C117  1  0.662200  0.078800  0.005180  1.0  0.377
  C  C118  1  0.639500  0.963600  0.928300  1.0  0.2259
  C  C119  1  0.685100  0.132300  0.069670  1.0  -0.1892
  C  C120  1  0.820700  0.194400  0.084900  1.0  -0.2689
  C  C121  1  0.203900  0.133000  0.818140  1.0  0.3749
  C  C122  1  0.294300  0.070300  0.750380  1.0  0.2418
  C  C123  1  0.110900  0.168300  0.851230  1.0  -0.1889
  C  C124  1  0.023400  0.069800  0.892400  1.0  -0.2679
  C  C125  1  0.333900  0.420900  0.003180  1.0  0.374
  C  C126  1  0.380900  0.545500  0.928320  1.0  0.2356
  C  C127  1  0.289900  0.359900  0.064900  1.0  -0.1773
  C  C128  1  0.154900  0.293200  0.069500  1.0  -0.2647
  C  C129  1  0.685300  0.625700  0.318550  1.0  0.3702
  C  C130  1  0.776800  0.567500  0.250340  1.0  0.2335
  C  C131  1  0.591200  0.659600  0.352200  1.0  -0.1869
  C  C132  1  0.506800  0.561700  0.394100  1.0  -0.2717
  C  C133  1  0.837800  0.921200  0.505180  1.0  0.3766
  C  C134  1  0.860500  0.036400  0.428300  1.0  0.2248
  C  C135  1  0.814900  0.867700  0.569670  1.0  -0.1884
  C  C136  1  0.679300  0.805600  0.584900  1.0  -0.2695
  C  C137  1  0.296100  0.867000  0.318140  1.0  0.3761
  C  C138  1  0.205700  0.929700  0.250380  1.0  0.2432
  C  C139  1  0.389100  0.831700  0.351230  1.0  -0.1899
  C  C140  1  0.476600  0.930200  0.392400  1.0  -0.2683
  C  C141  1  0.166100  0.579100  0.503180  1.0  0.3741
  C  C142  1  0.119100  0.454500  0.428320  1.0  0.2347
  C  C143  1  0.210100  0.640100  0.564900  1.0  -0.1781
  C  C144  1  0.345100  0.706800  0.569500  1.0  -0.2652
  C  C145  1  0.185300  0.625700  0.181450  1.0  0.3699
  C  C146  1  0.276800  0.567500  0.249660  1.0  0.2341
  C  C147  1  0.091200  0.659600  0.147800  1.0  -0.1869
  C  C148  1  0.006800  0.561700  0.105900  1.0  -0.2718
  C  C149  1  0.337800  0.921200  0.994820  1.0  0.377
  C  C150  1  0.360500  0.036400  0.071700  1.0  0.2242
  C  C151  1  0.314900  0.867700  0.930330  1.0  -0.1904
  C  C152  1  0.179300  0.805600  0.915100  1.0  -0.2682
  C  C153  1  0.796100  0.867000  0.181860  1.0  0.376
  C  C154  1  0.705700  0.929700  0.249620  1.0  0.2425
  C  C155  1  0.889100  0.831700  0.148770  1.0  -0.1905
  C  C156  1  0.976600  0.930200  0.107600  1.0  -0.2682
  C  C157  1  0.666100  0.579100  0.996820  1.0  0.374
  C  C158  1  0.619100  0.454500  0.071680  1.0  0.2357
  C  C159  1  0.710100  0.640100  0.935100  1.0  -0.178
  C  C160  1  0.845100  0.706800  0.930500  1.0  -0.2654
  C  C161  1  0.314700  0.374300  0.681450  1.0  0.3709
  C  C162  1  0.223200  0.432500  0.749660  1.0  0.2343
  C  C163  1  0.408800  0.340400  0.647800  1.0  -0.1885
  C  C164  1  0.493200  0.438300  0.605900  1.0  -0.2717
  C  C165  1  0.162200  0.078800  0.494820  1.0  0.3773
  C  C166  1  0.139500  0.963600  0.571700  1.0  0.2263
  C  C167  1  0.185100  0.132300  0.430330  1.0  -0.1906
  C  C168  1  0.320700  0.194400  0.415100  1.0  -0.2681
  C  C169  1  0.703900  0.133000  0.681860  1.0  0.3749
  C  C170  1  0.794300  0.070300  0.749620  1.0  0.2434
  C  C171  1  0.610900  0.168300  0.648770  1.0  -0.1893
  C  C172  1  0.523400  0.069800  0.607600  1.0  -0.2678
  C  C173  1  0.833900  0.420900  0.496820  1.0  0.3738
  C  C174  1  0.880900  0.545500  0.571680  1.0  0.2346
  C  C175  1  0.789900  0.359900  0.435100  1.0  -0.178
  C  C176  1  0.654900  0.293200  0.430500  1.0  -0.2652
  N  N177  1  0.708500  0.366600  0.844310  1.0  -0.2888
  N  N178  1  0.648600  0.405500  0.799280  1.0  -0.2606
  N  N179  1  0.828800  0.414800  0.759360  1.0  -0.4635
  N  N180  1  0.646000  0.137900  0.956280  1.0  -0.2918
  N  N181  1  0.630400  0.061700  0.905570  1.0  -0.2531
  N  N182  1  0.658600  0.968000  0.990250  1.0  -0.4529
  N  N183  1  0.310400  0.140400  0.843730  1.0  -0.2981
  N  N184  1  0.369400  0.098800  0.798920  1.0  -0.2568
  N  N185  1  0.189100  0.089700  0.759090  1.0  -0.478
  N  N186  1  0.360600  0.365900  0.955020  1.0  -0.2889
  N  N187  1  0.391600  0.448000  0.906150  1.0  -0.2429
  N  N188  1  0.344300  0.534100  0.988670  1.0  -0.46
  N  N189  1  0.791500  0.633400  0.344310  1.0  -0.2879
  N  N190  1  0.851400  0.594500  0.299280  1.0  -0.26
  N  N191  1  0.671200  0.585200  0.259360  1.0  -0.4628
  N  N192  1  0.854000  0.862100  0.456280  1.0  -0.2903
  N  N193  1  0.869600  0.938300  0.405570  1.0  -0.2538
  N  N194  1  0.841400  0.032000  0.490250  1.0  -0.4538
  N  N195  1  0.189600  0.859600  0.343730  1.0  -0.2983
  N  N196  1  0.130600  0.901200  0.298920  1.0  -0.2561
  N  N197  1  0.310900  0.910300  0.259090  1.0  -0.4785
  N  N198  1  0.139400  0.634100  0.455020  1.0  -0.2898
  N  N199  1  0.108400  0.552000  0.406150  1.0  -0.2423
  N  N200  1  0.155700  0.465900  0.488670  1.0  -0.458
  N  N201  1  0.291500  0.633400  0.155690  1.0  -0.2866
  N  N202  1  0.351400  0.594500  0.200720  1.0  -0.2594
  N  N203  1  0.171200  0.585200  0.240640  1.0  -0.4639
  N  N204  1  0.354000  0.862100  0.043720  1.0  -0.2908
  N  N205  1  0.369600  0.938300  0.094430  1.0  -0.2521
  N  N206  1  0.341400  0.032000  0.009750  1.0  -0.4539
  N  N207  1  0.689600  0.859600  0.156270  1.0  -0.2983
  N  N208  1  0.630600  0.901200  0.201080  1.0  -0.2556
  N  N209  1  0.810900  0.910300  0.240910  1.0  -0.4786
  N  N210  1  0.639400  0.634100  0.044980  1.0  -0.2911
  N  N211  1  0.608400  0.552000  0.093850  1.0  -0.2425
  N  N212  1  0.655700  0.465900  0.011330  1.0  -0.4581
  N  N213  1  0.208500  0.366600  0.655690  1.0  -0.2875
  N  N214  1  0.148600  0.405500  0.700720  1.0  -0.2597
  N  N215  1  0.328800  0.414800  0.740640  1.0  -0.4633
  N  N216  1  0.146000  0.137900  0.543720  1.0  -0.2928
  N  N217  1  0.130400  0.061700  0.594430  1.0  -0.2521
  N  N218  1  0.158600  0.968000  0.509750  1.0  -0.452
  N  N219  1  0.810400  0.140400  0.656270  1.0  -0.2977
  N  N220  1  0.869400  0.098800  0.701080  1.0  -0.2562
  N  N221  1  0.689100  0.089700  0.740910  1.0  -0.4784
  N  N222  1  0.860600  0.365900  0.544980  1.0  -0.2893
  N  N223  1  0.891600  0.448000  0.593850  1.0  -0.2417
  N  N224  1  0.844300  0.534100  0.511330  1.0  -0.4604
