# generated using pymatgen
data_AgH6C4N3
_symmetry_space_group_name_H-M   'P 1'
_cell_length_a   11.73020000
_cell_length_b   11.90260000
_cell_length_c   12.53350000
_cell_angle_alpha   106.76900000
_cell_angle_beta   106.19500000
_cell_angle_gamma   113.46200000
_symmetry_Int_Tables_number   1
_chemical_formula_structural   AgH6C4N3
_chemical_formula_sum   'Ag8 H48 C32 N24'
_cell_volume   1373.86309876
_cell_formula_units_Z   8
loop_
 _symmetry_equiv_pos_site_id
 _symmetry_equiv_pos_as_xyz
  1  'x, y, z'
loop_
 _atom_site_type_symbol
 _atom_site_label
 _atom_site_symmetry_multiplicity
 _atom_site_fract_x
 _atom_site_fract_y
 _atom_site_fract_z
 _atom_site_occupancy
 _atom_site_charge
  Ag  Ag1  1  0.408520  0.231690  0.606120  1.0  0.319
  Ag  Ag2  1  0.732220  0.279570  0.874680  1.0  0.3394
  Ag  Ag3  1  0.697600  0.374430  0.606120  1.0  0.3188
  Ag  Ag4  1  0.642460  0.595110  0.874680  1.0  0.3387
  Ag  Ag5  1  0.591480  0.768310  0.393880  1.0  0.3186
  Ag  Ag6  1  0.267780  0.720430  0.125320  1.0  0.3394
  Ag  Ag7  1  0.302400  0.625570  0.393880  1.0  0.3189
  Ag  Ag8  1  0.357540  0.404890  0.125320  1.0  0.3384
  H  H9  1  0.591700  0.326100  0.073200  1.0  0.0646
  H  H10  1  0.269400  0.356200  0.743200  1.0  0.0972
  H  H11  1  0.234000  0.365900  0.855800  1.0  0.0846
  H  H12  1  0.047300  0.180100  0.675600  1.0  0.105
  H  H13  1  0.139400  0.118400  0.654400  1.0  0.0849
  H  H14  1  0.103900  0.128100  0.767200  1.0  0.0971
  H  H15  1  0.479200  0.707000  0.693200  1.0  0.0772
  H  H16  1  0.238800  0.328600  0.304000  1.0  0.0869
  H  H17  1  0.272400  0.234700  0.356000  1.0  0.0854
  H  H18  1  0.036500  0.145700  0.267400  1.0  0.1045
  H  H19  1  0.058300  0.282700  0.358400  1.0  0.099
  H  H20  1  0.092000  0.188900  0.410600  1.0  0.088
  H  H21  1  0.981500  0.747100  0.073200  1.0  0.0629
  H  H22  1  0.973800  0.387000  0.743200  1.0  0.095
  H  H23  1  0.121800  0.489900  0.855800  1.0  0.0844
  H  H24  1  0.128300  0.495500  0.675600  1.0  0.107
  H  H25  1  0.015000  0.536000  0.654400  1.0  0.086
  H  H26  1  0.163300  0.639100  0.767200  1.0  0.0947
  H  H27  1  0.714000  0.986200  0.693200  1.0  0.0779
  H  H28  1  0.565200  0.975400  0.304000  1.0  0.086
  H  H29  1  0.583600  0.121300  0.356000  1.0  0.0823
  H  H30  1  0.730900  0.121700  0.267400  1.0  0.1048
  H  H31  1  0.800100  0.075700  0.358400  1.0  0.0991
  H  H32  1  0.818600  0.221700  0.410600  1.0  0.0892
  H  H33  1  0.408300  0.673900  0.926800  1.0  0.0639
  H  H34  1  0.730600  0.643800  0.256800  1.0  0.0968
  H  H35  1  0.766000  0.634100  0.144200  1.0  0.0839
  H  H36  1  0.952700  0.819900  0.324400  1.0  0.108
  H  H37  1  0.860600  0.881600  0.345600  1.0  0.0854
  H  H38  1  0.896100  0.871900  0.232800  1.0  0.099
  H  H39  1  0.520800  0.293000  0.306800  1.0  0.0771
  H  H40  1  0.761200  0.671400  0.696000  1.0  0.0866
  H  H41  1  0.727600  0.765300  0.644000  1.0  0.0834
  H  H42  1  0.963500  0.854300  0.732600  1.0  0.1041
  H  H43  1  0.941700  0.717300  0.641600  1.0  0.0991
  H  H44  1  0.908000  0.811100  0.589400  1.0  0.0877
  H  H45  1  0.018500  0.252900  0.926800  1.0  0.0636
  H  H46  1  0.026200  0.613000  0.256800  1.0  0.0967
  H  H47  1  0.878200  0.510100  0.144200  1.0  0.0848
  H  H48  1  0.871700  0.504500  0.324400  1.0  0.1063
  H  H49  1  0.985000  0.464000  0.345600  1.0  0.0844
  H  H50  1  0.836700  0.360900  0.232800  1.0  0.0926
  H  H51  1  0.286000  0.013800  0.306800  1.0  0.0768
  H  H52  1  0.434800  0.024600  0.696000  1.0  0.0882
  H  H53  1  0.416400  0.878700  0.644000  1.0  0.0838
  H  H54  1  0.269100  0.878300  0.732600  1.0  0.1041
  H  H55  1  0.199900  0.924300  0.641600  1.0  0.1007
  H  H56  1  0.181400  0.778300  0.589400  1.0  0.0874
  C  C57  1  0.378400  0.312200  0.863400  1.0  0.3708
  C  C58  1  0.536390  0.318490  0.998780  1.0  0.24
  C  C59  1  0.251500  0.311800  0.795400  1.0  -0.1978
  C  C60  1  0.124200  0.172200  0.716200  1.0  -0.269
  C  C61  1  0.333410  0.417610  0.493020  1.0  0.3761
  C  C62  1  0.444140  0.614340  0.645080  1.0  0.2229
  C  C63  1  0.238200  0.297100  0.367200  1.0  -0.1944
  C  C64  1  0.093500  0.222000  0.349400  1.0  -0.261
  C  C65  1  0.985000  0.551200  0.863400  1.0  0.3717
  C  C66  1  0.962390  0.680290  0.998780  1.0  0.2382
  C  C67  1  0.043900  0.483600  0.795400  1.0  -0.1973
  C  C68  1  0.092000  0.544000  0.716200  1.0  -0.2702
  C  C69  1  0.659610  0.075410  0.493020  1.0  0.3757
  C  C70  1  0.700940  0.030740  0.645080  1.0  0.2276
  C  C71  1  0.629000  0.070100  0.367200  1.0  -0.1903
  C  C72  1  0.755900  0.127400  0.349400  1.0  -0.2642
  C  C73  1  0.621600  0.687800  0.136600  1.0  0.3719
  C  C74  1  0.463610  0.681510  0.001220  1.0  0.2405
  C  C75  1  0.748500  0.688200  0.204600  1.0  -0.1981
  C  C76  1  0.875800  0.827800  0.283800  1.0  -0.2688
  C  C77  1  0.666590  0.582390  0.506980  1.0  0.3755
  C  C78  1  0.555860  0.385660  0.354920  1.0  0.2217
  C  C79  1  0.761800  0.702900  0.632800  1.0  -0.1961
  C  C80  1  0.906500  0.778000  0.650600  1.0  -0.2596
  C  C81  1  0.015000  0.448800  0.136600  1.0  0.3718
  C  C82  1  0.037610  0.319710  0.001220  1.0  0.2387
  C  C83  1  0.956100  0.516400  0.204600  1.0  -0.1972
  C  C84  1  0.908000  0.456000  0.283800  1.0  -0.2702
  C  C85  1  0.340390  0.924590  0.506980  1.0  0.3757
  C  C86  1  0.299060  0.969260  0.354920  1.0  0.2278
  C  C87  1  0.371000  0.929900  0.632800  1.0  -0.1906
  C  C88  1  0.244100  0.872600  0.650600  1.0  -0.264
  N  N89  1  0.458490  0.292990  0.812180  1.0  -0.2953
  N  N90  1  0.562170  0.297470  0.901940  1.0  -0.2563
  N  N91  1  0.422740  0.328340  0.980880  1.0  -0.4685
  N  N92  1  0.403510  0.409710  0.590220  1.0  -0.2881
  N  N93  1  0.476620  0.538720  0.689840  1.0  -0.2494
  N  N94  1  0.355000  0.544900  0.522200  1.0  -0.4592
  N  N95  1  0.853690  0.519190  0.812180  1.0  -0.2967
  N  N96  1  0.839770  0.604470  0.901940  1.0  -0.2563
  N  N97  1  0.058140  0.652540  0.980880  1.0  -0.4709
  N  N98  1  0.686710  0.180510  0.590220  1.0  -0.2873
  N  N99  1  0.713220  0.151120  0.689840  1.0  -0.2498
  N  N100  1  0.667200  0.977300  0.522200  1.0  -0.4577
  N  N101  1  0.541510  0.707010  0.187820  1.0  -0.297
  N  N102  1  0.437830  0.702530  0.098060  1.0  -0.2565
  N  N103  1  0.577260  0.671660  0.019120  1.0  -0.4703
  N  N104  1  0.596490  0.590290  0.409780  1.0  -0.2888
  N  N105  1  0.523380  0.461280  0.310160  1.0  -0.2501
  N  N106  1  0.645000  0.455100  0.477800  1.0  -0.4584
  N  N107  1  0.146310  0.480810  0.187820  1.0  -0.2972
  N  N108  1  0.160230  0.395530  0.098060  1.0  -0.2564
  N  N109  1  0.941860  0.347460  0.019120  1.0  -0.4693
  N  N110  1  0.313290  0.819490  0.409780  1.0  -0.2869
  N  N111  1  0.286780  0.848880  0.310160  1.0  -0.2518
  N  N112  1  0.332800  0.022700  0.477800  1.0  -0.4589
