# generated using pymatgen
data_ZnH8C10N3O4
_symmetry_space_group_name_H-M   'P 1'
_cell_length_a   10.72100000
_cell_length_b   13.01800000
_cell_length_c   15.18300000
_cell_angle_alpha   95.59900000
_cell_angle_beta   108.01000000
_cell_angle_gamma   104.70200000
_symmetry_Int_Tables_number   1
_chemical_formula_structural   ZnH8C10N3O4
_chemical_formula_sum   'Zn6 H48 C60 N18 O24'
_cell_volume   1913.19806943
_cell_formula_units_Z   6
loop_
 _symmetry_equiv_pos_site_id
 _symmetry_equiv_pos_as_xyz
  1  'x, y, z'
loop_
 _atom_site_type_symbol
 _atom_site_label
 _atom_site_symmetry_multiplicity
 _atom_site_fract_x
 _atom_site_fract_y
 _atom_site_fract_z
 _atom_site_occupancy
 _atom_site_charge
  Zn  Zn1  1  0.582280  0.079580  0.656210  1.0  0.9832
  Zn  Zn2  1  0.748170  0.367970  0.916080  1.0  0.8709
  Zn  Zn3  1  0.418310  0.541130  0.837320  1.0  0.6477
  Zn  Zn4  1  0.417720  0.920420  0.343790  1.0  0.9691
  Zn  Zn5  1  0.251830  0.632030  0.083920  1.0  0.8711
  Zn  Zn6  1  0.581690  0.458870  0.162680  1.0  0.6473
  H  H7  1  0.852300  0.431800  0.665800  1.0  0.1282
  H  H8  1  0.694700  0.377800  0.612700  1.0  0.1292
  H  H9  1  0.058500  0.332600  0.859000  1.0  0.1439
  H  H10  1  0.165900  0.298300  0.936800  1.0  0.1218
  H  H11  1  0.636800  0.274200  0.475400  1.0  0.1323
  H  H12  1  0.753000  0.248600  0.443500  1.0  0.1301
  H  H13  1  0.051100  0.040300  0.389800  1.0  0.1156
  H  H14  1  0.932800  0.064900  0.419300  1.0  0.1092
  H  H15  1  0.263000  0.089500  0.610000  1.0  0.1102
  H  H16  1  0.239700  0.043000  0.505200  1.0  0.1195
  H  H17  1  0.300400  0.194000  0.808200  1.0  0.1382
  H  H18  1  0.325800  0.241700  0.912800  1.0  0.1221
  H  H19  1  0.883400  0.684300  0.815700  1.0  0.1333
  H  H20  1  0.015100  0.594400  0.910000  1.0  0.0806
  H  H21  1  0.159700  0.420200  0.492800  1.0  0.1353
  H  H22  1  0.184100  0.622800  0.764000  1.0  0.0896
  H  H23  1  0.050200  0.033000  0.840600  1.0  0.1329
  H  H24  1  0.260200  0.865000  0.077700  1.0  0.0873
  H  H25  1  0.335000  0.440000  0.633600  1.0  0.0981
  H  H26  1  0.138500  0.964100  0.988300  1.0  0.1243
  H  H27  1  0.004900  0.606800  0.628200  1.0  0.125
  H  H28  1  0.728100  0.774800  0.803700  1.0  0.1286
  H  H29  1  0.899300  0.117700  0.760000  1.0  0.0721
  H  H30  1  0.585800  0.866500  0.721400  1.0  0.0902
  H  H31  1  0.147700  0.568200  0.334200  1.0  0.1282
  H  H32  1  0.305300  0.622200  0.387300  1.0  0.1281
  H  H33  1  0.941500  0.667400  0.141000  1.0  0.1447
  H  H34  1  0.834100  0.701700  0.063200  1.0  0.1195
  H  H35  1  0.363200  0.725800  0.524600  1.0  0.133
  H  H36  1  0.247000  0.751400  0.556500  1.0  0.1313
  H  H37  1  0.948900  0.959700  0.610200  1.0  0.1143
  H  H38  1  0.067200  0.935100  0.580700  1.0  0.1085
  H  H39  1  0.737000  0.910500  0.390000  1.0  0.1106
  H  H40  1  0.760300  0.957000  0.494800  1.0  0.1201
  H  H41  1  0.699600  0.806000  0.191800  1.0  0.1378
  H  H42  1  0.674200  0.758300  0.087200  1.0  0.122
  H  H43  1  0.116600  0.315700  0.184300  1.0  0.1328
  H  H44  1  0.984900  0.405600  0.090000  1.0  0.0806
  H  H45  1  0.840300  0.579800  0.507200  1.0  0.1344
  H  H46  1  0.815900  0.377200  0.236000  1.0  0.0893
  H  H47  1  0.949800  0.967000  0.159400  1.0  0.1333
  H  H48  1  0.739800  0.135000  0.922300  1.0  0.0874
  H  H49  1  0.665000  0.560000  0.366400  1.0  0.0981
  H  H50  1  0.861500  0.035900  0.011700  1.0  0.1241
  H  H51  1  0.995100  0.393200  0.371800  1.0  0.1245
  H  H52  1  0.271900  0.225200  0.196300  1.0  0.1283
  H  H53  1  0.100700  0.882300  0.240000  1.0  0.073
  H  H54  1  0.414200  0.133500  0.278600  1.0  0.0904
  C  C55  1  0.779300  0.363700  0.647200  1.0  -0.2155
  C  C56  1  0.764900  0.325800  0.736200  1.0  0.7163
  C  C57  1  0.128200  0.278600  0.727000  1.0  0.5529
  C  C58  1  0.081100  0.190600  0.579500  1.0  0.5611
  C  C59  1  0.930800  0.267600  0.611600  1.0  0.5228
  C  C60  1  0.156100  0.344500  0.890300  1.0  -0.2044
  C  C61  1  0.707600  0.238200  0.489600  1.0  -0.2209
  C  C62  1  0.025200  0.096800  0.419800  1.0  -0.1911
  C  C63  1  0.247000  0.106800  0.547500  1.0  -0.2127
  C  C64  1  0.639000  0.117400  0.478300  1.0  0.7391
  C  C65  1  0.463400  0.325000  0.862900  1.0  0.7391
  C  C66  1  0.323900  0.260900  0.852300  1.0  -0.2294
  C  C67  1  0.220300  0.461000  0.941600  1.0  0.716
  C  C68  1  0.369300  0.196900  0.550400  1.0  0.693
  C  C69  1  0.021800  0.183900  0.360300  1.0  0.6938
  C  C70  1  0.959200  0.722900  0.868400  1.0  -0.1686
  C  C71  1  0.058400  0.507900  0.544900  1.0  0.08
  C  C72  1  0.038700  0.669300  0.926100  1.0  0.1789
  C  C73  1  0.161600  0.460400  0.547500  1.0  -0.1549
  C  C74  1  0.177900  0.580700  0.708800  1.0  0.1687
  C  C75  1  0.904400  0.894500  0.833600  1.0  0.0759
  C  C76  1  0.956100  0.998100  0.818100  1.0  -0.1943
  C  C77  1  0.183400  0.828900  0.024800  1.0  0.1816
  C  C78  1  0.267400  0.473300  0.632300  1.0  0.1617
  C  C79  1  0.110800  0.889100  0.971200  1.0  -0.1701
  C  C80  1  0.994900  0.835500  0.890800  1.0  0.1067
  C  C81  1  0.069800  0.571200  0.627600  1.0  -0.1443
  C  C82  1  0.765200  0.844600  0.796000  1.0  -0.1845
  C  C83  1  0.864300  0.047700  0.768400  1.0  0.1969
  C  C84  1  0.680200  0.900300  0.746100  1.0  0.1758
  C  C85  1  0.220700  0.636300  0.352800  1.0  -0.2151
  C  C86  1  0.235100  0.674200  0.263800  1.0  0.7158
  C  C87  1  0.871800  0.721400  0.273000  1.0  0.5535
  C  C88  1  0.918900  0.809400  0.420500  1.0  0.5603
  C  C89  1  0.069200  0.732400  0.388400  1.0  0.5195
  C  C90  1  0.843900  0.655500  0.109700  1.0  -0.2072
  C  C91  1  0.292400  0.761800  0.510400  1.0  -0.2219
  C  C92  1  0.974800  0.903200  0.580200  1.0  -0.1893
  C  C93  1  0.753000  0.893200  0.452500  1.0  -0.2129
  C  C94  1  0.361000  0.882600  0.521700  1.0  0.7411
  C  C95  1  0.536600  0.675000  0.137100  1.0  0.7391
  C  C96  1  0.676100  0.739100  0.147700  1.0  -0.2316
  C  C97  1  0.779700  0.539000  0.058400  1.0  0.7131
  C  C98  1  0.630700  0.803100  0.449600  1.0  0.6937
  C  C99  1  0.978200  0.816100  0.639700  1.0  0.7035
  C  C100  1  0.040800  0.277100  0.131600  1.0  -0.1683
  C  C101  1  0.941600  0.492100  0.455100  1.0  0.0795
  C  C102  1  0.961300  0.330700  0.073900  1.0  0.1777
  C  C103  1  0.838400  0.539600  0.452500  1.0  -0.1492
  C  C104  1  0.822100  0.419300  0.291200  1.0  0.1693
  C  C105  1  0.095600  0.105500  0.166400  1.0  0.0773
  C  C106  1  0.043900  0.001900  0.181900  1.0  -0.1926
  C  C107  1  0.816600  0.171100  0.975200  1.0  0.181
  C  C108  1  0.732600  0.526700  0.367700  1.0  0.1598
  C  C109  1  0.889200  0.110900  0.028800  1.0  -0.1681
  C  C110  1  0.005100  0.164500  0.109200  1.0  0.1062
  C  C111  1  0.930200  0.428800  0.372400  1.0  -0.1466
  C  C112  1  0.234800  0.155400  0.204000  1.0  -0.1849
  C  C113  1  0.135700  0.952300  0.231600  1.0  0.1957
  C  C114  1  0.319800  0.099700  0.253900  1.0  0.1762
  N  N115  1  0.012300  0.307700  0.701400  1.0  -0.64
  N  N116  1  0.808600  0.290200  0.583500  1.0  -0.0913
  N  N117  1  0.170300  0.222600  0.668800  1.0  -0.6421
  N  N118  1  0.958400  0.208000  0.545800  1.0  -0.5969
  N  N119  1  0.116700  0.131000  0.516900  1.0  -0.0751
  N  N120  1  0.212500  0.310200  0.820200  1.0  -0.1282
  N  N121  1  0.147100  0.720500  0.003400  1.0  -0.3442
  N  N122  1  0.274900  0.531900  0.711600  1.0  -0.3227
  N  N123  1  0.729500  0.001600  0.732200  1.0  -0.3359
  N  N124  1  0.987700  0.692300  0.298600  1.0  -0.6405
  N  N125  1  0.191400  0.709800  0.416500  1.0  -0.0899
  N  N126  1  0.829700  0.777400  0.331200  1.0  -0.644
  N  N127  1  0.041600  0.792000  0.454200  1.0  -0.5923
  N  N128  1  0.883300  0.869000  0.483100  1.0  -0.0712
  N  N129  1  0.787500  0.689800  0.179800  1.0  -0.1293
  N  N130  1  0.852900  0.279500  0.996600  1.0  -0.34
  N  N131  1  0.725100  0.468100  0.288400  1.0  -0.3224
  N  N132  1  0.270500  0.998400  0.267800  1.0  -0.3354
  O  O133  1  0.659400  0.072300  0.549200  1.0  -0.6148
  O  O134  1  0.783800  0.405500  0.802800  1.0  -0.62
  O  O135  1  0.736500  0.231400  0.747200  1.0  -0.6213
  O  O136  1  0.568900  0.069500  0.395400  1.0  -0.6019
  O  O137  1  0.554500  0.278200  0.885500  1.0  -0.5883
  O  O138  1  0.494300  0.420800  0.851200  1.0  -0.6015
  O  O139  1  0.175200  0.484200  0.006600  1.0  -0.5842
  O  O140  1  0.305900  0.530900  0.920800  1.0  -0.5986
  O  O141  1  0.350800  0.272700  0.506800  1.0  -0.5355
  O  O142  1  0.487900  0.191800  0.593500  1.0  -0.6084
  O  O143  1  0.134200  0.264600  0.381600  1.0  -0.5302
  O  O144  1  0.918800  0.177600  0.293800  1.0  -0.5869
  O  O145  1  0.340600  0.927700  0.450800  1.0  -0.6181
  O  O146  1  0.216200  0.594500  0.197200  1.0  -0.6195
  O  O147  1  0.263500  0.768600  0.252800  1.0  -0.6209
  O  O148  1  0.431100  0.930500  0.604600  1.0  -0.6019
  O  O149  1  0.445500  0.721800  0.114500  1.0  -0.5868
  O  O150  1  0.505700  0.579200  0.148800  1.0  -0.6011
  O  O151  1  0.824800  0.515800  0.993400  1.0  -0.5834
  O  O152  1  0.694100  0.469100  0.079200  1.0  -0.5961
  O  O153  1  0.649200  0.727300  0.493200  1.0  -0.5347
  O  O154  1  0.512100  0.808200  0.406500  1.0  -0.612
  O  O155  1  0.865800  0.735400  0.618400  1.0  -0.5313
  O  O156  1  0.081200  0.822400  0.706200  1.0  -0.5871
