# generated using pymatgen
data_CuH20(C3N)8
_symmetry_space_group_name_H-M   'P 1'
_cell_length_a   16.15900000
_cell_length_b   14.03500000
_cell_length_c   15.43800000
_cell_angle_alpha   90.00000000
_cell_angle_beta   109.09000000
_cell_angle_gamma   90.00000000
_symmetry_Int_Tables_number   1
_chemical_formula_structural   CuH20(C3N)8
_chemical_formula_sum   'Cu4 H80 C96 N32'
_cell_volume   3308.66276602
_cell_formula_units_Z   4
loop_
 _symmetry_equiv_pos_site_id
 _symmetry_equiv_pos_as_xyz
  1  'x, y, z'
loop_
 _atom_site_type_symbol
 _atom_site_label
 _atom_site_symmetry_multiplicity
 _atom_site_fract_x
 _atom_site_fract_y
 _atom_site_fract_z
 _atom_site_occupancy
 _atom_site_charge
  Cu  Cu1  1  0.500000  0.396850  0.250000  1.0  0.5405
  Cu  Cu2  1  0.000000  0.896850  0.250000  1.0  0.5405
  Cu  Cu3  1  0.500000  0.603150  0.750000  1.0  0.5413
  Cu  Cu4  1  0.000000  0.103150  0.750000  1.0  0.5413
  H  H5  1  0.451700  0.194400  0.313800  1.0  0.087
  H  H6  1  0.648600  0.358700  0.443800  1.0  0.087
  H  H7  1  0.655200  0.219000  0.540100  1.0  0.1114
  H  H8  1  0.643800  0.037300  0.521200  1.0  0.0933
  H  H9  1  0.391100  0.105900  0.424300  1.0  0.0938
  H  H10  1  0.343200  0.536700  0.158500  1.0  0.0838
  H  H11  1  0.564800  0.523600  0.110500  1.0  0.0955
  H  H12  1  0.481800  0.655000  0.019600  1.0  0.0979
  H  H13  1  0.324100  0.683600  0.909900  1.0  0.0993
  H  H14  1  0.289100  0.709300  0.153400  1.0  0.1076
  H  H15  1  0.951700  0.694400  0.313800  1.0  0.087
  H  H16  1  0.148600  0.858700  0.443800  1.0  0.087
  H  H17  1  0.155200  0.719000  0.540100  1.0  0.1114
  H  H18  1  0.143800  0.537300  0.521200  1.0  0.0933
  H  H19  1  0.891100  0.605900  0.424300  1.0  0.0938
  H  H20  1  0.843200  0.036700  0.158500  1.0  0.0838
  H  H21  1  0.064800  0.023600  0.110500  1.0  0.0955
  H  H22  1  0.981800  0.155000  0.019600  1.0  0.0979
  H  H23  1  0.824100  0.183600  0.909900  1.0  0.0993
  H  H24  1  0.789100  0.209300  0.153400  1.0  0.1076
  H  H25  1  0.548300  0.194400  0.186200  1.0  0.087
  H  H26  1  0.351400  0.358700  0.056200  1.0  0.0864
  H  H27  1  0.344800  0.219000  0.959900  1.0  0.1113
  H  H28  1  0.356200  0.037300  0.978800  1.0  0.0937
  H  H29  1  0.608900  0.105900  0.075700  1.0  0.0936
  H  H30  1  0.656800  0.536700  0.341500  1.0  0.0834
  H  H31  1  0.435200  0.523600  0.389500  1.0  0.0945
  H  H32  1  0.518200  0.655000  0.480400  1.0  0.0982
  H  H33  1  0.675900  0.683600  0.590100  1.0  0.0986
  H  H34  1  0.710900  0.709300  0.346600  1.0  0.1076
  H  H35  1  0.048300  0.694400  0.186200  1.0  0.087
  H  H36  1  0.851400  0.858700  0.056200  1.0  0.0864
  H  H37  1  0.844800  0.719000  0.959900  1.0  0.1113
  H  H38  1  0.856200  0.537300  0.978800  1.0  0.0937
  H  H39  1  0.108900  0.605900  0.075700  1.0  0.0936
  H  H40  1  0.156800  0.036700  0.341500  1.0  0.0834
  H  H41  1  0.935200  0.023600  0.389500  1.0  0.0945
  H  H42  1  0.018200  0.155000  0.480400  1.0  0.0982
  H  H43  1  0.175900  0.183600  0.590100  1.0  0.0986
  H  H44  1  0.210900  0.209300  0.346600  1.0  0.1076
  H  H45  1  0.548300  0.805600  0.686200  1.0  0.0874
  H  H46  1  0.351400  0.641300  0.556200  1.0  0.0856
  H  H47  1  0.344800  0.781000  0.459900  1.0  0.1114
  H  H48  1  0.356200  0.962700  0.478800  1.0  0.094
  H  H49  1  0.608900  0.894100  0.575700  1.0  0.0939
  H  H50  1  0.656800  0.463300  0.841500  1.0  0.0838
  H  H51  1  0.435200  0.476400  0.889500  1.0  0.0945
  H  H52  1  0.518200  0.345000  0.980400  1.0  0.0984
  H  H53  1  0.675900  0.316400  0.090100  1.0  0.0985
  H  H54  1  0.710900  0.290700  0.846600  1.0  0.106
  H  H55  1  0.048300  0.305600  0.686200  1.0  0.0874
  H  H56  1  0.851400  0.141300  0.556200  1.0  0.0856
  H  H57  1  0.844800  0.281000  0.459900  1.0  0.1114
  H  H58  1  0.856200  0.462700  0.478800  1.0  0.094
  H  H59  1  0.108900  0.394100  0.575700  1.0  0.0939
  H  H60  1  0.156800  0.963300  0.841500  1.0  0.0838
  H  H61  1  0.935200  0.976400  0.889500  1.0  0.0945
  H  H62  1  0.018200  0.845000  0.980400  1.0  0.0984
  H  H63  1  0.175900  0.816400  0.090100  1.0  0.0985
  H  H64  1  0.210900  0.790700  0.846600  1.0  0.106
  H  H65  1  0.451700  0.805600  0.813800  1.0  0.0873
  H  H66  1  0.648600  0.641300  0.943800  1.0  0.0865
  H  H67  1  0.655200  0.781000  0.040100  1.0  0.1114
  H  H68  1  0.643800  0.962700  0.021200  1.0  0.0932
  H  H69  1  0.391100  0.894100  0.924300  1.0  0.094
  H  H70  1  0.343200  0.463300  0.658500  1.0  0.0838
  H  H71  1  0.564800  0.476400  0.610500  1.0  0.0954
  H  H72  1  0.481800  0.345000  0.519600  1.0  0.0977
  H  H73  1  0.324100  0.316400  0.409900  1.0  0.0991
  H  H74  1  0.289100  0.290700  0.653400  1.0  0.1072
  H  H75  1  0.951700  0.305600  0.813800  1.0  0.0873
  H  H76  1  0.148600  0.141300  0.943800  1.0  0.0865
  H  H77  1  0.155200  0.281000  0.040100  1.0  0.1114
  H  H78  1  0.143800  0.462700  0.021200  1.0  0.0932
  H  H79  1  0.891100  0.394100  0.924300  1.0  0.094
  H  H80  1  0.843200  0.963300  0.658500  1.0  0.0838
  H  H81  1  0.064800  0.976400  0.610500  1.0  0.0954
  H  H82  1  0.981800  0.845000  0.519600  1.0  0.0977
  H  H83  1  0.824100  0.816400  0.409900  1.0  0.0991
  H  H84  1  0.789100  0.790700  0.653400  1.0  0.1072
  C  C85  1  0.501200  0.218600  0.358000  1.0  0.118
  C  C86  1  0.609500  0.307900  0.429600  1.0  0.0037
  C  C87  1  0.613400  0.231200  0.483400  1.0  -0.1695
  C  C88  1  0.521200  0.085000  0.469200  1.0  0.122
  C  C89  1  0.585600  0.022300  0.512900  1.0  -0.154
  C  C90  1  0.435000  0.063400  0.455100  1.0  -0.1525
  C  C91  1  0.388300  0.549700  0.135200  1.0  0.1297
  C  C92  1  0.509200  0.542900  0.108700  1.0  -0.0034
  C  C93  1  0.463800  0.615500  0.058500  1.0  -0.1535
  C  C94  1  0.316500  0.686600  0.037200  1.0  0.126
  C  C95  1  0.294100  0.710400  0.946100  1.0  -0.197
  C  C96  1  0.273300  0.725600  0.091700  1.0  -0.2097
  C  C97  1  0.001200  0.718600  0.358000  1.0  0.118
  C  C98  1  0.109500  0.807900  0.429600  1.0  0.0037
  C  C99  1  0.113400  0.731200  0.483400  1.0  -0.1695
  C  C100  1  0.021200  0.585000  0.469200  1.0  0.122
  C  C101  1  0.085600  0.522300  0.512900  1.0  -0.154
  C  C102  1  0.935000  0.563400  0.455100  1.0  -0.1525
  C  C103  1  0.888300  0.049700  0.135200  1.0  0.1297
  C  C104  1  0.009200  0.042900  0.108700  1.0  -0.0034
  C  C105  1  0.963800  0.115500  0.058500  1.0  -0.1535
  C  C106  1  0.816500  0.186600  0.037200  1.0  0.126
  C  C107  1  0.794100  0.210400  0.946100  1.0  -0.197
  C  C108  1  0.773300  0.225600  0.091700  1.0  -0.2097
  C  C109  1  0.498800  0.218600  0.142000  1.0  0.1187
  C  C110  1  0.390500  0.307900  0.070400  1.0  0.0024
  C  C111  1  0.386600  0.231200  0.016600  1.0  -0.172
  C  C112  1  0.478800  0.085000  0.030800  1.0  0.1208
  C  C113  1  0.414400  0.022300  0.987100  1.0  -0.1548
  C  C114  1  0.565000  0.063400  0.044900  1.0  -0.1529
  C  C115  1  0.611700  0.549700  0.364800  1.0  0.1292
  C  C116  1  0.490800  0.542900  0.391300  1.0  -0.0054
  C  C117  1  0.536200  0.615500  0.441500  1.0  -0.1523
  C  C118  1  0.683500  0.686600  0.462800  1.0  0.1262
  C  C119  1  0.705900  0.710400  0.553900  1.0  -0.1966
  C  C120  1  0.726700  0.725600  0.408300  1.0  -0.2081
  C  C121  1  0.998800  0.718600  0.142000  1.0  0.1187
  C  C122  1  0.890500  0.807900  0.070400  1.0  0.0024
  C  C123  1  0.886600  0.731200  0.016600  1.0  -0.172
  C  C124  1  0.978800  0.585000  0.030800  1.0  0.1208
  C  C125  1  0.914400  0.522300  0.987100  1.0  -0.1548
  C  C126  1  0.065000  0.563400  0.044900  1.0  -0.1529
  C  C127  1  0.111700  0.049700  0.364800  1.0  0.1292
  C  C128  1  0.990800  0.042900  0.391300  1.0  -0.0054
  C  C129  1  0.036200  0.115500  0.441500  1.0  -0.1523
  C  C130  1  0.183500  0.186600  0.462800  1.0  0.1262
  C  C131  1  0.205900  0.210400  0.553900  1.0  -0.1966
  C  C132  1  0.226700  0.225600  0.408300  1.0  -0.2081
  C  C133  1  0.498800  0.781400  0.642000  1.0  0.1181
  C  C134  1  0.390500  0.692100  0.570400  1.0  0.0021
  C  C135  1  0.386600  0.768800  0.516600  1.0  -0.1718
  C  C136  1  0.478800  0.915000  0.530800  1.0  0.1215
  C  C137  1  0.414400  0.977700  0.487100  1.0  -0.1539
  C  C138  1  0.565000  0.936600  0.544900  1.0  -0.1528
  C  C139  1  0.611700  0.450300  0.864800  1.0  0.1293
  C  C140  1  0.490800  0.457100  0.891300  1.0  -0.0052
  C  C141  1  0.536200  0.384500  0.941500  1.0  -0.1515
  C  C142  1  0.683500  0.313400  0.962800  1.0  0.1259
  C  C143  1  0.705900  0.289600  0.053900  1.0  -0.1974
  C  C144  1  0.726700  0.274400  0.908300  1.0  -0.2077
  C  C145  1  0.998800  0.281400  0.642000  1.0  0.1181
  C  C146  1  0.890500  0.192100  0.570400  1.0  0.0021
  C  C147  1  0.886600  0.268800  0.516600  1.0  -0.1718
  C  C148  1  0.978800  0.415000  0.530800  1.0  0.1215
  C  C149  1  0.914400  0.477700  0.487100  1.0  -0.1539
  C  C150  1  0.065000  0.436600  0.544900  1.0  -0.1528
  C  C151  1  0.111700  0.950300  0.864800  1.0  0.1293
  C  C152  1  0.990800  0.957100  0.891300  1.0  -0.0052
  C  C153  1  0.036200  0.884500  0.941500  1.0  -0.1515
  C  C154  1  0.183500  0.813400  0.962800  1.0  0.1259
  C  C155  1  0.205900  0.789600  0.053900  1.0  -0.1974
  C  C156  1  0.226700  0.774400  0.908300  1.0  -0.2077
  C  C157  1  0.501200  0.781400  0.858000  1.0  0.1178
  C  C158  1  0.609500  0.692100  0.929600  1.0  0.0035
  C  C159  1  0.613400  0.768800  0.983400  1.0  -0.17
  C  C160  1  0.521200  0.915000  0.969200  1.0  0.1227
  C  C161  1  0.585600  0.977700  0.012900  1.0  -0.1534
  C  C162  1  0.435000  0.936600  0.955100  1.0  -0.152
  C  C163  1  0.388300  0.450300  0.635200  1.0  0.1292
  C  C164  1  0.509200  0.457100  0.608700  1.0  -0.0026
  C  C165  1  0.463800  0.384500  0.558500  1.0  -0.1534
  C  C166  1  0.316500  0.313400  0.537200  1.0  0.1257
  C  C167  1  0.294100  0.289600  0.446100  1.0  -0.1967
  C  C168  1  0.273300  0.274400  0.591700  1.0  -0.2088
  C  C169  1  0.001200  0.281400  0.858000  1.0  0.1178
  C  C170  1  0.109500  0.192100  0.929600  1.0  0.0035
  C  C171  1  0.113400  0.268800  0.983400  1.0  -0.17
  C  C172  1  0.021200  0.415000  0.969200  1.0  0.1227
  C  C173  1  0.085600  0.477700  0.012900  1.0  -0.1534
  C  C174  1  0.935000  0.436600  0.955100  1.0  -0.152
  C  C175  1  0.888300  0.950300  0.635200  1.0  0.1292
  C  C176  1  0.009200  0.957100  0.608700  1.0  -0.0026
  C  C177  1  0.963800  0.884500  0.558500  1.0  -0.1534
  C  C178  1  0.816500  0.813400  0.537200  1.0  0.1257
  C  C179  1  0.794100  0.789600  0.446100  1.0  -0.1967
  C  C180  1  0.773300  0.774400  0.591700  1.0  -0.2088
  N  N181  1  0.538700  0.299600  0.350300  1.0  -0.3975
  N  N182  1  0.543400  0.174900  0.437800  1.0  0.0224
  N  N183  1  0.461200  0.502200  0.156300  1.0  -0.3323
  N  N184  1  0.386500  0.620100  0.075400  1.0  0.0244
  N  N185  1  0.038700  0.799600  0.350300  1.0  -0.3975
  N  N186  1  0.043400  0.674900  0.437800  1.0  0.0224
  N  N187  1  0.961200  0.002200  0.156300  1.0  -0.3323
  N  N188  1  0.886500  0.120100  0.075400  1.0  0.0244
  N  N189  1  0.461300  0.299600  0.149700  1.0  -0.398
  N  N190  1  0.456600  0.174900  0.062200  1.0  0.0215
  N  N191  1  0.538800  0.502200  0.343700  1.0  -0.3337
  N  N192  1  0.613500  0.620100  0.424600  1.0  0.025
  N  N193  1  0.961300  0.799600  0.149700  1.0  -0.398
  N  N194  1  0.956600  0.674900  0.062200  1.0  0.0215
  N  N195  1  0.038800  0.002200  0.343700  1.0  -0.3337
  N  N196  1  0.113500  0.120100  0.424600  1.0  0.025
  N  N197  1  0.461300  0.700400  0.649700  1.0  -0.3975
  N  N198  1  0.456600  0.825100  0.562200  1.0  0.0221
  N  N199  1  0.538800  0.497800  0.843700  1.0  -0.3336
  N  N200  1  0.613500  0.379900  0.924600  1.0  0.0249
  N  N201  1  0.961300  0.200400  0.649700  1.0  -0.3975
  N  N202  1  0.956600  0.325100  0.562200  1.0  0.0221
  N  N203  1  0.038800  0.997800  0.843700  1.0  -0.3336
  N  N204  1  0.113500  0.879900  0.924600  1.0  0.0249
  N  N205  1  0.538700  0.700400  0.850300  1.0  -0.3978
  N  N206  1  0.543400  0.825100  0.937800  1.0  0.0229
  N  N207  1  0.461200  0.497800  0.656300  1.0  -0.3329
  N  N208  1  0.386500  0.379900  0.575400  1.0  0.0245
  N  N209  1  0.038700  0.200400  0.850300  1.0  -0.3978
  N  N210  1  0.043400  0.325100  0.937800  1.0  0.0229
  N  N211  1  0.961200  0.997800  0.656300  1.0  -0.3329
  N  N212  1  0.886500  0.879900  0.575400  1.0  0.0245
