# generated using pymatgen
data_Cd3H40C64(N5O6)2
_symmetry_space_group_name_H-M   'P 1'
_cell_length_a   31.98000000
_cell_length_b   7.90400000
_cell_length_c   26.80000000
_cell_angle_alpha   90.00000000
_cell_angle_beta   90.00000000
_cell_angle_gamma   90.00000000
_symmetry_Int_Tables_number   1
_chemical_formula_structural   Cd3H40C64(N5O6)2
_chemical_formula_sum   'Cd12 H160 C256 N40 O48'
_cell_volume   6774.23385600
_cell_formula_units_Z   4
loop_
 _symmetry_equiv_pos_site_id
 _symmetry_equiv_pos_as_xyz
  1  'x, y, z'
loop_
 _atom_site_type_symbol
 _atom_site_label
 _atom_site_symmetry_multiplicity
 _atom_site_fract_x
 _atom_site_fract_y
 _atom_site_fract_z
 _atom_site_occupancy
 _atom_site_charge
  Cd  Cd1  1  0.108370  0.634060  0.434430  1.0  1.0047
  Cd  Cd2  1  0.108370  0.134060  0.934430  1.0  1.0047
  Cd  Cd3  1  0.891630  0.365940  0.434430  1.0  1.0051
  Cd  Cd4  1  0.891630  0.865940  0.934430  1.0  1.0051
  Cd  Cd5  1  0.608370  0.865940  0.434430  1.0  1.0047
  Cd  Cd6  1  0.608370  0.365940  0.934430  1.0  1.0047
  Cd  Cd7  1  0.391630  0.134060  0.434430  1.0  1.0051
  Cd  Cd8  1  0.391630  0.634060  0.934430  1.0  1.0051
  Cd  Cd9  1  0.000000  0.500000  0.477140  1.0  1.0096
  Cd  Cd10  1  0.000000  0.000000  0.977140  1.0  1.0096
  Cd  Cd11  1  0.500000  0.000000  0.477140  1.0  1.0096
  Cd  Cd12  1  0.500000  0.500000  0.977140  1.0  1.0096
  H  H13  1  0.092700  0.335600  0.598300  1.0  0.1184
  H  H14  1  0.266400  0.225000  0.635300  1.0  0.091
  H  H15  1  0.063000  0.079700  0.479000  1.0  0.1222
  H  H16  1  0.183400  0.189800  0.485900  1.0  0.2475
  H  H17  1  0.045400  0.868200  0.612600  1.0  0.1086
  H  H18  1  0.152900  0.754300  0.538600  1.0  0.1077
  H  H19  1  0.091500  0.356600  0.674700  1.0  0.1225
  H  H20  1  0.107600  0.375900  0.753000  1.0  0.0874
  H  H21  1  0.144100  0.919100  0.617100  1.0  0.1061
  H  H22  1  0.168700  0.992200  0.697000  1.0  0.1031
  H  H23  1  0.242300  0.157700  0.555700  1.0  0.1229
  H  H24  1  0.206400  0.319000  0.833000  1.0  0.1269
  H  H25  1  0.298500  0.131000  0.710400  1.0  0.1089
  H  H26  1  0.181800  0.206600  0.758300  1.0  0.0926
  H  H27  1  0.324200  0.222100  0.786500  1.0  0.1323
  H  H28  1  0.235800  0.396800  0.910300  1.0  0.1216
  H  H29  1  0.286200  0.543800  0.960200  1.0  0.2491
  H  H30  1  0.151400  0.040000  0.418700  1.0  0.1169
  H  H31  1  0.050300  0.892000  0.693100  1.0  0.1121
  H  H32  1  0.061100  0.930200  0.777000  1.0  0.1835
  H  H33  1  0.092700  0.835600  0.098300  1.0  0.1184
  H  H34  1  0.266400  0.725000  0.135300  1.0  0.091
  H  H35  1  0.063000  0.579700  0.979000  1.0  0.1222
  H  H36  1  0.183400  0.689800  0.985900  1.0  0.2475
  H  H37  1  0.045400  0.368200  0.112600  1.0  0.1086
  H  H38  1  0.152900  0.254300  0.038600  1.0  0.1077
  H  H39  1  0.091500  0.856600  0.174700  1.0  0.1225
  H  H40  1  0.107600  0.875900  0.253000  1.0  0.0874
  H  H41  1  0.144100  0.419100  0.117100  1.0  0.1061
  H  H42  1  0.168700  0.492200  0.197000  1.0  0.1031
  H  H43  1  0.242300  0.657700  0.055700  1.0  0.1225
  H  H44  1  0.206400  0.819000  0.333000  1.0  0.1269
  H  H45  1  0.298500  0.631000  0.210400  1.0  0.1089
  H  H46  1  0.181800  0.706600  0.258300  1.0  0.0926
  H  H47  1  0.324200  0.722100  0.286500  1.0  0.1323
  H  H48  1  0.235800  0.896800  0.410300  1.0  0.1216
  H  H49  1  0.286200  0.043800  0.460200  1.0  0.2499
  H  H50  1  0.151400  0.540000  0.918700  1.0  0.1173
  H  H51  1  0.050300  0.392000  0.193100  1.0  0.1121
  H  H52  1  0.061100  0.430200  0.277000  1.0  0.1835
  H  H53  1  0.907300  0.664400  0.598300  1.0  0.1192
  H  H54  1  0.733600  0.775000  0.635300  1.0  0.0911
  H  H55  1  0.937000  0.920300  0.479000  1.0  0.1221
  H  H56  1  0.816600  0.810200  0.485900  1.0  0.2491
  H  H57  1  0.954600  0.131800  0.612600  1.0  0.1084
  H  H58  1  0.847100  0.245700  0.538600  1.0  0.1078
  H  H59  1  0.908500  0.643400  0.674700  1.0  0.1228
  H  H60  1  0.892400  0.624100  0.753000  1.0  0.087
  H  H61  1  0.855900  0.080900  0.617100  1.0  0.1066
  H  H62  1  0.831300  0.007800  0.697000  1.0  0.1032
  H  H63  1  0.757700  0.842300  0.555700  1.0  0.123
  H  H64  1  0.793600  0.681000  0.833000  1.0  0.1271
  H  H65  1  0.701500  0.869000  0.710400  1.0  0.1089
  H  H66  1  0.818200  0.793400  0.758300  1.0  0.0924
  H  H67  1  0.675800  0.777900  0.786500  1.0  0.1325
  H  H68  1  0.764200  0.603200  0.910300  1.0  0.1214
  H  H69  1  0.713800  0.456200  0.960200  1.0  0.2494
  H  H70  1  0.848600  0.960000  0.418700  1.0  0.1171
  H  H71  1  0.949700  0.108000  0.693100  1.0  0.1123
  H  H72  1  0.938900  0.069800  0.777000  1.0  0.1816
  H  H73  1  0.907300  0.164400  0.098300  1.0  0.1192
  H  H74  1  0.733600  0.275000  0.135300  1.0  0.0911
  H  H75  1  0.937000  0.420300  0.979000  1.0  0.1221
  H  H76  1  0.816600  0.310200  0.985900  1.0  0.2491
  H  H77  1  0.954600  0.631800  0.112600  1.0  0.1084
  H  H78  1  0.847100  0.745700  0.038600  1.0  0.1078
  H  H79  1  0.908500  0.143400  0.174700  1.0  0.1228
  H  H80  1  0.892400  0.124100  0.253000  1.0  0.087
  H  H81  1  0.855900  0.580900  0.117100  1.0  0.1066
  H  H82  1  0.831300  0.507800  0.197000  1.0  0.1032
  H  H83  1  0.757700  0.342300  0.055700  1.0  0.1225
  H  H84  1  0.793600  0.181000  0.333000  1.0  0.1271
  H  H85  1  0.701500  0.369000  0.210400  1.0  0.1089
  H  H86  1  0.818200  0.293400  0.258300  1.0  0.0924
  H  H87  1  0.675800  0.277900  0.286500  1.0  0.1325
  H  H88  1  0.764200  0.103200  0.410300  1.0  0.1214
  H  H89  1  0.713800  0.956200  0.460200  1.0  0.2502
  H  H90  1  0.848600  0.460000  0.918700  1.0  0.1175
  H  H91  1  0.949700  0.608000  0.193100  1.0  0.1123
  H  H92  1  0.938900  0.569800  0.277000  1.0  0.1816
  H  H93  1  0.592700  0.164400  0.598300  1.0  0.1193
  H  H94  1  0.766400  0.275000  0.635300  1.0  0.0914
  H  H95  1  0.563000  0.420300  0.479000  1.0  0.1223
  H  H96  1  0.683400  0.310200  0.485900  1.0  0.249
  H  H97  1  0.545400  0.631800  0.612600  1.0  0.1087
  H  H98  1  0.652900  0.745700  0.538600  1.0  0.1077
  H  H99  1  0.591500  0.143400  0.674700  1.0  0.1226
  H  H100  1  0.607600  0.124100  0.753000  1.0  0.0869
  H  H101  1  0.644100  0.580900  0.617100  1.0  0.1065
  H  H102  1  0.668700  0.507800  0.697000  1.0  0.1029
  H  H103  1  0.742300  0.342300  0.555700  1.0  0.123
  H  H104  1  0.706400  0.181000  0.833000  1.0  0.1269
  H  H105  1  0.798500  0.369000  0.710400  1.0  0.1096
  H  H106  1  0.681800  0.293400  0.758300  1.0  0.0928
  H  H107  1  0.824200  0.277900  0.786500  1.0  0.1322
  H  H108  1  0.735800  0.103200  0.910300  1.0  0.1218
  H  H109  1  0.786200  0.956200  0.960200  1.0  0.249
  H  H110  1  0.651400  0.460000  0.418700  1.0  0.117
  H  H111  1  0.550300  0.608000  0.693100  1.0  0.1126
  H  H112  1  0.561100  0.569800  0.777000  1.0  0.1829
  H  H113  1  0.592700  0.664400  0.098300  1.0  0.1193
  H  H114  1  0.766400  0.775000  0.135300  1.0  0.0914
  H  H115  1  0.563000  0.920300  0.979000  1.0  0.1223
  H  H116  1  0.683400  0.810200  0.985900  1.0  0.249
  H  H117  1  0.545400  0.131800  0.112600  1.0  0.1087
  H  H118  1  0.652900  0.245700  0.038600  1.0  0.1077
  H  H119  1  0.591500  0.643400  0.174700  1.0  0.1226
  H  H120  1  0.607600  0.624100  0.253000  1.0  0.0869
  H  H121  1  0.644100  0.080900  0.117100  1.0  0.1065
  H  H122  1  0.668700  0.007800  0.197000  1.0  0.1029
  H  H123  1  0.742300  0.842300  0.055700  1.0  0.1225
  H  H124  1  0.706400  0.681000  0.333000  1.0  0.1269
  H  H125  1  0.798500  0.869000  0.210400  1.0  0.1096
  H  H126  1  0.681800  0.793400  0.258300  1.0  0.0928
  H  H127  1  0.824200  0.777900  0.286500  1.0  0.1322
  H  H128  1  0.735800  0.603200  0.410300  1.0  0.1217
  H  H129  1  0.786200  0.456200  0.460200  1.0  0.249
  H  H130  1  0.651400  0.960000  0.918700  1.0  0.1174
  H  H131  1  0.550300  0.108000  0.193100  1.0  0.1126
  H  H132  1  0.561100  0.069800  0.277000  1.0  0.1829
  H  H133  1  0.407300  0.835600  0.598300  1.0  0.1185
  H  H134  1  0.233600  0.725000  0.635300  1.0  0.0907
  H  H135  1  0.437000  0.579700  0.479000  1.0  0.1222
  H  H136  1  0.316600  0.689800  0.485900  1.0  0.2476
  H  H137  1  0.454600  0.368200  0.612600  1.0  0.1083
  H  H138  1  0.347100  0.254300  0.538600  1.0  0.1077
  H  H139  1  0.408500  0.856600  0.674700  1.0  0.1224
  H  H140  1  0.392400  0.875900  0.753000  1.0  0.0873
  H  H141  1  0.355900  0.419100  0.617100  1.0  0.1063
  H  H142  1  0.331300  0.492200  0.697000  1.0  0.1031
  H  H143  1  0.257700  0.657700  0.555700  1.0  0.123
  H  H144  1  0.293600  0.819000  0.833000  1.0  0.1271
  H  H145  1  0.201500  0.631000  0.710400  1.0  0.1095
  H  H146  1  0.318200  0.706600  0.758300  1.0  0.0921
  H  H147  1  0.175800  0.722100  0.786500  1.0  0.1325
  H  H148  1  0.264200  0.896800  0.910300  1.0  0.1214
  H  H149  1  0.213800  0.043800  0.960200  1.0  0.2496
  H  H150  1  0.348600  0.540000  0.418700  1.0  0.1172
  H  H151  1  0.449700  0.392000  0.693100  1.0  0.1123
  H  H152  1  0.438900  0.430200  0.777000  1.0  0.1824
  H  H153  1  0.407300  0.335600  0.098300  1.0  0.1185
  H  H154  1  0.233600  0.225000  0.135300  1.0  0.0907
  H  H155  1  0.437000  0.079700  0.979000  1.0  0.1222
  H  H156  1  0.316600  0.189800  0.985900  1.0  0.2476
  H  H157  1  0.454600  0.868200  0.112600  1.0  0.1083
  H  H158  1  0.347100  0.754300  0.038600  1.0  0.1077
  H  H159  1  0.408500  0.356600  0.174700  1.0  0.1224
  H  H160  1  0.392400  0.375900  0.253000  1.0  0.0873
  H  H161  1  0.355900  0.919100  0.117100  1.0  0.1063
  H  H162  1  0.331300  0.992200  0.197000  1.0  0.1031
  H  H163  1  0.257700  0.157700  0.055700  1.0  0.1225
  H  H164  1  0.293600  0.319000  0.333000  1.0  0.1271
  H  H165  1  0.201500  0.131000  0.210400  1.0  0.1095
  H  H166  1  0.318200  0.206600  0.258300  1.0  0.0921
  H  H167  1  0.175800  0.222100  0.286500  1.0  0.1325
  H  H168  1  0.264200  0.396800  0.410300  1.0  0.1214
  H  H169  1  0.213800  0.543800  0.460200  1.0  0.2496
  H  H170  1  0.348600  0.040000  0.918700  1.0  0.1176
  H  H171  1  0.449700  0.892000  0.193100  1.0  0.1123
  H  H172  1  0.438900  0.930200  0.277000  1.0  0.1824
  C  C173  1  0.175000  0.989800  0.530700  1.0  0.137
  C  C174  1  0.081000  0.238600  0.584400  1.0  -0.0825
  C  C175  1  0.090400  0.383900  0.504900  1.0  0.7012
  C  C176  1  0.241700  0.164300  0.632000  1.0  -0.0791
  C  C177  1  0.078000  0.229200  0.536500  1.0  -0.0062
  C  C178  1  0.064500  0.084700  0.513600  1.0  -0.026
  C  C179  1  0.052900  0.946400  0.541700  1.0  -0.1853
  C  C180  1  0.190400  0.034300  0.578500  1.0  0.0824
  C  C181  1  0.053900  0.960400  0.593600  1.0  -0.0299
  C  C182  1  0.067000  0.104100  0.618000  1.0  -0.0428
  C  C183  1  0.069900  0.118400  0.674400  1.0  0.0573
  C  C184  1  0.156700  0.845200  0.517100  1.0  0.0797
  C  C185  1  0.037700  0.786500  0.516500  1.0  0.6614
  C  C186  1  0.092000  0.178900  0.831900  1.0  0.7416
  C  C187  1  0.082400  0.163100  0.775800  1.0  0.0681
  C  C188  1  0.086000  0.265000  0.695400  1.0  -0.106
  C  C189  1  0.093600  0.279700  0.742000  1.0  -0.0965
  C  C190  1  0.168500  0.982000  0.620500  1.0  -0.1412
  C  C191  1  0.183600  0.025100  0.668800  1.0  -0.0948
  C  C192  1  0.220800  0.117500  0.673800  1.0  0.0432
  C  C193  1  0.227200  0.124100  0.583700  1.0  -0.1514
  C  C194  1  0.236500  0.163400  0.724900  1.0  0.0466
  C  C195  1  0.268300  0.282900  0.816600  1.0  0.0102
  C  C196  1  0.224900  0.279800  0.808800  1.0  -0.2117
  C  C197  1  0.279900  0.167200  0.734900  1.0  -0.0954
  C  C198  1  0.210500  0.215100  0.763100  1.0  -0.0978
  C  C199  1  0.295600  0.223900  0.780400  1.0  -0.1239
  C  C200  1  0.284900  0.358600  0.861400  1.0  0.0607
  C  C201  1  0.263900  0.413200  0.903300  1.0  -0.1053
  C  C202  1  0.330300  0.489400  0.911300  1.0  0.157
  C  C203  1  0.155700  0.001100  0.451000  1.0  0.1084
  C  C204  1  0.060800  0.993200  0.705600  1.0  0.0464
  C  C205  1  0.175000  0.489800  0.030700  1.0  0.137
  C  C206  1  0.081000  0.738600  0.084400  1.0  -0.0825
  C  C207  1  0.090400  0.883900  0.004900  1.0  0.7012
  C  C208  1  0.241700  0.664300  0.132000  1.0  -0.0791
  C  C209  1  0.078000  0.729200  0.036500  1.0  -0.0062
  C  C210  1  0.064500  0.584700  0.013600  1.0  -0.026
  C  C211  1  0.052900  0.446400  0.041700  1.0  -0.1853
  C  C212  1  0.190400  0.534300  0.078500  1.0  0.0824
  C  C213  1  0.053900  0.460400  0.093600  1.0  -0.0299
  C  C214  1  0.067000  0.604100  0.118000  1.0  -0.0428
  C  C215  1  0.069900  0.618400  0.174400  1.0  0.0573
  C  C216  1  0.156700  0.345200  0.017100  1.0  0.0797
  C  C217  1  0.037700  0.286500  0.016500  1.0  0.6614
  C  C218  1  0.092000  0.678900  0.331900  1.0  0.7416
  C  C219  1  0.082400  0.663100  0.275800  1.0  0.0681
  C  C220  1  0.086000  0.765000  0.195400  1.0  -0.106
  C  C221  1  0.093600  0.779700  0.242000  1.0  -0.0965
  C  C222  1  0.168500  0.482000  0.120500  1.0  -0.1412
  C  C223  1  0.183600  0.525100  0.168800  1.0  -0.0948
  C  C224  1  0.220800  0.617500  0.173800  1.0  0.0432
  C  C225  1  0.227200  0.624100  0.083700  1.0  -0.1514
  C  C226  1  0.236500  0.663400  0.224900  1.0  0.0466
  C  C227  1  0.268300  0.782900  0.316600  1.0  0.0102
  C  C228  1  0.224900  0.779800  0.308800  1.0  -0.2117
  C  C229  1  0.279900  0.667200  0.234900  1.0  -0.0954
  C  C230  1  0.210500  0.715100  0.263100  1.0  -0.0978
  C  C231  1  0.295600  0.723900  0.280400  1.0  -0.1239
  C  C232  1  0.284900  0.858600  0.361400  1.0  0.0607
  C  C233  1  0.263900  0.913200  0.403300  1.0  -0.1053
  C  C234  1  0.330300  0.989400  0.411300  1.0  0.157
  C  C235  1  0.155700  0.501100  0.951000  1.0  0.1084
  C  C236  1  0.060800  0.493200  0.205600  1.0  0.0464
  C  C237  1  0.825000  0.010200  0.530700  1.0  0.137
  C  C238  1  0.919000  0.761400  0.584400  1.0  -0.0818
  C  C239  1  0.909600  0.616100  0.504900  1.0  0.7012
  C  C240  1  0.758300  0.835700  0.632000  1.0  -0.0793
  C  C241  1  0.922000  0.770800  0.536500  1.0  -0.0066
  C  C242  1  0.935500  0.915300  0.513600  1.0  -0.0267
  C  C243  1  0.947100  0.053600  0.541700  1.0  -0.1838
  C  C244  1  0.809600  0.965700  0.578500  1.0  0.0815
  C  C245  1  0.946100  0.039600  0.593600  1.0  -0.0306
  C  C246  1  0.933000  0.895900  0.618000  1.0  -0.0432
  C  C247  1  0.930100  0.881600  0.674400  1.0  0.057
  C  C248  1  0.843300  0.154800  0.517100  1.0  0.0794
  C  C249  1  0.962300  0.213500  0.516500  1.0  0.663
  C  C250  1  0.908000  0.821100  0.831900  1.0  0.7428
  C  C251  1  0.917600  0.836900  0.775800  1.0  0.0656
  C  C252  1  0.914000  0.735000  0.695400  1.0  -0.1067
  C  C253  1  0.906400  0.720300  0.742000  1.0  -0.0952
  C  C254  1  0.831500  0.018000  0.620500  1.0  -0.1425
  C  C255  1  0.816400  0.974900  0.668800  1.0  -0.0951
  C  C256  1  0.779200  0.882500  0.673800  1.0  0.0436
  C  C257  1  0.772800  0.875900  0.583700  1.0  -0.1509
  C  C258  1  0.763500  0.836600  0.724900  1.0  0.0462
  C  C259  1  0.731700  0.717100  0.816600  1.0  0.0095
  C  C260  1  0.775100  0.720200  0.808800  1.0  -0.2115
  C  C261  1  0.720100  0.832800  0.734900  1.0  -0.0958
  C  C262  1  0.789500  0.784900  0.763100  1.0  -0.0977
  C  C263  1  0.704400  0.776100  0.780400  1.0  -0.125
  C  C264  1  0.715100  0.641400  0.861400  1.0  0.0613
  C  C265  1  0.736100  0.586800  0.903300  1.0  -0.1053
  C  C266  1  0.669700  0.510600  0.911300  1.0  0.1538
  C  C267  1  0.844300  0.998900  0.451000  1.0  0.1095
  C  C268  1  0.939200  0.006800  0.705600  1.0  0.0465
  C  C269  1  0.825000  0.510200  0.030700  1.0  0.137
  C  C270  1  0.919000  0.261400  0.084400  1.0  -0.0818
  C  C271  1  0.909600  0.116100  0.004900  1.0  0.7012
  C  C272  1  0.758300  0.335700  0.132000  1.0  -0.0793
  C  C273  1  0.922000  0.270800  0.036500  1.0  -0.0066
  C  C274  1  0.935500  0.415300  0.013600  1.0  -0.0267
  C  C275  1  0.947100  0.553600  0.041700  1.0  -0.1838
  C  C276  1  0.809600  0.465700  0.078500  1.0  0.0815
  C  C277  1  0.946100  0.539600  0.093600  1.0  -0.0306
  C  C278  1  0.933000  0.395900  0.118000  1.0  -0.0432
  C  C279  1  0.930100  0.381600  0.174400  1.0  0.057
  C  C280  1  0.843300  0.654800  0.017100  1.0  0.0794
  C  C281  1  0.962300  0.713500  0.016500  1.0  0.663
  C  C282  1  0.908000  0.321100  0.331900  1.0  0.7428
  C  C283  1  0.917600  0.336900  0.275800  1.0  0.0656
  C  C284  1  0.914000  0.235000  0.195400  1.0  -0.1067
  C  C285  1  0.906400  0.220300  0.242000  1.0  -0.0952
  C  C286  1  0.831500  0.518000  0.120500  1.0  -0.1425
  C  C287  1  0.816400  0.474900  0.168800  1.0  -0.0951
  C  C288  1  0.779200  0.382500  0.173800  1.0  0.0436
  C  C289  1  0.772800  0.375900  0.083700  1.0  -0.1509
  C  C290  1  0.763500  0.336600  0.224900  1.0  0.0462
  C  C291  1  0.731700  0.217100  0.316600  1.0  0.0095
  C  C292  1  0.775100  0.220200  0.308800  1.0  -0.2115
  C  C293  1  0.720100  0.332800  0.234900  1.0  -0.0958
  C  C294  1  0.789500  0.284900  0.263100  1.0  -0.0977
  C  C295  1  0.704400  0.276100  0.280400  1.0  -0.125
  C  C296  1  0.715100  0.141400  0.361400  1.0  0.0613
  C  C297  1  0.736100  0.086800  0.403300  1.0  -0.1053
  C  C298  1  0.669700  0.010600  0.411300  1.0  0.1538
  C  C299  1  0.844300  0.498900  0.951000  1.0  0.1095
  C  C300  1  0.939200  0.506800  0.205600  1.0  0.0465
  C  C301  1  0.675000  0.510200  0.530700  1.0  0.1371
  C  C302  1  0.581000  0.261400  0.584400  1.0  -0.0814
  C  C303  1  0.590400  0.116100  0.504900  1.0  0.7016
  C  C304  1  0.741700  0.335700  0.632000  1.0  -0.0794
  C  C305  1  0.578000  0.270800  0.536500  1.0  -0.007
  C  C306  1  0.564500  0.415300  0.513600  1.0  -0.0262
  C  C307  1  0.552900  0.553600  0.541700  1.0  -0.1845
  C  C308  1  0.690400  0.465700  0.578500  1.0  0.0823
  C  C309  1  0.553900  0.539600  0.593600  1.0  -0.0314
  C  C310  1  0.567000  0.395900  0.618000  1.0  -0.0429
  C  C311  1  0.569900  0.381600  0.674400  1.0  0.0573
  C  C312  1  0.656700  0.654800  0.517100  1.0  0.0795
  C  C313  1  0.537700  0.713500  0.516500  1.0  0.6626
  C  C314  1  0.592000  0.321100  0.831900  1.0  0.742
  C  C315  1  0.582400  0.336900  0.775800  1.0  0.0675
  C  C316  1  0.586000  0.235000  0.695400  1.0  -0.1074
  C  C317  1  0.593600  0.220300  0.742000  1.0  -0.0961
  C  C318  1  0.668500  0.518000  0.620500  1.0  -0.1416
  C  C319  1  0.683600  0.474900  0.668800  1.0  -0.0948
  C  C320  1  0.720800  0.382500  0.673800  1.0  0.0436
  C  C321  1  0.727200  0.375900  0.583700  1.0  -0.1511
  C  C322  1  0.736500  0.336600  0.724900  1.0  0.0465
  C  C323  1  0.768300  0.217100  0.816600  1.0  0.0101
  C  C324  1  0.724900  0.220200  0.808800  1.0  -0.2117
  C  C325  1  0.779900  0.332800  0.734900  1.0  -0.0953
  C  C326  1  0.710500  0.284900  0.763100  1.0  -0.0978
  C  C327  1  0.795600  0.276100  0.780400  1.0  -0.1246
  C  C328  1  0.784900  0.141400  0.861400  1.0  0.0612
  C  C329  1  0.763900  0.086800  0.903300  1.0  -0.1054
  C  C330  1  0.830300  0.010600  0.911300  1.0  0.1572
  C  C331  1  0.655700  0.498900  0.451000  1.0  0.1087
  C  C332  1  0.560800  0.506800  0.705600  1.0  0.0466
  C  C333  1  0.675000  0.010200  0.030700  1.0  0.1371
  C  C334  1  0.581000  0.761400  0.084400  1.0  -0.0814
  C  C335  1  0.590400  0.616100  0.004900  1.0  0.7016
  C  C336  1  0.741700  0.835700  0.132000  1.0  -0.0794
  C  C337  1  0.578000  0.770800  0.036500  1.0  -0.007
  C  C338  1  0.564500  0.915300  0.013600  1.0  -0.0262
  C  C339  1  0.552900  0.053600  0.041700  1.0  -0.1845
  C  C340  1  0.690400  0.965700  0.078500  1.0  0.0823
  C  C341  1  0.553900  0.039600  0.093600  1.0  -0.0314
  C  C342  1  0.567000  0.895900  0.118000  1.0  -0.0429
  C  C343  1  0.569900  0.881600  0.174400  1.0  0.0573
  C  C344  1  0.656700  0.154800  0.017100  1.0  0.0795
  C  C345  1  0.537700  0.213500  0.016500  1.0  0.6626
  C  C346  1  0.592000  0.821100  0.331900  1.0  0.742
  C  C347  1  0.582400  0.836900  0.275800  1.0  0.0675
  C  C348  1  0.586000  0.735000  0.195400  1.0  -0.1074
  C  C349  1  0.593600  0.720300  0.242000  1.0  -0.0961
  C  C350  1  0.668500  0.018000  0.120500  1.0  -0.1416
  C  C351  1  0.683600  0.974900  0.168800  1.0  -0.0948
  C  C352  1  0.720800  0.882500  0.173800  1.0  0.0436
  C  C353  1  0.727200  0.875900  0.083700  1.0  -0.1511
  C  C354  1  0.736500  0.836600  0.224900  1.0  0.0465
  C  C355  1  0.768300  0.717100  0.316600  1.0  0.0101
  C  C356  1  0.724900  0.720200  0.308800  1.0  -0.2117
  C  C357  1  0.779900  0.832800  0.234900  1.0  -0.0953
  C  C358  1  0.710500  0.784900  0.263100  1.0  -0.0978
  C  C359  1  0.795600  0.776100  0.280400  1.0  -0.1246
  C  C360  1  0.784900  0.641400  0.361400  1.0  0.0612
  C  C361  1  0.763900  0.586800  0.403300  1.0  -0.1054
  C  C362  1  0.830300  0.510600  0.411300  1.0  0.1572
  C  C363  1  0.655700  0.998900  0.951000  1.0  0.1087
  C  C364  1  0.560800  0.006800  0.205600  1.0  0.0466
  C  C365  1  0.325000  0.489800  0.530700  1.0  0.1368
  C  C366  1  0.419000  0.738600  0.584400  1.0  -0.0835
  C  C367  1  0.409600  0.883900  0.504900  1.0  0.7011
  C  C368  1  0.258300  0.664300  0.632000  1.0  -0.079
  C  C369  1  0.422000  0.729200  0.536500  1.0  -0.0057
  C  C370  1  0.435500  0.584700  0.513600  1.0  -0.0265
  C  C371  1  0.447100  0.446400  0.541700  1.0  -0.1848
  C  C372  1  0.309600  0.534300  0.578500  1.0  0.0817
  C  C373  1  0.446100  0.460400  0.593600  1.0  -0.0291
  C  C374  1  0.433000  0.604100  0.618000  1.0  -0.0433
  C  C375  1  0.430100  0.618400  0.674400  1.0  0.0569
  C  C376  1  0.343300  0.345200  0.517100  1.0  0.0794
  C  C377  1  0.462300  0.286500  0.516500  1.0  0.6612
  C  C378  1  0.408000  0.678900  0.831900  1.0  0.7424
  C  C379  1  0.417600  0.663100  0.775800  1.0  0.0662
  C  C380  1  0.414000  0.765000  0.695400  1.0  -0.1058
  C  C381  1  0.406400  0.779700  0.742000  1.0  -0.0958
  C  C382  1  0.331500  0.482000  0.620500  1.0  -0.1424
  C  C383  1  0.316400  0.525100  0.668800  1.0  -0.0951
  C  C384  1  0.279200  0.617500  0.673800  1.0  0.0432
  C  C385  1  0.272800  0.624100  0.583700  1.0  -0.1509
  C  C386  1  0.263500  0.663400  0.724900  1.0  0.0464
  C  C387  1  0.231700  0.782900  0.816600  1.0  0.0095
  C  C388  1  0.275100  0.779800  0.808800  1.0  -0.2116
  C  C389  1  0.220100  0.667200  0.734900  1.0  -0.0961
  C  C390  1  0.289500  0.715100  0.763100  1.0  -0.0972
  C  C391  1  0.204400  0.723900  0.780400  1.0  -0.1247
  C  C392  1  0.215100  0.858600  0.861400  1.0  0.0607
  C  C393  1  0.236100  0.913200  0.903300  1.0  -0.1056
  C  C394  1  0.169700  0.989400  0.911300  1.0  0.1541
  C  C395  1  0.344300  0.501100  0.451000  1.0  0.1093
  C  C396  1  0.439200  0.493200  0.705600  1.0  0.0464
  C  C397  1  0.325000  0.989800  0.030700  1.0  0.1368
  C  C398  1  0.419000  0.238600  0.084400  1.0  -0.0835
  C  C399  1  0.409600  0.383900  0.004900  1.0  0.7011
  C  C400  1  0.258300  0.164300  0.132000  1.0  -0.079
  C  C401  1  0.422000  0.229200  0.036500  1.0  -0.0057
  C  C402  1  0.435500  0.084700  0.013600  1.0  -0.0265
  C  C403  1  0.447100  0.946400  0.041700  1.0  -0.1848
  C  C404  1  0.309600  0.034300  0.078500  1.0  0.0817
  C  C405  1  0.446100  0.960400  0.093600  1.0  -0.0291
  C  C406  1  0.433000  0.104100  0.118000  1.0  -0.0433
  C  C407  1  0.430100  0.118400  0.174400  1.0  0.0569
  C  C408  1  0.343300  0.845200  0.017100  1.0  0.0794
  C  C409  1  0.462300  0.786500  0.016500  1.0  0.6612
  C  C410  1  0.408000  0.178900  0.331900  1.0  0.7424
  C  C411  1  0.417600  0.163100  0.275800  1.0  0.0662
  C  C412  1  0.414000  0.265000  0.195400  1.0  -0.1058
  C  C413  1  0.406400  0.279700  0.242000  1.0  -0.0958
  C  C414  1  0.331500  0.982000  0.120500  1.0  -0.1424
  C  C415  1  0.316400  0.025100  0.168800  1.0  -0.0951
  C  C416  1  0.279200  0.117500  0.173800  1.0  0.0432
  C  C417  1  0.272800  0.124100  0.083700  1.0  -0.1509
  C  C418  1  0.263500  0.163400  0.224900  1.0  0.0464
  C  C419  1  0.231700  0.282900  0.316600  1.0  0.0095
  C  C420  1  0.275100  0.279800  0.308800  1.0  -0.2116
  C  C421  1  0.220100  0.167200  0.234900  1.0  -0.0961
  C  C422  1  0.289500  0.215100  0.263100  1.0  -0.0972
  C  C423  1  0.204400  0.223900  0.280400  1.0  -0.1247
  C  C424  1  0.215100  0.358600  0.361400  1.0  0.0607
  C  C425  1  0.236100  0.413200  0.403300  1.0  -0.1056
  C  C426  1  0.169700  0.489400  0.411300  1.0  0.1541
  C  C427  1  0.344300  0.001100  0.951000  1.0  0.1093
  C  C428  1  0.439200  0.993200  0.205600  1.0  0.0464
  N  N429  1  0.173900  0.088300  0.488200  1.0  -0.2682
  N  N430  1  0.324800  0.411100  0.867500  1.0  -0.3063
  N  N431  1  0.144300  0.843800  0.469000  1.0  -0.4339
  N  N432  1  0.292000  0.495100  0.932300  1.0  -0.2405
  N  N433  1  0.066900  0.012000  0.757100  1.0  -0.3505
  N  N434  1  0.173900  0.588300  0.988200  1.0  -0.2682
  N  N435  1  0.324800  0.911100  0.367500  1.0  -0.3063
  N  N436  1  0.144300  0.343800  0.969000  1.0  -0.4339
  N  N437  1  0.292000  0.995100  0.432300  1.0  -0.2405
  N  N438  1  0.066900  0.512000  0.257100  1.0  -0.3505
  N  N439  1  0.826100  0.911700  0.488200  1.0  -0.2684
  N  N440  1  0.675200  0.588900  0.867500  1.0  -0.301
  N  N441  1  0.855700  0.156200  0.469000  1.0  -0.4335
  N  N442  1  0.708000  0.504900  0.932300  1.0  -0.2401
  N  N443  1  0.933100  0.988000  0.757100  1.0  -0.3489
  N  N444  1  0.826100  0.411700  0.988200  1.0  -0.2684
  N  N445  1  0.675200  0.088900  0.367500  1.0  -0.301
  N  N446  1  0.855700  0.656200  0.969000  1.0  -0.4335
  N  N447  1  0.708000  0.004900  0.432300  1.0  -0.2401
  N  N448  1  0.933100  0.488000  0.257100  1.0  -0.3489
  N  N449  1  0.673900  0.411700  0.488200  1.0  -0.2677
  N  N450  1  0.824800  0.088900  0.867500  1.0  -0.3059
  N  N451  1  0.644300  0.656200  0.469000  1.0  -0.4334
  N  N452  1  0.792000  0.004900  0.932300  1.0  -0.2411
  N  N453  1  0.566900  0.488000  0.757100  1.0  -0.35
  N  N454  1  0.673900  0.911700  0.988200  1.0  -0.2677
  N  N455  1  0.824800  0.588900  0.367500  1.0  -0.3059
  N  N456  1  0.644300  0.156200  0.969000  1.0  -0.4334
  N  N457  1  0.792000  0.504900  0.432300  1.0  -0.2411
  N  N458  1  0.566900  0.988000  0.257100  1.0  -0.35
  N  N459  1  0.326100  0.588300  0.488200  1.0  -0.269
  N  N460  1  0.175200  0.911100  0.867500  1.0  -0.3014
  N  N461  1  0.355700  0.343800  0.469000  1.0  -0.4332
  N  N462  1  0.208000  0.995100  0.932300  1.0  -0.2394
  N  N463  1  0.433100  0.512000  0.757100  1.0  -0.3495
  N  N464  1  0.326100  0.088300  0.988200  1.0  -0.269
  N  N465  1  0.175200  0.411100  0.367500  1.0  -0.3014
  N  N466  1  0.355700  0.843800  0.969000  1.0  -0.4332
  N  N467  1  0.208000  0.495100  0.432300  1.0  -0.2394
  N  N468  1  0.433100  0.012000  0.257100  1.0  -0.3495
  O  O469  1  0.069900  0.408400  0.464700  1.0  -0.6759
  O  O470  1  0.119700  0.477200  0.518500  1.0  -0.6608
  O  O471  1  0.079100  0.070600  0.860400  1.0  -0.5822
  O  O472  1  0.112700  0.303100  0.845800  1.0  -0.6147
  O  O473  1  0.042600  0.773800  0.468500  1.0  -0.7315
  O  O474  1  0.021200  0.671500  0.541700  1.0  -0.5567
  O  O475  1  0.069900  0.908400  0.964700  1.0  -0.6759
  O  O476  1  0.119700  0.977200  0.018500  1.0  -0.6608
  O  O477  1  0.079100  0.570600  0.360400  1.0  -0.5822
  O  O478  1  0.112700  0.803100  0.345800  1.0  -0.6147
  O  O479  1  0.042600  0.273800  0.968500  1.0  -0.7315
  O  O480  1  0.021200  0.171500  0.041700  1.0  -0.5567
  O  O481  1  0.930100  0.591600  0.464700  1.0  -0.6764
  O  O482  1  0.880300  0.522800  0.518500  1.0  -0.6606
  O  O483  1  0.920900  0.929400  0.860400  1.0  -0.5825
  O  O484  1  0.887300  0.696900  0.845800  1.0  -0.6108
  O  O485  1  0.957400  0.226200  0.468500  1.0  -0.7303
  O  O486  1  0.978800  0.328500  0.541700  1.0  -0.5569
  O  O487  1  0.930100  0.091600  0.964700  1.0  -0.6764
  O  O488  1  0.880300  0.022800  0.018500  1.0  -0.6606
  O  O489  1  0.920900  0.429400  0.360400  1.0  -0.5825
  O  O490  1  0.887300  0.196900  0.345800  1.0  -0.6108
  O  O491  1  0.957400  0.726200  0.968500  1.0  -0.7303
  O  O492  1  0.978800  0.828500  0.041700  1.0  -0.5569
  O  O493  1  0.569900  0.091600  0.464700  1.0  -0.6761
  O  O494  1  0.619700  0.022800  0.518500  1.0  -0.6604
  O  O495  1  0.579100  0.429400  0.860400  1.0  -0.5837
  O  O496  1  0.612700  0.196900  0.845800  1.0  -0.6122
  O  O497  1  0.542600  0.726200  0.468500  1.0  -0.7311
  O  O498  1  0.521200  0.828500  0.541700  1.0  -0.5576
  O  O499  1  0.569900  0.591600  0.964700  1.0  -0.6761
  O  O500  1  0.619700  0.522800  0.018500  1.0  -0.6604
  O  O501  1  0.579100  0.929400  0.360400  1.0  -0.5837
  O  O502  1  0.612700  0.696900  0.345800  1.0  -0.6122
  O  O503  1  0.542600  0.226200  0.968500  1.0  -0.7311
  O  O504  1  0.521200  0.328500  0.041700  1.0  -0.5576
  O  O505  1  0.430100  0.908400  0.464700  1.0  -0.6762
  O  O506  1  0.380300  0.977200  0.518500  1.0  -0.6607
  O  O507  1  0.420900  0.570600  0.860400  1.0  -0.5818
  O  O508  1  0.387300  0.803100  0.845800  1.0  -0.6109
  O  O509  1  0.457400  0.273800  0.468500  1.0  -0.7307
  O  O510  1  0.478800  0.171500  0.541700  1.0  -0.5554
  O  O511  1  0.430100  0.408400  0.964700  1.0  -0.6762
  O  O512  1  0.380300  0.477200  0.018500  1.0  -0.6607
  O  O513  1  0.420900  0.070600  0.360400  1.0  -0.5818
  O  O514  1  0.387300  0.303100  0.345800  1.0  -0.6109
  O  O515  1  0.457400  0.773800  0.968500  1.0  -0.7307
  O  O516  1  0.478800  0.671500  0.041700  1.0  -0.5554
