# generated using pymatgen
data_USiH17(C9O2)3
_symmetry_space_group_name_H-M   'P 1'
_cell_length_a   10.42370000
_cell_length_b   14.72810000
_cell_length_c   25.59900000
_cell_angle_alpha   81.66500000
_cell_angle_beta   82.26000000
_cell_angle_gamma   71.66700000
_symmetry_Int_Tables_number   1
_chemical_formula_structural   USiH17(C9O2)3
_chemical_formula_sum   'U4 Si4 H68 C108 O24'
_cell_volume   3674.47878360
_cell_formula_units_Z   4
loop_
 _symmetry_equiv_pos_site_id
 _symmetry_equiv_pos_as_xyz
  1  'x, y, z'
loop_
 _atom_site_type_symbol
 _atom_site_label
 _atom_site_symmetry_multiplicity
 _atom_site_fract_x
 _atom_site_fract_y
 _atom_site_fract_z
 _atom_site_occupancy
 _atom_site_charge
  U  U1  1  0.035880  0.574060  0.325230  1.0  1.7575
  U  U2  1  0.525210  0.098640  0.826110  1.0  1.7739
  U  U3  1  0.964120  0.425940  0.674770  1.0  1.7568
  U  U4  1  0.474790  0.901360  0.173890  1.0  1.7728
  Si  Si5  1  0.721900  0.110170  0.472360  1.0  0.9699
  Si  Si6  1  0.157200  0.637000  0.969180  1.0  0.9485
  Si  Si7  1  0.278100  0.889830  0.527640  1.0  0.9707
  Si  Si8  1  0.842800  0.363000  0.030820  1.0  0.9482
  H  H9  1  0.796400  0.201400  0.556000  1.0  0.0898
  H  H10  1  0.736500  0.207800  0.646900  1.0  0.1152
  H  H11  1  0.868300  0.910500  0.508600  1.0  0.0874
  H  H12  1  0.931900  0.763000  0.474100  1.0  0.1153
  H  H13  1  0.435900  0.214600  0.514300  1.0  0.0834
  H  H14  1  0.254800  0.334000  0.477800  1.0  0.1056
  H  H15  1  0.467500  0.319600  0.332700  1.0  0.1136
  H  H16  1  0.653600  0.210500  0.371200  1.0  0.089
  H  H17  1  0.630700  0.032800  0.388900  1.0  0.0973
  H  H18  1  0.692100  0.883700  0.354900  1.0  0.1058
  H  H19  1  0.797700  0.289000  0.460600  1.0  0.1028
  H  H20  1  0.976900  0.029800  0.405800  1.0  0.0875
  H  H21  1  0.558000  0.998800  0.649100  1.0  0.1116
  H  H22  1  0.604500  0.002100  0.557000  1.0  0.096
  H  H23  1  0.365800  0.286200  0.978200  1.0  0.1076
  H  H24  1  0.281600  0.559400  0.149600  1.0  0.0951
  H  H25  1  0.876800  0.663800  0.139100  1.0  0.1032
  H  H26  1  0.970400  0.345000  0.415700  1.0  0.1143
  H  H27  1  0.146700  0.243600  0.365600  1.0  0.1082
  H  H28  1  0.143000  0.089600  0.357500  1.0  0.1059
  H  H29  1  0.912800  0.673400  0.047600  1.0  0.1113
  H  H30  1  0.319800  0.575800  0.059300  1.0  0.0954
  H  H31  1  0.455700  0.437100  0.839600  1.0  0.131
  H  H32  1  0.335400  0.578900  0.875200  1.0  0.0874
  H  H33  1  0.240500  0.431900  0.012100  1.0  0.0861
  H  H34  1  0.315000  0.742400  0.012400  1.0  0.0894
  H  H35  1  0.427100  0.852800  0.978400  1.0  0.1046
  H  H36  1  0.026800  0.549900  0.902300  1.0  0.0761
  H  H37  1  0.836400  0.597500  0.856500  1.0  0.1103
  H  H38  1  0.333900  0.844000  0.834200  1.0  0.1176
  H  H39  1  0.924500  0.804000  0.958300  1.0  0.0961
  H  H40  1  0.692900  0.753900  0.857100  1.0  0.1034
  H  H41  1  0.188300  0.752500  0.871300  1.0  0.0891
  H  H42  1  0.718800  0.853700  0.914500  1.0  0.1265
  H  H43  1  0.203600  0.798600  0.444000  1.0  0.0896
  H  H44  1  0.263500  0.792200  0.353100  1.0  0.1142
  H  H45  1  0.131700  0.089500  0.491400  1.0  0.0865
  H  H46  1  0.068100  0.237000  0.525900  1.0  0.1154
  H  H47  1  0.564100  0.785400  0.485700  1.0  0.0848
  H  H48  1  0.745200  0.666000  0.522200  1.0  0.1057
  H  H49  1  0.532500  0.680400  0.667300  1.0  0.1131
  H  H50  1  0.346400  0.789500  0.628800  1.0  0.0897
  H  H51  1  0.369300  0.967200  0.611100  1.0  0.0972
  H  H52  1  0.307900  0.116300  0.645100  1.0  0.1058
  H  H53  1  0.202300  0.711000  0.539400  1.0  0.1025
  H  H54  1  0.023100  0.970200  0.594200  1.0  0.0863
  H  H55  1  0.442000  0.001200  0.350900  1.0  0.1121
  H  H56  1  0.395500  0.997900  0.443000  1.0  0.0964
  H  H57  1  0.634200  0.713800  0.021800  1.0  0.1079
  H  H58  1  0.718400  0.440600  0.850400  1.0  0.0944
  H  H59  1  0.123200  0.336200  0.860900  1.0  0.1023
  H  H60  1  0.029600  0.655000  0.584300  1.0  0.1147
  H  H61  1  0.853300  0.756400  0.634400  1.0  0.107
  H  H62  1  0.857000  0.910400  0.642500  1.0  0.1055
  H  H63  1  0.087200  0.326600  0.952400  1.0  0.1112
  H  H64  1  0.680200  0.424200  0.940700  1.0  0.0964
  H  H65  1  0.544300  0.562900  0.160400  1.0  0.1302
  H  H66  1  0.664600  0.421100  0.124800  1.0  0.0873
  H  H67  1  0.759500  0.568100  0.987900  1.0  0.0862
  H  H68  1  0.685000  0.257600  0.987600  1.0  0.0893
  H  H69  1  0.572900  0.147200  0.021600  1.0  0.1049
  H  H70  1  0.973200  0.450100  0.097700  1.0  0.0768
  H  H71  1  0.163600  0.402500  0.143500  1.0  0.11
  H  H72  1  0.666100  0.156000  0.165800  1.0  0.1171
  H  H73  1  0.075500  0.196000  0.041700  1.0  0.0948
  H  H74  1  0.307100  0.246100  0.142900  1.0  0.1043
  H  H75  1  0.811700  0.247500  0.128700  1.0  0.0898
  H  H76  1  0.281200  0.146300  0.085500  1.0  0.1264
  C  C77  1  0.744500  0.162100  0.574600  1.0  -0.0549
  C  C78  1  0.704000  0.104300  0.546800  1.0  -0.2681
  C  C79  1  0.711800  0.164600  0.629000  1.0  -0.0765
  C  C80  1  0.642500  0.103100  0.656700  1.0  -0.1193
  C  C81  1  0.748400  0.988100  0.451400  1.0  -0.3356
  C  C82  1  0.834400  0.906100  0.476700  1.0  -0.0135
  C  C83  1  0.871700  0.818200  0.456700  1.0  -0.0938
  C  C84  1  0.819200  0.811600  0.409800  1.0  -0.1291
  C  C85  1  0.870600  0.720500  0.384000  1.0  0.6815
  C  C86  1  0.598000  0.104400  0.714400  1.0  0.6832
  C  C87  1  0.053700  0.595300  0.212700  1.0  0.6953
  C  C88  1  0.565500  0.199300  0.447600  1.0  -0.2676
  C  C89  1  0.444800  0.237300  0.477700  1.0  -0.0214
  C  C90  1  0.335500  0.308300  0.455800  1.0  -0.0644
  C  C91  1  0.343500  0.341600  0.402100  1.0  -0.1399
  C  C92  1  0.462100  0.301200  0.369900  1.0  -0.0844
  C  C93  1  0.571500  0.234100  0.392900  1.0  -0.046
  C  C94  1  0.693200  0.978400  0.405900  1.0  -0.0517
  C  C95  1  0.729800  0.889600  0.385600  1.0  -0.0872
  C  C96  1  0.869000  0.247100  0.440400  1.0  -0.0725
  C  C97  1  0.866000  0.152000  0.439000  1.0  -0.2709
  C  C98  1  0.973300  0.094500  0.407700  1.0  -0.0496
  C  C99  1  0.604000  0.041600  0.630000  1.0  -0.1275
  C  C100  1  0.633000  0.043000  0.575300  1.0  -0.0473
  C  C101  1  0.488700  0.254100  0.882800  1.0  0.658
  C  C102  1  0.422800  0.348400  0.906400  1.0  -0.1062
  C  C103  1  0.359400  0.345800  0.957200  1.0  -0.1298
  C  C104  1  0.230300  0.416500  0.378000  1.0  0.6783
  C  C105  1  0.076800  0.607200  0.154600  1.0  -0.0062
  C  C106  1  0.206200  0.583100  0.129000  1.0  -0.1089
  C  C107  1  0.966900  0.643800  0.122600  1.0  -0.0696
  C  C108  1  0.971100  0.280900  0.413600  1.0  -0.1002
  C  C109  1  0.074800  0.221100  0.383500  1.0  -0.1056
  C  C110  1  0.074000  0.129300  0.379600  1.0  -0.0733
  C  C111  1  0.988000  0.651000  0.068300  1.0  -0.0409
  C  C112  1  0.229000  0.592200  0.075300  1.0  -0.0675
  C  C113  1  0.413200  0.435700  0.874800  1.0  -0.1094
  C  C114  1  0.340600  0.519500  0.896300  1.0  -0.0427
  C  C115  1  0.284800  0.433300  0.977200  1.0  -0.0388
  C  C116  1  0.234700  0.734500  0.945800  1.0  -0.1022
  C  C117  1  0.311100  0.766500  0.976000  1.0  -0.0592
  C  C118  1  0.380700  0.831100  0.955600  1.0  -0.1101
  C  C119  1  0.122100  0.625100  0.043100  1.0  -0.3526
  C  C120  1  0.273900  0.521600  0.947400  1.0  -0.3124
  C  C121  1  0.000600  0.671800  0.934300  1.0  -0.1454
  C  C122  1  0.967400  0.613500  0.904100  1.0  -0.0526
  C  C123  1  0.853900  0.641100  0.876500  1.0  -0.1132
  C  C124  1  0.322500  0.828800  0.871500  1.0  -0.0891
  C  C125  1  0.383700  0.863900  0.903600  1.0  -0.0632
  C  C126  1  0.908000  0.761200  0.937500  1.0  -0.0602
  C  C127  1  0.766900  0.732400  0.878400  1.0  -0.1213
  C  C128  1  0.240900  0.769000  0.893900  1.0  -0.0838
  C  C129  1  0.784000  0.793000  0.910200  1.0  -0.1507
  C  C130  1  0.450400  0.936600  0.879000  1.0  0.6662
  C  C131  1  0.255500  0.837900  0.425400  1.0  -0.0529
  C  C132  1  0.296000  0.895700  0.453200  1.0  -0.269
  C  C133  1  0.288200  0.835400  0.371000  1.0  -0.0755
  C  C134  1  0.357500  0.896900  0.343300  1.0  -0.1186
  C  C135  1  0.251600  0.011900  0.548600  1.0  -0.3345
  C  C136  1  0.165600  0.093900  0.523300  1.0  -0.0137
  C  C137  1  0.128300  0.181800  0.543300  1.0  -0.0916
  C  C138  1  0.180800  0.188400  0.590200  1.0  -0.129
  C  C139  1  0.129400  0.279500  0.616000  1.0  0.6822
  C  C140  1  0.402000  0.895600  0.285600  1.0  0.6822
  C  C141  1  0.946300  0.404700  0.787300  1.0  0.6957
  C  C142  1  0.434500  0.800700  0.552400  1.0  -0.2666
  C  C143  1  0.555200  0.762700  0.522300  1.0  -0.0216
  C  C144  1  0.664500  0.691700  0.544200  1.0  -0.0639
  C  C145  1  0.656500  0.658400  0.597900  1.0  -0.141
  C  C146  1  0.537900  0.698800  0.630100  1.0  -0.0854
  C  C147  1  0.428500  0.765900  0.607100  1.0  -0.0477
  C  C148  1  0.306800  0.021600  0.594100  1.0  -0.0543
  C  C149  1  0.270200  0.110400  0.614400  1.0  -0.0869
  C  C150  1  0.131000  0.752900  0.559600  1.0  -0.0686
  C  C151  1  0.134000  0.848000  0.561000  1.0  -0.2717
  C  C152  1  0.026700  0.905500  0.592300  1.0  -0.0494
  C  C153  1  0.396000  0.958400  0.370000  1.0  -0.13
  C  C154  1  0.367000  0.957000  0.424700  1.0  -0.0474
  C  C155  1  0.511300  0.745900  0.117200  1.0  0.6576
  C  C156  1  0.577200  0.651600  0.093600  1.0  -0.105
  C  C157  1  0.640600  0.654200  0.042800  1.0  -0.1274
  C  C158  1  0.769700  0.583500  0.622000  1.0  0.6786
  C  C159  1  0.923200  0.392800  0.845400  1.0  -0.0092
  C  C160  1  0.793800  0.416900  0.871000  1.0  -0.1062
  C  C161  1  0.033100  0.356200  0.877400  1.0  -0.0696
  C  C162  1  0.028900  0.719100  0.586400  1.0  -0.1039
  C  C163  1  0.925200  0.778900  0.616500  1.0  -0.1071
  C  C164  1  0.926000  0.870700  0.620400  1.0  -0.0687
  C  C165  1  0.012000  0.349000  0.931700  1.0  -0.0417
  C  C166  1  0.771000  0.407800  0.924700  1.0  -0.0658
  C  C167  1  0.586800  0.564300  0.125200  1.0  -0.1075
  C  C168  1  0.659400  0.480500  0.103700  1.0  -0.0419
  C  C169  1  0.715200  0.566700  0.022800  1.0  -0.0401
  C  C170  1  0.765300  0.265500  0.054200  1.0  -0.1017
  C  C171  1  0.688900  0.233500  0.024000  1.0  -0.0609
  C  C172  1  0.619300  0.168900  0.044400  1.0  -0.1102
  C  C173  1  0.877900  0.374900  0.956900  1.0  -0.353
  C  C174  1  0.726100  0.478400  0.052600  1.0  -0.3119
  C  C175  1  0.999400  0.328200  0.065700  1.0  -0.1435
  C  C176  1  0.032600  0.386500  0.095900  1.0  -0.053
  C  C177  1  0.146100  0.358900  0.123500  1.0  -0.1124
  C  C178  1  0.677500  0.171200  0.128500  1.0  -0.0916
  C  C179  1  0.616300  0.136100  0.096400  1.0  -0.0639
  C  C180  1  0.092000  0.238800  0.062500  1.0  -0.0615
  C  C181  1  0.233100  0.267600  0.121600  1.0  -0.1197
  C  C182  1  0.759100  0.231000  0.106100  1.0  -0.0836
  C  C183  1  0.216000  0.207000  0.089800  1.0  -0.1527
  C  C184  1  0.549600  0.063400  0.121000  1.0  0.6644
  O  O185  1  0.478000  0.947100  0.829200  1.0  -0.6779
  O  O186  1  0.551600  0.039700  0.739500  1.0  -0.655
  O  O187  1  0.610000  0.171600  0.738900  1.0  -0.6767
  O  O188  1  0.485100  0.176400  0.908000  1.0  -0.5866
  O  O189  1  0.541400  0.257300  0.834100  1.0  -0.6429
  O  O190  1  0.469000  0.996500  0.906000  1.0  -0.64
  O  O191  1  0.848400  0.720700  0.337000  1.0  -0.6669
  O  O192  1  0.942700  0.642300  0.409100  1.0  -0.6354
  O  O193  1  0.134900  0.470400  0.405300  1.0  -0.6268
  O  O194  1  0.232200  0.427200  0.326700  1.0  -0.6681
  O  O195  1  0.136500  0.524300  0.238500  1.0  -0.6375
  O  O196  1  0.957100  0.653300  0.238000  1.0  -0.619
  O  O197  1  0.522000  0.052900  0.170800  1.0  -0.6776
  O  O198  1  0.448400  0.960300  0.260500  1.0  -0.6527
  O  O199  1  0.390000  0.828400  0.261100  1.0  -0.6775
  O  O200  1  0.514900  0.823600  0.092000  1.0  -0.5862
  O  O201  1  0.458600  0.742700  0.165900  1.0  -0.6464
  O  O202  1  0.531000  0.003500  0.094000  1.0  -0.6388
  O  O203  1  0.151600  0.279300  0.663000  1.0  -0.6657
  O  O204  1  0.057300  0.357700  0.590900  1.0  -0.6351
  O  O205  1  0.865100  0.529600  0.594700  1.0  -0.6284
  O  O206  1  0.767800  0.572800  0.673300  1.0  -0.6684
  O  O207  1  0.863500  0.475700  0.761500  1.0  -0.6383
  O  O208  1  0.042900  0.346700  0.762000  1.0  -0.62
