# generated using pymatgen
data_U3Si2H34(C9O2)6
_symmetry_space_group_name_H-M   'P 1'
_cell_length_a   7.26300000
_cell_length_b   24.54000000
_cell_length_c   17.71800000
_cell_angle_alpha   90.00000000
_cell_angle_beta   90.72600000
_cell_angle_gamma   90.00000000
_symmetry_Int_Tables_number   1
_chemical_formula_structural   U3Si2H34(C9O2)6
_chemical_formula_sum   'U6 Si4 H68 C108 O24'
_cell_volume   3157.69685497
_cell_formula_units_Z   2
loop_
 _symmetry_equiv_pos_site_id
 _symmetry_equiv_pos_as_xyz
  1  'x, y, z'
loop_
 _atom_site_type_symbol
 _atom_site_label
 _atom_site_symmetry_multiplicity
 _atom_site_fract_x
 _atom_site_fract_y
 _atom_site_fract_z
 _atom_site_occupancy
 _atom_site_charge
  U  U1  1  0.413150  0.544570  0.135930  1.0  1.5715
  U  U2  1  0.586850  0.044570  0.364070  1.0  1.566
  U  U3  1  0.586850  0.455430  0.864070  1.0  1.5657
  U  U4  1  0.413150  0.955430  0.635930  1.0  1.5717
  U  U5  1  0.000000  0.000000  0.000000  1.0  1.7089
  U  U6  1  0.000000  0.500000  0.500000  1.0  1.7089
  Si  Si7  1  0.666300  0.800030  0.334820  1.0  0.9806
  Si  Si8  1  0.333700  0.300030  0.165180  1.0  0.9804
  Si  Si9  1  0.333700  0.199970  0.665180  1.0  0.9804
  Si  Si10  1  0.666300  0.699970  0.834820  1.0  0.9806
  H  H11  1  0.550600  0.949200  0.155100  1.0  0.1122
  H  H12  1  0.715900  0.899800  0.244800  1.0  0.0846
  H  H13  1  0.152900  0.832800  0.152800  1.0  0.1073
  H  H14  1  0.317300  0.784300  0.245000  1.0  0.0897
  H  H15  1  0.673400  0.733300  0.192700  1.0  0.0855
  H  H16  1  0.863000  0.666000  0.143800  1.0  0.1084
  H  H17  1  0.165700  0.668000  0.338600  1.0  0.1087
  H  H18  1  0.974100  0.735300  0.384600  1.0  0.0783
  H  H19  1  0.997700  0.848100  0.280800  1.0  0.0883
  H  H20  1  0.213500  0.912500  0.319700  1.0  0.1012
  H  H21  1  0.956200  0.926000  0.521200  1.0  0.0957
  H  H22  1  0.728800  0.865900  0.479600  1.0  0.0938
  H  H23  1  0.550300  0.692200  0.396500  1.0  0.1083
  H  H24  1  0.328300  0.663800  0.484000  1.0  0.0916
  H  H25  1  0.158600  0.727400  0.550800  1.0  0.11
  H  H26  1  0.196200  0.819200  0.527600  1.0  0.0908
  H  H27  1  0.408800  0.849400  0.440400  1.0  0.0879
  H  H28  1  0.449400  0.449200  0.344900  1.0  0.113
  H  H29  1  0.284100  0.399800  0.255200  1.0  0.0854
  H  H30  1  0.847100  0.332800  0.347200  1.0  0.1076
  H  H31  1  0.682700  0.284300  0.255000  1.0  0.0893
  H  H32  1  0.326600  0.233300  0.307300  1.0  0.0865
  H  H33  1  0.137000  0.166000  0.356200  1.0  0.1078
  H  H34  1  0.834300  0.168000  0.161400  1.0  0.1083
  H  H35  1  0.025900  0.235300  0.115400  1.0  0.0783
  H  H36  1  0.002300  0.348100  0.219200  1.0  0.0879
  H  H37  1  0.786500  0.412500  0.180300  1.0  0.1013
  H  H38  1  0.043800  0.426000  0.978800  1.0  0.096
  H  H39  1  0.271200  0.365900  0.020400  1.0  0.0939
  H  H40  1  0.449700  0.192200  0.103500  1.0  0.1081
  H  H41  1  0.671700  0.163800  0.016000  1.0  0.0912
  H  H42  1  0.841400  0.227400  0.949200  1.0  0.1101
  H  H43  1  0.803800  0.319200  0.972400  1.0  0.0908
  H  H44  1  0.591200  0.349400  0.059600  1.0  0.0882
  H  H45  1  0.449400  0.050800  0.844900  1.0  0.1123
  H  H46  1  0.284100  0.100200  0.755200  1.0  0.0858
  H  H47  1  0.847100  0.167200  0.847200  1.0  0.1072
  H  H48  1  0.682700  0.215700  0.755000  1.0  0.0899
  H  H49  1  0.326600  0.266700  0.807300  1.0  0.0865
  H  H50  1  0.137000  0.334000  0.856200  1.0  0.1078
  H  H51  1  0.834300  0.332000  0.661400  1.0  0.1089
  H  H52  1  0.025900  0.264700  0.615400  1.0  0.0781
  H  H53  1  0.002300  0.151900  0.719200  1.0  0.0878
  H  H54  1  0.786500  0.087500  0.680300  1.0  0.1016
  H  H55  1  0.043800  0.074000  0.478800  1.0  0.0962
  H  H56  1  0.271200  0.134100  0.520400  1.0  0.0938
  H  H57  1  0.449700  0.307800  0.603500  1.0  0.1089
  H  H58  1  0.671700  0.336200  0.516000  1.0  0.0911
  H  H59  1  0.841400  0.272600  0.449200  1.0  0.1104
  H  H60  1  0.803800  0.180800  0.472400  1.0  0.0908
  H  H61  1  0.591200  0.150600  0.559600  1.0  0.0881
  H  H62  1  0.550600  0.550800  0.655100  1.0  0.112
  H  H63  1  0.715900  0.600200  0.744800  1.0  0.0849
  H  H64  1  0.152900  0.667200  0.652800  1.0  0.1072
  H  H65  1  0.317300  0.715700  0.745000  1.0  0.09
  H  H66  1  0.673400  0.766700  0.692700  1.0  0.0853
  H  H67  1  0.863000  0.834000  0.643800  1.0  0.1086
  H  H68  1  0.165700  0.832000  0.838600  1.0  0.1084
  H  H69  1  0.974100  0.764700  0.884600  1.0  0.0779
  H  H70  1  0.997700  0.651900  0.780800  1.0  0.088
  H  H71  1  0.213500  0.587500  0.819700  1.0  0.1011
  H  H72  1  0.956200  0.574000  0.021200  1.0  0.0961
  H  H73  1  0.728800  0.634100  0.979600  1.0  0.0938
  H  H74  1  0.550300  0.807800  0.896500  1.0  0.1085
  H  H75  1  0.328300  0.836200  0.984000  1.0  0.0913
  H  H76  1  0.158600  0.772600  0.050800  1.0  0.1098
  H  H77  1  0.196200  0.680800  0.027600  1.0  0.0909
  H  H78  1  0.408800  0.650600  0.940400  1.0  0.088
  C  C79  1  0.502300  0.915900  0.173800  1.0  -0.0915
  C  C80  1  0.600600  0.886200  0.227200  1.0  -0.0577
  C  C81  1  0.535100  0.836900  0.256100  1.0  -0.3173
  C  C82  1  0.330700  0.896600  0.147300  1.0  -0.1022
  C  C83  1  0.265300  0.847000  0.172500  1.0  -0.155
  C  C84  1  0.365200  0.817900  0.227000  1.0  -0.0341
  C  C85  1  0.219600  0.931100  0.093900  1.0  0.6369
  C  C86  1  0.803900  0.742300  0.292700  1.0  -0.2276
  C  C87  1  0.774400  0.720400  0.222300  1.0  -0.0446
  C  C88  1  0.887300  0.680200  0.192800  1.0  -0.1054
  C  C89  1  0.037500  0.660600  0.235600  1.0  -0.1268
  C  C90  1  0.067000  0.681400  0.308200  1.0  -0.1193
  C  C91  1  0.952100  0.721400  0.335300  1.0  -0.0212
  C  C92  1  0.166300  0.620200  0.204300  1.0  0.6513
  C  C93  1  0.837100  0.850300  0.375400  1.0  -0.2639
  C  C94  1  0.986600  0.864700  0.329000  1.0  -0.0582
  C  C95  1  0.117100  0.902400  0.352500  1.0  -0.0725
  C  C96  1  0.107500  0.925700  0.424800  1.0  -0.1421
  C  C97  1  0.962700  0.911000  0.471900  1.0  -0.0635
  C  C98  1  0.828300  0.874600  0.447400  1.0  -0.0637
  C  C99  1  0.257400  0.962400  0.450100  1.0  0.6656
  C  C100  1  0.502200  0.775100  0.407200  1.0  -0.2815
  C  C101  1  0.478200  0.718400  0.422100  1.0  -0.0592
  C  C102  1  0.346700  0.701600  0.475200  1.0  -0.1037
  C  C103  1  0.244800  0.739200  0.514400  1.0  -0.1189
  C  C104  1  0.267800  0.793400  0.500900  1.0  -0.0798
  C  C105  1  0.394700  0.811400  0.448400  1.0  -0.0634
  C  C106  1  0.497700  0.415900  0.326200  1.0  -0.0924
  C  C107  1  0.399400  0.386200  0.272800  1.0  -0.057
  C  C108  1  0.464900  0.336900  0.243900  1.0  -0.3159
  C  C109  1  0.669300  0.396600  0.352700  1.0  -0.1023
  C  C110  1  0.734700  0.347000  0.327500  1.0  -0.1559
  C  C111  1  0.634800  0.317900  0.273000  1.0  -0.0341
  C  C112  1  0.780400  0.431100  0.406100  1.0  0.635
  C  C113  1  0.196100  0.242300  0.207300  1.0  -0.227
  C  C114  1  0.225600  0.220400  0.277700  1.0  -0.0421
  C  C115  1  0.112700  0.180200  0.307200  1.0  -0.1063
  C  C116  1  0.962500  0.160600  0.264400  1.0  -0.1265
  C  C117  1  0.933000  0.181400  0.191800  1.0  -0.119
  C  C118  1  0.047900  0.221400  0.164700  1.0  -0.0239
  C  C119  1  0.833700  0.120200  0.295700  1.0  0.6502
  C  C120  1  0.162900  0.350300  0.124600  1.0  -0.2597
  C  C121  1  0.013400  0.364700  0.171000  1.0  -0.0598
  C  C122  1  0.882900  0.402400  0.147500  1.0  -0.0728
  C  C123  1  0.892500  0.425700  0.075200  1.0  -0.1429
  C  C124  1  0.037300  0.411000  0.028100  1.0  -0.0632
  C  C125  1  0.171700  0.374600  0.052600  1.0  -0.065
  C  C126  1  0.742600  0.462400  0.049900  1.0  0.668
  C  C127  1  0.497800  0.275100  0.092800  1.0  -0.2839
  C  C128  1  0.521800  0.218400  0.077900  1.0  -0.0592
  C  C129  1  0.653300  0.201600  0.024800  1.0  -0.1038
  C  C130  1  0.755200  0.239200  0.985600  1.0  -0.1187
  C  C131  1  0.732200  0.293400  0.999100  1.0  -0.0803
  C  C132  1  0.605300  0.311400  0.051600  1.0  -0.0641
  C  C133  1  0.497700  0.084100  0.826200  1.0  -0.0909
  C  C134  1  0.399400  0.113800  0.772800  1.0  -0.0562
  C  C135  1  0.464900  0.163100  0.743900  1.0  -0.3154
  C  C136  1  0.669300  0.103400  0.852700  1.0  -0.1035
  C  C137  1  0.734700  0.153000  0.827500  1.0  -0.1559
  C  C138  1  0.634800  0.182100  0.773000  1.0  -0.0322
  C  C139  1  0.780400  0.068900  0.906100  1.0  0.6372
  C  C140  1  0.196100  0.257700  0.707300  1.0  -0.2279
  C  C141  1  0.225600  0.279600  0.777700  1.0  -0.0426
  C  C142  1  0.112700  0.319800  0.807200  1.0  -0.1058
  C  C143  1  0.962500  0.339400  0.764400  1.0  -0.1252
  C  C144  1  0.933000  0.318600  0.691800  1.0  -0.119
  C  C145  1  0.047900  0.278600  0.664700  1.0  -0.0239
  C  C146  1  0.833700  0.379800  0.795700  1.0  0.65
  C  C147  1  0.162900  0.149700  0.624600  1.0  -0.2591
  C  C148  1  0.013400  0.135300  0.671000  1.0  -0.0594
  C  C149  1  0.882900  0.097600  0.647500  1.0  -0.072
  C  C150  1  0.892500  0.074300  0.575200  1.0  -0.1441
  C  C151  1  0.037300  0.089000  0.528100  1.0  -0.0628
  C  C152  1  0.171700  0.125400  0.552600  1.0  -0.0647
  C  C153  1  0.742600  0.037600  0.549900  1.0  0.667
  C  C154  1  0.497800  0.224900  0.592800  1.0  -0.2841
  C  C155  1  0.521800  0.281600  0.577900  1.0  -0.0604
  C  C156  1  0.653300  0.298400  0.524800  1.0  -0.1028
  C  C157  1  0.755200  0.260800  0.485600  1.0  -0.1194
  C  C158  1  0.732200  0.206600  0.499100  1.0  -0.0799
  C  C159  1  0.605300  0.188600  0.551600  1.0  -0.0639
  C  C160  1  0.502300  0.584100  0.673800  1.0  -0.0918
  C  C161  1  0.600600  0.613800  0.727200  1.0  -0.0582
  C  C162  1  0.535100  0.663100  0.756100  1.0  -0.3167
  C  C163  1  0.330700  0.603400  0.647300  1.0  -0.1038
  C  C164  1  0.265300  0.653000  0.672500  1.0  -0.1552
  C  C165  1  0.365200  0.682100  0.727000  1.0  -0.0325
  C  C166  1  0.219600  0.568900  0.593900  1.0  0.638
  C  C167  1  0.803900  0.757700  0.792700  1.0  -0.2276
  C  C168  1  0.774400  0.779600  0.722300  1.0  -0.0449
  C  C169  1  0.887300  0.819800  0.692800  1.0  -0.1048
  C  C170  1  0.037500  0.839400  0.735600  1.0  -0.1257
  C  C171  1  0.067000  0.818600  0.808200  1.0  -0.1191
  C  C172  1  0.952100  0.778600  0.835300  1.0  -0.0218
  C  C173  1  0.166300  0.879800  0.704300  1.0  0.6509
  C  C174  1  0.837100  0.649700  0.875400  1.0  -0.263
  C  C175  1  0.986600  0.635300  0.829000  1.0  -0.0581
  C  C176  1  0.117100  0.597600  0.852500  1.0  -0.0736
  C  C177  1  0.107500  0.574300  0.924800  1.0  -0.1438
  C  C178  1  0.962700  0.589000  0.971900  1.0  -0.0627
  C  C179  1  0.828300  0.625400  0.947400  1.0  -0.0637
  C  C180  1  0.257400  0.537600  0.950100  1.0  0.6648
  C  C181  1  0.502200  0.724900  0.907200  1.0  -0.2825
  C  C182  1  0.478200  0.781600  0.922100  1.0  -0.0599
  C  C183  1  0.346700  0.798400  0.975200  1.0  -0.1027
  C  C184  1  0.244800  0.760800  0.014400  1.0  -0.1197
  C  C185  1  0.267800  0.706600  0.000900  1.0  -0.0799
  C  C186  1  0.394700  0.688600  0.948400  1.0  -0.0631
  O  O187  1  0.277400  0.973700  0.520400  1.0  -0.7493
  O  O188  1  0.139300  0.602100  0.136100  1.0  -0.6938
  O  O189  1  0.305700  0.603000  0.241100  1.0  -0.6881
  O  O190  1  0.364700  0.981900  0.400700  1.0  -0.7421
  O  O191  1  0.271300  0.979400  0.077600  1.0  -0.6854
  O  O192  1  0.070500  0.913300  0.063500  1.0  -0.6698
  O  O193  1  0.722600  0.473700  0.979600  1.0  -0.7506
  O  O194  1  0.860700  0.102100  0.363900  1.0  -0.6921
  O  O195  1  0.694300  0.103000  0.258900  1.0  -0.6908
  O  O196  1  0.635300  0.481900  0.099300  1.0  -0.74
  O  O197  1  0.728700  0.479400  0.422400  1.0  -0.6855
  O  O198  1  0.929500  0.413300  0.436500  1.0  -0.6672
  O  O199  1  0.722600  0.026300  0.479600  1.0  -0.7505
  O  O200  1  0.860700  0.397900  0.863900  1.0  -0.6938
  O  O201  1  0.694300  0.397000  0.758900  1.0  -0.6909
  O  O202  1  0.635300  0.018100  0.599300  1.0  -0.7384
  O  O203  1  0.728700  0.020600  0.922400  1.0  -0.6827
  O  O204  1  0.929500  0.086700  0.936500  1.0  -0.6688
  O  O205  1  0.277400  0.526300  0.020400  1.0  -0.7486
  O  O206  1  0.139300  0.897900  0.636100  1.0  -0.6955
  O  O207  1  0.305700  0.897000  0.741100  1.0  -0.6893
  O  O208  1  0.364700  0.518100  0.900700  1.0  -0.741
  O  O209  1  0.271300  0.520600  0.577600  1.0  -0.683
  O  O210  1  0.070500  0.586700  0.563500  1.0  -0.6701
