# generated using pymatgen
data_Na2ZnH16C28(SO6)2
_symmetry_space_group_name_H-M   'P 1'
_cell_length_a   24.70400000
_cell_length_b   5.70980000
_cell_length_c   26.33500000
_cell_angle_alpha   90.00000000
_cell_angle_beta   114.87000000
_cell_angle_gamma   90.00000000
_symmetry_Int_Tables_number   1
_chemical_formula_structural   Na2ZnH16C28(SO6)2
_chemical_formula_sum   'Na8 Zn4 H64 C112 S8 O48'
_cell_volume   3370.19741155
_cell_formula_units_Z   4
loop_
 _symmetry_equiv_pos_site_id
 _symmetry_equiv_pos_as_xyz
  1  'x, y, z'
loop_
 _atom_site_type_symbol
 _atom_site_label
 _atom_site_symmetry_multiplicity
 _atom_site_fract_x
 _atom_site_fract_y
 _atom_site_fract_z
 _atom_site_occupancy
 _atom_site_charge
  Na  Na1  1  0.650160  0.216300  0.425020  1.0  0.9657
  Na  Na2  1  0.229200  0.779100  0.452510  1.0  0.9486
  Na  Na3  1  0.349840  0.716300  0.074980  1.0  0.9653
  Na  Na4  1  0.770800  0.279100  0.047490  1.0  0.9735
  Na  Na5  1  0.349840  0.783700  0.574980  1.0  0.9654
  Na  Na6  1  0.770800  0.220900  0.547490  1.0  0.9733
  Na  Na7  1  0.650160  0.283700  0.925020  1.0  0.9655
  Na  Na8  1  0.229200  0.720900  0.952510  1.0  0.9484
  Zn  Zn9  1  0.257230  0.223600  0.539890  1.0  1.0147
  Zn  Zn10  1  0.742770  0.723600  0.960110  1.0  1.0144
  Zn  Zn11  1  0.742770  0.776400  0.460110  1.0  1.0144
  Zn  Zn12  1  0.257230  0.276400  0.039890  1.0  1.0148
  H  H13  1  0.163800  0.103500  0.575200  1.0  0.1147
  H  H14  1  0.115200  0.214000  0.628300  1.0  0.1186
  H  H15  1  0.168700  0.622200  0.718400  1.0  0.1346
  H  H16  1  0.213200  0.505300  0.662500  1.0  0.1044
  H  H17  1  0.003400  0.227900  0.632800  1.0  0.1215
  H  H18  1  0.907600  0.112900  0.576500  1.0  0.1057
  H  H19  1  0.931700  0.516000  0.662400  1.0  0.1054
  H  H20  1  0.028900  0.628400  0.720200  1.0  0.1195
  H  H21  1  0.346400  0.654100  0.438700  1.0  0.1206
  H  H22  1  0.414500  0.724300  0.402600  1.0  0.1184
  H  H23  1  0.483900  0.082400  0.448600  1.0  0.1204
  H  H24  1  0.410900  0.007700  0.481700  1.0  0.1046
  H  H25  1  0.420700  0.693900  0.298800  1.0  0.1219
  H  H26  1  0.366600  0.595100  0.205900  1.0  0.1067
  H  H27  1  0.448300  0.971400  0.233800  1.0  0.0916
  H  H28  1  0.504000  0.065800  0.326700  1.0  0.1323
  H  H29  1  0.836200  0.603500  0.924800  1.0  0.1145
  H  H30  1  0.884800  0.714000  0.871700  1.0  0.1177
  H  H31  1  0.831300  0.122200  0.781600  1.0  0.1351
  H  H32  1  0.786800  0.005300  0.837500  1.0  0.1044
  H  H33  1  0.996600  0.727900  0.867200  1.0  0.1213
  H  H34  1  0.092400  0.612900  0.923500  1.0  0.1057
  H  H35  1  0.068300  0.016000  0.837600  1.0  0.1049
  H  H36  1  0.971100  0.128400  0.779800  1.0  0.1193
  H  H37  1  0.653600  0.154100  0.061300  1.0  0.1198
  H  H38  1  0.585500  0.224300  0.097400  1.0  0.1169
  H  H39  1  0.516100  0.582400  0.051400  1.0  0.1211
  H  H40  1  0.589100  0.507700  0.018300  1.0  0.1041
  H  H41  1  0.579300  0.193900  0.201200  1.0  0.1216
  H  H42  1  0.633400  0.095100  0.294100  1.0  0.1071
  H  H43  1  0.551700  0.471400  0.266200  1.0  0.0925
  H  H44  1  0.496000  0.565800  0.173300  1.0  0.1317
  H  H45  1  0.836200  0.896500  0.424800  1.0  0.1147
  H  H46  1  0.884800  0.786000  0.371700  1.0  0.1178
  H  H47  1  0.831300  0.377800  0.281600  1.0  0.1354
  H  H48  1  0.786800  0.494700  0.337500  1.0  0.105
  H  H49  1  0.996600  0.772100  0.367200  1.0  0.1214
  H  H50  1  0.092400  0.887100  0.423500  1.0  0.106
  H  H51  1  0.068300  0.484000  0.337600  1.0  0.1049
  H  H52  1  0.971100  0.371600  0.279800  1.0  0.1196
  H  H53  1  0.653600  0.345900  0.561300  1.0  0.1201
  H  H54  1  0.585500  0.275700  0.597400  1.0  0.117
  H  H55  1  0.516100  0.917600  0.551400  1.0  0.1206
  H  H56  1  0.589100  0.992300  0.518300  1.0  0.1042
  H  H57  1  0.579300  0.306100  0.701200  1.0  0.1214
  H  H58  1  0.633400  0.404900  0.794100  1.0  0.1073
  H  H59  1  0.551700  0.028600  0.766200  1.0  0.0925
  H  H60  1  0.496000  0.934200  0.673300  1.0  0.1321
  H  H61  1  0.163800  0.396500  0.075200  1.0  0.1144
  H  H62  1  0.115200  0.286000  0.128300  1.0  0.1179
  H  H63  1  0.168700  0.877800  0.218400  1.0  0.1347
  H  H64  1  0.213200  0.994700  0.162500  1.0  0.1044
  H  H65  1  0.003400  0.272100  0.132800  1.0  0.1214
  H  H66  1  0.907600  0.387100  0.076500  1.0  0.1056
  H  H67  1  0.931700  0.984000  0.162400  1.0  0.1051
  H  H68  1  0.028900  0.871600  0.220200  1.0  0.1193
  H  H69  1  0.346400  0.845900  0.938700  1.0  0.12
  H  H70  1  0.414500  0.775700  0.902600  1.0  0.1178
  H  H71  1  0.483900  0.417600  0.948600  1.0  0.1203
  H  H72  1  0.410900  0.492300  0.981700  1.0  0.1044
  H  H73  1  0.420700  0.806100  0.798800  1.0  0.1221
  H  H74  1  0.366600  0.904900  0.705900  1.0  0.1066
  H  H75  1  0.448300  0.528600  0.733800  1.0  0.0917
  H  H76  1  0.504000  0.434200  0.826700  1.0  0.1319
  C  C77  1  0.220800  0.697000  0.575000  1.0  0.7226
  C  C78  1  0.193100  0.789300  0.612700  1.0  -0.1264
  C  C79  1  0.163800  0.005400  0.603400  1.0  -0.0206
  C  C80  1  0.135600  0.072300  0.635400  1.0  -0.0313
  C  C81  1  0.137100  0.929700  0.678800  1.0  -0.1946
  C  C82  1  0.167000  0.717000  0.689100  1.0  -0.0721
  C  C83  1  0.193800  0.649200  0.656000  1.0  -0.0313
  C  C84  1  0.025100  0.938800  0.681400  1.0  -0.2105
  C  C85  1  0.989100  0.084600  0.638700  1.0  -0.06
  C  C86  1  0.932100  0.015100  0.605200  1.0  -0.0123
  C  C87  1  0.910600  0.804100  0.613300  1.0  -0.1241
  C  C88  1  0.946500  0.658300  0.656600  1.0  -0.0185
  C  C89  1  0.004400  0.724900  0.691200  1.0  -0.0199
  C  C90  1  0.849200  0.714200  0.571300  1.0  0.7413
  C  C91  1  0.330100  0.280300  0.490500  1.0  0.6705
  C  C92  1  0.373300  0.325100  0.466000  1.0  -0.1379
  C  C93  1  0.373800  0.538900  0.440800  1.0  -0.0044
  C  C94  1  0.414400  0.580800  0.419200  1.0  -0.0389
  C  C95  1  0.455600  0.408300  0.422000  1.0  -0.1544
  C  C96  1  0.456000  0.196200  0.446000  1.0  -0.0852
  C  C97  1  0.412700  0.154100  0.467000  1.0  -0.0269
  C  C98  1  0.466700  0.388500  0.322100  1.0  -0.1675
  C  C99  1  0.425900  0.548100  0.285800  1.0  -0.0211
  C  C100  1  0.393400  0.488300  0.230300  1.0  0.0087
  C  C101  1  0.400400  0.270200  0.210600  1.0  -0.1457
  C  C102  1  0.442600  0.115600  0.247200  1.0  -0.0192
  C  C103  1  0.476100  0.170600  0.302800  1.0  -0.0766
  C  C104  1  0.362000  0.193000  0.150800  1.0  0.7074
  C  C105  1  0.779200  0.197000  0.925000  1.0  0.7225
  C  C106  1  0.806900  0.289300  0.887300  1.0  -0.126
  C  C107  1  0.836200  0.505400  0.896600  1.0  -0.0227
  C  C108  1  0.864400  0.572300  0.864600  1.0  -0.033
  C  C109  1  0.862900  0.429700  0.821200  1.0  -0.1933
  C  C110  1  0.833000  0.217000  0.810900  1.0  -0.0712
  C  C111  1  0.806200  0.149200  0.844000  1.0  -0.0317
  C  C112  1  0.974900  0.438800  0.818600  1.0  -0.2094
  C  C113  1  0.010900  0.584600  0.861300  1.0  -0.062
  C  C114  1  0.067900  0.515100  0.894800  1.0  -0.0127
  C  C115  1  0.089400  0.304100  0.886700  1.0  -0.1235
  C  C116  1  0.053500  0.158300  0.843400  1.0  -0.0185
  C  C117  1  0.995600  0.224900  0.808800  1.0  -0.0189
  C  C118  1  0.150800  0.214200  0.928700  1.0  0.7409
  C  C119  1  0.669900  0.780300  0.009500  1.0  0.669
  C  C120  1  0.626700  0.825100  0.034000  1.0  -0.1397
  C  C121  1  0.626200  0.038900  0.059200  1.0  -0.0035
  C  C122  1  0.585600  0.080800  0.080800  1.0  -0.0394
  C  C123  1  0.544400  0.908300  0.078000  1.0  -0.155
  C  C124  1  0.544000  0.696200  0.054000  1.0  -0.0854
  C  C125  1  0.587300  0.654100  0.033000  1.0  -0.0257
  C  C126  1  0.533300  0.888500  0.177900  1.0  -0.1668
  C  C127  1  0.574100  0.048100  0.214200  1.0  -0.0234
  C  C128  1  0.606600  0.988300  0.269700  1.0  0.01
  C  C129  1  0.599600  0.770200  0.289400  1.0  -0.1439
  C  C130  1  0.557400  0.615600  0.252800  1.0  -0.019
  C  C131  1  0.523900  0.670600  0.197200  1.0  -0.0745
  C  C132  1  0.638000  0.693000  0.349200  1.0  0.7085
  C  C133  1  0.779200  0.303000  0.425000  1.0  0.7226
  C  C134  1  0.806900  0.210700  0.387300  1.0  -0.1261
  C  C135  1  0.836200  0.994600  0.396600  1.0  -0.0221
  C  C136  1  0.864400  0.927700  0.364600  1.0  -0.0333
  C  C137  1  0.862900  0.070300  0.321200  1.0  -0.1936
  C  C138  1  0.833000  0.283000  0.310900  1.0  -0.072
  C  C139  1  0.806200  0.350800  0.344000  1.0  -0.0313
  C  C140  1  0.974900  0.061200  0.318600  1.0  -0.2094
  C  C141  1  0.010900  0.915400  0.361300  1.0  -0.0618
  C  C142  1  0.067900  0.984900  0.394800  1.0  -0.0122
  C  C143  1  0.089400  0.195900  0.386700  1.0  -0.1236
  C  C144  1  0.053500  0.341700  0.343400  1.0  -0.0185
  C  C145  1  0.995600  0.275100  0.308800  1.0  -0.0195
  C  C146  1  0.150800  0.285800  0.428700  1.0  0.7414
  C  C147  1  0.669900  0.719700  0.509500  1.0  0.6689
  C  C148  1  0.626700  0.674900  0.534000  1.0  -0.1397
  C  C149  1  0.626200  0.461100  0.559200  1.0  -0.0032
  C  C150  1  0.585600  0.419200  0.580800  1.0  -0.0392
  C  C151  1  0.544400  0.591700  0.578000  1.0  -0.1544
  C  C152  1  0.544000  0.803800  0.554000  1.0  -0.0855
  C  C153  1  0.587300  0.845900  0.533000  1.0  -0.025
  C  C154  1  0.533300  0.611500  0.677900  1.0  -0.1669
  C  C155  1  0.574100  0.451900  0.714200  1.0  -0.022
  C  C156  1  0.606600  0.511700  0.769700  1.0  0.0101
  C  C157  1  0.599600  0.729800  0.789400  1.0  -0.144
  C  C158  1  0.557400  0.884400  0.752800  1.0  -0.0199
  C  C159  1  0.523900  0.829400  0.697200  1.0  -0.0745
  C  C160  1  0.638000  0.807000  0.849200  1.0  0.7084
  C  C161  1  0.220800  0.803000  0.075000  1.0  0.7227
  C  C162  1  0.193100  0.710700  0.112700  1.0  -0.1264
  C  C163  1  0.163800  0.494600  0.103400  1.0  -0.0194
  C  C164  1  0.135600  0.427700  0.135400  1.0  -0.0325
  C  C165  1  0.137100  0.570300  0.178800  1.0  -0.1944
  C  C166  1  0.167000  0.783000  0.189100  1.0  -0.0727
  C  C167  1  0.193800  0.850800  0.156000  1.0  -0.0322
  C  C168  1  0.025100  0.561200  0.181400  1.0  -0.2101
  C  C169  1  0.989100  0.415400  0.138700  1.0  -0.0594
  C  C170  1  0.932100  0.484900  0.105200  1.0  -0.0119
  C  C171  1  0.910600  0.695900  0.113300  1.0  -0.124
  C  C172  1  0.946500  0.841700  0.156600  1.0  -0.0179
  C  C173  1  0.004400  0.775100  0.191200  1.0  -0.0205
  C  C174  1  0.849200  0.785800  0.071300  1.0  0.7417
  C  C175  1  0.330100  0.219700  0.990500  1.0  0.6704
  C  C176  1  0.373300  0.174900  0.966000  1.0  -0.1379
  C  C177  1  0.373800  0.961100  0.940800  1.0  -0.0034
  C  C178  1  0.414400  0.919200  0.919200  1.0  -0.0385
  C  C179  1  0.455600  0.091700  0.922000  1.0  -0.1546
  C  C180  1  0.456000  0.303800  0.946000  1.0  -0.0854
  C  C181  1  0.412700  0.345900  0.967000  1.0  -0.0261
  C  C182  1  0.466700  0.111500  0.822100  1.0  -0.1674
  C  C183  1  0.425900  0.951900  0.785800  1.0  -0.0206
  C  C184  1  0.393400  0.011700  0.730300  1.0  0.0093
  C  C185  1  0.400400  0.229800  0.710600  1.0  -0.1458
  C  C186  1  0.442600  0.384400  0.747200  1.0  -0.0186
  C  C187  1  0.476100  0.329400  0.802800  1.0  -0.0762
  C  C188  1  0.362000  0.307000  0.650800  1.0  0.7073
  S  S189  1  0.100700  0.019400  0.721250  1.0  1.1233
  S  S190  1  0.506560  0.463900  0.392740  1.0  1.089
  S  S191  1  0.899300  0.519400  0.778750  1.0  1.1248
  S  S192  1  0.493440  0.963900  0.107260  1.0  1.0884
  S  S193  1  0.899300  0.980600  0.278750  1.0  1.1247
  S  S194  1  0.493440  0.536100  0.607260  1.0  1.0885
  S  S195  1  0.100700  0.480600  0.221250  1.0  1.1238
  S  S196  1  0.506560  0.036100  0.892740  1.0  1.0891
  O  O197  1  0.241700  0.837900  0.551030  1.0  -0.8148
  O  O198  1  0.220300  0.479600  0.570970  1.0  -0.5967
  O  O199  1  0.838100  0.506300  0.574900  1.0  -0.69
  O  O200  1  0.816890  0.859800  0.537350  1.0  -0.6325
  O  O201  1  0.123800  0.882600  0.771580  1.0  -0.5692
  O  O202  1  0.103700  0.271500  0.724700  1.0  -0.5858
  O  O203  1  0.305450  0.455900  0.502190  1.0  -0.765
  O  O204  1  0.518960  0.711700  0.396480  1.0  -0.5789
  O  O205  1  0.554870  0.297900  0.417970  1.0  -0.73
  O  O206  1  0.332300  0.351800  0.116870  1.0  -0.6355
  O  O207  1  0.361500  0.982800  0.139970  1.0  -0.6361
  O  O208  1  0.319280  0.073300  0.500060  1.0  -0.8139
  O  O209  1  0.758300  0.337900  0.948970  1.0  -0.814
  O  O210  1  0.779700  0.979600  0.929030  1.0  -0.5965
  O  O211  1  0.161900  0.006300  0.925100  1.0  -0.6898
  O  O212  1  0.183110  0.359800  0.962650  1.0  -0.6333
  O  O213  1  0.876200  0.382600  0.728420  1.0  -0.566
  O  O214  1  0.896300  0.771500  0.775300  1.0  -0.5859
  O  O215  1  0.694550  0.955900  0.997810  1.0  -0.7631
  O  O216  1  0.481040  0.211700  0.103520  1.0  -0.5789
  O  O217  1  0.445130  0.797900  0.082030  1.0  -0.7306
  O  O218  1  0.667700  0.851800  0.383130  1.0  -0.6353
  O  O219  1  0.638500  0.482800  0.360030  1.0  -0.6355
  O  O220  1  0.680720  0.573300  0.999940  1.0  -0.8113
  O  O221  1  0.758300  0.162100  0.448970  1.0  -0.8147
  O  O222  1  0.779700  0.520400  0.429030  1.0  -0.5962
  O  O223  1  0.161900  0.493700  0.425100  1.0  -0.6904
  O  O224  1  0.183110  0.140200  0.462650  1.0  -0.6337
  O  O225  1  0.876200  0.117400  0.228420  1.0  -0.5656
  O  O226  1  0.896300  0.728500  0.275300  1.0  -0.5843
  O  O227  1  0.694550  0.544100  0.497810  1.0  -0.7654
  O  O228  1  0.481040  0.288300  0.603520  1.0  -0.5784
  O  O229  1  0.445130  0.702100  0.582030  1.0  -0.7309
  O  O230  1  0.667700  0.648200  0.883130  1.0  -0.6358
  O  O231  1  0.638500  0.017200  0.860030  1.0  -0.6355
  O  O232  1  0.680720  0.926700  0.499940  1.0  -0.8116
  O  O233  1  0.241700  0.662100  0.051030  1.0  -0.816
  O  O234  1  0.220300  0.020400  0.070970  1.0  -0.5964
  O  O235  1  0.838100  0.993700  0.074900  1.0  -0.6908
  O  O236  1  0.816890  0.640200  0.037350  1.0  -0.6326
  O  O237  1  0.123800  0.617400  0.271580  1.0  -0.5688
  O  O238  1  0.103700  0.228500  0.224700  1.0  -0.5849
  O  O239  1  0.305450  0.044100  0.002190  1.0  -0.768
  O  O240  1  0.518960  0.788300  0.896480  1.0  -0.5789
  O  O241  1  0.554870  0.202100  0.917970  1.0  -0.7296
  O  O242  1  0.332300  0.148200  0.616870  1.0  -0.636
  O  O243  1  0.361500  0.517200  0.639970  1.0  -0.6357
  O  O244  1  0.319280  0.426700  0.000060  1.0  -0.8152
