# generated using pymatgen
data_InC24N2O5
_symmetry_space_group_name_H-M   'P 1'
_cell_length_a   33.43170000
_cell_length_b   7.15200000
_cell_length_c   16.71810000
_cell_angle_alpha   90.00000000
_cell_angle_beta   90.00000000
_cell_angle_gamma   90.00000000
_symmetry_Int_Tables_number   1
_chemical_formula_structural   InC24N2O5
_chemical_formula_sum   'In4 C96 N8 O20'
_cell_volume   3997.35653096
_cell_formula_units_Z   4
loop_
 _symmetry_equiv_pos_site_id
 _symmetry_equiv_pos_as_xyz
  1  'x, y, z'
loop_
 _atom_site_type_symbol
 _atom_site_label
 _atom_site_symmetry_multiplicity
 _atom_site_fract_x
 _atom_site_fract_y
 _atom_site_fract_z
 _atom_site_occupancy
 _atom_site_charge
  In  In1  1  0.750000  0.250000  0.000000  1.0  1.6868
  In  In2  1  0.250000  0.750000  0.000000  1.0  1.6866
  In  In3  1  0.250000  0.250000  0.000000  1.0  1.6868
  In  In4  1  0.750000  0.750000  0.000000  1.0  1.6866
  C  C5  1  0.879610  0.157800  0.739200  1.0  0.109
  C  C6  1  0.849990  0.156300  0.800560  1.0  0.0566
  C  C7  1  0.379610  0.657800  0.739200  1.0  0.109
  C  C8  1  0.349990  0.656300  0.800560  1.0  0.0563
  C  C9  1  0.120390  0.842200  0.739200  1.0  0.109
  C  C10  1  0.150010  0.843700  0.800560  1.0  0.0571
  C  C11  1  0.620390  0.342200  0.739200  1.0  0.109
  C  C12  1  0.650010  0.343700  0.800560  1.0  0.0569
  C  C13  1  0.120390  0.157800  0.260800  1.0  0.1087
  C  C14  1  0.150010  0.156300  0.199440  1.0  0.0519
  C  C15  1  0.620390  0.657800  0.260800  1.0  0.1087
  C  C16  1  0.650010  0.656300  0.199440  1.0  0.054
  C  C17  1  0.879610  0.842200  0.260800  1.0  0.1096
  C  C18  1  0.849990  0.843700  0.199440  1.0  0.0582
  C  C19  1  0.379610  0.342200  0.260800  1.0  0.1096
  C  C20  1  0.349990  0.343700  0.199440  1.0  0.0578
  C  C21  1  0.120390  0.842200  0.260800  1.0  0.1089
  C  C22  1  0.150010  0.843700  0.199440  1.0  0.0573
  C  C23  1  0.620390  0.342200  0.260800  1.0  0.1089
  C  C24  1  0.650010  0.343700  0.199440  1.0  0.0571
  C  C25  1  0.879610  0.157800  0.260800  1.0  0.109
  C  C26  1  0.849990  0.156300  0.199440  1.0  0.0563
  C  C27  1  0.379610  0.657800  0.260800  1.0  0.109
  C  C28  1  0.349990  0.656300  0.199440  1.0  0.0561
  C  C29  1  0.879610  0.842200  0.739200  1.0  0.1097
  C  C30  1  0.849990  0.843700  0.800560  1.0  0.0582
  C  C31  1  0.379610  0.342200  0.739200  1.0  0.1097
  C  C32  1  0.349990  0.343700  0.800560  1.0  0.0578
  C  C33  1  0.120390  0.157800  0.739200  1.0  0.1086
  C  C34  1  0.150010  0.156300  0.800560  1.0  0.0522
  C  C35  1  0.620390  0.657800  0.739200  1.0  0.1086
  C  C36  1  0.650010  0.656300  0.800560  1.0  0.0543
  C  C37  1  0.801600  0.000000  0.897700  1.0  0.5832
  C  C38  1  0.966650  0.000000  0.672800  1.0  0.1641
  C  C39  1  0.979740  0.000000  0.752300  1.0  -0.0391
  C  C40  1  0.912340  0.000000  0.567900  1.0  0.1452
  C  C41  1  0.873670  0.000000  0.540670  1.0  -0.0134
  C  C42  1  0.929290  0.000000  0.642100  1.0  0.0908
  C  C43  1  0.896740  0.000000  0.704000  1.0  -0.0701
  C  C44  1  0.833320  0.000000  0.835600  1.0  -0.0653
  C  C45  1  0.301600  0.500000  0.897700  1.0  0.5834
  C  C46  1  0.466650  0.500000  0.672800  1.0  0.1641
  C  C47  1  0.479740  0.500000  0.752300  1.0  -0.0391
  C  C48  1  0.412340  0.500000  0.567900  1.0  0.1452
  C  C49  1  0.373670  0.500000  0.540670  1.0  -0.0134
  C  C50  1  0.429290  0.500000  0.642100  1.0  0.0908
  C  C51  1  0.396740  0.500000  0.704000  1.0  -0.0701
  C  C52  1  0.333333  0.500000  0.835600  1.0  -0.063
  C  C53  1  0.198400  0.000000  0.897700  1.0  0.58
  C  C54  1  0.033350  0.000000  0.672800  1.0  0.1635
  C  C55  1  0.020260  0.000000  0.752300  1.0  -0.0386
  C  C56  1  0.087660  0.000000  0.567900  1.0  0.1456
  C  C57  1  0.126330  0.000000  0.540670  1.0  -0.0143
  C  C58  1  0.070710  0.000000  0.642100  1.0  0.0915
  C  C59  1  0.103260  0.000000  0.704000  1.0  -0.0697
  C  C60  1  0.166680  0.000000  0.835600  1.0  -0.0656
  C  C61  1  0.698400  0.500000  0.897700  1.0  0.5802
  C  C62  1  0.533350  0.500000  0.672800  1.0  0.1635
  C  C63  1  0.520260  0.500000  0.752300  1.0  -0.0386
  C  C64  1  0.587660  0.500000  0.567900  1.0  0.1456
  C  C65  1  0.626330  0.500000  0.540670  1.0  -0.0143
  C  C66  1  0.570710  0.500000  0.642100  1.0  0.0915
  C  C67  1  0.603260  0.500000  0.704000  1.0  -0.0697
  C  C68  1  0.666667  0.500000  0.835600  1.0  -0.0633
  C  C69  1  0.198400  0.000000  0.102300  1.0  0.5798
  C  C70  1  0.033350  0.000000  0.327200  1.0  0.1641
  C  C71  1  0.020260  0.000000  0.247700  1.0  -0.0329
  C  C72  1  0.087660  0.000000  0.432100  1.0  0.1458
  C  C73  1  0.126330  0.000000  0.459330  1.0  -0.0138
  C  C74  1  0.070710  0.000000  0.357900  1.0  0.0916
  C  C75  1  0.103260  0.000000  0.296000  1.0  -0.0692
  C  C76  1  0.166680  0.000000  0.164400  1.0  -0.066
  C  C77  1  0.698400  0.500000  0.102300  1.0  0.58
  C  C78  1  0.533350  0.500000  0.327200  1.0  0.1639
  C  C79  1  0.520260  0.500000  0.247700  1.0  -0.0329
  C  C80  1  0.587660  0.500000  0.432100  1.0  0.1458
  C  C81  1  0.626330  0.500000  0.459330  1.0  -0.0138
  C  C82  1  0.570710  0.500000  0.357900  1.0  0.0916
  C  C83  1  0.603260  0.500000  0.296000  1.0  -0.0692
  C  C84  1  0.666667  0.500000  0.164400  1.0  -0.0638
  C  C85  1  0.801600  0.000000  0.102300  1.0  0.582
  C  C86  1  0.966650  0.000000  0.327200  1.0  0.1643
  C  C87  1  0.979740  0.000000  0.247700  1.0  -0.0335
  C  C88  1  0.912340  0.000000  0.432100  1.0  0.1451
  C  C89  1  0.873670  0.000000  0.459330  1.0  -0.0132
  C  C90  1  0.929290  0.000000  0.357900  1.0  0.0909
  C  C91  1  0.896740  0.000000  0.296000  1.0  -0.0697
  C  C92  1  0.833320  0.000000  0.164400  1.0  -0.0658
  C  C93  1  0.301600  0.500000  0.102300  1.0  0.5822
  C  C94  1  0.466650  0.500000  0.327200  1.0  0.1644
  C  C95  1  0.479740  0.500000  0.247700  1.0  -0.0335
  C  C96  1  0.412340  0.500000  0.432100  1.0  0.1451
  C  C97  1  0.373670  0.500000  0.459330  1.0  -0.0132
  C  C98  1  0.429290  0.500000  0.357900  1.0  0.0909
  C  C99  1  0.396740  0.500000  0.296000  1.0  -0.0697
  C  C100  1  0.333333  0.500000  0.164400  1.0  -0.0635
  N  N101  1  0.939000  0.000000  0.500000  1.0  -0.4211
  N  N102  1  0.439000  0.500000  0.500000  1.0  -0.4211
  N  N103  1  0.061000  0.000000  0.500000  1.0  -0.4223
  N  N104  1  0.561000  0.500000  0.500000  1.0  -0.4223
  N  N105  1  0.000000  0.000000  0.621200  1.0  -0.3745
  N  N106  1  0.500000  0.500000  0.621200  1.0  -0.3745
  N  N107  1  0.000000  0.000000  0.378800  1.0  -0.3736
  N  N108  1  0.500000  0.500000  0.378800  1.0  -0.3736
  O  O109  1  0.789610  0.162700  0.908400  1.0  -0.5993
  O  O110  1  0.289610  0.662700  0.908400  1.0  -0.5993
  O  O111  1  0.210390  0.837300  0.908400  1.0  -0.5993
  O  O112  1  0.710390  0.337300  0.908400  1.0  -0.5993
  O  O113  1  0.210390  0.162700  0.091600  1.0  -0.6
  O  O114  1  0.710390  0.662700  0.091600  1.0  -0.6
  O  O115  1  0.789610  0.837300  0.091600  1.0  -0.5982
  O  O116  1  0.289610  0.337300  0.091600  1.0  -0.5982
  O  O117  1  0.210390  0.837300  0.091600  1.0  -0.5984
  O  O118  1  0.710390  0.337300  0.091600  1.0  -0.5984
  O  O119  1  0.789610  0.162700  0.091600  1.0  -0.5984
  O  O120  1  0.289610  0.662700  0.091600  1.0  -0.5984
  O  O121  1  0.789610  0.837300  0.908400  1.0  -0.5989
  O  O122  1  0.289610  0.337300  0.908400  1.0  -0.5989
  O  O123  1  0.210390  0.162700  0.908400  1.0  -0.6009
  O  O124  1  0.710390  0.662700  0.908400  1.0  -0.6009
  O  O125  1  0.730800  0.000000  0.000000  1.0  -0.7513
  O  O126  1  0.230800  0.500000  0.000000  1.0  -0.7513
  O  O127  1  0.269200  0.000000  0.000000  1.0  -0.751
  O  O128  1  0.769200  0.500000  0.000000  1.0  -0.751
