# generated using pymatgen
data_GaC24N2O5
_symmetry_space_group_name_H-M   'P 1'
_cell_length_a   32.95090000
_cell_length_b   6.69900000
_cell_length_c   16.55550000
_cell_angle_alpha   90.00000000
_cell_angle_beta   90.00000000
_cell_angle_gamma   90.00000000
_symmetry_Int_Tables_number   1
_chemical_formula_structural   GaC24N2O5
_chemical_formula_sum   'Ga4 C96 N8 O20'
_cell_volume   3654.42926854
_cell_formula_units_Z   4
loop_
 _symmetry_equiv_pos_site_id
 _symmetry_equiv_pos_as_xyz
  1  'x, y, z'
loop_
 _atom_site_type_symbol
 _atom_site_label
 _atom_site_symmetry_multiplicity
 _atom_site_fract_x
 _atom_site_fract_y
 _atom_site_fract_z
 _atom_site_occupancy
 _atom_site_charge
  Ga  Ga1  1  0.750000  0.250000  0.000000  1.0  1.576
  Ga  Ga2  1  0.250000  0.750000  0.000000  1.0  1.576
  Ga  Ga3  1  0.250000  0.250000  0.000000  1.0  1.576
  Ga  Ga4  1  0.750000  0.750000  0.000000  1.0  1.576
  C  C5  1  0.883080  0.175300  0.751000  1.0  0.113
  C  C6  1  0.851320  0.170700  0.807700  1.0  0.042
  C  C7  1  0.383080  0.675300  0.751000  1.0  0.113
  C  C8  1  0.351320  0.670700  0.807700  1.0  0.042
  C  C9  1  0.116920  0.824700  0.751000  1.0  0.1121
  C  C10  1  0.148680  0.829300  0.807700  1.0  0.0445
  C  C11  1  0.616920  0.324700  0.751000  1.0  0.1121
  C  C12  1  0.648680  0.329300  0.807700  1.0  0.0445
  C  C13  1  0.116920  0.175300  0.249000  1.0  0.1125
  C  C14  1  0.148680  0.170700  0.192300  1.0  0.041
  C  C15  1  0.616920  0.675300  0.249000  1.0  0.1125
  C  C16  1  0.648680  0.670700  0.192300  1.0  0.041
  C  C17  1  0.883080  0.824700  0.249000  1.0  0.1127
  C  C18  1  0.851320  0.829300  0.192300  1.0  0.0429
  C  C19  1  0.383080  0.324700  0.249000  1.0  0.1127
  C  C20  1  0.351320  0.329300  0.192300  1.0  0.0429
  C  C21  1  0.116920  0.824700  0.249000  1.0  0.1121
  C  C22  1  0.148680  0.829300  0.192300  1.0  0.0429
  C  C23  1  0.616920  0.324700  0.249000  1.0  0.1121
  C  C24  1  0.648680  0.329300  0.192300  1.0  0.0429
  C  C25  1  0.883080  0.175300  0.249000  1.0  0.113
  C  C26  1  0.851320  0.170700  0.192300  1.0  0.0404
  C  C27  1  0.383080  0.675300  0.249000  1.0  0.113
  C  C28  1  0.351320  0.670700  0.192300  1.0  0.0404
  C  C29  1  0.883080  0.824700  0.751000  1.0  0.1127
  C  C30  1  0.851320  0.829300  0.807700  1.0  0.043
  C  C31  1  0.383080  0.324700  0.751000  1.0  0.1127
  C  C32  1  0.351320  0.329300  0.807700  1.0  0.043
  C  C33  1  0.116920  0.175300  0.751000  1.0  0.1125
  C  C34  1  0.148680  0.170700  0.807700  1.0  0.0405
  C  C35  1  0.616920  0.675300  0.751000  1.0  0.1125
  C  C36  1  0.648680  0.670700  0.807700  1.0  0.0405
  C  C37  1  0.968470  0.000000  0.669800  1.0  0.2039
  C  C38  1  0.979540  0.000000  0.753300  1.0  -0.0186
  C  C39  1  0.914750  0.000000  0.567000  1.0  0.1511
  C  C40  1  0.876800  0.000000  0.539800  1.0  0.0305
  C  C41  1  0.929470  0.000000  0.644700  1.0  0.0432
  C  C42  1  0.900400  0.000000  0.715500  1.0  -0.0681
  C  C43  1  0.833490  0.000000  0.841100  1.0  -0.013
  C  C44  1  0.799100  0.000000  0.906900  1.0  0.5101
  C  C45  1  0.468470  0.500000  0.669800  1.0  0.2039
  C  C46  1  0.479540  0.500000  0.753300  1.0  -0.0186
  C  C47  1  0.414750  0.500000  0.567000  1.0  0.1511
  C  C48  1  0.376800  0.500000  0.539800  1.0  0.0305
  C  C49  1  0.429470  0.500000  0.644700  1.0  0.0432
  C  C50  1  0.400400  0.500000  0.715500  1.0  -0.0681
  C  C51  1  0.333490  0.500000  0.841100  1.0  -0.013
  C  C52  1  0.299100  0.500000  0.906900  1.0  0.5101
  C  C53  1  0.031530  0.000000  0.669800  1.0  0.2045
  C  C54  1  0.020460  0.000000  0.753300  1.0  -0.0179
  C  C55  1  0.085250  0.000000  0.567000  1.0  0.1516
  C  C56  1  0.123200  0.000000  0.539800  1.0  0.0317
  C  C57  1  0.070530  0.000000  0.644700  1.0  0.0427
  C  C58  1  0.099600  0.000000  0.715500  1.0  -0.068
  C  C59  1  0.166510  0.000000  0.841100  1.0  -0.0123
  C  C60  1  0.200900  0.000000  0.906900  1.0  0.5111
  C  C61  1  0.531530  0.500000  0.669800  1.0  0.2045
  C  C62  1  0.520460  0.500000  0.753300  1.0  -0.0179
  C  C63  1  0.585250  0.500000  0.567000  1.0  0.1516
  C  C64  1  0.623200  0.500000  0.539800  1.0  0.0317
  C  C65  1  0.570530  0.500000  0.644700  1.0  0.0427
  C  C66  1  0.599600  0.500000  0.715500  1.0  -0.068
  C  C67  1  0.666510  0.500000  0.841100  1.0  -0.0123
  C  C68  1  0.700900  0.500000  0.906900  1.0  0.5111
  C  C69  1  0.031530  0.000000  0.330200  1.0  0.2037
  C  C70  1  0.020460  0.000000  0.246700  1.0  -0.0162
  C  C71  1  0.085250  0.000000  0.433000  1.0  0.151
  C  C72  1  0.123200  0.000000  0.460200  1.0  0.0312
  C  C73  1  0.070530  0.000000  0.355300  1.0  0.043
  C  C74  1  0.099600  0.000000  0.284500  1.0  -0.0678
  C  C75  1  0.166510  0.000000  0.158900  1.0  -0.0125
  C  C76  1  0.200900  0.000000  0.093100  1.0  0.5106
  C  C77  1  0.531530  0.500000  0.330200  1.0  0.2037
  C  C78  1  0.520460  0.500000  0.246700  1.0  -0.0162
  C  C79  1  0.585250  0.500000  0.433000  1.0  0.151
  C  C80  1  0.623200  0.500000  0.460200  1.0  0.0312
  C  C81  1  0.570530  0.500000  0.355300  1.0  0.043
  C  C82  1  0.599600  0.500000  0.284500  1.0  -0.0678
  C  C83  1  0.666510  0.500000  0.158900  1.0  -0.0125
  C  C84  1  0.700900  0.500000  0.093100  1.0  0.5106
  C  C85  1  0.968470  0.000000  0.330200  1.0  0.2035
  C  C86  1  0.979540  0.000000  0.246700  1.0  -0.0176
  C  C87  1  0.914750  0.000000  0.433000  1.0  0.1505
  C  C88  1  0.876800  0.000000  0.460200  1.0  0.0305
  C  C89  1  0.929470  0.000000  0.355300  1.0  0.0434
  C  C90  1  0.900400  0.000000  0.284500  1.0  -0.0681
  C  C91  1  0.833490  0.000000  0.158900  1.0  -0.0132
  C  C92  1  0.799100  0.000000  0.093100  1.0  0.5096
  C  C93  1  0.468470  0.500000  0.330200  1.0  0.2035
  C  C94  1  0.479540  0.500000  0.246700  1.0  -0.0176
  C  C95  1  0.414750  0.500000  0.433000  1.0  0.1505
  C  C96  1  0.376800  0.500000  0.460200  1.0  0.0305
  C  C97  1  0.429470  0.500000  0.355300  1.0  0.0434
  C  C98  1  0.400400  0.500000  0.284500  1.0  -0.0681
  C  C99  1  0.333490  0.500000  0.158900  1.0  -0.0132
  C  C100  1  0.299100  0.500000  0.093100  1.0  0.5096
  N  N101  1  0.000000  0.000000  0.617200  1.0  -0.448
  N  N102  1  0.500000  0.500000  0.617200  1.0  -0.448
  N  N103  1  0.000000  0.000000  0.382800  1.0  -0.4497
  N  N104  1  0.500000  0.500000  0.382800  1.0  -0.4497
  N  N105  1  0.938500  0.000000  0.500000  1.0  -0.2624
  N  N106  1  0.438500  0.500000  0.500000  1.0  -0.2624
  N  N107  1  0.061500  0.000000  0.500000  1.0  -0.2615
  N  N108  1  0.561500  0.500000  0.500000  1.0  -0.2615
  O  O109  1  0.790640  0.188100  0.913500  1.0  -0.5954
  O  O110  1  0.290640  0.688100  0.913500  1.0  -0.5954
  O  O111  1  0.209360  0.811900  0.913500  1.0  -0.5952
  O  O112  1  0.709360  0.311900  0.913500  1.0  -0.5952
  O  O113  1  0.209360  0.188100  0.086500  1.0  -0.596
  O  O114  1  0.709360  0.688100  0.086500  1.0  -0.596
  O  O115  1  0.790640  0.811900  0.086500  1.0  -0.5949
  O  O116  1  0.290640  0.311900  0.086500  1.0  -0.5949
  O  O117  1  0.209360  0.811900  0.086500  1.0  -0.5947
  O  O118  1  0.709360  0.311900  0.086500  1.0  -0.5947
  O  O119  1  0.790640  0.188100  0.086500  1.0  -0.5956
  O  O120  1  0.290640  0.688100  0.086500  1.0  -0.5956
  O  O121  1  0.790640  0.811900  0.913500  1.0  -0.5955
  O  O122  1  0.290640  0.311900  0.913500  1.0  -0.5955
  O  O123  1  0.209360  0.188100  0.913500  1.0  -0.5956
  O  O124  1  0.709360  0.688100  0.913500  1.0  -0.5956
  O  O125  1  0.726500  0.000000  0.000000  1.0  -0.7855
  O  O126  1  0.226500  0.500000  0.000000  1.0  -0.7855
  O  O127  1  0.273500  0.000000  0.000000  1.0  -0.7839
  O  O128  1  0.773500  0.500000  0.000000  1.0  -0.7839
