# generated using pymatgen
data_TbH18C24(NO3)2
_symmetry_space_group_name_H-M   'P 1'
_cell_length_a   10.03890000
_cell_length_b   17.74230000
_cell_length_c   19.74570000
_cell_angle_alpha   90.00000000
_cell_angle_beta   90.00000000
_cell_angle_gamma   90.00000000
_symmetry_Int_Tables_number   1
_chemical_formula_structural   TbH18C24(NO3)2
_chemical_formula_sum   'Tb4 H72 C96 N8 O24'
_cell_volume   3516.96932888
_cell_formula_units_Z   4
loop_
 _symmetry_equiv_pos_site_id
 _symmetry_equiv_pos_as_xyz
  1  'x, y, z'
loop_
 _atom_site_type_symbol
 _atom_site_label
 _atom_site_symmetry_multiplicity
 _atom_site_fract_x
 _atom_site_fract_y
 _atom_site_fract_z
 _atom_site_occupancy
 _atom_site_charge
  Tb  Tb1  1  0.031380  0.750000  0.250000  1.0  2.3139
  Tb  Tb2  1  0.468620  0.250000  0.750000  1.0  2.3132
  Tb  Tb3  1  0.968620  0.250000  0.750000  1.0  2.3176
  Tb  Tb4  1  0.531380  0.750000  0.250000  1.0  2.3182
  H  H5  1  0.124200  0.863200  0.458700  1.0  0.1069
  H  H6  1  0.170800  0.885400  0.571900  1.0  0.0926
  H  H7  1  0.472200  0.753900  0.441600  1.0  0.083
  H  H8  1  0.513200  0.774100  0.555100  1.0  0.0913
  H  H9  1  0.363700  0.840300  0.619700  1.0  0.0956
  H  H10  1  0.948400  0.562300  0.314500  1.0  0.1175
  H  H11  1  0.194300  0.561600  0.509400  1.0  0.1181
  H  H12  1  0.262600  0.629500  0.417300  1.0  0.1132
  H  H13  1  0.874000  0.495400  0.406700  1.0  0.1108
  H  H14  1  0.124200  0.636800  0.041300  1.0  0.1069
  H  H15  1  0.170800  0.614600  0.928100  1.0  0.0915
  H  H16  1  0.472200  0.746100  0.058400  1.0  0.0834
  H  H17  1  0.513200  0.725900  0.944900  1.0  0.0921
  H  H18  1  0.363700  0.659700  0.880300  1.0  0.0947
  H  H19  1  0.948400  0.937700  0.185500  1.0  0.1176
  H  H20  1  0.194300  0.938400  0.990600  1.0  0.1185
  H  H21  1  0.262600  0.870500  0.082700  1.0  0.1134
  H  H22  1  0.874000  0.004600  0.093300  1.0  0.1109
  H  H23  1  0.375800  0.136800  0.958700  1.0  0.107
  H  H24  1  0.329200  0.114600  0.071900  1.0  0.092
  H  H25  1  0.027800  0.246100  0.941600  1.0  0.0832
  H  H26  1  0.986800  0.225900  0.055100  1.0  0.091
  H  H27  1  0.136300  0.159700  0.119700  1.0  0.0952
  H  H28  1  0.551600  0.437700  0.814500  1.0  0.1173
  H  H29  1  0.305700  0.438400  0.009400  1.0  0.1182
  H  H30  1  0.237400  0.370500  0.917300  1.0  0.1123
  H  H31  1  0.626000  0.504600  0.906700  1.0  0.1112
  H  H32  1  0.375800  0.363200  0.541300  1.0  0.1066
  H  H33  1  0.329200  0.385400  0.428100  1.0  0.0928
  H  H34  1  0.027800  0.253900  0.558400  1.0  0.0831
  H  H35  1  0.986800  0.274100  0.444900  1.0  0.0918
  H  H36  1  0.136300  0.340300  0.380300  1.0  0.0947
  H  H37  1  0.551600  0.062300  0.685500  1.0  0.1173
  H  H38  1  0.305700  0.061600  0.490600  1.0  0.1179
  H  H39  1  0.237400  0.129500  0.582700  1.0  0.1124
  H  H40  1  0.626000  0.995400  0.593300  1.0  0.1108
  H  H41  1  0.875800  0.136800  0.541300  1.0  0.1069
  H  H42  1  0.829200  0.114600  0.428100  1.0  0.0925
  H  H43  1  0.527800  0.246100  0.558400  1.0  0.0832
  H  H44  1  0.486800  0.225900  0.444900  1.0  0.0919
  H  H45  1  0.636300  0.159700  0.380300  1.0  0.0948
  H  H46  1  0.051600  0.437700  0.685500  1.0  0.1171
  H  H47  1  0.805700  0.438400  0.490600  1.0  0.1178
  H  H48  1  0.737400  0.370500  0.582700  1.0  0.1124
  H  H49  1  0.126000  0.504600  0.593300  1.0  0.1113
  H  H50  1  0.875800  0.363200  0.958700  1.0  0.107
  H  H51  1  0.829200  0.385400  0.071900  1.0  0.0919
  H  H52  1  0.527800  0.253900  0.941600  1.0  0.0826
  H  H53  1  0.486800  0.274100  0.055100  1.0  0.0915
  H  H54  1  0.636300  0.340300  0.119700  1.0  0.0954
  H  H55  1  0.051600  0.062300  0.814500  1.0  0.1173
  H  H56  1  0.805700  0.061600  0.009400  1.0  0.1181
  H  H57  1  0.737400  0.129500  0.917300  1.0  0.1121
  H  H58  1  0.126000  0.995400  0.906700  1.0  0.1105
  H  H59  1  0.624200  0.863200  0.041300  1.0  0.1064
  H  H60  1  0.670800  0.885400  0.928100  1.0  0.092
  H  H61  1  0.972200  0.753900  0.058400  1.0  0.0834
  H  H62  1  0.013200  0.774100  0.944900  1.0  0.0919
  H  H63  1  0.863700  0.840300  0.880300  1.0  0.0945
  H  H64  1  0.448400  0.562300  0.185500  1.0  0.1177
  H  H65  1  0.694300  0.561600  0.990600  1.0  0.1185
  H  H66  1  0.762600  0.629500  0.082700  1.0  0.1133
  H  H67  1  0.374000  0.495400  0.093300  1.0  0.1112
  H  H68  1  0.624200  0.636800  0.458700  1.0  0.107
  H  H69  1  0.670800  0.614600  0.571900  1.0  0.0927
  H  H70  1  0.972200  0.746100  0.441600  1.0  0.0833
  H  H71  1  0.013200  0.725900  0.555100  1.0  0.0909
  H  H72  1  0.863700  0.659700  0.619700  1.0  0.0955
  H  H73  1  0.448400  0.937700  0.314500  1.0  0.1175
  H  H74  1  0.694300  0.938400  0.509400  1.0  0.118
  H  H75  1  0.762600  0.870500  0.417300  1.0  0.1133
  H  H76  1  0.374000  0.004600  0.406700  1.0  0.1107
  C  C77  1  0.272000  0.795500  0.363410  1.0  0.7071
  C  C78  1  0.295200  0.807120  0.438040  1.0  -0.1614
  C  C79  1  0.203400  0.845910  0.477590  1.0  -0.0692
  C  C80  1  0.231000  0.858550  0.545470  1.0  -0.1042
  C  C81  1  0.410800  0.780330  0.467650  1.0  -0.0555
  C  C82  1  0.435600  0.792570  0.535580  1.0  -0.0872
  C  C83  1  0.346300  0.831760  0.574070  1.0  -0.08
  C  C84  1  0.996700  0.563180  0.354720  1.0  -0.0812
  C  C85  1  0.141800  0.561980  0.470620  1.0  -0.1312
  C  C86  1  0.024200  0.521360  0.470100  1.0  0.0584
  C  C87  1  0.183000  0.602730  0.415480  1.0  -0.0678
  C  C88  1  0.952900  0.522550  0.409900  1.0  -0.1368
  C  C89  1  0.272000  0.704500  0.136590  1.0  0.703
  C  C90  1  0.295200  0.692880  0.061960  1.0  -0.1606
  C  C91  1  0.203400  0.654090  0.022410  1.0  -0.0689
  C  C92  1  0.231000  0.641450  0.954530  1.0  -0.1034
  C  C93  1  0.410800  0.719670  0.032350  1.0  -0.0555
  C  C94  1  0.435600  0.707430  0.964420  1.0  -0.0833
  C  C95  1  0.346300  0.668240  0.925930  1.0  -0.0825
  C  C96  1  0.996700  0.936820  0.145280  1.0  -0.0806
  C  C97  1  0.141800  0.938020  0.029380  1.0  -0.1305
  C  C98  1  0.024200  0.978640  0.029900  1.0  0.0587
  C  C99  1  0.183000  0.897270  0.084520  1.0  -0.0681
  C  C100  1  0.952900  0.977450  0.090100  1.0  -0.1363
  C  C101  1  0.228000  0.204500  0.863410  1.0  0.7074
  C  C102  1  0.204800  0.192880  0.938040  1.0  -0.161
  C  C103  1  0.296600  0.154090  0.977590  1.0  -0.0692
  C  C104  1  0.269000  0.141450  0.045470  1.0  -0.1023
  C  C105  1  0.089200  0.219670  0.967650  1.0  -0.0547
  C  C106  1  0.064400  0.207430  0.035580  1.0  -0.0877
  C  C107  1  0.153700  0.168240  0.074070  1.0  -0.0813
  C  C108  1  0.503300  0.436820  0.854720  1.0  -0.0806
  C  C109  1  0.358200  0.438020  0.970620  1.0  -0.1303
  C  C110  1  0.475800  0.478640  0.970100  1.0  0.0588
  C  C111  1  0.317000  0.397270  0.915480  1.0  -0.0684
  C  C112  1  0.547100  0.477450  0.909900  1.0  -0.1383
  C  C113  1  0.228000  0.295500  0.636590  1.0  0.704
  C  C114  1  0.204800  0.307120  0.561960  1.0  -0.1608
  C  C115  1  0.296600  0.345910  0.522410  1.0  -0.0696
  C  C116  1  0.269000  0.358550  0.454530  1.0  -0.1031
  C  C117  1  0.089200  0.280330  0.532350  1.0  -0.0555
  C  C118  1  0.064400  0.292570  0.464420  1.0  -0.0851
  C  C119  1  0.153700  0.331760  0.425930  1.0  -0.0835
  C  C120  1  0.503300  0.063180  0.645280  1.0  -0.0799
  C  C121  1  0.358200  0.061980  0.529380  1.0  -0.1303
  C  C122  1  0.475800  0.021360  0.529900  1.0  0.059
  C  C123  1  0.317000  0.102730  0.584520  1.0  -0.068
  C  C124  1  0.547100  0.022550  0.590100  1.0  -0.1355
  C  C125  1  0.728000  0.204500  0.636590  1.0  0.7046
  C  C126  1  0.704800  0.192880  0.561960  1.0  -0.161
  C  C127  1  0.796600  0.154090  0.522410  1.0  -0.0691
  C  C128  1  0.769000  0.141450  0.454530  1.0  -0.1028
  C  C129  1  0.589200  0.219670  0.532350  1.0  -0.0555
  C  C130  1  0.564400  0.207430  0.464420  1.0  -0.0834
  C  C131  1  0.653700  0.168240  0.425930  1.0  -0.0827
  C  C132  1  0.003300  0.436820  0.645280  1.0  -0.0796
  C  C133  1  0.858200  0.438020  0.529380  1.0  -0.1265
  C  C134  1  0.975800  0.478640  0.529900  1.0  0.0588
  C  C135  1  0.817000  0.397270  0.584520  1.0  -0.0684
  C  C136  1  0.047100  0.477450  0.590100  1.0  -0.1315
  C  C137  1  0.728000  0.295500  0.863410  1.0  0.7071
  C  C138  1  0.704800  0.307120  0.938040  1.0  -0.1613
  C  C139  1  0.796600  0.345910  0.977590  1.0  -0.07
  C  C140  1  0.769000  0.358550  0.045470  1.0  -0.1021
  C  C141  1  0.589200  0.280330  0.967650  1.0  -0.055
  C  C142  1  0.564400  0.292570  0.035580  1.0  -0.0885
  C  C143  1  0.653700  0.331760  0.074070  1.0  -0.0809
  C  C144  1  0.003300  0.063180  0.854720  1.0  -0.0818
  C  C145  1  0.858200  0.061980  0.970620  1.0  -0.1261
  C  C146  1  0.975800  0.021360  0.970100  1.0  0.0586
  C  C147  1  0.817000  0.102730  0.915480  1.0  -0.0679
  C  C148  1  0.047100  0.022550  0.909900  1.0  -0.1334
  C  C149  1  0.772000  0.795500  0.136590  1.0  0.7024
  C  C150  1  0.795200  0.807120  0.061960  1.0  -0.1605
  C  C151  1  0.703400  0.845910  0.022410  1.0  -0.069
  C  C152  1  0.731000  0.858550  0.954530  1.0  -0.1036
  C  C153  1  0.910800  0.780330  0.032350  1.0  -0.0561
  C  C154  1  0.935600  0.792570  0.964420  1.0  -0.0853
  C  C155  1  0.846300  0.831760  0.925930  1.0  -0.0832
  C  C156  1  0.496700  0.563180  0.145280  1.0  -0.0802
  C  C157  1  0.641800  0.561980  0.029380  1.0  -0.1267
  C  C158  1  0.524200  0.521360  0.029900  1.0  0.0588
  C  C159  1  0.683000  0.602730  0.084520  1.0  -0.0679
  C  C160  1  0.452900  0.522550  0.090100  1.0  -0.131
  C  C161  1  0.772000  0.704500  0.363410  1.0  0.7073
  C  C162  1  0.795200  0.692880  0.438040  1.0  -0.161
  C  C163  1  0.703400  0.654090  0.477590  1.0  -0.069
  C  C164  1  0.731000  0.641450  0.545470  1.0  -0.1043
  C  C165  1  0.910800  0.719670  0.467650  1.0  -0.0548
  C  C166  1  0.935600  0.707430  0.535580  1.0  -0.0852
  C  C167  1  0.846300  0.668240  0.574070  1.0  -0.0805
  C  C168  1  0.496700  0.936820  0.354720  1.0  -0.0804
  C  C169  1  0.641800  0.938020  0.470620  1.0  -0.1277
  C  C170  1  0.524200  0.978640  0.470100  1.0  0.0587
  C  C171  1  0.683000  0.897270  0.415480  1.0  -0.0682
  C  C172  1  0.452900  0.977450  0.409900  1.0  -0.133
  N  N173  1  0.108850  0.604020  0.358890  1.0  0.2916
  N  N174  1  0.108850  0.895980  0.141110  1.0  0.2901
  N  N175  1  0.391150  0.395980  0.858890  1.0  0.2935
  N  N176  1  0.391150  0.104020  0.641110  1.0  0.2897
  N  N177  1  0.891150  0.395980  0.641110  1.0  0.2906
  N  N178  1  0.891150  0.104020  0.858890  1.0  0.2934
  N  N179  1  0.608850  0.604020  0.141110  1.0  0.2893
  N  N180  1  0.608850  0.895980  0.358890  1.0  0.2916
  O  O181  1  0.373150  0.780270  0.328590  1.0  -0.7605
  O  O182  1  0.156410  0.801710  0.340100  1.0  -0.721
  O  O183  1  0.149150  0.644600  0.305230  1.0  -0.6924
  O  O184  1  0.373150  0.719730  0.171410  1.0  -0.7606
  O  O185  1  0.156410  0.698290  0.159900  1.0  -0.7202
  O  O186  1  0.149150  0.855400  0.194770  1.0  -0.6903
  O  O187  1  0.126850  0.219730  0.828590  1.0  -0.76
  O  O188  1  0.343590  0.198290  0.840100  1.0  -0.722
  O  O189  1  0.350850  0.355400  0.805230  1.0  -0.6935
  O  O190  1  0.126850  0.280270  0.671410  1.0  -0.7607
  O  O191  1  0.343590  0.301710  0.659900  1.0  -0.7208
  O  O192  1  0.350850  0.144600  0.694770  1.0  -0.6907
  O  O193  1  0.626850  0.219730  0.671410  1.0  -0.7607
  O  O194  1  0.843590  0.198290  0.659900  1.0  -0.7208
  O  O195  1  0.850850  0.355400  0.694770  1.0  -0.6915
  O  O196  1  0.626850  0.280270  0.828590  1.0  -0.7604
  O  O197  1  0.843590  0.301710  0.840100  1.0  -0.7214
  O  O198  1  0.850850  0.144600  0.805230  1.0  -0.693
  O  O199  1  0.873150  0.780270  0.171410  1.0  -0.7605
  O  O200  1  0.656410  0.801710  0.159900  1.0  -0.7204
  O  O201  1  0.649150  0.644600  0.194770  1.0  -0.6891
  O  O202  1  0.873150  0.719730  0.328590  1.0  -0.7602
  O  O203  1  0.656410  0.698290  0.340100  1.0  -0.7218
  O  O204  1  0.649150  0.855400  0.305230  1.0  -0.6935
