# generated using pymatgen
data_LaH18C24(NO3)2
_symmetry_space_group_name_H-M   'P 1'
_cell_length_a   10.13900000
_cell_length_b   17.80400000
_cell_length_c   20.01000000
_cell_angle_alpha   90.00000000
_cell_angle_beta   90.00000000
_cell_angle_gamma   90.00000000
_symmetry_Int_Tables_number   1
_chemical_formula_structural   LaH18C24(NO3)2
_chemical_formula_sum   'La4 H72 C96 N8 O24'
_cell_volume   3612.10026756
_cell_formula_units_Z   4
loop_
 _symmetry_equiv_pos_site_id
 _symmetry_equiv_pos_as_xyz
  1  'x, y, z'
loop_
 _atom_site_type_symbol
 _atom_site_label
 _atom_site_symmetry_multiplicity
 _atom_site_fract_x
 _atom_site_fract_y
 _atom_site_fract_z
 _atom_site_occupancy
 _atom_site_charge
  La  La1  1  0.969390  0.750000  0.750000  1.0  2.2014
  La  La2  1  0.530610  0.250000  0.250000  1.0  2.2016
  La  La3  1  0.030610  0.250000  0.250000  1.0  2.2016
  La  La4  1  0.469390  0.750000  0.750000  1.0  2.2014
  H  H5  1  0.049800  0.940200  0.683400  1.0  0.1224
  H  H6  1  0.374400  0.865100  0.537100  1.0  0.1065
  H  H7  1  0.806100  0.940700  0.492000  1.0  0.1109
  H  H8  1  0.126500  0.004900  0.590700  1.0  0.1153
  H  H9  1  0.028600  0.753900  0.558600  1.0  0.0977
  H  H10  1  0.318800  0.885600  0.425400  1.0  0.0965
  H  H11  1  0.738300  0.873300  0.582300  1.0  0.1247
  H  H12  1  0.124700  0.839200  0.382700  1.0  0.0894
  H  H13  1  0.983300  0.774200  0.447000  1.0  0.0965
  H  H14  1  0.049800  0.559800  0.816600  1.0  0.123
  H  H15  1  0.374400  0.634900  0.962900  1.0  0.1067
  H  H16  1  0.806100  0.559300  0.008000  1.0  0.1108
  H  H17  1  0.126500  0.495100  0.909300  1.0  0.1147
  H  H18  1  0.028600  0.746100  0.941400  1.0  0.098
  H  H19  1  0.318800  0.614400  0.074600  1.0  0.096
  H  H20  1  0.738300  0.626700  0.917700  1.0  0.1246
  H  H21  1  0.124700  0.660800  0.117300  1.0  0.0899
  H  H22  1  0.983300  0.725800  0.053000  1.0  0.0957
  H  H23  1  0.450200  0.059800  0.183400  1.0  0.1233
  H  H24  1  0.125600  0.134900  0.037100  1.0  0.1068
  H  H25  1  0.693900  0.059300  0.992000  1.0  0.1117
  H  H26  1  0.373500  0.995100  0.090700  1.0  0.1154
  H  H27  1  0.471400  0.246100  0.058600  1.0  0.0978
  H  H28  1  0.181200  0.114400  0.925400  1.0  0.0959
  H  H29  1  0.761700  0.126700  0.082300  1.0  0.1253
  H  H30  1  0.375300  0.160800  0.882700  1.0  0.0893
  H  H31  1  0.516700  0.225800  0.947000  1.0  0.0962
  H  H32  1  0.450200  0.440200  0.316600  1.0  0.123
  H  H33  1  0.125600  0.365100  0.462900  1.0  0.1066
  H  H34  1  0.693900  0.440700  0.508000  1.0  0.1117
  H  H35  1  0.373500  0.504900  0.409300  1.0  0.1148
  H  H36  1  0.471400  0.253900  0.441400  1.0  0.0974
  H  H37  1  0.181200  0.385600  0.574600  1.0  0.097
  H  H38  1  0.761700  0.373300  0.417700  1.0  0.1257
  H  H39  1  0.375300  0.339200  0.617300  1.0  0.0905
  H  H40  1  0.516700  0.274200  0.553000  1.0  0.0955
  H  H41  1  0.950200  0.059800  0.316600  1.0  0.1232
  H  H42  1  0.625600  0.134900  0.462900  1.0  0.1069
  H  H43  1  0.193900  0.059300  0.508000  1.0  0.1116
  H  H44  1  0.873500  0.995100  0.409300  1.0  0.1149
  H  H45  1  0.971400  0.246100  0.441400  1.0  0.098
  H  H46  1  0.681200  0.114400  0.574600  1.0  0.0972
  H  H47  1  0.261700  0.126700  0.417700  1.0  0.1255
  H  H48  1  0.875300  0.160800  0.617300  1.0  0.0902
  H  H49  1  0.016700  0.225800  0.553000  1.0  0.0952
  H  H50  1  0.950200  0.440200  0.183400  1.0  0.1232
  H  H51  1  0.625600  0.365100  0.037100  1.0  0.1065
  H  H52  1  0.193900  0.440700  0.992000  1.0  0.1117
  H  H53  1  0.873500  0.504900  0.090700  1.0  0.115
  H  H54  1  0.971400  0.253900  0.058600  1.0  0.0977
  H  H55  1  0.681200  0.385600  0.925400  1.0  0.0964
  H  H56  1  0.261700  0.373300  0.082300  1.0  0.1254
  H  H57  1  0.875300  0.339200  0.882700  1.0  0.0893
  H  H58  1  0.016700  0.274200  0.947000  1.0  0.0961
  H  H59  1  0.549800  0.940200  0.816600  1.0  0.1226
  H  H60  1  0.874400  0.865100  0.962900  1.0  0.1066
  H  H61  1  0.306100  0.940700  0.008000  1.0  0.1109
  H  H62  1  0.626500  0.004900  0.909300  1.0  0.1155
  H  H63  1  0.528600  0.753900  0.941400  1.0  0.0973
  H  H64  1  0.818800  0.885600  0.074600  1.0  0.0963
  H  H65  1  0.238300  0.873300  0.917700  1.0  0.1249
  H  H66  1  0.624700  0.839200  0.117300  1.0  0.09
  H  H67  1  0.483300  0.774200  0.053000  1.0  0.096
  H  H68  1  0.549800  0.559800  0.683400  1.0  0.1227
  H  H69  1  0.874400  0.634900  0.537100  1.0  0.1065
  H  H70  1  0.306100  0.559300  0.492000  1.0  0.1108
  H  H71  1  0.626500  0.495100  0.590700  1.0  0.115
  H  H72  1  0.528600  0.746100  0.558600  1.0  0.0978
  H  H73  1  0.818800  0.614400  0.425400  1.0  0.0967
  H  H74  1  0.238300  0.626700  0.582300  1.0  0.1246
  H  H75  1  0.624700  0.660800  0.382700  1.0  0.0896
  H  H76  1  0.483300  0.725800  0.447000  1.0  0.0966
  C  C77  1  0.207500  0.807700  0.559400  1.0  -0.1828
  C  C78  1  0.001900  0.939300  0.643800  1.0  -0.0866
  C  C79  1  0.295400  0.847100  0.519700  1.0  -0.0337
  C  C80  1  0.975900  0.978900  0.529300  1.0  0.0087
  C  C81  1  0.858700  0.939900  0.530100  1.0  -0.1502
  C  C82  1  0.047400  0.978600  0.588200  1.0  -0.1541
  C  C83  1  0.088000  0.780200  0.532000  1.0  -0.0405
  C  C84  1  0.262000  0.858800  0.453000  1.0  -0.1124
  C  C85  1  0.816700  0.900300  0.584100  1.0  -0.0798
  C  C86  1  0.145100  0.831000  0.427400  1.0  -0.0614
  C  C87  1  0.061000  0.792600  0.465500  1.0  -0.101
  C  C88  1  0.235600  0.797200  0.632800  1.0  0.7823
  C  C89  1  0.207500  0.692300  0.940600  1.0  -0.1827
  C  C90  1  0.001900  0.560700  0.856200  1.0  -0.0895
  C  C91  1  0.295400  0.652900  0.980300  1.0  -0.033
  C  C92  1  0.975900  0.521100  0.970700  1.0  0.008
  C  C93  1  0.858700  0.560100  0.969900  1.0  -0.1493
  C  C94  1  0.047400  0.521400  0.911800  1.0  -0.155
  C  C95  1  0.088000  0.719800  0.968000  1.0  -0.0416
  C  C96  1  0.262000  0.641200  0.047000  1.0  -0.1116
  C  C97  1  0.816700  0.599700  0.915900  1.0  -0.0805
  C  C98  1  0.145100  0.669000  0.072600  1.0  -0.0627
  C  C99  1  0.061000  0.707400  0.034500  1.0  -0.1023
  C  C100  1  0.235600  0.702800  0.867200  1.0  0.7851
  C  C101  1  0.292500  0.192300  0.059400  1.0  -0.1827
  C  C102  1  0.498100  0.060700  0.143800  1.0  -0.0884
  C  C103  1  0.204600  0.152900  0.019700  1.0  -0.0336
  C  C104  1  0.524100  0.021100  0.029300  1.0  0.0082
  C  C105  1  0.641300  0.060100  0.030100  1.0  -0.1491
  C  C106  1  0.452600  0.021400  0.088200  1.0  -0.154
  C  C107  1  0.412000  0.219800  0.032000  1.0  -0.0416
  C  C108  1  0.238000  0.141200  0.953000  1.0  -0.1126
  C  C109  1  0.683300  0.099700  0.084100  1.0  -0.0773
  C  C110  1  0.354900  0.169000  0.927400  1.0  -0.0627
  C  C111  1  0.439000  0.207400  0.965500  1.0  -0.101
  C  C112  1  0.264400  0.202800  0.132800  1.0  0.7848
  C  C113  1  0.292500  0.307700  0.440600  1.0  -0.183
  C  C114  1  0.498100  0.439300  0.356200  1.0  -0.0883
  C  C115  1  0.204600  0.347100  0.480300  1.0  -0.0343
  C  C116  1  0.524100  0.478900  0.470700  1.0  0.0086
  C  C117  1  0.641300  0.439900  0.469900  1.0  -0.15
  C  C118  1  0.452600  0.478600  0.411800  1.0  -0.1532
  C  C119  1  0.412000  0.280200  0.468000  1.0  -0.0414
  C  C120  1  0.238000  0.358800  0.547000  1.0  -0.1144
  C  C121  1  0.683300  0.400300  0.415900  1.0  -0.077
  C  C122  1  0.354900  0.331000  0.572600  1.0  -0.0625
  C  C123  1  0.439000  0.292600  0.534500  1.0  -0.1014
  C  C124  1  0.264400  0.297200  0.367200  1.0  0.788
  C  C125  1  0.792500  0.192300  0.440600  1.0  -0.1827
  C  C126  1  0.998100  0.060700  0.356200  1.0  -0.0891
  C  C127  1  0.704600  0.152900  0.480300  1.0  -0.0334
  C  C128  1  0.024100  0.021100  0.470700  1.0  0.008
  C  C129  1  0.141300  0.060100  0.469900  1.0  -0.1452
  C  C130  1  0.952600  0.021400  0.411800  1.0  -0.154
  C  C131  1  0.912000  0.219800  0.468000  1.0  -0.0418
  C  C132  1  0.738000  0.141200  0.547000  1.0  -0.1142
  C  C133  1  0.183300  0.099700  0.415900  1.0  -0.077
  C  C134  1  0.854900  0.169000  0.572600  1.0  -0.0629
  C  C135  1  0.939000  0.207400  0.534500  1.0  -0.1009
  C  C136  1  0.764400  0.202800  0.367200  1.0  0.7888
  C  C137  1  0.792500  0.307700  0.059400  1.0  -0.1822
  C  C138  1  0.998100  0.439300  0.143800  1.0  -0.0883
  C  C139  1  0.704600  0.347100  0.019700  1.0  -0.0345
  C  C140  1  0.024100  0.478900  0.029300  1.0  0.0086
  C  C141  1  0.141300  0.439900  0.030100  1.0  -0.1447
  C  C142  1  0.952600  0.478600  0.088200  1.0  -0.1548
  C  C143  1  0.912000  0.280200  0.032000  1.0  -0.0411
  C  C144  1  0.738000  0.358800  0.953000  1.0  -0.1127
  C  C145  1  0.183300  0.400300  0.084100  1.0  -0.0776
  C  C146  1  0.854900  0.331000  0.927400  1.0  -0.0623
  C  C147  1  0.939000  0.292600  0.965500  1.0  -0.1015
  C  C148  1  0.764400  0.297200  0.132800  1.0  0.7837
  C  C149  1  0.707500  0.807700  0.940600  1.0  -0.1828
  C  C150  1  0.501900  0.939300  0.856200  1.0  -0.0883
  C  C151  1  0.795400  0.847100  0.980300  1.0  -0.0339
  C  C152  1  0.475900  0.978900  0.970700  1.0  0.0084
  C  C153  1  0.358700  0.939900  0.969900  1.0  -0.1445
  C  C154  1  0.547400  0.978600  0.911800  1.0  -0.1563
  C  C155  1  0.588000  0.780200  0.968000  1.0  -0.0408
  C  C156  1  0.762000  0.858800  0.047000  1.0  -0.1118
  C  C157  1  0.316700  0.900300  0.915900  1.0  -0.08
  C  C158  1  0.645100  0.831000  0.072600  1.0  -0.0621
  C  C159  1  0.561000  0.792600  0.034500  1.0  -0.1017
  C  C160  1  0.735600  0.797200  0.867200  1.0  0.7842
  C  C161  1  0.707500  0.692300  0.559400  1.0  -0.1834
  C  C162  1  0.501900  0.560700  0.643800  1.0  -0.0871
  C  C163  1  0.795400  0.652900  0.519700  1.0  -0.0327
  C  C164  1  0.475900  0.521100  0.529300  1.0  0.0085
  C  C165  1  0.358700  0.560100  0.530100  1.0  -0.1454
  C  C166  1  0.547400  0.521400  0.588200  1.0  -0.1552
  C  C167  1  0.588000  0.719800  0.532000  1.0  -0.0417
  C  C168  1  0.762000  0.641200  0.453000  1.0  -0.1121
  C  C169  1  0.316700  0.599700  0.584100  1.0  -0.08
  C  C170  1  0.645100  0.669000  0.427400  1.0  -0.0622
  C  C171  1  0.561000  0.707400  0.465500  1.0  -0.1014
  C  C172  1  0.735600  0.702800  0.632800  1.0  0.7835
  N  N173  1  0.890200  0.900600  0.640300  1.0  0.3723
  N  N174  1  0.890200  0.599400  0.859700  1.0  0.3745
  N  N175  1  0.609800  0.099400  0.140300  1.0  0.3738
  N  N176  1  0.609800  0.400600  0.359700  1.0  0.3743
  N  N177  1  0.109800  0.099400  0.359700  1.0  0.3749
  N  N178  1  0.109800  0.400600  0.140300  1.0  0.3736
  N  N179  1  0.390200  0.900600  0.859700  1.0  0.3741
  N  N180  1  0.390200  0.599400  0.640300  1.0  0.3724
  O  O181  1  0.851700  0.859700  0.693100  1.0  -0.7185
  O  O182  1  0.137300  0.781600  0.669800  1.0  -0.8053
  O  O183  1  0.351600  0.804400  0.651900  1.0  -0.7038
  O  O184  1  0.851700  0.640300  0.806900  1.0  -0.7176
  O  O185  1  0.137300  0.718400  0.830200  1.0  -0.8051
  O  O186  1  0.351600  0.695600  0.848100  1.0  -0.7037
  O  O187  1  0.648300  0.140300  0.193100  1.0  -0.7167
  O  O188  1  0.362700  0.218400  0.169800  1.0  -0.8053
  O  O189  1  0.148400  0.195600  0.151900  1.0  -0.7029
  O  O190  1  0.648300  0.359700  0.306900  1.0  -0.7183
  O  O191  1  0.362700  0.281600  0.330200  1.0  -0.8044
  O  O192  1  0.148400  0.304400  0.348100  1.0  -0.7015
  O  O193  1  0.148300  0.140300  0.306900  1.0  -0.7178
  O  O194  1  0.862700  0.218400  0.330200  1.0  -0.8049
  O  O195  1  0.648400  0.195600  0.348100  1.0  -0.7023
  O  O196  1  0.148300  0.359700  0.193100  1.0  -0.7174
  O  O197  1  0.862700  0.281600  0.169800  1.0  -0.8051
  O  O198  1  0.648400  0.304400  0.151900  1.0  -0.7029
  O  O199  1  0.351700  0.859700  0.806900  1.0  -0.7182
  O  O200  1  0.637300  0.781600  0.830200  1.0  -0.8046
  O  O201  1  0.851600  0.804400  0.848100  1.0  -0.7036
  O  O202  1  0.351700  0.640300  0.693100  1.0  -0.718
  O  O203  1  0.637300  0.718400  0.669800  1.0  -0.8055
  O  O204  1  0.851600  0.695600  0.651900  1.0  -0.7038
