# generated using pymatgen
data_EuH18C24(NO3)2
_symmetry_space_group_name_H-M   'P 1'
_cell_length_a   10.05460000
_cell_length_b   17.74120000
_cell_length_c   19.81160000
_cell_angle_alpha   90.00000000
_cell_angle_beta   90.00000000
_cell_angle_gamma   90.00000000
_symmetry_Int_Tables_number   1
_chemical_formula_structural   EuH18C24(NO3)2
_chemical_formula_sum   'Eu4 H72 C96 N8 O24'
_cell_volume   3534.00647226
_cell_formula_units_Z   4
loop_
 _symmetry_equiv_pos_site_id
 _symmetry_equiv_pos_as_xyz
  1  'x, y, z'
loop_
 _atom_site_type_symbol
 _atom_site_label
 _atom_site_symmetry_multiplicity
 _atom_site_fract_x
 _atom_site_fract_y
 _atom_site_fract_z
 _atom_site_occupancy
 _atom_site_charge
  Eu  Eu1  1  0.531590  0.750000  0.750000  1.0  2.206
  Eu  Eu2  1  0.968410  0.250000  0.250000  1.0  2.2053
  Eu  Eu3  1  0.468410  0.250000  0.250000  1.0  2.209
  Eu  Eu4  1  0.031590  0.750000  0.750000  1.0  2.2095
  H  H5  1  0.671600  0.885700  0.072100  1.0  0.0935
  H  H6  1  0.625200  0.863500  0.958900  1.0  0.1024
  H  H7  1  0.973300  0.755500  0.941100  1.0  0.0831
  H  H8  1  0.012000  0.772500  0.054900  1.0  0.0941
  H  H9  1  0.864300  0.840800  0.119200  1.0  0.0989
  H  H10  1  0.448700  0.938600  0.684900  1.0  0.1186
  H  H11  1  0.761800  0.870800  0.582500  1.0  0.1092
  H  H12  1  0.695100  0.938800  0.490800  1.0  0.1212
  H  H13  1  0.375100  0.005300  0.593200  1.0  0.1141
  H  H14  1  0.671600  0.614300  0.427900  1.0  0.0926
  H  H15  1  0.625200  0.636500  0.541100  1.0  0.1022
  H  H16  1  0.973300  0.744500  0.558900  1.0  0.0835
  H  H17  1  0.012000  0.727500  0.445100  1.0  0.0945
  H  H18  1  0.864300  0.659200  0.380800  1.0  0.0981
  H  H19  1  0.448700  0.561400  0.815100  1.0  0.1184
  H  H20  1  0.761800  0.629200  0.917500  1.0  0.109
  H  H21  1  0.695100  0.561200  0.009200  1.0  0.1212
  H  H22  1  0.375100  0.494700  0.906800  1.0  0.1142
  H  H23  1  0.828400  0.114300  0.572100  1.0  0.0929
  H  H24  1  0.874800  0.136500  0.458900  1.0  0.1023
  H  H25  1  0.526700  0.244500  0.441100  1.0  0.0832
  H  H26  1  0.488000  0.227500  0.554900  1.0  0.0938
  H  H27  1  0.635700  0.159200  0.619200  1.0  0.0986
  H  H28  1  0.051300  0.061400  0.184900  1.0  0.1184
  H  H29  1  0.738200  0.129200  0.082500  1.0  0.1086
  H  H30  1  0.804900  0.061200  0.990800  1.0  0.1205
  H  H31  1  0.124900  0.994700  0.093200  1.0  0.1137
  H  H32  1  0.828400  0.385700  0.927900  1.0  0.0938
  H  H33  1  0.874800  0.363500  0.041100  1.0  0.1021
  H  H34  1  0.526700  0.255500  0.058900  1.0  0.0832
  H  H35  1  0.488000  0.272500  0.945100  1.0  0.0941
  H  H36  1  0.635700  0.340800  0.880800  1.0  0.0977
  H  H37  1  0.051300  0.438600  0.315100  1.0  0.1183
  H  H38  1  0.738200  0.370800  0.417500  1.0  0.1084
  H  H39  1  0.804900  0.438800  0.509200  1.0  0.1208
  H  H40  1  0.124900  0.505300  0.406800  1.0  0.1149
  H  H41  1  0.328400  0.114300  0.927900  1.0  0.094
  H  H42  1  0.374800  0.136500  0.041100  1.0  0.1021
  H  H43  1  0.026700  0.244500  0.058900  1.0  0.0832
  H  H44  1  0.988000  0.227500  0.945100  1.0  0.094
  H  H45  1  0.135700  0.159200  0.880800  1.0  0.0982
  H  H46  1  0.551300  0.061400  0.315100  1.0  0.1183
  H  H47  1  0.238200  0.129200  0.417500  1.0  0.1082
  H  H48  1  0.304900  0.061200  0.509200  1.0  0.1206
  H  H49  1  0.624900  0.994700  0.406800  1.0  0.114
  H  H50  1  0.328400  0.385700  0.572100  1.0  0.0932
  H  H51  1  0.374800  0.363500  0.458900  1.0  0.1025
  H  H52  1  0.026700  0.255500  0.441100  1.0  0.0827
  H  H53  1  0.988000  0.272500  0.554900  1.0  0.0943
  H  H54  1  0.135700  0.340800  0.619200  1.0  0.0984
  H  H55  1  0.551300  0.438600  0.184900  1.0  0.1182
  H  H56  1  0.238200  0.370800  0.082500  1.0  0.1085
  H  H57  1  0.304900  0.438800  0.990800  1.0  0.1207
  H  H58  1  0.624900  0.505300  0.093200  1.0  0.1145
  H  H59  1  0.171600  0.885700  0.427900  1.0  0.0934
  H  H60  1  0.125200  0.863500  0.541100  1.0  0.102
  H  H61  1  0.473300  0.755500  0.558900  1.0  0.0835
  H  H62  1  0.512000  0.772500  0.445100  1.0  0.0943
  H  H63  1  0.364300  0.840800  0.380800  1.0  0.0977
  H  H64  1  0.948700  0.938600  0.815100  1.0  0.1185
  H  H65  1  0.261800  0.870800  0.917500  1.0  0.1091
  H  H66  1  0.195100  0.938800  0.009200  1.0  0.1213
  H  H67  1  0.875100  0.005300  0.906800  1.0  0.1144
  H  H68  1  0.171600  0.614300  0.072100  1.0  0.094
  H  H69  1  0.125200  0.636500  0.958900  1.0  0.1023
  H  H70  1  0.473300  0.744500  0.941100  1.0  0.0834
  H  H71  1  0.512000  0.727500  0.054900  1.0  0.0938
  H  H72  1  0.364300  0.659200  0.119200  1.0  0.0991
  H  H73  1  0.948700  0.561400  0.684900  1.0  0.1187
  H  H74  1  0.261800  0.629200  0.582500  1.0  0.1091
  H  H75  1  0.195100  0.561200  0.490800  1.0  0.121
  H  H76  1  0.875100  0.494700  0.593200  1.0  0.1139
  C  C77  1  0.772000  0.795730  0.864100  1.0  0.7132
  C  C78  1  0.793600  0.807700  0.938200  1.0  -0.1575
  C  C79  1  0.731700  0.858800  0.045700  1.0  -0.1017
  C  C80  1  0.704200  0.846000  0.977590  1.0  -0.0592
  C  C81  1  0.911200  0.780900  0.967450  1.0  -0.0694
  C  C82  1  0.935400  0.792100  0.035300  1.0  -0.0931
  C  C83  1  0.846400  0.832000  0.073800  1.0  -0.0832
  C  C84  1  0.523900  0.978970  0.529800  1.0  0.0595
  C  C85  1  0.497100  0.937600  0.644880  1.0  -0.0773
  C  C86  1  0.682600  0.897900  0.584290  1.0  -0.051
  C  C87  1  0.642300  0.938400  0.529310  1.0  -0.1437
  C  C88  1  0.453800  0.977900  0.589920  1.0  -0.1262
  C  C89  1  0.772000  0.704270  0.635900  1.0  0.71
  C  C90  1  0.793600  0.692300  0.561800  1.0  -0.1574
  C  C91  1  0.731700  0.641200  0.454300  1.0  -0.1001
  C  C92  1  0.704200  0.654000  0.522410  1.0  -0.0587
  C  C93  1  0.911200  0.719100  0.532550  1.0  -0.0699
  C  C94  1  0.935400  0.707900  0.464700  1.0  -0.09
  C  C95  1  0.846400  0.668000  0.426200  1.0  -0.0867
  C  C96  1  0.523900  0.521030  0.970200  1.0  0.059
  C  C97  1  0.497100  0.562400  0.855120  1.0  -0.078
  C  C98  1  0.682600  0.602100  0.915710  1.0  -0.0515
  C  C99  1  0.642300  0.561600  0.970690  1.0  -0.1444
  C  C100  1  0.453800  0.522100  0.910080  1.0  -0.1269
  C  C101  1  0.728000  0.204270  0.364100  1.0  0.7135
  C  C102  1  0.706400  0.192300  0.438200  1.0  -0.1571
  C  C103  1  0.768300  0.141200  0.545700  1.0  -0.0999
  C  C104  1  0.795800  0.154000  0.477590  1.0  -0.0584
  C  C105  1  0.588800  0.219100  0.467450  1.0  -0.0685
  C  C106  1  0.564600  0.207900  0.535300  1.0  -0.094
  C  C107  1  0.653600  0.168000  0.573800  1.0  -0.0839
  C  C108  1  0.976100  0.021030  0.029800  1.0  0.0603
  C  C109  1  0.002900  0.062400  0.144880  1.0  -0.077
  C  C110  1  0.817400  0.102100  0.084290  1.0  -0.0508
  C  C111  1  0.857700  0.061600  0.029310  1.0  -0.1438
  C  C112  1  0.046200  0.022100  0.089920  1.0  -0.1247
  C  C113  1  0.728000  0.295730  0.135900  1.0  0.7111
  C  C114  1  0.706400  0.307700  0.061800  1.0  -0.1573
  C  C115  1  0.768300  0.358800  0.954300  1.0  -0.0992
  C  C116  1  0.795800  0.346000  0.022410  1.0  -0.0592
  C  C117  1  0.588800  0.280900  0.032550  1.0  -0.0699
  C  C118  1  0.564600  0.292100  0.964700  1.0  -0.0909
  C  C119  1  0.653600  0.332000  0.926200  1.0  -0.0866
  C  C120  1  0.976100  0.478970  0.470200  1.0  0.0601
  C  C121  1  0.002900  0.437600  0.355120  1.0  -0.0773
  C  C122  1  0.817400  0.397900  0.415710  1.0  -0.0512
  C  C123  1  0.857700  0.438400  0.470690  1.0  -0.143
  C  C124  1  0.046200  0.477900  0.410080  1.0  -0.1275
  C  C125  1  0.228000  0.204270  0.135900  1.0  0.7116
  C  C126  1  0.206400  0.192300  0.061800  1.0  -0.1576
  C  C127  1  0.268300  0.141200  0.954300  1.0  -0.0992
  C  C128  1  0.295800  0.154000  0.022410  1.0  -0.0586
  C  C129  1  0.088800  0.219100  0.032550  1.0  -0.07
  C  C130  1  0.064600  0.207900  0.964700  1.0  -0.09
  C  C131  1  0.153600  0.168000  0.926200  1.0  -0.0863
  C  C132  1  0.476100  0.021030  0.470200  1.0  0.0598
  C  C133  1  0.502900  0.062400  0.355120  1.0  -0.0789
  C  C134  1  0.317400  0.102100  0.415710  1.0  -0.0513
  C  C135  1  0.357700  0.061600  0.470690  1.0  -0.1415
  C  C136  1  0.546200  0.022100  0.410080  1.0  -0.127
  C  C137  1  0.228000  0.295730  0.364100  1.0  0.7133
  C  C138  1  0.206400  0.307700  0.438200  1.0  -0.1573
  C  C139  1  0.268300  0.358800  0.545700  1.0  -0.0997
  C  C140  1  0.295800  0.346000  0.477590  1.0  -0.0594
  C  C141  1  0.088800  0.280900  0.467450  1.0  -0.0689
  C  C142  1  0.064600  0.292100  0.535300  1.0  -0.0947
  C  C143  1  0.153600  0.332000  0.573800  1.0  -0.0836
  C  C144  1  0.476100  0.478970  0.029800  1.0  0.0601
  C  C145  1  0.502900  0.437600  0.144880  1.0  -0.0764
  C  C146  1  0.317400  0.397900  0.084290  1.0  -0.0506
  C  C147  1  0.357700  0.438400  0.029310  1.0  -0.1423
  C  C148  1  0.546200  0.477900  0.089920  1.0  -0.1255
  C  C149  1  0.272000  0.795730  0.635900  1.0  0.7095
  C  C150  1  0.293600  0.807700  0.561800  1.0  -0.1572
  C  C151  1  0.231700  0.858800  0.454300  1.0  -0.1001
  C  C152  1  0.204200  0.846000  0.522410  1.0  -0.0594
  C  C153  1  0.411200  0.780900  0.532550  1.0  -0.0704
  C  C154  1  0.435400  0.792100  0.464700  1.0  -0.0912
  C  C155  1  0.346400  0.832000  0.426200  1.0  -0.0874
  C  C156  1  0.023900  0.978970  0.970200  1.0  0.0595
  C  C157  1  0.997100  0.937600  0.855120  1.0  -0.0772
  C  C158  1  0.182600  0.897900  0.915710  1.0  -0.0513
  C  C159  1  0.142300  0.938400  0.970690  1.0  -0.1429
  C  C160  1  0.953800  0.977900  0.910080  1.0  -0.128
  C  C161  1  0.272000  0.704270  0.864100  1.0  0.7133
  C  C162  1  0.293600  0.692300  0.938200  1.0  -0.1571
  C  C163  1  0.231700  0.641200  0.045700  1.0  -0.1017
  C  C164  1  0.204200  0.654000  0.977590  1.0  -0.0583
  C  C165  1  0.411200  0.719100  0.967450  1.0  -0.0686
  C  C166  1  0.435400  0.707900  0.035300  1.0  -0.0912
  C  C167  1  0.346400  0.668000  0.073800  1.0  -0.0835
  C  C168  1  0.023900  0.521030  0.529800  1.0  0.0595
  C  C169  1  0.997100  0.562400  0.644880  1.0  -0.0769
  C  C170  1  0.182600  0.602100  0.584290  1.0  -0.0513
  C  C171  1  0.142300  0.561600  0.529310  1.0  -0.1425
  C  C172  1  0.953800  0.522100  0.589920  1.0  -0.1253
  N  N173  1  0.609300  0.896580  0.640850  1.0  0.3185
  N  N174  1  0.609300  0.603420  0.859150  1.0  0.3198
  N  N175  1  0.890700  0.103420  0.140850  1.0  0.3169
  N  N176  1  0.890700  0.396580  0.359150  1.0  0.3203
  N  N177  1  0.390700  0.103420  0.359150  1.0  0.3206
  N  N178  1  0.390700  0.396580  0.140850  1.0  0.3174
  N  N179  1  0.109300  0.896580  0.859150  1.0  0.3196
  N  N180  1  0.109300  0.603420  0.640850  1.0  0.3179
  O  O181  1  0.657100  0.802460  0.840420  1.0  -0.7153
  O  O182  1  0.649200  0.856140  0.694030  1.0  -0.6975
  O  O183  1  0.871900  0.780300  0.829730  1.0  -0.7539
  O  O184  1  0.657100  0.697540  0.659580  1.0  -0.7149
  O  O185  1  0.649200  0.643860  0.805970  1.0  -0.6989
  O  O186  1  0.871900  0.719700  0.670270  1.0  -0.7533
  O  O187  1  0.842900  0.197540  0.340420  1.0  -0.7155
  O  O188  1  0.850800  0.143860  0.194030  1.0  -0.6986
  O  O189  1  0.628100  0.219700  0.329730  1.0  -0.7533
  O  O190  1  0.842900  0.302460  0.159580  1.0  -0.7147
  O  O191  1  0.850800  0.356140  0.305970  1.0  -0.6995
  O  O192  1  0.628100  0.280300  0.170270  1.0  -0.7536
  O  O193  1  0.342900  0.197540  0.159580  1.0  -0.7149
  O  O194  1  0.350800  0.143860  0.305970  1.0  -0.6991
  O  O195  1  0.128100  0.219700  0.170270  1.0  -0.7535
  O  O196  1  0.342900  0.302460  0.340420  1.0  -0.7145
  O  O197  1  0.350800  0.356140  0.194030  1.0  -0.6988
  O  O198  1  0.128100  0.280300  0.329730  1.0  -0.7536
  O  O199  1  0.157100  0.802460  0.659580  1.0  -0.7152
  O  O200  1  0.149200  0.856140  0.805970  1.0  -0.6995
  O  O201  1  0.371900  0.780300  0.670270  1.0  -0.7535
  O  O202  1  0.157100  0.697540  0.840420  1.0  -0.7158
  O  O203  1  0.149200  0.643860  0.694030  1.0  -0.6972
  O  O204  1  0.371900  0.719700  0.829730  1.0  -0.7536
