# generated using pymatgen
data_GdH18C24(NO3)2
_symmetry_space_group_name_H-M   'P 1'
_cell_length_a   10.04000000
_cell_length_b   17.78800000
_cell_length_c   19.78600000
_cell_angle_alpha   90.00000000
_cell_angle_beta   90.00000000
_cell_angle_gamma   90.00000000
_symmetry_Int_Tables_number   1
_chemical_formula_structural   GdH18C24(NO3)2
_chemical_formula_sum   'Gd4 H72 C96 N8 O24'
_cell_volume   3533.61181472
_cell_formula_units_Z   4
loop_
 _symmetry_equiv_pos_site_id
 _symmetry_equiv_pos_as_xyz
  1  'x, y, z'
loop_
 _atom_site_type_symbol
 _atom_site_label
 _atom_site_symmetry_multiplicity
 _atom_site_fract_x
 _atom_site_fract_y
 _atom_site_fract_z
 _atom_site_occupancy
 _atom_site_charge
  Gd  Gd1  1  0.469530  0.250000  0.250000  1.0  2.2535
  Gd  Gd2  1  0.030470  0.750000  0.750000  1.0  2.2538
  Gd  Gd3  1  0.530470  0.750000  0.750000  1.0  2.2584
  Gd  Gd4  1  0.969530  0.250000  0.250000  1.0  2.2581
  H  H5  1  0.330200  0.114900  0.571700  1.0  0.0908
  H  H6  1  0.238600  0.129000  0.081500  1.0  0.1151
  H  H7  1  0.305500  0.061800  0.991200  1.0  0.1121
  H  H8  1  0.376100  0.136600  0.458900  1.0  0.1022
  H  H9  1  0.987100  0.225100  0.554900  1.0  0.0869
  H  H10  1  0.027900  0.244800  0.440600  1.0  0.085
  H  H11  1  0.138700  0.160700  0.619800  1.0  0.0977
  H  H12  1  0.623200  0.993400  0.093600  1.0  0.1063
  H  H13  1  0.551700  0.061900  0.184900  1.0  0.1127
  H  H14  1  0.330200  0.385100  0.928300  1.0  0.0914
  H  H15  1  0.238600  0.371000  0.418500  1.0  0.1149
  H  H16  1  0.305500  0.438200  0.508800  1.0  0.1125
  H  H17  1  0.376100  0.363400  0.041100  1.0  0.1016
  H  H18  1  0.987100  0.274900  0.945100  1.0  0.0872
  H  H19  1  0.027900  0.255200  0.059400  1.0  0.085
  H  H20  1  0.138700  0.339300  0.880200  1.0  0.097
  H  H21  1  0.623200  0.506600  0.406400  1.0  0.1066
  H  H22  1  0.551700  0.438100  0.315100  1.0  0.1122
  H  H23  1  0.169800  0.885100  0.071700  1.0  0.0913
  H  H24  1  0.261400  0.871000  0.581500  1.0  0.1158
  H  H25  1  0.194500  0.938200  0.491200  1.0  0.1132
  H  H26  1  0.123900  0.863400  0.958900  1.0  0.102
  H  H27  1  0.512900  0.774900  0.054900  1.0  0.0868
  H  H28  1  0.472100  0.755200  0.940600  1.0  0.0849
  H  H29  1  0.361300  0.839300  0.119800  1.0  0.0979
  H  H30  1  0.876800  0.006600  0.593600  1.0  0.1064
  H  H31  1  0.948300  0.938100  0.684900  1.0  0.1135
  H  H32  1  0.169800  0.614900  0.428300  1.0  0.0899
  H  H33  1  0.261400  0.629000  0.918500  1.0  0.1155
  H  H34  1  0.194500  0.561800  0.008800  1.0  0.1128
  H  H35  1  0.123900  0.636600  0.541100  1.0  0.102
  H  H36  1  0.512900  0.725100  0.445100  1.0  0.0876
  H  H37  1  0.472100  0.744800  0.559400  1.0  0.0853
  H  H38  1  0.361300  0.660700  0.380200  1.0  0.0972
  H  H39  1  0.876800  0.493400  0.906400  1.0  0.1064
  H  H40  1  0.948300  0.561900  0.815100  1.0  0.1127
  H  H41  1  0.669800  0.885100  0.428300  1.0  0.091
  H  H42  1  0.761400  0.871000  0.918500  1.0  0.1157
  H  H43  1  0.694500  0.938200  0.008800  1.0  0.1128
  H  H44  1  0.623900  0.863400  0.541100  1.0  0.1016
  H  H45  1  0.012900  0.774900  0.445100  1.0  0.0871
  H  H46  1  0.972100  0.755200  0.559400  1.0  0.0854
  H  H47  1  0.861300  0.839300  0.380200  1.0  0.0969
  H  H48  1  0.376800  0.006600  0.906400  1.0  0.1061
  H  H49  1  0.448300  0.938100  0.815100  1.0  0.1129
  H  H50  1  0.669800  0.614900  0.071700  1.0  0.092
  H  H51  1  0.761400  0.629000  0.581500  1.0  0.1157
  H  H52  1  0.694500  0.561800  0.491200  1.0  0.1132
  H  H53  1  0.623900  0.636600  0.958900  1.0  0.1021
  H  H54  1  0.012900  0.725100  0.054900  1.0  0.0866
  H  H55  1  0.972100  0.744800  0.940600  1.0  0.0852
  H  H56  1  0.861300  0.660700  0.119800  1.0  0.0981
  H  H57  1  0.376800  0.493400  0.593600  1.0  0.1069
  H  H58  1  0.448300  0.561900  0.684900  1.0  0.1133
  H  H59  1  0.830200  0.114900  0.928300  1.0  0.0918
  H  H60  1  0.738600  0.129000  0.418500  1.0  0.1148
  H  H61  1  0.805500  0.061800  0.508800  1.0  0.1125
  H  H62  1  0.876100  0.136600  0.041100  1.0  0.1019
  H  H63  1  0.487100  0.225100  0.945100  1.0  0.0877
  H  H64  1  0.527900  0.244800  0.059400  1.0  0.085
  H  H65  1  0.638700  0.160700  0.880200  1.0  0.0972
  H  H66  1  0.123200  0.993400  0.406400  1.0  0.1061
  H  H67  1  0.051700  0.061900  0.315100  1.0  0.1123
  H  H68  1  0.830200  0.385100  0.571700  1.0  0.0912
  H  H69  1  0.738600  0.371000  0.081500  1.0  0.115
  H  H70  1  0.805500  0.438200  0.991200  1.0  0.1121
  H  H71  1  0.876100  0.363400  0.458900  1.0  0.1021
  H  H72  1  0.487100  0.274900  0.554900  1.0  0.087
  H  H73  1  0.527900  0.255200  0.440600  1.0  0.0845
  H  H74  1  0.638700  0.339300  0.619800  1.0  0.0976
  H  H75  1  0.123200  0.506600  0.093600  1.0  0.1063
  H  H76  1  0.051700  0.438100  0.184900  1.0  0.1127
  C  C77  1  0.229900  0.204400  0.363100  1.0  0.7124
  C  C78  1  0.476500  0.021400  0.030800  1.0  0.0481
  C  C79  1  0.206100  0.193000  0.438200  1.0  -0.1437
  C  C80  1  0.270000  0.141700  0.545400  1.0  -0.1012
  C  C81  1  0.317700  0.101800  0.083500  1.0  -0.0199
  C  C82  1  0.357900  0.062200  0.030000  1.0  -0.1472
  C  C83  1  0.297200  0.154200  0.477700  1.0  -0.059
  C  C84  1  0.065100  0.207000  0.535400  1.0  -0.0864
  C  C85  1  0.089800  0.219100  0.466900  1.0  -0.0679
  C  C86  1  0.155300  0.168600  0.574100  1.0  -0.0825
  C  C87  1  0.545400  0.021600  0.090100  1.0  -0.1621
  C  C88  1  0.502600  0.062600  0.145000  1.0  -0.0556
  C  C89  1  0.229900  0.295600  0.136900  1.0  0.7105
  C  C90  1  0.476500  0.478600  0.469200  1.0  0.0475
  C  C91  1  0.206100  0.307000  0.061800  1.0  -0.1441
  C  C92  1  0.270000  0.358300  0.954600  1.0  -0.1013
  C  C93  1  0.317700  0.398200  0.416500  1.0  -0.0197
  C  C94  1  0.357900  0.437800  0.470000  1.0  -0.1463
  C  C95  1  0.297200  0.345800  0.022300  1.0  -0.0593
  C  C96  1  0.065100  0.293000  0.964600  1.0  -0.085
  C  C97  1  0.089800  0.280900  0.033100  1.0  -0.0687
  C  C98  1  0.155300  0.331400  0.925900  1.0  -0.0835
  C  C99  1  0.545400  0.478400  0.409900  1.0  -0.1638
  C  C100  1  0.502600  0.437400  0.355000  1.0  -0.0571
  C  C101  1  0.270100  0.795600  0.863100  1.0  0.7115
  C  C102  1  0.023500  0.978600  0.530800  1.0  0.0484
  C  C103  1  0.293900  0.807000  0.938200  1.0  -0.1443
  C  C104  1  0.230000  0.858300  0.045400  1.0  -0.1028
  C  C105  1  0.182300  0.898200  0.583500  1.0  -0.0204
  C  C106  1  0.142100  0.937800  0.530000  1.0  -0.1449
  C  C107  1  0.202800  0.845800  0.977700  1.0  -0.0592
  C  C108  1  0.434900  0.793000  0.035400  1.0  -0.0852
  C  C109  1  0.410200  0.780900  0.966900  1.0  -0.0687
  C  C110  1  0.344700  0.831400  0.074100  1.0  -0.0813
  C  C111  1  0.954600  0.978400  0.590100  1.0  -0.1636
  C  C112  1  0.997400  0.937400  0.645000  1.0  -0.0567
  C  C113  1  0.270100  0.704400  0.636900  1.0  0.7095
  C  C114  1  0.023500  0.521400  0.969200  1.0  0.047
  C  C115  1  0.293900  0.693000  0.561800  1.0  -0.1442
  C  C116  1  0.230000  0.641700  0.454600  1.0  -0.1014
  C  C117  1  0.182300  0.601800  0.916500  1.0  -0.0194
  C  C118  1  0.142100  0.562200  0.970000  1.0  -0.1459
  C  C119  1  0.202800  0.654200  0.522300  1.0  -0.0591
  C  C120  1  0.434900  0.707000  0.464600  1.0  -0.0839
  C  C121  1  0.410200  0.719100  0.533100  1.0  -0.0694
  C  C122  1  0.344700  0.668600  0.425900  1.0  -0.0829
  C  C123  1  0.954600  0.521600  0.909900  1.0  -0.1627
  C  C124  1  0.997400  0.562600  0.855000  1.0  -0.0582
  C  C125  1  0.770100  0.795600  0.636900  1.0  0.7088
  C  C126  1  0.523500  0.978600  0.969200  1.0  0.0477
  C  C127  1  0.793900  0.807000  0.561800  1.0  -0.144
  C  C128  1  0.730000  0.858300  0.454600  1.0  -0.1011
  C  C129  1  0.682300  0.898200  0.916500  1.0  -0.0197
  C  C130  1  0.642100  0.937800  0.970000  1.0  -0.1457
  C  C131  1  0.702800  0.845800  0.522300  1.0  -0.0593
  C  C132  1  0.934900  0.793000  0.464600  1.0  -0.0852
  C  C133  1  0.910200  0.780900  0.533100  1.0  -0.0695
  C  C134  1  0.844700  0.831400  0.425900  1.0  -0.0832
  C  C135  1  0.454600  0.978400  0.909900  1.0  -0.1637
  C  C136  1  0.497400  0.937400  0.855000  1.0  -0.057
  C  C137  1  0.770100  0.704400  0.863100  1.0  0.7121
  C  C138  1  0.523500  0.521400  0.530800  1.0  0.048
  C  C139  1  0.793900  0.693000  0.938200  1.0  -0.144
  C  C140  1  0.730000  0.641700  0.045400  1.0  -0.1031
  C  C141  1  0.682300  0.601800  0.583500  1.0  -0.0198
  C  C142  1  0.642100  0.562200  0.530000  1.0  -0.1453
  C  C143  1  0.702800  0.654200  0.977700  1.0  -0.0589
  C  C144  1  0.934900  0.707000  0.035400  1.0  -0.0841
  C  C145  1  0.910200  0.719100  0.966900  1.0  -0.0683
  C  C146  1  0.844700  0.668600  0.074100  1.0  -0.0816
  C  C147  1  0.454600  0.521600  0.590100  1.0  -0.1627
  C  C148  1  0.497400  0.562600  0.645000  1.0  -0.0568
  C  C149  1  0.729900  0.204400  0.136900  1.0  0.7112
  C  C150  1  0.976500  0.021400  0.469200  1.0  0.0471
  C  C151  1  0.706100  0.193000  0.061800  1.0  -0.1443
  C  C152  1  0.770000  0.141700  0.954600  1.0  -0.1011
  C  C153  1  0.817700  0.101800  0.416500  1.0  -0.0201
  C  C154  1  0.857900  0.062200  0.470000  1.0  -0.1465
  C  C155  1  0.797200  0.154200  0.022300  1.0  -0.0588
  C  C156  1  0.565100  0.207000  0.964600  1.0  -0.0842
  C  C157  1  0.589800  0.219100  0.033100  1.0  -0.0693
  C  C158  1  0.655300  0.168600  0.925900  1.0  -0.0832
  C  C159  1  0.045400  0.021600  0.409900  1.0  -0.1633
  C  C160  1  0.002600  0.062600  0.355000  1.0  -0.0588
  C  C161  1  0.729900  0.295600  0.363100  1.0  0.7117
  C  C162  1  0.976500  0.478600  0.030800  1.0  0.0483
  C  C163  1  0.706100  0.307000  0.438200  1.0  -0.144
  C  C164  1  0.770000  0.358300  0.545400  1.0  -0.1011
  C  C165  1  0.817700  0.398200  0.083500  1.0  -0.0197
  C  C166  1  0.857900  0.437800  0.030000  1.0  -0.1468
  C  C167  1  0.797200  0.345800  0.477700  1.0  -0.0598
  C  C168  1  0.565100  0.293000  0.535400  1.0  -0.0864
  C  C169  1  0.589800  0.280900  0.466900  1.0  -0.0679
  C  C170  1  0.655300  0.331400  0.574100  1.0  -0.0819
  C  C171  1  0.045400  0.478400  0.090100  1.0  -0.1626
  C  C172  1  0.002600  0.437400  0.145000  1.0  -0.0553
  N  N173  1  0.393000  0.102600  0.141500  1.0  0.2869
  N  N174  1  0.393000  0.397400  0.358500  1.0  0.2902
  N  N175  1  0.107000  0.897400  0.641500  1.0  0.2885
  N  N176  1  0.107000  0.602600  0.858500  1.0  0.2904
  N  N177  1  0.607000  0.897400  0.858500  1.0  0.2897
  N  N178  1  0.607000  0.602600  0.641500  1.0  0.288
  N  N179  1  0.893000  0.102600  0.358500  1.0  0.2908
  N  N180  1  0.893000  0.397400  0.141500  1.0  0.2882
  O  O181  1  0.352500  0.144900  0.194250  1.0  -0.7016
  O  O182  1  0.345000  0.198200  0.340850  1.0  -0.7154
  O  O183  1  0.129700  0.219800  0.328110  1.0  -0.741
  O  O184  1  0.352500  0.355100  0.305750  1.0  -0.7036
  O  O185  1  0.345000  0.301800  0.159150  1.0  -0.714
  O  O186  1  0.129700  0.280200  0.171890  1.0  -0.7423
  O  O187  1  0.147500  0.855100  0.694250  1.0  -0.7001
  O  O188  1  0.155000  0.801800  0.840850  1.0  -0.7154
  O  O189  1  0.370300  0.780200  0.828110  1.0  -0.7413
  O  O190  1  0.147500  0.644900  0.805750  1.0  -0.7029
  O  O191  1  0.155000  0.698200  0.659150  1.0  -0.7146
  O  O192  1  0.370300  0.719800  0.671890  1.0  -0.7421
  O  O193  1  0.647500  0.855100  0.805750  1.0  -0.7032
  O  O194  1  0.655000  0.801800  0.659150  1.0  -0.7146
  O  O195  1  0.870300  0.780200  0.671890  1.0  -0.7421
  O  O196  1  0.647500  0.644900  0.694250  1.0  -0.7
  O  O197  1  0.655000  0.698200  0.840850  1.0  -0.7162
  O  O198  1  0.870300  0.719800  0.828110  1.0  -0.7409
  O  O199  1  0.852500  0.144900  0.305750  1.0  -0.7033
  O  O200  1  0.845000  0.198200  0.159150  1.0  -0.7142
  O  O201  1  0.629700  0.219800  0.171890  1.0  -0.7422
  O  O202  1  0.852500  0.355100  0.194250  1.0  -0.7017
  O  O203  1  0.845000  0.301800  0.340850  1.0  -0.7147
  O  O204  1  0.629700  0.280200  0.328110  1.0  -0.7414
