# generated using pymatgen
data_ZnH14C24(NO2)2
_symmetry_space_group_name_H-M   'P 1'
_cell_length_a   28.66260000
_cell_length_b   10.69050000
_cell_length_c   28.23210000
_cell_angle_alpha   90.00000000
_cell_angle_beta   111.52200000
_cell_angle_gamma   90.00000000
_symmetry_Int_Tables_number   1
_chemical_formula_structural   ZnH14C24(NO2)2
_chemical_formula_sum   'Zn8 H112 C192 N16 O32'
_cell_volume   8047.64781185
_cell_formula_units_Z   8
loop_
 _symmetry_equiv_pos_site_id
 _symmetry_equiv_pos_as_xyz
  1  'x, y, z'
loop_
 _atom_site_type_symbol
 _atom_site_label
 _atom_site_symmetry_multiplicity
 _atom_site_fract_x
 _atom_site_fract_y
 _atom_site_fract_z
 _atom_site_occupancy
 _atom_site_charge
  Zn  Zn1  1  0.109150  0.223930  0.480110  1.0  0.9755
  Zn  Zn2  1  0.609150  0.723930  0.480110  1.0  0.9755
  Zn  Zn3  1  0.109150  0.776070  0.980110  1.0  0.9748
  Zn  Zn4  1  0.609150  0.276070  0.980110  1.0  0.9748
  Zn  Zn5  1  0.890850  0.223930  0.019890  1.0  0.9755
  Zn  Zn6  1  0.390850  0.723930  0.019890  1.0  0.9755
  Zn  Zn7  1  0.890850  0.776070  0.519890  1.0  0.9741
  Zn  Zn8  1  0.390850  0.276070  0.519890  1.0  0.9741
  H  H9  1  0.295600  0.464500  0.922500  1.0  0.1204
  H  H10  1  0.169200  0.471100  0.797400  1.0  0.1142
  H  H11  1  0.462000  0.449600  0.969300  1.0  0.0995
  H  H12  1  0.376700  0.494700  0.937000  1.0  0.107
  H  H13  1  0.354800  0.232000  0.829400  1.0  0.1107
  H  H14  1  0.219200  0.198900  0.643400  1.0  0.0809
  H  H15  1  0.150900  0.503600  0.714400  1.0  0.11
  H  H16  1  0.118100  0.467500  0.627100  1.0  0.1028
  H  H17  1  0.254500  0.238800  0.729500  1.0  0.0998
  H  H18  1  0.439500  0.188700  0.861500  1.0  0.1014
  H  H19  1  0.257000  0.599700  0.952900  1.0  0.1064
  H  H20  1  0.210500  0.683100  0.996900  1.0  0.0681
  H  H21  1  0.088900  0.582000  0.895900  1.0  0.0895
  H  H22  1  0.130100  0.467000  0.855000  1.0  0.1286
  H  H23  1  0.795600  0.964500  0.922500  1.0  0.1204
  H  H24  1  0.669200  0.971100  0.797400  1.0  0.1142
  H  H25  1  0.962000  0.949600  0.969300  1.0  0.0995
  H  H26  1  0.876700  0.994700  0.937000  1.0  0.107
  H  H27  1  0.854800  0.732000  0.829400  1.0  0.1107
  H  H28  1  0.719200  0.698900  0.643400  1.0  0.0809
  H  H29  1  0.650900  0.003600  0.714400  1.0  0.11
  H  H30  1  0.618100  0.967500  0.627100  1.0  0.1028
  H  H31  1  0.754500  0.738800  0.729500  1.0  0.0998
  H  H32  1  0.939500  0.688700  0.861500  1.0  0.1014
  H  H33  1  0.757000  0.099700  0.952900  1.0  0.1064
  H  H34  1  0.710500  0.183100  0.996900  1.0  0.0681
  H  H35  1  0.588900  0.082000  0.895900  1.0  0.0895
  H  H36  1  0.630100  0.967000  0.855000  1.0  0.1286
  H  H37  1  0.295600  0.535500  0.422500  1.0  0.1202
  H  H38  1  0.169200  0.528900  0.297400  1.0  0.1143
  H  H39  1  0.462000  0.550400  0.469300  1.0  0.0995
  H  H40  1  0.376700  0.505300  0.437000  1.0  0.1071
  H  H41  1  0.354800  0.768000  0.329400  1.0  0.1108
  H  H42  1  0.219200  0.801100  0.143400  1.0  0.0804
  H  H43  1  0.150900  0.496400  0.214400  1.0  0.1106
  H  H44  1  0.118100  0.532500  0.127100  1.0  0.1024
  H  H45  1  0.254500  0.761200  0.229500  1.0  0.0998
  H  H46  1  0.439500  0.811300  0.361500  1.0  0.1015
  H  H47  1  0.257000  0.400300  0.452900  1.0  0.1061
  H  H48  1  0.210500  0.316900  0.496900  1.0  0.0681
  H  H49  1  0.088900  0.418000  0.395900  1.0  0.0889
  H  H50  1  0.130100  0.533000  0.355000  1.0  0.1293
  H  H51  1  0.795600  0.035500  0.422500  1.0  0.1202
  H  H52  1  0.669200  0.028900  0.297400  1.0  0.1143
  H  H53  1  0.962000  0.050400  0.469300  1.0  0.0995
  H  H54  1  0.876700  0.005300  0.437000  1.0  0.1071
  H  H55  1  0.854800  0.268000  0.329400  1.0  0.1108
  H  H56  1  0.719200  0.301100  0.143400  1.0  0.0804
  H  H57  1  0.650900  0.996400  0.214400  1.0  0.1106
  H  H58  1  0.618100  0.032500  0.127100  1.0  0.1024
  H  H59  1  0.754500  0.261200  0.229500  1.0  0.0998
  H  H60  1  0.939500  0.311300  0.361500  1.0  0.1015
  H  H61  1  0.757000  0.900300  0.452900  1.0  0.1061
  H  H62  1  0.710500  0.816900  0.496900  1.0  0.0681
  H  H63  1  0.588900  0.918000  0.395900  1.0  0.0889
  H  H64  1  0.630100  0.033000  0.355000  1.0  0.1293
  H  H65  1  0.704400  0.464500  0.577500  1.0  0.1205
  H  H66  1  0.830800  0.471100  0.702600  1.0  0.1139
  H  H67  1  0.538000  0.449600  0.530700  1.0  0.0991
  H  H68  1  0.623300  0.494700  0.563000  1.0  0.1073
  H  H69  1  0.645200  0.232000  0.670600  1.0  0.1112
  H  H70  1  0.780800  0.198900  0.856600  1.0  0.081
  H  H71  1  0.849100  0.503600  0.785600  1.0  0.1096
  H  H72  1  0.881900  0.467500  0.872900  1.0  0.1017
  H  H73  1  0.745500  0.238800  0.770500  1.0  0.0998
  H  H74  1  0.560500  0.188700  0.638500  1.0  0.1019
  H  H75  1  0.743000  0.599700  0.547100  1.0  0.1053
  H  H76  1  0.789500  0.683100  0.503100  1.0  0.0684
  H  H77  1  0.911100  0.582000  0.604100  1.0  0.0889
  H  H78  1  0.869900  0.467000  0.645000  1.0  0.1288
  H  H79  1  0.204400  0.964500  0.577500  1.0  0.1205
  H  H80  1  0.330800  0.971100  0.702600  1.0  0.1139
  H  H81  1  0.038000  0.949600  0.530700  1.0  0.0991
  H  H82  1  0.123300  0.994700  0.563000  1.0  0.1073
  H  H83  1  0.145200  0.732000  0.670600  1.0  0.1112
  H  H84  1  0.280800  0.698900  0.856600  1.0  0.081
  H  H85  1  0.349100  0.003600  0.785600  1.0  0.1096
  H  H86  1  0.381900  0.967500  0.872900  1.0  0.1017
  H  H87  1  0.245500  0.738800  0.770500  1.0  0.0998
  H  H88  1  0.060500  0.688700  0.638500  1.0  0.1019
  H  H89  1  0.243000  0.099700  0.547100  1.0  0.1053
  H  H90  1  0.289500  0.183100  0.503100  1.0  0.0684
  H  H91  1  0.411100  0.082000  0.604100  1.0  0.0889
  H  H92  1  0.369900  0.967000  0.645000  1.0  0.1288
  H  H93  1  0.704400  0.535500  0.077500  1.0  0.1202
  H  H94  1  0.830800  0.528900  0.202600  1.0  0.114
  H  H95  1  0.538000  0.550400  0.030700  1.0  0.0987
  H  H96  1  0.623300  0.505300  0.063000  1.0  0.1071
  H  H97  1  0.645200  0.768000  0.170600  1.0  0.1112
  H  H98  1  0.780800  0.801100  0.356600  1.0  0.0806
  H  H99  1  0.849100  0.496400  0.285600  1.0  0.1097
  H  H100  1  0.881900  0.532500  0.372900  1.0  0.1017
  H  H101  1  0.745500  0.761200  0.270500  1.0  0.1001
  H  H102  1  0.560500  0.811300  0.138500  1.0  0.1018
  H  H103  1  0.743000  0.400300  0.047100  1.0  0.1055
  H  H104  1  0.789500  0.316900  0.003100  1.0  0.0686
  H  H105  1  0.911100  0.418000  0.104100  1.0  0.0887
  H  H106  1  0.869900  0.533000  0.145000  1.0  0.1285
  H  H107  1  0.204400  0.035500  0.077500  1.0  0.1202
  H  H108  1  0.330800  0.028900  0.202600  1.0  0.114
  H  H109  1  0.038000  0.050400  0.030700  1.0  0.0987
  H  H110  1  0.123300  0.005300  0.063000  1.0  0.1071
  H  H111  1  0.145200  0.268000  0.170600  1.0  0.1112
  H  H112  1  0.280800  0.301100  0.356600  1.0  0.0806
  H  H113  1  0.349100  0.996400  0.285600  1.0  0.1097
  H  H114  1  0.381900  0.032500  0.372900  1.0  0.1017
  H  H115  1  0.245500  0.261200  0.270500  1.0  0.1001
  H  H116  1  0.060500  0.311300  0.138500  1.0  0.1018
  H  H117  1  0.243000  0.900300  0.047100  1.0  0.1055
  H  H118  1  0.289500  0.816900  0.003100  1.0  0.0686
  H  H119  1  0.411100  0.918000  0.104100  1.0  0.0887
  H  H120  1  0.369900  0.033000  0.145000  1.0  0.1285
  C  C121  1  0.199710  0.539600  0.895000  1.0  0.0698
  C  C122  1  0.227140  0.480000  0.865500  1.0  0.0967
  C  C123  1  0.302550  0.397700  0.858380  1.0  0.2374
  C  C124  1  0.230250  0.403700  0.786580  1.0  0.2344
  C  C125  1  0.278210  0.449800  0.888010  1.0  -0.1282
  C  C126  1  0.356810  0.368100  0.879850  1.0  -0.0726
  C  C127  1  0.207030  0.377100  0.731110  1.0  -0.0575
  C  C128  1  0.203210  0.454300  0.813630  1.0  -0.1096
  C  C129  1  0.142930  0.301900  0.570330  1.0  0.6585
  C  C130  1  0.164870  0.329100  0.626640  1.0  -0.1199
  C  C131  1  0.440620  0.406600  0.941030  1.0  -0.0468
  C  C132  1  0.389260  0.433100  0.921720  1.0  -0.1273
  C  C133  1  0.459480  0.316800  0.918120  1.0  -0.1373
  C  C134  1  0.376050  0.276300  0.857310  1.0  -0.0791
  C  C135  1  0.205760  0.261200  0.657520  1.0  -0.0255
  C  C136  1  0.165410  0.443600  0.700250  1.0  -0.1369
  C  C137  1  0.145200  0.420400  0.647780  1.0  -0.0457
  C  C138  1  0.226870  0.284900  0.709240  1.0  -0.0764
  C  C139  1  0.426880  0.250900  0.876600  1.0  -0.0535
  C  C140  1  0.515010  0.291000  0.938200  1.0  0.6254
  C  C141  1  0.222170  0.596500  0.938800  1.0  -0.1843
  C  C142  1  0.193470  0.652700  0.964200  1.0  0.1845
  C  C143  1  0.123590  0.589200  0.906600  1.0  0.1806
  C  C144  1  0.147580  0.522200  0.880900  1.0  -0.2242
  C  C145  1  0.699710  0.039600  0.895000  1.0  0.0698
  C  C146  1  0.727140  0.980000  0.865500  1.0  0.0967
  C  C147  1  0.802550  0.897700  0.858380  1.0  0.2374
  C  C148  1  0.730250  0.903700  0.786580  1.0  0.2344
  C  C149  1  0.778210  0.949800  0.888010  1.0  -0.1282
  C  C150  1  0.856810  0.868100  0.879850  1.0  -0.0726
  C  C151  1  0.707030  0.877100  0.731110  1.0  -0.0575
  C  C152  1  0.703210  0.954300  0.813630  1.0  -0.1096
  C  C153  1  0.642930  0.801900  0.570330  1.0  0.6585
  C  C154  1  0.664870  0.829100  0.626640  1.0  -0.1199
  C  C155  1  0.940620  0.906600  0.941030  1.0  -0.0468
  C  C156  1  0.889260  0.933100  0.921720  1.0  -0.1273
  C  C157  1  0.959480  0.816800  0.918120  1.0  -0.1373
  C  C158  1  0.876050  0.776300  0.857310  1.0  -0.0791
  C  C159  1  0.705760  0.761200  0.657520  1.0  -0.0255
  C  C160  1  0.665410  0.943600  0.700250  1.0  -0.1369
  C  C161  1  0.645200  0.920400  0.647780  1.0  -0.0457
  C  C162  1  0.726870  0.784900  0.709240  1.0  -0.0764
  C  C163  1  0.926880  0.750900  0.876600  1.0  -0.0535
  C  C164  1  0.015010  0.791000  0.938200  1.0  0.6254
  C  C165  1  0.722170  0.096500  0.938800  1.0  -0.1843
  C  C166  1  0.693470  0.152700  0.964200  1.0  0.1845
  C  C167  1  0.623590  0.089200  0.906600  1.0  0.1806
  C  C168  1  0.647580  0.022200  0.880900  1.0  -0.2242
  C  C169  1  0.199710  0.460400  0.395000  1.0  0.0695
  C  C170  1  0.227140  0.520000  0.365500  1.0  0.0966
  C  C171  1  0.302550  0.602300  0.358380  1.0  0.2371
  C  C172  1  0.230250  0.596300  0.286580  1.0  0.2342
  C  C173  1  0.278210  0.550200  0.388010  1.0  -0.1282
  C  C174  1  0.356810  0.631900  0.379850  1.0  -0.0726
  C  C175  1  0.207030  0.622900  0.231110  1.0  -0.0571
  C  C176  1  0.203210  0.545700  0.313630  1.0  -0.1098
  C  C177  1  0.142930  0.698100  0.070330  1.0  0.6588
  C  C178  1  0.164870  0.670900  0.126640  1.0  -0.1197
  C  C179  1  0.440620  0.593400  0.441030  1.0  -0.0467
  C  C180  1  0.389260  0.566900  0.421720  1.0  -0.1274
  C  C181  1  0.459480  0.683200  0.418120  1.0  -0.1372
  C  C182  1  0.376050  0.723700  0.357310  1.0  -0.0798
  C  C183  1  0.205760  0.738800  0.157520  1.0  -0.0255
  C  C184  1  0.165410  0.556400  0.200250  1.0  -0.1363
  C  C185  1  0.145200  0.579600  0.147780  1.0  -0.0462
  C  C186  1  0.226870  0.715100  0.209240  1.0  -0.0765
  C  C187  1  0.426880  0.749100  0.376600  1.0  -0.0539
  C  C188  1  0.515010  0.709000  0.438200  1.0  0.6257
  C  C189  1  0.222170  0.403500  0.438800  1.0  -0.1844
  C  C190  1  0.193470  0.347300  0.464200  1.0  0.1843
  C  C191  1  0.123590  0.410800  0.406600  1.0  0.1802
  C  C192  1  0.147580  0.477800  0.380900  1.0  -0.2261
  C  C193  1  0.699710  0.960400  0.395000  1.0  0.0695
  C  C194  1  0.727140  0.020000  0.365500  1.0  0.0966
  C  C195  1  0.802550  0.102300  0.358380  1.0  0.2371
  C  C196  1  0.730250  0.096300  0.286580  1.0  0.2342
  C  C197  1  0.778210  0.050200  0.388010  1.0  -0.1282
  C  C198  1  0.856810  0.131900  0.379850  1.0  -0.0726
  C  C199  1  0.707030  0.122900  0.231110  1.0  -0.0571
  C  C200  1  0.703210  0.045700  0.313630  1.0  -0.1098
  C  C201  1  0.642930  0.198100  0.070330  1.0  0.6588
  C  C202  1  0.664870  0.170900  0.126640  1.0  -0.1197
  C  C203  1  0.940620  0.093400  0.441030  1.0  -0.0467
  C  C204  1  0.889260  0.066900  0.421720  1.0  -0.1274
  C  C205  1  0.959480  0.183200  0.418120  1.0  -0.1372
  C  C206  1  0.876050  0.223700  0.357310  1.0  -0.0798
  C  C207  1  0.705760  0.238800  0.157520  1.0  -0.0255
  C  C208  1  0.665410  0.056400  0.200250  1.0  -0.1363
  C  C209  1  0.645200  0.079600  0.147780  1.0  -0.0462
  C  C210  1  0.726870  0.215100  0.209240  1.0  -0.0765
  C  C211  1  0.926880  0.249100  0.376600  1.0  -0.0539
  C  C212  1  0.015010  0.209000  0.438200  1.0  0.6257
  C  C213  1  0.722170  0.903500  0.438800  1.0  -0.1844
  C  C214  1  0.693470  0.847300  0.464200  1.0  0.1843
  C  C215  1  0.623590  0.910800  0.406600  1.0  0.1802
  C  C216  1  0.647580  0.977800  0.380900  1.0  -0.2261
  C  C217  1  0.800290  0.539600  0.605000  1.0  0.067
  C  C218  1  0.772860  0.480000  0.634500  1.0  0.0975
  C  C219  1  0.697450  0.397700  0.641620  1.0  0.238
  C  C220  1  0.769750  0.403700  0.713420  1.0  0.2339
  C  C221  1  0.721790  0.449800  0.611990  1.0  -0.1287
  C  C222  1  0.643190  0.368100  0.620150  1.0  -0.073
  C  C223  1  0.792970  0.377100  0.768890  1.0  -0.0571
  C  C224  1  0.796790  0.454300  0.686370  1.0  -0.1091
  C  C225  1  0.857070  0.301900  0.929670  1.0  0.6597
  C  C226  1  0.835130  0.329100  0.873360  1.0  -0.1193
  C  C227  1  0.559380  0.406600  0.558970  1.0  -0.0467
  C  C228  1  0.610740  0.433100  0.578280  1.0  -0.1261
  C  C229  1  0.540520  0.316800  0.581880  1.0  -0.1369
  C  C230  1  0.623950  0.276300  0.642690  1.0  -0.0795
  C  C231  1  0.794240  0.261200  0.842480  1.0  -0.0259
  C  C232  1  0.834590  0.443600  0.799750  1.0  -0.1373
  C  C233  1  0.854800  0.420400  0.852220  1.0  -0.0462
  C  C234  1  0.773130  0.284900  0.790760  1.0  -0.0749
  C  C235  1  0.573120  0.250900  0.623400  1.0  -0.0536
  C  C236  1  0.484990  0.291000  0.561800  1.0  0.626
  C  C237  1  0.777830  0.596500  0.561200  1.0  -0.1868
  C  C238  1  0.806530  0.652700  0.535800  1.0  0.1849
  C  C239  1  0.876410  0.589200  0.593400  1.0  0.1805
  C  C240  1  0.852420  0.522200  0.619100  1.0  -0.2247
  C  C241  1  0.300290  0.039600  0.605000  1.0  0.067
  C  C242  1  0.272860  0.980000  0.634500  1.0  0.0975
  C  C243  1  0.197450  0.897700  0.641620  1.0  0.238
  C  C244  1  0.269750  0.903700  0.713420  1.0  0.2339
  C  C245  1  0.221790  0.949800  0.611990  1.0  -0.1287
  C  C246  1  0.143190  0.868100  0.620150  1.0  -0.073
  C  C247  1  0.292970  0.877100  0.768890  1.0  -0.0571
  C  C248  1  0.296790  0.954300  0.686370  1.0  -0.1091
  C  C249  1  0.357070  0.801900  0.929670  1.0  0.6597
  C  C250  1  0.335130  0.829100  0.873360  1.0  -0.1193
  C  C251  1  0.059380  0.906600  0.558970  1.0  -0.0467
  C  C252  1  0.110740  0.933100  0.578280  1.0  -0.1261
  C  C253  1  0.040520  0.816800  0.581880  1.0  -0.1369
  C  C254  1  0.123950  0.776300  0.642690  1.0  -0.0795
  C  C255  1  0.294240  0.761200  0.842480  1.0  -0.0259
  C  C256  1  0.334590  0.943600  0.799750  1.0  -0.1373
  C  C257  1  0.354800  0.920400  0.852220  1.0  -0.0462
  C  C258  1  0.273130  0.784900  0.790760  1.0  -0.0749
  C  C259  1  0.073120  0.750900  0.623400  1.0  -0.0536
  C  C260  1  0.984990  0.791000  0.561800  1.0  0.626
  C  C261  1  0.277830  0.096500  0.561200  1.0  -0.1868
  C  C262  1  0.306530  0.152700  0.535800  1.0  0.1849
  C  C263  1  0.376410  0.089200  0.593400  1.0  0.1805
  C  C264  1  0.352420  0.022200  0.619100  1.0  -0.2247
  C  C265  1  0.800290  0.460400  0.105000  1.0  0.067
  C  C266  1  0.772860  0.520000  0.134500  1.0  0.0972
  C  C267  1  0.697450  0.602300  0.141620  1.0  0.2378
  C  C268  1  0.769750  0.596300  0.213420  1.0  0.234
  C  C269  1  0.721790  0.550200  0.111990  1.0  -0.1276
  C  C270  1  0.643190  0.631900  0.120150  1.0  -0.073
  C  C271  1  0.792970  0.622900  0.268890  1.0  -0.0568
  C  C272  1  0.796790  0.545700  0.186370  1.0  -0.109
  C  C273  1  0.857070  0.698100  0.429670  1.0  0.6601
  C  C274  1  0.835130  0.670900  0.373360  1.0  -0.1194
  C  C275  1  0.559380  0.593400  0.058970  1.0  -0.0465
  C  C276  1  0.610740  0.566900  0.078280  1.0  -0.1255
  C  C277  1  0.540520  0.683200  0.081880  1.0  -0.137
  C  C278  1  0.623950  0.723700  0.142690  1.0  -0.0795
  C  C279  1  0.794240  0.738800  0.342480  1.0  -0.0258
  C  C280  1  0.834590  0.556400  0.299750  1.0  -0.1365
  C  C281  1  0.854800  0.579600  0.352220  1.0  -0.0463
  C  C282  1  0.773130  0.715100  0.290760  1.0  -0.0753
  C  C283  1  0.573120  0.749100  0.123400  1.0  -0.0533
  C  C284  1  0.484990  0.709000  0.061800  1.0  0.6262
  C  C285  1  0.777830  0.403500  0.061200  1.0  -0.1868
  C  C286  1  0.806530  0.347300  0.035800  1.0  0.1848
  C  C287  1  0.876410  0.410800  0.093400  1.0  0.1803
  C  C288  1  0.852420  0.477800  0.119100  1.0  -0.225
  C  C289  1  0.300290  0.960400  0.105000  1.0  0.067
  C  C290  1  0.272860  0.020000  0.134500  1.0  0.0972
  C  C291  1  0.197450  0.102300  0.141620  1.0  0.2378
  C  C292  1  0.269750  0.096300  0.213420  1.0  0.234
  C  C293  1  0.221790  0.050200  0.111990  1.0  -0.1276
  C  C294  1  0.143190  0.131900  0.120150  1.0  -0.073
  C  C295  1  0.292970  0.122900  0.268890  1.0  -0.0568
  C  C296  1  0.296790  0.045700  0.186370  1.0  -0.109
  C  C297  1  0.357070  0.198100  0.429670  1.0  0.6601
  C  C298  1  0.335130  0.170900  0.373360  1.0  -0.1194
  C  C299  1  0.059380  0.093400  0.058970  1.0  -0.0465
  C  C300  1  0.110740  0.066900  0.078280  1.0  -0.1255
  C  C301  1  0.040520  0.183200  0.081880  1.0  -0.137
  C  C302  1  0.123950  0.223700  0.142690  1.0  -0.0795
  C  C303  1  0.294240  0.238800  0.342480  1.0  -0.0258
  C  C304  1  0.334590  0.056400  0.299750  1.0  -0.1365
  C  C305  1  0.354800  0.079600  0.352220  1.0  -0.0463
  C  C306  1  0.273130  0.215100  0.290760  1.0  -0.0753
  C  C307  1  0.073120  0.249100  0.123400  1.0  -0.0533
  C  C308  1  0.984990  0.209000  0.061800  1.0  0.6262
  C  C309  1  0.277830  0.903500  0.061200  1.0  -0.1868
  C  C310  1  0.306530  0.847300  0.035800  1.0  0.1848
  C  C311  1  0.376410  0.910800  0.093400  1.0  0.1803
  C  C312  1  0.352420  0.977800  0.119100  1.0  -0.225
  N  N313  1  0.279070  0.373800  0.808580  1.0  -0.4225
  N  N314  1  0.147110  0.664700  0.946280  1.0  -0.2564
  N  N315  1  0.779070  0.873800  0.808580  1.0  -0.4225
  N  N316  1  0.647110  0.164700  0.946280  1.0  -0.2564
  N  N317  1  0.279070  0.626200  0.308580  1.0  -0.4213
  N  N318  1  0.147110  0.335300  0.446280  1.0  -0.2552
  N  N319  1  0.779070  0.126200  0.308580  1.0  -0.4213
  N  N320  1  0.647110  0.835300  0.446280  1.0  -0.2552
  N  N321  1  0.720930  0.373800  0.691420  1.0  -0.4224
  N  N322  1  0.852890  0.664700  0.553720  1.0  -0.2565
  N  N323  1  0.220930  0.873800  0.691420  1.0  -0.4224
  N  N324  1  0.352890  0.164700  0.553720  1.0  -0.2565
  N  N325  1  0.720930  0.626200  0.191420  1.0  -0.4225
  N  N326  1  0.852890  0.335300  0.053720  1.0  -0.2554
  N  N327  1  0.220930  0.126200  0.191420  1.0  -0.4225
  N  N328  1  0.352890  0.835300  0.053720  1.0  -0.2554
  O  O329  1  0.159290  0.212200  0.553160  1.0  -0.5817
  O  O330  1  0.107970  0.371500  0.542250  1.0  -0.619
  O  O331  1  0.542340  0.348900  0.977320  1.0  -0.5773
  O  O332  1  0.533190  0.216700  0.917200  1.0  -0.6194
  O  O333  1  0.659290  0.712200  0.553160  1.0  -0.5817
  O  O334  1  0.607970  0.871500  0.542250  1.0  -0.619
  O  O335  1  0.042340  0.848900  0.977320  1.0  -0.5773
  O  O336  1  0.033190  0.716700  0.917200  1.0  -0.6194
  O  O337  1  0.159290  0.787800  0.053160  1.0  -0.5821
  O  O338  1  0.107970  0.628500  0.042250  1.0  -0.619
  O  O339  1  0.542340  0.651100  0.477320  1.0  -0.5774
  O  O340  1  0.533190  0.783300  0.417200  1.0  -0.6199
  O  O341  1  0.659290  0.287800  0.053160  1.0  -0.5821
  O  O342  1  0.607970  0.128500  0.042250  1.0  -0.619
  O  O343  1  0.042340  0.151100  0.477320  1.0  -0.5774
  O  O344  1  0.033190  0.283300  0.417200  1.0  -0.6199
  O  O345  1  0.840710  0.212200  0.946840  1.0  -0.5814
  O  O346  1  0.892030  0.371500  0.957750  1.0  -0.6193
  O  O347  1  0.457660  0.348900  0.522680  1.0  -0.5773
  O  O348  1  0.466810  0.216700  0.582800  1.0  -0.6171
  O  O349  1  0.340710  0.712200  0.946840  1.0  -0.5814
  O  O350  1  0.392030  0.871500  0.957750  1.0  -0.6193
  O  O351  1  0.957660  0.848900  0.522680  1.0  -0.5773
  O  O352  1  0.966810  0.716700  0.582800  1.0  -0.6171
  O  O353  1  0.840710  0.787800  0.446840  1.0  -0.5821
  O  O354  1  0.892030  0.628500  0.457750  1.0  -0.6195
  O  O355  1  0.457660  0.651100  0.022680  1.0  -0.5774
  O  O356  1  0.466810  0.783300  0.082800  1.0  -0.6171
  O  O357  1  0.340710  0.287800  0.446840  1.0  -0.5821
  O  O358  1  0.392030  0.128500  0.457750  1.0  -0.6195
  O  O359  1  0.957660  0.151100  0.022680  1.0  -0.5774
  O  O360  1  0.966810  0.283300  0.082800  1.0  -0.6171
