# generated using pymatgen
data_MgH2(CO2)2
_symmetry_space_group_name_H-M   'P 1'
_cell_length_a   9.96380000
_cell_length_b   18.08200000
_cell_length_c   18.45000000
_cell_angle_alpha   90.00000000
_cell_angle_beta   90.00000000
_cell_angle_gamma   90.00000000
_symmetry_Int_Tables_number   1
_chemical_formula_structural   MgH2(CO2)2
_chemical_formula_sum   'Mg24 H48 C48 O96'
_cell_volume   3324.05221302
_cell_formula_units_Z   24
loop_
 _symmetry_equiv_pos_site_id
 _symmetry_equiv_pos_as_xyz
  1  'x, y, z'
loop_
 _atom_site_type_symbol
 _atom_site_label
 _atom_site_symmetry_multiplicity
 _atom_site_fract_x
 _atom_site_fract_y
 _atom_site_fract_z
 _atom_site_occupancy
 _atom_site_charge
  Mg  Mg1  1  0.424910  0.941440  0.821530  1.0  1.5128
  Mg  Mg2  1  0.615790  0.035180  0.717170  1.0  1.4969
  Mg  Mg3  1  0.075090  0.441440  0.678470  1.0  1.5124
  Mg  Mg4  1  0.884210  0.535180  0.782830  1.0  1.4975
  Mg  Mg5  1  0.575090  0.558560  0.821530  1.0  1.5125
  Mg  Mg6  1  0.384210  0.464820  0.717170  1.0  1.4964
  Mg  Mg7  1  0.924910  0.058560  0.678470  1.0  1.5129
  Mg  Mg8  1  0.115790  0.964820  0.782830  1.0  1.4975
  Mg  Mg9  1  0.575090  0.058560  0.178470  1.0  1.5125
  Mg  Mg10  1  0.384210  0.964820  0.282830  1.0  1.4976
  Mg  Mg11  1  0.924910  0.558560  0.321530  1.0  1.513
  Mg  Mg12  1  0.115790  0.464820  0.217170  1.0  1.4968
  Mg  Mg13  1  0.424910  0.441440  0.178470  1.0  1.5128
  Mg  Mg14  1  0.615790  0.535180  0.282830  1.0  1.4974
  Mg  Mg15  1  0.075090  0.941440  0.321530  1.0  1.5124
  Mg  Mg16  1  0.884210  0.035180  0.217170  1.0  1.4965
  Mg  Mg17  1  0.500000  0.000000  0.000000  1.0  1.4971
  Mg  Mg18  1  0.000000  0.500000  0.500000  1.0  1.4971
  Mg  Mg19  1  0.500000  0.500000  0.000000  1.0  1.4971
  Mg  Mg20  1  0.000000  0.000000  0.500000  1.0  1.4971
  Mg  Mg21  1  0.500000  0.750000  0.815590  1.0  1.5052
  Mg  Mg22  1  0.000000  0.250000  0.684410  1.0  1.5053
  Mg  Mg23  1  0.500000  0.250000  0.184410  1.0  1.5053
  Mg  Mg24  1  0.000000  0.750000  0.315590  1.0  1.5052
  H  H25  1  0.267300  0.004400  0.638300  1.0  -0.0087
  H  H26  1  0.128300  0.993000  0.947700  1.0  -0.0165
  H  H27  1  0.209600  0.764600  0.817400  1.0  -0.0115
  H  H28  1  0.696800  0.874200  0.685200  1.0  -0.0149
  H  H29  1  0.538500  0.144000  0.848600  1.0  -0.0048
  H  H30  1  0.653700  0.865200  0.970300  1.0  -0.0083
  H  H31  1  0.232700  0.504400  0.861700  1.0  -0.0104
  H  H32  1  0.371700  0.493000  0.552300  1.0  -0.0156
  H  H33  1  0.290400  0.264600  0.682600  1.0  -0.0121
  H  H34  1  0.803200  0.374200  0.814800  1.0  -0.0142
  H  H35  1  0.961500  0.644000  0.651400  1.0  -0.0045
  H  H36  1  0.846300  0.365200  0.529700  1.0  -0.0084
  H  H37  1  0.732700  0.495600  0.638300  1.0  -0.0112
  H  H38  1  0.871700  0.507000  0.947700  1.0  -0.0156
  H  H39  1  0.790400  0.735400  0.817400  1.0  -0.0112
  H  H40  1  0.303200  0.625800  0.685200  1.0  -0.0143
  H  H41  1  0.461500  0.356000  0.848600  1.0  -0.0053
  H  H42  1  0.346300  0.634800  0.970300  1.0  -0.0081
  H  H43  1  0.767300  0.995600  0.861700  1.0  -0.011
  H  H44  1  0.628300  0.007000  0.552300  1.0  -0.0162
  H  H45  1  0.709600  0.235400  0.682600  1.0  -0.0108
  H  H46  1  0.196800  0.125800  0.814800  1.0  -0.0145
  H  H47  1  0.038500  0.856000  0.651400  1.0  -0.0049
  H  H48  1  0.153700  0.134800  0.529700  1.0  -0.008
  H  H49  1  0.732700  0.995600  0.361700  1.0  -0.0102
  H  H50  1  0.871700  0.007000  0.052300  1.0  -0.0155
  H  H51  1  0.790400  0.235400  0.182600  1.0  -0.0109
  H  H52  1  0.303200  0.125800  0.314800  1.0  -0.0139
  H  H53  1  0.461500  0.856000  0.151400  1.0  -0.0053
  H  H54  1  0.346300  0.134800  0.029700  1.0  -0.0087
  H  H55  1  0.767300  0.495600  0.138300  1.0  -0.0086
  H  H56  1  0.628300  0.507000  0.447700  1.0  -0.0164
  H  H57  1  0.709600  0.735400  0.317400  1.0  -0.0111
  H  H58  1  0.196800  0.625800  0.185200  1.0  -0.0146
  H  H59  1  0.038500  0.356000  0.348600  1.0  -0.0051
  H  H60  1  0.153700  0.634800  0.470300  1.0  -0.0089
  H  H61  1  0.267300  0.504400  0.361700  1.0  -0.0095
  H  H62  1  0.128300  0.493000  0.052300  1.0  -0.0162
  H  H63  1  0.209600  0.264600  0.182600  1.0  -0.012
  H  H64  1  0.696800  0.374200  0.314800  1.0  -0.0145
  H  H65  1  0.538500  0.644000  0.151400  1.0  -0.0043
  H  H66  1  0.653700  0.365200  0.029700  1.0  -0.0089
  H  H67  1  0.232700  0.004400  0.138300  1.0  -0.0098
  H  H68  1  0.371700  0.993000  0.447700  1.0  -0.0159
  H  H69  1  0.290400  0.764600  0.317400  1.0  -0.0118
  H  H70  1  0.803200  0.874200  0.185200  1.0  -0.0147
  H  H71  1  0.961500  0.144000  0.348600  1.0  -0.005
  H  H72  1  0.846300  0.865200  0.470300  1.0  -0.0087
  C  C73  1  0.334300  0.001100  0.673300  1.0  0.7632
  C  C74  1  0.219100  0.988300  0.936800  1.0  0.7693
  C  C75  1  0.228100  0.814700  0.811600  1.0  0.7663
  C  C76  1  0.632000  0.867000  0.720800  1.0  0.7611
  C  C77  1  0.519400  0.095900  0.863100  1.0  0.7509
  C  C78  1  0.599800  0.863900  0.929200  1.0  0.7631
  C  C79  1  0.165700  0.501100  0.826700  1.0  0.763
  C  C80  1  0.280900  0.488300  0.563200  1.0  0.766
  C  C81  1  0.271900  0.314700  0.688400  1.0  0.7645
  C  C82  1  0.868000  0.367000  0.779200  1.0  0.7611
  C  C83  1  0.980600  0.595900  0.636900  1.0  0.7501
  C  C84  1  0.900200  0.363900  0.570800  1.0  0.7632
  C  C85  1  0.665700  0.498900  0.673300  1.0  0.7632
  C  C86  1  0.780900  0.511700  0.936800  1.0  0.7666
  C  C87  1  0.771900  0.685300  0.811600  1.0  0.7629
  C  C88  1  0.368000  0.633000  0.720800  1.0  0.7604
  C  C89  1  0.480600  0.404100  0.863100  1.0  0.7521
  C  C90  1  0.400200  0.636100  0.929200  1.0  0.7627
  C  C91  1  0.834300  0.998900  0.826700  1.0  0.7631
  C  C92  1  0.719100  0.011700  0.563200  1.0  0.7681
  C  C93  1  0.728100  0.185300  0.688400  1.0  0.7647
  C  C94  1  0.132000  0.133000  0.779200  1.0  0.762
  C  C95  1  0.019400  0.904100  0.636900  1.0  0.7526
  C  C96  1  0.099800  0.136100  0.570800  1.0  0.7626
  C  C97  1  0.665700  0.998900  0.326700  1.0  0.7631
  C  C98  1  0.780900  0.011700  0.063200  1.0  0.766
  C  C99  1  0.771900  0.185300  0.188400  1.0  0.763
  C  C100  1  0.368000  0.133000  0.279200  1.0  0.7613
  C  C101  1  0.480600  0.904100  0.136900  1.0  0.7521
  C  C102  1  0.400200  0.136100  0.070800  1.0  0.7628
  C  C103  1  0.834300  0.498900  0.173300  1.0  0.7632
  C  C104  1  0.719100  0.511700  0.436800  1.0  0.7689
  C  C105  1  0.728100  0.685300  0.311600  1.0  0.7646
  C  C106  1  0.132000  0.633000  0.220800  1.0  0.7614
  C  C107  1  0.019400  0.404100  0.363100  1.0  0.7525
  C  C108  1  0.099800  0.636100  0.429200  1.0  0.7632
  C  C109  1  0.334300  0.501100  0.326700  1.0  0.763
  C  C110  1  0.219100  0.488300  0.063200  1.0  0.7684
  C  C111  1  0.228100  0.314700  0.188400  1.0  0.7662
  C  C112  1  0.632000  0.367000  0.279200  1.0  0.7615
  C  C113  1  0.519400  0.595900  0.136900  1.0  0.751
  C  C114  1  0.599800  0.363900  0.070800  1.0  0.7627
  C  C115  1  0.165700  0.001100  0.173300  1.0  0.7632
  C  C116  1  0.280900  0.988300  0.436800  1.0  0.7667
  C  C117  1  0.271900  0.814700  0.311600  1.0  0.7644
  C  C118  1  0.868000  0.867000  0.220800  1.0  0.7608
  C  C119  1  0.980600  0.095900  0.363100  1.0  0.7502
  C  C120  1  0.900200  0.863900  0.429200  1.0  0.7629
  O  O121  1  0.303600  0.970430  0.732730  1.0  -0.8134
  O  O122  1  0.445600  0.027200  0.657620  1.0  -0.6877
  O  O123  1  0.349500  0.833690  0.816570  1.0  -0.8196
  O  O124  1  0.132200  0.855100  0.800000  1.0  -0.6727
  O  O125  1  0.513800  0.046880  0.814040  1.0  -0.825
  O  O126  1  0.582400  0.924150  0.748630  1.0  -0.8227
  O  O127  1  0.528600  0.920840  0.916180  1.0  -0.8271
  O  O128  1  0.248200  0.979620  0.871540  1.0  -0.8133
  O  O129  1  0.604200  0.802700  0.735420  1.0  -0.6791
  O  O130  1  0.603800  0.807300  0.892270  1.0  -0.6917
  O  O131  1  0.296100  0.991100  0.987530  1.0  -0.6764
  O  O132  1  0.501500  0.085100  0.928070  1.0  -0.6827
  O  O133  1  0.196400  0.470430  0.767270  1.0  -0.8142
  O  O134  1  0.054400  0.527200  0.842380  1.0  -0.6884
  O  O135  1  0.150500  0.333690  0.683430  1.0  -0.8214
  O  O136  1  0.367800  0.355100  0.700000  1.0  -0.6736
  O  O137  1  0.986200  0.546880  0.685960  1.0  -0.8244
  O  O138  1  0.917600  0.424150  0.751370  1.0  -0.8223
  O  O139  1  0.971400  0.420840  0.583820  1.0  -0.8274
  O  O140  1  0.251800  0.479620  0.628460  1.0  -0.8162
  O  O141  1  0.895800  0.302700  0.764580  1.0  -0.6783
  O  O142  1  0.896200  0.307300  0.607730  1.0  -0.6906
  O  O143  1  0.203900  0.491100  0.512470  1.0  -0.6757
  O  O144  1  0.998500  0.585100  0.571930  1.0  -0.6819
  O  O145  1  0.696400  0.529570  0.732730  1.0  -0.8138
  O  O146  1  0.554400  0.472800  0.657620  1.0  -0.6883
  O  O147  1  0.650500  0.666310  0.816570  1.0  -0.8217
  O  O148  1  0.867800  0.644900  0.800000  1.0  -0.6781
  O  O149  1  0.486200  0.453120  0.814040  1.0  -0.824
  O  O150  1  0.417600  0.575850  0.748630  1.0  -0.8227
  O  O151  1  0.471400  0.579160  0.916180  1.0  -0.8277
  O  O152  1  0.751800  0.520380  0.871540  1.0  -0.8133
  O  O153  1  0.395800  0.697300  0.735420  1.0  -0.6777
  O  O154  1  0.396200  0.692700  0.892270  1.0  -0.6925
  O  O155  1  0.703900  0.508900  0.987530  1.0  -0.6775
  O  O156  1  0.498500  0.414900  0.928070  1.0  -0.6821
  O  O157  1  0.803600  0.029570  0.767270  1.0  -0.8137
  O  O158  1  0.945600  0.972800  0.842380  1.0  -0.6883
  O  O159  1  0.849500  0.166310  0.683430  1.0  -0.8198
  O  O160  1  0.632200  0.144900  0.700000  1.0  -0.6778
  O  O161  1  0.013800  0.953120  0.685960  1.0  -0.823
  O  O162  1  0.082400  0.075850  0.751370  1.0  -0.8226
  O  O163  1  0.028600  0.079160  0.583820  1.0  -0.83
  O  O164  1  0.748200  0.020380  0.628460  1.0  -0.8153
  O  O165  1  0.104200  0.197300  0.764580  1.0  -0.6792
  O  O166  1  0.103800  0.192700  0.607730  1.0  -0.6916
  O  O167  1  0.796100  0.008900  0.512470  1.0  -0.6765
  O  O168  1  0.001500  0.914900  0.571930  1.0  -0.6826
  O  O169  1  0.696400  0.029570  0.267270  1.0  -0.8142
  O  O170  1  0.554400  0.972800  0.342380  1.0  -0.6884
  O  O171  1  0.650500  0.166310  0.183430  1.0  -0.8216
  O  O172  1  0.867800  0.144900  0.200000  1.0  -0.6782
  O  O173  1  0.486200  0.953120  0.185960  1.0  -0.8227
  O  O174  1  0.417600  0.075850  0.251370  1.0  -0.8226
  O  O175  1  0.471400  0.079160  0.083820  1.0  -0.8287
  O  O176  1  0.751800  0.020380  0.128460  1.0  -0.816
  O  O177  1  0.395800  0.197300  0.264580  1.0  -0.6786
  O  O178  1  0.396200  0.192700  0.107730  1.0  -0.6917
  O  O179  1  0.703900  0.008900  0.012470  1.0  -0.6759
  O  O180  1  0.498500  0.914900  0.071930  1.0  -0.6823
  O  O181  1  0.803600  0.529570  0.232730  1.0  -0.8133
  O  O182  1  0.945600  0.472800  0.157620  1.0  -0.6883
  O  O183  1  0.849500  0.666310  0.316570  1.0  -0.8198
  O  O184  1  0.632200  0.644900  0.300000  1.0  -0.6776
  O  O185  1  0.013800  0.453120  0.314040  1.0  -0.8244
  O  O186  1  0.082400  0.575850  0.248630  1.0  -0.8227
  O  O187  1  0.028600  0.579160  0.416180  1.0  -0.829
  O  O188  1  0.748200  0.520380  0.371540  1.0  -0.8132
  O  O189  1  0.104200  0.697300  0.235420  1.0  -0.6785
  O  O190  1  0.103800  0.692700  0.392270  1.0  -0.6927
  O  O191  1  0.796100  0.508900  0.487530  1.0  -0.6771
  O  O192  1  0.001500  0.414900  0.428070  1.0  -0.6823
  O  O193  1  0.303600  0.470430  0.267270  1.0  -0.8137
  O  O194  1  0.445600  0.527200  0.342380  1.0  -0.6886
  O  O195  1  0.349500  0.333690  0.183430  1.0  -0.8197
  O  O196  1  0.132200  0.355100  0.200000  1.0  -0.6728
  O  O197  1  0.513800  0.546880  0.185960  1.0  -0.8246
  O  O198  1  0.582400  0.424150  0.251370  1.0  -0.8225
  O  O199  1  0.528600  0.420840  0.083820  1.0  -0.8289
  O  O200  1  0.248200  0.479620  0.128460  1.0  -0.8155
  O  O201  1  0.604200  0.302700  0.264580  1.0  -0.6788
  O  O202  1  0.603800  0.307300  0.107730  1.0  -0.6906
  O  O203  1  0.296100  0.491100  0.012470  1.0  -0.6763
  O  O204  1  0.501500  0.585100  0.071930  1.0  -0.6818
  O  O205  1  0.196400  0.970430  0.232730  1.0  -0.8139
  O  O206  1  0.054400  0.027200  0.157620  1.0  -0.6871
  O  O207  1  0.150500  0.833690  0.316570  1.0  -0.8214
  O  O208  1  0.367800  0.855100  0.300000  1.0  -0.6738
  O  O209  1  0.986200  0.046880  0.314040  1.0  -0.8248
  O  O210  1  0.917600  0.924150  0.248630  1.0  -0.8225
  O  O211  1  0.971400  0.920840  0.416180  1.0  -0.8257
  O  O212  1  0.251800  0.979620  0.371540  1.0  -0.8133
  O  O213  1  0.895800  0.802700  0.235420  1.0  -0.6783
  O  O214  1  0.896200  0.807300  0.392270  1.0  -0.6915
  O  O215  1  0.203900  0.991100  0.487530  1.0  -0.6769
  O  O216  1  0.998500  0.085100  0.428070  1.0  -0.6828
