# generated using pymatgen
data_InH4C8O5
_symmetry_space_group_name_H-M   'P 1'
_cell_length_a   15.35200000
_cell_length_b   15.35200000
_cell_length_c   12.22600000
_cell_angle_alpha   90.00000000
_cell_angle_beta   90.00000000
_cell_angle_gamma   90.00000000
_symmetry_Int_Tables_number   1
_chemical_formula_structural   InH4C8O5
_chemical_formula_sum   'In8 H32 C64 O40'
_cell_volume   2881.47141030
_cell_formula_units_Z   8
loop_
 _symmetry_equiv_pos_site_id
 _symmetry_equiv_pos_as_xyz
  1  'x, y, z'
loop_
 _atom_site_type_symbol
 _atom_site_label
 _atom_site_symmetry_multiplicity
 _atom_site_fract_x
 _atom_site_fract_y
 _atom_site_fract_z
 _atom_site_occupancy
 _atom_site_charge
  In  In1  1  0.812400  0.312400  0.750000  1.0  1.7232
  In  In2  1  0.312400  0.812400  0.250000  1.0  1.7232
  In  In3  1  0.687600  0.187600  0.250000  1.0  1.727
  In  In4  1  0.187600  0.687600  0.750000  1.0  1.727
  In  In5  1  0.687600  0.312400  0.000000  1.0  1.7276
  In  In6  1  0.187600  0.812400  0.500000  1.0  1.7276
  In  In7  1  0.812400  0.187600  0.500000  1.0  1.7229
  In  In8  1  0.312400  0.687600  0.000000  1.0  1.7229
  H  H9  1  0.938900  0.117300  0.919700  1.0  0.1114
  H  H10  1  0.438900  0.617300  0.419700  1.0  0.1114
  H  H11  1  0.561100  0.382700  0.419700  1.0  0.1115
  H  H12  1  0.061100  0.882700  0.919700  1.0  0.1115
  H  H13  1  0.882700  0.438900  0.169700  1.0  0.1116
  H  H14  1  0.382700  0.938900  0.669700  1.0  0.1116
  H  H15  1  0.617300  0.061100  0.669700  1.0  0.1112
  H  H16  1  0.117300  0.561100  0.169700  1.0  0.1112
  H  H17  1  0.561100  0.117300  0.830300  1.0  0.1114
  H  H18  1  0.061100  0.617300  0.330300  1.0  0.1114
  H  H19  1  0.938900  0.382700  0.330300  1.0  0.1112
  H  H20  1  0.438900  0.882700  0.830300  1.0  0.1112
  H  H21  1  0.617300  0.438900  0.580300  1.0  0.1114
  H  H22  1  0.117300  0.938900  0.080300  1.0  0.1114
  H  H23  1  0.882700  0.061100  0.080300  1.0  0.1115
  H  H24  1  0.382700  0.561100  0.580300  1.0  0.1115
  H  H25  1  0.750000  0.183100  0.875000  1.0  0.4041
  H  H26  1  0.250000  0.683100  0.375000  1.0  0.4041
  H  H27  1  0.750000  0.316900  0.375000  1.0  0.4025
  H  H28  1  0.250000  0.816900  0.875000  1.0  0.4025
  H  H29  1  0.816900  0.250000  0.125000  1.0  0.3952
  H  H30  1  0.316900  0.750000  0.625000  1.0  0.3952
  H  H31  1  0.683100  0.250000  0.625000  1.0  0.3972
  H  H32  1  0.183100  0.750000  0.125000  1.0  0.3972
  H  H33  1  0.000000  0.000000  0.633400  1.0  0.1254
  H  H34  1  0.500000  0.500000  0.133400  1.0  0.1254
  H  H35  1  0.000000  0.500000  0.883400  1.0  0.1254
  H  H36  1  0.500000  0.000000  0.383400  1.0  0.1254
  H  H37  1  0.500000  0.000000  0.116600  1.0  0.1252
  H  H38  1  0.000000  0.500000  0.616600  1.0  0.1252
  H  H39  1  0.500000  0.500000  0.866600  1.0  0.1252
  H  H40  1  0.000000  0.000000  0.366600  1.0  0.1253
  C  C41  1  0.960600  0.067300  0.768800  1.0  -0.1589
  C  C42  1  0.962800  0.069000  0.881500  1.0  -0.0796
  C  C43  1  0.914900  0.136500  0.706600  1.0  0.7402
  C  C44  1  0.460600  0.567300  0.268800  1.0  -0.1589
  C  C45  1  0.462800  0.569000  0.381500  1.0  -0.0796
  C  C46  1  0.414900  0.636500  0.206600  1.0  0.7402
  C  C47  1  0.539400  0.432700  0.268800  1.0  -0.1589
  C  C48  1  0.537200  0.431000  0.381500  1.0  -0.0792
  C  C49  1  0.585100  0.363500  0.206600  1.0  0.7389
  C  C50  1  0.039400  0.932700  0.768800  1.0  -0.1589
  C  C51  1  0.037200  0.931000  0.881500  1.0  -0.0792
  C  C52  1  0.085100  0.863500  0.706600  1.0  0.7389
  C  C53  1  0.932700  0.460600  0.018800  1.0  -0.1579
  C  C54  1  0.931000  0.462800  0.131500  1.0  -0.0795
  C  C55  1  0.863500  0.414900  0.956600  1.0  0.7395
  C  C56  1  0.432700  0.960600  0.518800  1.0  -0.1579
  C  C57  1  0.431000  0.962800  0.631500  1.0  -0.0795
  C  C58  1  0.363500  0.914900  0.456600  1.0  0.7395
  C  C59  1  0.567300  0.039400  0.518800  1.0  -0.1576
  C  C60  1  0.569000  0.037200  0.631500  1.0  -0.0793
  C  C61  1  0.636500  0.085100  0.456600  1.0  0.7397
  C  C62  1  0.067300  0.539400  0.018800  1.0  -0.1576
  C  C63  1  0.069000  0.537200  0.131500  1.0  -0.0793
  C  C64  1  0.136500  0.585100  0.956600  1.0  0.7397
  C  C65  1  0.539400  0.067300  0.981200  1.0  -0.1588
  C  C66  1  0.537200  0.069000  0.868500  1.0  -0.0799
  C  C67  1  0.585100  0.136500  0.043400  1.0  0.7393
  C  C68  1  0.039400  0.567300  0.481200  1.0  -0.1588
  C  C69  1  0.037200  0.569000  0.368500  1.0  -0.0799
  C  C70  1  0.085100  0.636500  0.543400  1.0  0.7393
  C  C71  1  0.960600  0.432700  0.481200  1.0  -0.159
  C  C72  1  0.962800  0.431000  0.368500  1.0  -0.0786
  C  C73  1  0.914900  0.363500  0.543400  1.0  0.74
  C  C74  1  0.460600  0.932700  0.981200  1.0  -0.159
  C  C75  1  0.462800  0.931000  0.868500  1.0  -0.0786
  C  C76  1  0.414900  0.863500  0.043400  1.0  0.74
  C  C77  1  0.567300  0.460600  0.731200  1.0  -0.1577
  C  C78  1  0.569000  0.462800  0.618500  1.0  -0.0795
  C  C79  1  0.636500  0.414900  0.793400  1.0  0.7389
  C  C80  1  0.067300  0.960600  0.231200  1.0  -0.1577
  C  C81  1  0.069000  0.962800  0.118500  1.0  -0.0795
  C  C82  1  0.136500  0.914900  0.293400  1.0  0.7389
  C  C83  1  0.932700  0.039400  0.231200  1.0  -0.1581
  C  C84  1  0.931000  0.037200  0.118500  1.0  -0.0795
  C  C85  1  0.863500  0.085100  0.293400  1.0  0.74
  C  C86  1  0.432700  0.539400  0.731200  1.0  -0.1581
  C  C87  1  0.431000  0.537200  0.618500  1.0  -0.0795
  C  C88  1  0.363500  0.585100  0.793400  1.0  0.74
  C  C89  1  0.000000  0.000000  0.711100  1.0  -0.0317
  C  C90  1  0.000000  0.000000  0.940400  1.0  0.0595
  C  C91  1  0.500000  0.500000  0.211100  1.0  -0.0317
  C  C92  1  0.500000  0.500000  0.440400  1.0  0.0595
  C  C93  1  0.000000  0.500000  0.961100  1.0  -0.0317
  C  C94  1  0.000000  0.500000  0.190400  1.0  0.0595
  C  C95  1  0.500000  0.000000  0.461100  1.0  -0.0317
  C  C96  1  0.500000  0.000000  0.690400  1.0  0.0595
  C  C97  1  0.500000  0.000000  0.038900  1.0  -0.0324
  C  C98  1  0.500000  0.000000  0.809600  1.0  0.0592
  C  C99  1  0.000000  0.500000  0.538900  1.0  -0.0324
  C  C100  1  0.000000  0.500000  0.309600  1.0  0.0592
  C  C101  1  0.500000  0.500000  0.788900  1.0  -0.0324
  C  C102  1  0.500000  0.500000  0.559600  1.0  0.0592
  C  C103  1  0.000000  0.000000  0.288900  1.0  -0.0324
  C  C104  1  0.000000  0.000000  0.059600  1.0  0.0592
  O  O105  1  0.907100  0.209500  0.756400  1.0  -0.6448
  O  O106  1  0.888700  0.116900  0.614200  1.0  -0.5966
  O  O107  1  0.407100  0.709500  0.256400  1.0  -0.6448
  O  O108  1  0.388700  0.616900  0.114200  1.0  -0.5966
  O  O109  1  0.592900  0.290500  0.256400  1.0  -0.6457
  O  O110  1  0.611300  0.383100  0.114200  1.0  -0.598
  O  O111  1  0.092900  0.790500  0.756400  1.0  -0.6457
  O  O112  1  0.111300  0.883100  0.614200  1.0  -0.598
  O  O113  1  0.790500  0.407100  0.006400  1.0  -0.6456
  O  O114  1  0.883100  0.388700  0.864200  1.0  -0.5965
  O  O115  1  0.290500  0.907100  0.506400  1.0  -0.6456
  O  O116  1  0.383100  0.888700  0.364200  1.0  -0.5965
  O  O117  1  0.709500  0.092900  0.506400  1.0  -0.6441
  O  O118  1  0.616900  0.111300  0.364200  1.0  -0.5961
  O  O119  1  0.209500  0.592900  0.006400  1.0  -0.6441
  O  O120  1  0.116900  0.611300  0.864200  1.0  -0.5961
  O  O121  1  0.592900  0.209500  0.993600  1.0  -0.6476
  O  O122  1  0.611300  0.116900  0.135800  1.0  -0.5972
  O  O123  1  0.092900  0.709500  0.493600  1.0  -0.6476
  O  O124  1  0.111300  0.616900  0.635800  1.0  -0.5972
  O  O125  1  0.907100  0.290500  0.493600  1.0  -0.6455
  O  O126  1  0.888700  0.383100  0.635800  1.0  -0.5968
  O  O127  1  0.407100  0.790500  0.993600  1.0  -0.6455
  O  O128  1  0.388700  0.883100  0.135800  1.0  -0.5968
  O  O129  1  0.709500  0.407100  0.743600  1.0  -0.6451
  O  O130  1  0.616900  0.388700  0.885800  1.0  -0.5967
  O  O131  1  0.209500  0.907100  0.243600  1.0  -0.6451
  O  O132  1  0.116900  0.888700  0.385800  1.0  -0.5967
  O  O133  1  0.790500  0.092900  0.243600  1.0  -0.6455
  O  O134  1  0.883100  0.111300  0.385800  1.0  -0.5955
  O  O135  1  0.290500  0.592900  0.743600  1.0  -0.6455
  O  O136  1  0.383100  0.611300  0.885800  1.0  -0.5955
  O  O137  1  0.750000  0.245000  0.875000  1.0  -1.0215
  O  O138  1  0.250000  0.745000  0.375000  1.0  -1.0215
  O  O139  1  0.750000  0.255000  0.375000  1.0  -1.0171
  O  O140  1  0.250000  0.755000  0.875000  1.0  -1.0171
  O  O141  1  0.755000  0.250000  0.125000  1.0  -1.0208
  O  O142  1  0.255000  0.750000  0.625000  1.0  -1.0208
  O  O143  1  0.745000  0.250000  0.625000  1.0  -1.0194
  O  O144  1  0.245000  0.750000  0.125000  1.0  -1.0194
