# generated using pymatgen
data_InH4C8O5
_symmetry_space_group_name_H-M   'P 1'
_cell_length_a   15.50970000
_cell_length_b   15.50970000
_cell_length_c   12.31970000
_cell_angle_alpha   90.00000000
_cell_angle_beta   90.00000000
_cell_angle_gamma   90.00000000
_symmetry_Int_Tables_number   1
_chemical_formula_structural   InH4C8O5
_chemical_formula_sum   'In8 H32 C64 O40'
_cell_volume   2963.51361795
_cell_formula_units_Z   8
loop_
 _symmetry_equiv_pos_site_id
 _symmetry_equiv_pos_as_xyz
  1  'x, y, z'
loop_
 _atom_site_type_symbol
 _atom_site_label
 _atom_site_symmetry_multiplicity
 _atom_site_fract_x
 _atom_site_fract_y
 _atom_site_fract_z
 _atom_site_occupancy
 _atom_site_charge
  In  In1  1  0.688090  0.311910  0.500000  1.0  1.7284
  In  In2  1  0.188090  0.811910  0.000000  1.0  1.7284
  In  In3  1  0.811910  0.188090  0.000000  1.0  1.7209
  In  In4  1  0.311910  0.688090  0.500000  1.0  1.7209
  In  In5  1  0.688090  0.188090  0.750000  1.0  1.726
  In  In6  1  0.188090  0.688090  0.250000  1.0  1.726
  In  In7  1  0.811910  0.311910  0.250000  1.0  1.7232
  In  In8  1  0.311910  0.811910  0.750000  1.0  1.7232
  H  H9  1  0.541180  0.372580  0.916030  1.0  0.107
  H  H10  1  0.041180  0.872580  0.416030  1.0  0.107
  H  H11  1  0.958820  0.127420  0.416030  1.0  0.1081
  H  H12  1  0.458820  0.627420  0.916030  1.0  0.1081
  H  H13  1  0.627420  0.041180  0.166030  1.0  0.1075
  H  H14  1  0.127420  0.541180  0.666030  1.0  0.1075
  H  H15  1  0.872580  0.458820  0.666030  1.0  0.1074
  H  H16  1  0.372580  0.958820  0.166030  1.0  0.1074
  H  H17  1  0.958820  0.372580  0.833970  1.0  0.1073
  H  H18  1  0.458820  0.872580  0.333970  1.0  0.1073
  H  H19  1  0.541180  0.127420  0.333970  1.0  0.1079
  H  H20  1  0.041180  0.627420  0.833970  1.0  0.1079
  H  H21  1  0.872580  0.041180  0.583970  1.0  0.1076
  H  H22  1  0.372580  0.541180  0.083970  1.0  0.1076
  H  H23  1  0.627420  0.458820  0.083970  1.0  0.1079
  H  H24  1  0.127420  0.958820  0.583970  1.0  0.1079
  H  H25  1  0.812640  0.250000  0.625000  1.0  0.475
  H  H26  1  0.312640  0.750000  0.125000  1.0  0.475
  H  H27  1  0.687360  0.250000  0.125000  1.0  0.474
  H  H28  1  0.187360  0.750000  0.625000  1.0  0.474
  H  H29  1  0.750000  0.312640  0.875000  1.0  0.4813
  H  H30  1  0.250000  0.812640  0.375000  1.0  0.4813
  H  H31  1  0.750000  0.187360  0.375000  1.0  0.48
  H  H32  1  0.250000  0.687360  0.875000  1.0  0.48
  H  H33  1  0.500000  0.500000  0.630780  1.0  0.111
  H  H34  1  0.000000  0.000000  0.130780  1.0  0.111
  H  H35  1  0.500000  0.000000  0.880780  1.0  0.111
  H  H36  1  0.000000  0.500000  0.380780  1.0  0.111
  H  H37  1  0.000000  0.500000  0.119220  1.0  0.1088
  H  H38  1  0.500000  0.000000  0.619220  1.0  0.1088
  H  H39  1  0.000000  0.000000  0.869220  1.0  0.1088
  H  H40  1  0.500000  0.500000  0.369220  1.0  0.1088
  C  C41  1  0.586790  0.361230  0.706270  1.0  0.715
  C  C42  1  0.536180  0.430980  0.768770  1.0  -0.1499
  C  C43  1  0.527910  0.427230  0.881930  1.0  -0.0644
  C  C44  1  0.086790  0.861230  0.206270  1.0  0.715
  C  C45  1  0.036180  0.930980  0.268770  1.0  -0.1499
  C  C46  1  0.027910  0.927230  0.381930  1.0  -0.0644
  C  C47  1  0.913210  0.138770  0.206270  1.0  0.7155
  C  C48  1  0.963820  0.069020  0.268770  1.0  -0.1496
  C  C49  1  0.972090  0.072770  0.381930  1.0  -0.0646
  C  C50  1  0.413210  0.638770  0.706270  1.0  0.7155
  C  C51  1  0.463820  0.569020  0.768770  1.0  -0.1496
  C  C52  1  0.472090  0.572770  0.881930  1.0  -0.0646
  C  C53  1  0.638770  0.086790  0.956270  1.0  0.713
  C  C54  1  0.569020  0.036180  0.018770  1.0  -0.1488
  C  C55  1  0.572770  0.027910  0.131930  1.0  -0.0662
  C  C56  1  0.138770  0.586790  0.456270  1.0  0.713
  C  C57  1  0.069020  0.536180  0.518770  1.0  -0.1488
  C  C58  1  0.072770  0.527910  0.631930  1.0  -0.0662
  C  C59  1  0.861230  0.413210  0.456270  1.0  0.7137
  C  C60  1  0.930980  0.463820  0.518770  1.0  -0.1494
  C  C61  1  0.927230  0.472090  0.631930  1.0  -0.0661
  C  C62  1  0.361230  0.913210  0.956270  1.0  0.7137
  C  C63  1  0.430980  0.963820  0.018770  1.0  -0.1494
  C  C64  1  0.427230  0.972090  0.131930  1.0  -0.0661
  C  C65  1  0.913210  0.361230  0.043730  1.0  0.7156
  C  C66  1  0.963820  0.430980  0.981230  1.0  -0.1497
  C  C67  1  0.972090  0.427230  0.868070  1.0  -0.0639
  C  C68  1  0.413210  0.861230  0.543730  1.0  0.7156
  C  C69  1  0.463820  0.930980  0.481230  1.0  -0.1497
  C  C70  1  0.472090  0.927230  0.368070  1.0  -0.0639
  C  C71  1  0.586790  0.138770  0.543730  1.0  0.7145
  C  C72  1  0.536180  0.069020  0.481230  1.0  -0.1498
  C  C73  1  0.527910  0.072770  0.368070  1.0  -0.0647
  C  C74  1  0.086790  0.638770  0.043730  1.0  0.7145
  C  C75  1  0.036180  0.569020  0.981230  1.0  -0.1498
  C  C76  1  0.027910  0.572770  0.868070  1.0  -0.0647
  C  C77  1  0.861230  0.086790  0.793730  1.0  0.7137
  C  C78  1  0.930980  0.036180  0.731230  1.0  -0.1489
  C  C79  1  0.927230  0.027910  0.618070  1.0  -0.0658
  C  C80  1  0.361230  0.586790  0.293730  1.0  0.7137
  C  C81  1  0.430980  0.536180  0.231230  1.0  -0.1489
  C  C82  1  0.427230  0.527910  0.118070  1.0  -0.0658
  C  C83  1  0.638770  0.413210  0.293730  1.0  0.7122
  C  C84  1  0.569020  0.463820  0.231230  1.0  -0.1493
  C  C85  1  0.572770  0.472090  0.118070  1.0  -0.0664
  C  C86  1  0.138770  0.913210  0.793730  1.0  0.7122
  C  C87  1  0.069020  0.963820  0.731230  1.0  -0.1493
  C  C88  1  0.072770  0.972090  0.618070  1.0  -0.0664
  C  C89  1  0.500000  0.500000  0.711640  1.0  -0.0048
  C  C90  1  0.500000  0.500000  0.939590  1.0  0.0466
  C  C91  1  0.000000  0.000000  0.211640  1.0  -0.0048
  C  C92  1  0.000000  0.000000  0.439590  1.0  0.0466
  C  C93  1  0.500000  0.000000  0.961640  1.0  -0.0048
  C  C94  1  0.500000  0.000000  0.189590  1.0  0.0466
  C  C95  1  0.000000  0.500000  0.461640  1.0  -0.0048
  C  C96  1  0.000000  0.500000  0.689590  1.0  0.0466
  C  C97  1  0.000000  0.500000  0.038360  1.0  -0.0052
  C  C98  1  0.000000  0.500000  0.810410  1.0  0.0467
  C  C99  1  0.500000  0.000000  0.538360  1.0  -0.0052
  C  C100  1  0.500000  0.000000  0.310410  1.0  0.0467
  C  C101  1  0.000000  0.000000  0.788360  1.0  -0.0052
  C  C102  1  0.000000  0.000000  0.560410  1.0  0.0467
  C  C103  1  0.500000  0.500000  0.288360  1.0  -0.0052
  C  C104  1  0.500000  0.500000  0.060410  1.0  0.0467
  O  O105  1  0.612660  0.383210  0.614470  1.0  -0.6179
  O  O106  1  0.591740  0.292990  0.757280  1.0  -0.6454
  O  O107  1  0.112660  0.883210  0.114470  1.0  -0.6179
  O  O108  1  0.091740  0.792990  0.257280  1.0  -0.6454
  O  O109  1  0.887340  0.116790  0.114470  1.0  -0.6169
  O  O110  1  0.908260  0.207010  0.257280  1.0  -0.6444
  O  O111  1  0.387340  0.616790  0.614470  1.0  -0.6169
  O  O112  1  0.408260  0.707010  0.757280  1.0  -0.6444
  O  O113  1  0.616790  0.112660  0.864470  1.0  -0.6149
  O  O114  1  0.707010  0.091740  0.007280  1.0  -0.6417
  O  O115  1  0.116790  0.612660  0.364470  1.0  -0.6149
  O  O116  1  0.207010  0.591740  0.507280  1.0  -0.6417
  O  O117  1  0.883210  0.387340  0.364470  1.0  -0.6151
  O  O118  1  0.792990  0.408260  0.507280  1.0  -0.6423
  O  O119  1  0.383210  0.887340  0.864470  1.0  -0.6151
  O  O120  1  0.292990  0.908260  0.007280  1.0  -0.6423
  O  O121  1  0.887340  0.383210  0.135530  1.0  -0.617
  O  O122  1  0.908260  0.292990  0.992720  1.0  -0.6451
  O  O123  1  0.387340  0.883210  0.635530  1.0  -0.617
  O  O124  1  0.408260  0.792990  0.492720  1.0  -0.6451
  O  O125  1  0.612660  0.116790  0.635530  1.0  -0.6171
  O  O126  1  0.591740  0.207010  0.492720  1.0  -0.6454
  O  O127  1  0.112660  0.616790  0.135530  1.0  -0.6171
  O  O128  1  0.091740  0.707010  0.992720  1.0  -0.6454
  O  O129  1  0.883210  0.112660  0.885530  1.0  -0.614
  O  O130  1  0.792990  0.091740  0.742720  1.0  -0.6429
  O  O131  1  0.383210  0.612660  0.385530  1.0  -0.614
  O  O132  1  0.292990  0.591740  0.242720  1.0  -0.6429
  O  O133  1  0.616790  0.387340  0.385530  1.0  -0.6157
  O  O134  1  0.707010  0.408260  0.242720  1.0  -0.6418
  O  O135  1  0.116790  0.887340  0.885530  1.0  -0.6157
  O  O136  1  0.207010  0.908260  0.742720  1.0  -0.6418
  O  O137  1  0.758150  0.250000  0.625000  1.0  -1.049
  O  O138  1  0.258150  0.750000  0.125000  1.0  -1.049
  O  O139  1  0.741850  0.250000  0.125000  1.0  -1.0488
  O  O140  1  0.241850  0.750000  0.625000  1.0  -1.0488
  O  O141  1  0.750000  0.258150  0.875000  1.0  -1.0483
  O  O142  1  0.250000  0.758150  0.375000  1.0  -1.0483
  O  O143  1  0.750000  0.241850  0.375000  1.0  -1.0478
  O  O144  1  0.250000  0.741850  0.875000  1.0  -1.0478
