# generated using pymatgen
data_Pr4H22C14N28O25
_symmetry_space_group_name_H-M   'P 1'
_cell_length_a   17.03000000
_cell_length_b   17.08600000
_cell_length_c   21.12100000
_cell_angle_alpha   90.00000000
_cell_angle_beta   90.00000000
_cell_angle_gamma   99.15800000
_symmetry_Int_Tables_number   1
_chemical_formula_structural   Pr4H22C14N28O25
_chemical_formula_sum   'Pr16 H88 C56 N112 O100'
_cell_volume   6067.33641861
_cell_formula_units_Z   4
loop_
 _symmetry_equiv_pos_site_id
 _symmetry_equiv_pos_as_xyz
  1  'x, y, z'
loop_
 _atom_site_type_symbol
 _atom_site_label
 _atom_site_symmetry_multiplicity
 _atom_site_fract_x
 _atom_site_fract_y
 _atom_site_fract_z
 _atom_site_occupancy
 _atom_site_charge
  Pr  Pr1  1  0.537760  0.729550  0.451680  1.0  2.1744
  Pr  Pr2  1  0.870530  0.749010  0.583250  1.0  2.1933
  Pr  Pr3  1  0.482660  0.639310  0.643810  1.0  2.1519
  Pr  Pr4  1  0.562290  0.872870  0.158730  1.0  2.163
  Pr  Pr5  1  0.962240  0.270450  0.951690  1.0  2.1746
  Pr  Pr6  1  0.629470  0.250990  0.083250  1.0  2.1933
  Pr  Pr7  1  0.017340  0.360690  0.143810  1.0  2.1524
  Pr  Pr8  1  0.937710  0.127130  0.658730  1.0  2.1625
  Pr  Pr9  1  0.462240  0.270450  0.548310  1.0  2.1742
  Pr  Pr10  1  0.129470  0.250990  0.416750  1.0  2.1932
  Pr  Pr11  1  0.517340  0.360690  0.356190  1.0  2.1525
  Pr  Pr12  1  0.437710  0.127130  0.841270  1.0  2.1621
  Pr  Pr13  1  0.037760  0.729550  0.048310  1.0  2.1742
  Pr  Pr14  1  0.370530  0.749010  0.916750  1.0  2.1932
  Pr  Pr15  1  0.982660  0.639310  0.856190  1.0  2.1521
  Pr  Pr16  1  0.062290  0.872870  0.341270  1.0  2.1628
  H  H17  1  0.906700  0.816900  0.716620  1.0  0.4119
  H  H18  1  0.976330  0.821500  0.686600  1.0  0.4238
  H  H19  1  0.797600  0.581700  0.539900  1.0  0.4656
  H  H20  1  0.853500  0.601300  0.495530  1.0  0.4057
  H  H21  1  0.328900  0.660600  0.707880  1.0  0.4462
  H  H22  1  0.312700  0.655500  0.645970  1.0  0.4383
  H  H23  1  0.507100  0.694400  0.135400  1.0  0.4222
  H  H24  1  0.562700  0.694200  0.179900  1.0  0.411
  H  H25  1  0.555100  0.815000  0.648700  1.0  0.4094
  H  H26  1  0.477900  0.816100  0.661700  1.0  0.3935
  H  H27  1  0.512800  0.859200  0.547950  1.0  0.4459
  H  H28  1  0.576900  0.891300  0.514400  1.0  0.4961
  H  H29  1  0.707700  0.772500  0.466940  1.0  0.4217
  H  H30  1  0.705000  0.802300  0.408390  1.0  0.4264
  H  H31  1  0.507600  0.658900  0.320400  1.0  0.4086
  H  H32  1  0.579600  0.704600  0.314000  1.0  0.3972
  H  H33  1  0.615600  0.888100  0.022600  1.0  0.438
  H  H34  1  0.657300  0.829800  0.036200  1.0  0.4057
  H  H35  1  0.022300  0.689400  0.526100  1.0  0.4666
  H  H36  1  0.007900  0.757000  0.499110  1.0  0.4452
  H  H37  1  0.733100  0.869700  0.198200  1.0  0.42
  H  H38  1  0.694200  0.796700  0.208000  1.0  0.4224
  H  H39  1  0.593300  0.183100  0.216620  1.0  0.4138
  H  H40  1  0.523670  0.178500  0.186600  1.0  0.4202
  H  H41  1  0.702400  0.418300  0.039900  1.0  0.4659
  H  H42  1  0.646500  0.398700  0.995530  1.0  0.4054
  H  H43  1  0.171100  0.339400  0.207880  1.0  0.4459
  H  H44  1  0.187300  0.344500  0.145970  1.0  0.4369
  H  H45  1  0.992900  0.305600  0.635400  1.0  0.4218
  H  H46  1  0.937300  0.305800  0.679900  1.0  0.4103
  H  H47  1  0.944900  0.185000  0.148700  1.0  0.4102
  H  H48  1  0.022100  0.183900  0.161700  1.0  0.3957
  H  H49  1  0.987200  0.140800  0.047950  1.0  0.4448
  H  H50  1  0.923100  0.108700  0.014400  1.0  0.4922
  H  H51  1  0.792300  0.227500  0.966940  1.0  0.4205
  H  H52  1  0.795000  0.197700  0.908390  1.0  0.4262
  H  H53  1  0.992400  0.341100  0.820400  1.0  0.4081
  H  H54  1  0.920400  0.295400  0.814000  1.0  0.3949
  H  H55  1  0.884400  0.111900  0.522600  1.0  0.4355
  H  H56  1  0.842700  0.170200  0.536200  1.0  0.403
  H  H57  1  0.477700  0.310600  0.026100  1.0  0.4689
  H  H58  1  0.492100  0.243000  0.999110  1.0  0.4459
  H  H59  1  0.766900  0.130300  0.698200  1.0  0.4183
  H  H60  1  0.805800  0.203300  0.708000  1.0  0.4239
  H  H61  1  0.093300  0.183100  0.283380  1.0  0.4133
  H  H62  1  0.023670  0.178500  0.313400  1.0  0.4202
  H  H63  1  0.202400  0.418300  0.460100  1.0  0.4656
  H  H64  1  0.146500  0.398700  0.504470  1.0  0.4069
  H  H65  1  0.671100  0.339400  0.292120  1.0  0.4474
  H  H66  1  0.687300  0.344500  0.354030  1.0  0.4374
  H  H67  1  0.492900  0.305600  0.864600  1.0  0.4225
  H  H68  1  0.437300  0.305800  0.820100  1.0  0.4098
  H  H69  1  0.444900  0.185000  0.351300  1.0  0.4099
  H  H70  1  0.522100  0.183900  0.338300  1.0  0.3959
  H  H71  1  0.487200  0.140800  0.452050  1.0  0.4437
  H  H72  1  0.423100  0.108700  0.485600  1.0  0.4925
  H  H73  1  0.292300  0.227500  0.533060  1.0  0.4178
  H  H74  1  0.295000  0.197700  0.591610  1.0  0.4262
  H  H75  1  0.492400  0.341100  0.679600  1.0  0.4089
  H  H76  1  0.420400  0.295400  0.686000  1.0  0.3962
  H  H77  1  0.384400  0.111900  0.977400  1.0  0.4362
  H  H78  1  0.342700  0.170200  0.963800  1.0  0.4031
  H  H79  1  0.977700  0.310600  0.473900  1.0  0.4693
  H  H80  1  0.992100  0.243000  0.500890  1.0  0.446
  H  H81  1  0.266900  0.130300  0.801800  1.0  0.4178
  H  H82  1  0.305800  0.203300  0.792000  1.0  0.4237
  H  H83  1  0.406700  0.816900  0.783380  1.0  0.4129
  H  H84  1  0.476330  0.821500  0.813400  1.0  0.424
  H  H85  1  0.297600  0.581700  0.960100  1.0  0.4665
  H  H86  1  0.353500  0.601300  0.004470  1.0  0.4082
  H  H87  1  0.828900  0.660600  0.792120  1.0  0.4476
  H  H88  1  0.812700  0.655500  0.854030  1.0  0.4389
  H  H89  1  0.007100  0.694400  0.364600  1.0  0.4233
  H  H90  1  0.062700  0.694200  0.320100  1.0  0.4102
  H  H91  1  0.055100  0.815000  0.851300  1.0  0.4106
  H  H92  1  0.977900  0.816100  0.838300  1.0  0.3938
  H  H93  1  0.012800  0.859200  0.952050  1.0  0.4455
  H  H94  1  0.076900  0.891300  0.985600  1.0  0.4964
  H  H95  1  0.207700  0.772500  0.033060  1.0  0.4193
  H  H96  1  0.205000  0.802300  0.091610  1.0  0.4263
  H  H97  1  0.007600  0.658900  0.179600  1.0  0.409
  H  H98  1  0.079600  0.704600  0.186000  1.0  0.3976
  H  H99  1  0.115600  0.888100  0.477400  1.0  0.4365
  H  H100  1  0.157300  0.829800  0.463800  1.0  0.4054
  H  H101  1  0.522300  0.689400  0.973900  1.0  0.4671
  H  H102  1  0.507900  0.757000  0.000890  1.0  0.4457
  H  H103  1  0.233100  0.869700  0.301800  1.0  0.4199
  H  H104  1  0.194200  0.796700  0.292000  1.0  0.422
  C  C105  1  0.342000  0.729300  0.468700  1.0  0.2893
  C  C106  1  0.358000  0.696200  0.529520  1.0  0.6913
  C  C107  1  0.546500  0.954190  0.306910  1.0  0.2963
  C  C108  1  0.548800  0.870410  0.322560  1.0  0.634
  C  C109  1  0.571110  0.539580  0.425530  1.0  0.5633
  C  C110  1  0.484670  0.533810  0.420400  1.0  0.6575
  C  C111  1  0.951100  0.544110  0.714180  1.0  0.2911
  C  C112  1  0.950660  0.627840  0.696010  1.0  0.7094
  C  C113  1  0.682840  0.684330  0.645500  1.0  0.2883
  C  C114  1  0.666870  0.708030  0.579980  1.0  0.632
  C  C115  1  0.934520  0.946200  0.592640  1.0  0.3036
  C  C116  1  0.853570  0.938780  0.617060  1.0  0.65
  C  C117  1  0.862700  0.835600  0.365680  1.0  0.2678
  C  C118  1  0.894440  0.810660  0.426820  1.0  0.6436
  C  C119  1  0.158000  0.270700  0.968700  1.0  0.289
  C  C120  1  0.142000  0.303800  0.029520  1.0  0.6923
  C  C121  1  0.953500  0.045810  0.806910  1.0  0.2964
  C  C122  1  0.951200  0.129590  0.822560  1.0  0.635
  C  C123  1  0.928890  0.460420  0.925530  1.0  0.562
  C  C124  1  0.015330  0.466190  0.920400  1.0  0.6566
  C  C125  1  0.548900  0.455890  0.214180  1.0  0.2907
  C  C126  1  0.549340  0.372160  0.196010  1.0  0.7086
  C  C127  1  0.817160  0.315670  0.145500  1.0  0.2885
  C  C128  1  0.833130  0.291970  0.079980  1.0  0.6319
  C  C129  1  0.565480  0.053800  0.092640  1.0  0.3045
  C  C130  1  0.646430  0.061220  0.117060  1.0  0.6489
  C  C131  1  0.637300  0.164400  0.865680  1.0  0.2672
  C  C132  1  0.605560  0.189340  0.926820  1.0  0.6434
  C  C133  1  0.658000  0.270700  0.531300  1.0  0.29
  C  C134  1  0.642000  0.303800  0.470480  1.0  0.6916
  C  C135  1  0.453500  0.045810  0.693090  1.0  0.2974
  C  C136  1  0.451200  0.129590  0.677440  1.0  0.6344
  C  C137  1  0.428890  0.460420  0.574470  1.0  0.5624
  C  C138  1  0.515330  0.466190  0.579600  1.0  0.6574
  C  C139  1  0.048900  0.455890  0.285820  1.0  0.2907
  C  C140  1  0.049340  0.372160  0.303990  1.0  0.708
  C  C141  1  0.317160  0.315670  0.354500  1.0  0.2882
  C  C142  1  0.333130  0.291970  0.420020  1.0  0.6321
  C  C143  1  0.065480  0.053800  0.407360  1.0  0.3043
  C  C144  1  0.146430  0.061220  0.382940  1.0  0.6486
  C  C145  1  0.137300  0.164400  0.634320  1.0  0.2663
  C  C146  1  0.105560  0.189340  0.573180  1.0  0.643
  C  C147  1  0.842000  0.729300  0.031300  1.0  0.2903
  C  C148  1  0.858000  0.696200  0.970480  1.0  0.6915
  C  C149  1  0.046500  0.954190  0.193090  1.0  0.2965
  C  C150  1  0.048800  0.870410  0.177440  1.0  0.6335
  C  C151  1  0.071110  0.539580  0.074470  1.0  0.5632
  C  C152  1  0.984670  0.533810  0.079600  1.0  0.6582
  C  C153  1  0.451100  0.544110  0.785820  1.0  0.2915
  C  C154  1  0.450660  0.627840  0.803990  1.0  0.7095
  C  C155  1  0.182840  0.684330  0.854500  1.0  0.2879
  C  C156  1  0.166870  0.708030  0.920020  1.0  0.632
  C  C157  1  0.434520  0.946200  0.907360  1.0  0.3034
  C  C158  1  0.353570  0.938780  0.882940  1.0  0.6499
  C  C159  1  0.362700  0.835600  0.134320  1.0  0.2665
  C  C160  1  0.394440  0.810660  0.073180  1.0  0.6433
  N  N161  1  0.398330  0.756010  0.427410  1.0  -0.2417
  N  N162  1  0.362300  0.784800  0.377260  1.0  -0.2168
  N  N163  1  0.285700  0.775500  0.391000  1.0  -0.208
  N  N164  1  0.269800  0.736300  0.446300  1.0  -0.3373
  N  N165  1  0.541400  0.012400  0.347780  1.0  -0.3448
  N  N166  1  0.542700  0.077500  0.309400  1.0  -0.196
  N  N167  1  0.547400  0.055960  0.250240  1.0  -0.1888
  N  N168  1  0.549740  0.978240  0.247540  1.0  -0.3037
  N  N169  1  0.607950  0.481670  0.408770  1.0  -0.3699
  N  N170  1  0.689800  0.512600  0.421400  1.0  -0.2388
  N  N171  1  0.695000  0.583900  0.443100  1.0  -0.2298
  N  N172  1  0.614230  0.604800  0.445250  1.0  -0.3747
  N  N173  1  0.965200  0.523790  0.772410  1.0  -0.2809
  N  N174  1  0.959000  0.444860  0.771630  1.0  -0.1745
  N  N175  1  0.938100  0.417700  0.714760  1.0  -0.2011
  N  N176  1  0.934500  0.480000  0.675830  1.0  -0.3732
  N  N177  1  0.629030  0.657170  0.689480  1.0  -0.3128
  N  N178  1  0.671530  0.643710  0.740080  1.0  -0.1035
  N  N179  1  0.746790  0.664320  0.728050  1.0  -0.0736
  N  N180  1  0.755930  0.690720  0.667340  1.0  -0.3449
  N  N181  1  0.963930  0.886180  0.564490  1.0  -0.3668
  N  N182  1  0.040340  0.917280  0.549640  1.0  -0.2408
  N  N183  1  0.054820  0.992680  0.568970  1.0  -0.1319
  N  N184  1  0.988910  0.011770  0.596250  1.0  -0.3194
  N  N185  1  0.911010  0.862600  0.317760  1.0  -0.3316
  N  N186  1  0.862810  0.881600  0.271320  1.0  -0.1423
  N  N187  1  0.788800  0.865800  0.292240  1.0  -0.1844
  N  N188  1  0.787700  0.838800  0.351830  1.0  -0.2938
  N  N189  1  0.101670  0.243990  0.927410  1.0  -0.2409
  N  N190  1  0.137700  0.215200  0.877260  1.0  -0.2162
  N  N191  1  0.214300  0.224500  0.891000  1.0  -0.2056
  N  N192  1  0.230200  0.263700  0.946300  1.0  -0.3386
  N  N193  1  0.958600  0.987600  0.847780  1.0  -0.3436
  N  N194  1  0.957300  0.922500  0.809400  1.0  -0.1935
  N  N195  1  0.952600  0.944040  0.750240  1.0  -0.1888
  N  N196  1  0.950260  0.021760  0.747540  1.0  -0.3047
  N  N197  1  0.892050  0.518330  0.908770  1.0  -0.3689
  N  N198  1  0.810200  0.487400  0.921400  1.0  -0.2389
  N  N199  1  0.805000  0.416100  0.943100  1.0  -0.2281
  N  N200  1  0.885770  0.395200  0.945250  1.0  -0.3748
  N  N201  1  0.534800  0.476210  0.272410  1.0  -0.2824
  N  N202  1  0.541000  0.555140  0.271630  1.0  -0.1732
  N  N203  1  0.561900  0.582300  0.214760  1.0  -0.2014
  N  N204  1  0.565500  0.520000  0.175830  1.0  -0.3728
  N  N205  1  0.870970  0.342830  0.189480  1.0  -0.3124
  N  N206  1  0.828470  0.356290  0.240080  1.0  -0.1044
  N  N207  1  0.753210  0.335680  0.228050  1.0  -0.0727
  N  N208  1  0.744070  0.309280  0.167340  1.0  -0.3455
  N  N209  1  0.536070  0.113820  0.064490  1.0  -0.3684
  N  N210  1  0.459660  0.082720  0.049640  1.0  -0.2373
  N  N211  1  0.445180  0.007320  0.068970  1.0  -0.1287
  N  N212  1  0.511090  0.988230  0.096250  1.0  -0.3192
  N  N213  1  0.588990  0.137400  0.817760  1.0  -0.3316
  N  N214  1  0.637190  0.118400  0.771320  1.0  -0.1412
  N  N215  1  0.711200  0.134200  0.792240  1.0  -0.183
  N  N216  1  0.712300  0.161200  0.851830  1.0  -0.2938
  N  N217  1  0.601670  0.243990  0.572590  1.0  -0.241
  N  N218  1  0.637700  0.215200  0.622740  1.0  -0.2172
  N  N219  1  0.714300  0.224500  0.609000  1.0  -0.206
  N  N220  1  0.730200  0.263700  0.553700  1.0  -0.3387
  N  N221  1  0.458600  0.987600  0.652220  1.0  -0.337
  N  N222  1  0.457300  0.922500  0.690600  1.0  -0.1937
  N  N223  1  0.452600  0.944040  0.749760  1.0  -0.1945
  N  N224  1  0.450260  0.021760  0.752460  1.0  -0.3046
  N  N225  1  0.392050  0.518330  0.591230  1.0  -0.3694
  N  N226  1  0.310200  0.487400  0.578600  1.0  -0.2391
  N  N227  1  0.305000  0.416100  0.556900  1.0  -0.2277
  N  N228  1  0.385770  0.395200  0.554750  1.0  -0.3748
  N  N229  1  0.034800  0.476210  0.227590  1.0  -0.28
  N  N230  1  0.041000  0.555140  0.228370  1.0  -0.1732
  N  N231  1  0.061900  0.582300  0.285240  1.0  -0.202
  N  N232  1  0.065500  0.520000  0.324170  1.0  -0.3748
  N  N233  1  0.370970  0.342830  0.310520  1.0  -0.3102
  N  N234  1  0.328470  0.356290  0.259920  1.0  -0.1038
  N  N235  1  0.253210  0.335680  0.271950  1.0  -0.0723
  N  N236  1  0.244070  0.309280  0.332660  1.0  -0.347
  N  N237  1  0.036070  0.113820  0.435510  1.0  -0.3679
  N  N238  1  0.959660  0.082720  0.450360  1.0  -0.2378
  N  N239  1  0.945180  0.007320  0.431030  1.0  -0.1291
  N  N240  1  0.011090  0.988230  0.403750  1.0  -0.3197
  N  N241  1  0.088990  0.137400  0.682240  1.0  -0.3313
  N  N242  1  0.137190  0.118400  0.728680  1.0  -0.1411
  N  N243  1  0.211200  0.134200  0.707760  1.0  -0.1822
  N  N244  1  0.212300  0.161200  0.648170  1.0  -0.2936
  N  N245  1  0.898330  0.756010  0.072590  1.0  -0.2428
  N  N246  1  0.862300  0.784800  0.122740  1.0  -0.218
  N  N247  1  0.785700  0.775500  0.109000  1.0  -0.2084
  N  N248  1  0.769800  0.736300  0.053700  1.0  -0.3371
  N  N249  1  0.041400  0.012400  0.152220  1.0  -0.3384
  N  N250  1  0.042700  0.077500  0.190600  1.0  -0.1953
  N  N251  1  0.047400  0.055960  0.249760  1.0  -0.1945
  N  N252  1  0.049740  0.978240  0.252460  1.0  -0.305
  N  N253  1  0.107950  0.481670  0.091230  1.0  -0.3702
  N  N254  1  0.189800  0.512600  0.078600  1.0  -0.2384
  N  N255  1  0.195000  0.583900  0.056900  1.0  -0.2298
  N  N256  1  0.114230  0.604800  0.054750  1.0  -0.374
  N  N257  1  0.465200  0.523790  0.727590  1.0  -0.2791
  N  N258  1  0.459000  0.444860  0.728370  1.0  -0.1737
  N  N259  1  0.438100  0.417700  0.785240  1.0  -0.2
  N  N260  1  0.434500  0.480000  0.824170  1.0  -0.3754
  N  N261  1  0.129030  0.657170  0.810520  1.0  -0.312
  N  N262  1  0.171530  0.643710  0.759920  1.0  -0.1023
  N  N263  1  0.246790  0.664320  0.771950  1.0  -0.0736
  N  N264  1  0.255930  0.690720  0.832660  1.0  -0.3457
  N  N265  1  0.463930  0.886180  0.935510  1.0  -0.3669
  N  N266  1  0.540340  0.917280  0.950360  1.0  -0.2404
  N  N267  1  0.554820  0.992680  0.931030  1.0  -0.1323
  N  N268  1  0.488910  0.011770  0.903750  1.0  -0.3196
  N  N269  1  0.411010  0.862600  0.182240  1.0  -0.3319
  N  N270  1  0.362810  0.881600  0.228680  1.0  -0.1435
  N  N271  1  0.288800  0.865800  0.207760  1.0  -0.1842
  N  N272  1  0.287700  0.838800  0.148170  1.0  -0.2927
  O  O273  1  0.927890  0.800350  0.683820  1.0  -0.7759
  O  O274  1  0.430550  0.691360  0.542290  1.0  -0.7168
  O  O275  1  0.832780  0.619700  0.527780  1.0  -0.8183
  O  O276  1  0.346620  0.645450  0.673050  1.0  -0.7759
  O  O277  1  0.298700  0.670900  0.563870  1.0  -0.5814
  O  O278  1  0.539480  0.725710  0.158060  1.0  -0.7782
  O  O279  1  0.510990  0.784810  0.654770  1.0  -0.7796
  O  O280  1  0.541580  0.850270  0.516820  1.0  -0.8247
  O  O281  1  0.675530  0.786210  0.439760  1.0  -0.777
  O  O282  1  0.541150  0.692800  0.339470  1.0  -0.7819
  O  O283  1  0.629010  0.860730  0.053190  1.0  -0.797
  O  O284  1  0.995500  0.726860  0.530610  1.0  -0.7536
  O  O285  1  0.690690  0.839110  0.187870  1.0  -0.808
  O  O286  1  0.547770  0.848660  0.378580  1.0  -0.7191
  O  O287  1  0.553890  0.826220  0.273630  1.0  -0.6312
  O  O288  1  0.444750  0.467560  0.401990  1.0  -0.6549
  O  O289  1  0.452270  0.593000  0.432850  1.0  -0.6649
  O  O290  1  0.972760  0.676300  0.740610  1.0  -0.678
  O  O291  1  0.927150  0.644210  0.643490  1.0  -0.7096
  O  O292  1  0.593770  0.701150  0.563440  1.0  -0.7461
  O  O293  1  0.724890  0.731220  0.546870  1.0  -0.6316
  O  O294  1  0.810460  0.872430  0.612440  1.0  -0.6237
  O  O295  1  0.833600  0.001080  0.642190  1.0  -0.6426
  O  O296  1  0.969640  0.813150  0.426630  1.0  -0.644
  O  O297  1  0.850000  0.788320  0.471110  1.0  -0.5908
  O  O298  1  0.572110  0.199650  0.183820  1.0  -0.7754
  O  O299  1  0.069450  0.308640  0.042290  1.0  -0.7119
  O  O300  1  0.667220  0.380300  0.027780  1.0  -0.8175
  O  O301  1  0.153380  0.354550  0.173050  1.0  -0.7745
  O  O302  1  0.201300  0.329100  0.063870  1.0  -0.5816
  O  O303  1  0.960520  0.274290  0.658060  1.0  -0.7784
  O  O304  1  0.989010  0.215190  0.154770  1.0  -0.7767
  O  O305  1  0.958420  0.149730  0.016820  1.0  -0.8234
  O  O306  1  0.824470  0.213790  0.939760  1.0  -0.7707
  O  O307  1  0.958850  0.307200  0.839470  1.0  -0.7818
  O  O308  1  0.870990  0.139270  0.553190  1.0  -0.7975
  O  O309  1  0.504500  0.273140  0.030610  1.0  -0.7538
  O  O310  1  0.809310  0.160890  0.687870  1.0  -0.8058
  O  O311  1  0.952230  0.151340  0.878580  1.0  -0.7192
  O  O312  1  0.946110  0.173780  0.773630  1.0  -0.63
  O  O313  1  0.055250  0.532440  0.901990  1.0  -0.6545
  O  O314  1  0.047730  0.407000  0.932850  1.0  -0.6673
  O  O315  1  0.527240  0.323700  0.240610  1.0  -0.6787
  O  O316  1  0.572850  0.355790  0.143490  1.0  -0.7088
  O  O317  1  0.906230  0.298850  0.063440  1.0  -0.7468
  O  O318  1  0.775110  0.268780  0.046870  1.0  -0.6313
  O  O319  1  0.689540  0.127570  0.112440  1.0  -0.6237
  O  O320  1  0.666400  0.998920  0.142190  1.0  -0.6439
  O  O321  1  0.530360  0.186850  0.926630  1.0  -0.6434
  O  O322  1  0.650000  0.211680  0.971110  1.0  -0.591
  O  O323  1  0.072110  0.199650  0.316180  1.0  -0.7726
  O  O324  1  0.569450  0.308640  0.457710  1.0  -0.712
  O  O325  1  0.167220  0.380300  0.472220  1.0  -0.8178
  O  O326  1  0.653380  0.354550  0.326950  1.0  -0.7749
  O  O327  1  0.701300  0.329100  0.436130  1.0  -0.5814
  O  O328  1  0.460520  0.274290  0.841940  1.0  -0.7791
  O  O329  1  0.489010  0.215190  0.345230  1.0  -0.7782
  O  O330  1  0.458420  0.149730  0.483180  1.0  -0.8227
  O  O331  1  0.324470  0.213790  0.560240  1.0  -0.7706
  O  O332  1  0.458850  0.307200  0.660530  1.0  -0.7837
  O  O333  1  0.370990  0.139270  0.946810  1.0  -0.7995
  O  O334  1  0.004500  0.273140  0.469390  1.0  -0.7539
  O  O335  1  0.309310  0.160890  0.812130  1.0  -0.8035
  O  O336  1  0.452230  0.151340  0.621420  1.0  -0.7189
  O  O337  1  0.446110  0.173780  0.726370  1.0  -0.6301
  O  O338  1  0.555250  0.532440  0.598010  1.0  -0.6551
  O  O339  1  0.547730  0.407000  0.567150  1.0  -0.6653
  O  O340  1  0.027240  0.323700  0.259390  1.0  -0.6781
  O  O341  1  0.072850  0.355790  0.356510  1.0  -0.7084
  O  O342  1  0.406230  0.298850  0.436560  1.0  -0.7473
  O  O343  1  0.275110  0.268780  0.453130  1.0  -0.6306
  O  O344  1  0.189540  0.127570  0.387560  1.0  -0.6244
  O  O345  1  0.166400  0.998920  0.357810  1.0  -0.6447
  O  O346  1  0.030360  0.186850  0.573370  1.0  -0.6434
  O  O347  1  0.150000  0.211680  0.528890  1.0  -0.5909
  O  O348  1  0.427890  0.800350  0.816180  1.0  -0.7747
  O  O349  1  0.930550  0.691360  0.957710  1.0  -0.7166
  O  O350  1  0.332780  0.619700  0.972220  1.0  -0.8187
  O  O351  1  0.846620  0.645450  0.826950  1.0  -0.7758
  O  O352  1  0.798700  0.670900  0.936130  1.0  -0.5814
  O  O353  1  0.039480  0.725710  0.341940  1.0  -0.7791
  O  O354  1  0.010990  0.784810  0.845230  1.0  -0.7811
  O  O355  1  0.041580  0.850270  0.983180  1.0  -0.8238
  O  O356  1  0.175530  0.786210  0.060240  1.0  -0.7769
  O  O357  1  0.041150  0.692800  0.160530  1.0  -0.7835
  O  O358  1  0.129010  0.860730  0.446810  1.0  -0.7996
  O  O359  1  0.495500  0.726860  0.969390  1.0  -0.7558
  O  O360  1  0.190690  0.839110  0.312130  1.0  -0.8065
  O  O361  1  0.047770  0.848660  0.121420  1.0  -0.7187
  O  O362  1  0.053890  0.826220  0.226370  1.0  -0.6311
  O  O363  1  0.944750  0.467560  0.098010  1.0  -0.6553
  O  O364  1  0.952270  0.593000  0.067150  1.0  -0.6649
  O  O365  1  0.472760  0.676300  0.759390  1.0  -0.6779
  O  O366  1  0.427150  0.644210  0.856510  1.0  -0.709
  O  O367  1  0.093770  0.701150  0.936560  1.0  -0.7465
  O  O368  1  0.224890  0.731220  0.953130  1.0  -0.6309
  O  O369  1  0.310460  0.872430  0.887560  1.0  -0.6234
  O  O370  1  0.333600  0.001080  0.857810  1.0  -0.6434
  O  O371  1  0.469640  0.813150  0.073370  1.0  -0.6441
  O  O372  1  0.350000  0.788320  0.028890  1.0  -0.5913
