# generated using pymatgen
data_AlH15C24N2O5
_symmetry_space_group_name_H-M   'P 1'
_cell_length_a   31.97800000
_cell_length_b   6.58120000
_cell_length_c   16.86200000
_cell_angle_alpha   90.00000000
_cell_angle_beta   90.00000000
_cell_angle_gamma   90.00000000
_symmetry_Int_Tables_number   1
_chemical_formula_structural   AlH15C24N2O5
_chemical_formula_sum   'Al4 H60 C96 N8 O20'
_cell_volume   3548.66883252
_cell_formula_units_Z   4
loop_
 _symmetry_equiv_pos_site_id
 _symmetry_equiv_pos_as_xyz
  1  'x, y, z'
loop_
 _atom_site_type_symbol
 _atom_site_label
 _atom_site_symmetry_multiplicity
 _atom_site_fract_x
 _atom_site_fract_y
 _atom_site_fract_z
 _atom_site_occupancy
 _atom_site_charge
  Al  Al1  1  0.750000  0.250000  0.000000  1.0  1.8487
  Al  Al2  1  0.250000  0.750000  0.000000  1.0  1.8487
  Al  Al3  1  0.250000  0.250000  0.000000  1.0  1.8487
  Al  Al4  1  0.750000  0.750000  0.000000  1.0  1.8487
  H  H5  1  0.836900  0.312000  0.809400  1.0  0.1208
  H  H6  1  0.889290  0.312000  0.710000  1.0  0.1172
  H  H7  1  0.336900  0.812000  0.809400  1.0  0.1208
  H  H8  1  0.389290  0.812000  0.710000  1.0  0.1172
  H  H9  1  0.163100  0.688000  0.809400  1.0  0.1211
  H  H10  1  0.110710  0.688000  0.710000  1.0  0.1169
  H  H11  1  0.663100  0.188000  0.809400  1.0  0.1211
  H  H12  1  0.610710  0.188000  0.710000  1.0  0.1169
  H  H13  1  0.163100  0.312000  0.190600  1.0  0.1212
  H  H14  1  0.110710  0.312000  0.290000  1.0  0.1174
  H  H15  1  0.663100  0.812000  0.190600  1.0  0.1212
  H  H16  1  0.610710  0.812000  0.290000  1.0  0.1174
  H  H17  1  0.836900  0.688000  0.190600  1.0  0.1212
  H  H18  1  0.889290  0.688000  0.290000  1.0  0.1171
  H  H19  1  0.336900  0.188000  0.190600  1.0  0.1212
  H  H20  1  0.389290  0.188000  0.290000  1.0  0.1171
  H  H21  1  0.163100  0.688000  0.190600  1.0  0.1213
  H  H22  1  0.110710  0.688000  0.290000  1.0  0.1167
  H  H23  1  0.663100  0.188000  0.190600  1.0  0.1213
  H  H24  1  0.610710  0.188000  0.290000  1.0  0.1167
  H  H25  1  0.836900  0.312000  0.190600  1.0  0.1213
  H  H26  1  0.889290  0.312000  0.290000  1.0  0.1172
  H  H27  1  0.336900  0.812000  0.190600  1.0  0.1213
  H  H28  1  0.389290  0.812000  0.290000  1.0  0.1172
  H  H29  1  0.836900  0.688000  0.809400  1.0  0.121
  H  H30  1  0.889290  0.688000  0.710000  1.0  0.1172
  H  H31  1  0.336900  0.188000  0.809400  1.0  0.121
  H  H32  1  0.389290  0.188000  0.710000  1.0  0.1172
  H  H33  1  0.163100  0.312000  0.809400  1.0  0.1207
  H  H34  1  0.110710  0.312000  0.710000  1.0  0.1177
  H  H35  1  0.663100  0.812000  0.809400  1.0  0.1207
  H  H36  1  0.610710  0.812000  0.710000  1.0  0.1177
  H  H37  1  0.693800  0.000000  0.000000  1.0  0.4322
  H  H38  1  0.193800  0.500000  0.000000  1.0  0.4322
  H  H39  1  0.306200  0.000000  0.000000  1.0  0.432
  H  H40  1  0.806200  0.500000  0.000000  1.0  0.432
  H  H41  1  0.961000  0.000000  0.793800  1.0  0.1292
  H  H42  1  0.845100  0.000000  0.574000  1.0  0.1252
  H  H43  1  0.461000  0.500000  0.793800  1.0  0.1292
  H  H44  1  0.345100  0.500000  0.574000  1.0  0.1252
  H  H45  1  0.039000  0.000000  0.793800  1.0  0.129
  H  H46  1  0.154900  0.000000  0.574000  1.0  0.1246
  H  H47  1  0.539000  0.500000  0.793800  1.0  0.129
  H  H48  1  0.654900  0.500000  0.574000  1.0  0.1246
  H  H49  1  0.039000  0.000000  0.206200  1.0  0.1289
  H  H50  1  0.154900  0.000000  0.426000  1.0  0.1245
  H  H51  1  0.539000  0.500000  0.206200  1.0  0.1289
  H  H52  1  0.654900  0.500000  0.426000  1.0  0.1245
  H  H53  1  0.961000  0.000000  0.206200  1.0  0.1294
  H  H54  1  0.845100  0.000000  0.426000  1.0  0.1255
  H  H55  1  0.461000  0.500000  0.206200  1.0  0.1294
  H  H56  1  0.345100  0.500000  0.426000  1.0  0.1255
  H  H57  1  0.000000  0.000000  0.566200  1.0  0.087
  H  H58  1  0.500000  0.500000  0.566200  1.0  0.087
  H  H59  1  0.000000  0.000000  0.433800  1.0  0.0861
  H  H60  1  0.500000  0.500000  0.433800  1.0  0.0861
  H  H61  1  0.965100  0.000000  0.500000  1.0  0.0861
  H  H62  1  0.465100  0.500000  0.500000  1.0  0.0861
  H  H63  1  0.034900  0.000000  0.500000  1.0  0.089
  H  H64  1  0.534900  0.500000  0.500000  1.0  0.089
  C  C65  1  0.847900  0.180400  0.788400  1.0  -0.106
  C  C66  1  0.878230  0.180400  0.730900  1.0  -0.1496
  C  C67  1  0.347900  0.680400  0.788400  1.0  -0.106
  C  C68  1  0.378230  0.680400  0.730900  1.0  -0.1482
  C  C69  1  0.152100  0.819600  0.788400  1.0  -0.1063
  C  C70  1  0.121770  0.819600  0.730900  1.0  -0.1559
  C  C71  1  0.652100  0.319600  0.788400  1.0  -0.1063
  C  C72  1  0.621770  0.319600  0.730900  1.0  -0.1559
  C  C73  1  0.152100  0.180400  0.211600  1.0  -0.106
  C  C74  1  0.121770  0.180400  0.269100  1.0  -0.1518
  C  C75  1  0.652100  0.680400  0.211600  1.0  -0.106
  C  C76  1  0.621770  0.680400  0.269100  1.0  -0.1518
  C  C77  1  0.847900  0.819600  0.211600  1.0  -0.106
  C  C78  1  0.878230  0.819600  0.269100  1.0  -0.1542
  C  C79  1  0.347900  0.319600  0.211600  1.0  -0.106
  C  C80  1  0.378230  0.319600  0.269100  1.0  -0.1542
  C  C81  1  0.152100  0.819600  0.211600  1.0  -0.1057
  C  C82  1  0.121770  0.819600  0.269100  1.0  -0.1542
  C  C83  1  0.652100  0.319600  0.211600  1.0  -0.1057
  C  C84  1  0.621770  0.319600  0.269100  1.0  -0.1542
  C  C85  1  0.847900  0.180400  0.211600  1.0  -0.104
  C  C86  1  0.878230  0.180400  0.269100  1.0  -0.1479
  C  C87  1  0.347900  0.680400  0.211600  1.0  -0.104
  C  C88  1  0.378230  0.680400  0.269100  1.0  -0.1479
  C  C89  1  0.847900  0.819600  0.788400  1.0  -0.1042
  C  C90  1  0.878230  0.819600  0.730900  1.0  -0.1529
  C  C91  1  0.347900  0.319600  0.788400  1.0  -0.1057
  C  C92  1  0.378230  0.319600  0.730900  1.0  -0.1529
  C  C93  1  0.152100  0.180400  0.788400  1.0  -0.1047
  C  C94  1  0.121770  0.180400  0.730900  1.0  -0.1506
  C  C95  1  0.652100  0.680400  0.788400  1.0  -0.1047
  C  C96  1  0.621770  0.680400  0.730900  1.0  -0.1506
  C  C97  1  0.806200  0.000000  0.867500  1.0  0.3052
  C  C98  1  0.832800  0.000000  0.817100  1.0  0.2352
  C  C99  1  0.893380  0.000000  0.702200  1.0  0.1458
  C  C100  1  0.923690  0.000000  0.644700  1.0  0.0135
  C  C101  1  0.966600  0.000000  0.671400  1.0  0.2318
  C  C102  1  0.909590  0.000000  0.563300  1.0  0.2463
  C  C103  1  0.979400  0.000000  0.745800  1.0  -0.1199
  C  C104  1  0.870400  0.000000  0.539100  1.0  -0.1193
  C  C105  1  0.306200  0.500000  0.867500  1.0  0.3052
  C  C106  1  0.332800  0.500000  0.817100  1.0  0.2352
  C  C107  1  0.393380  0.500000  0.702200  1.0  0.1458
  C  C108  1  0.423690  0.500000  0.644700  1.0  0.0135
  C  C109  1  0.466600  0.500000  0.671400  1.0  0.2318
  C  C110  1  0.409590  0.500000  0.563300  1.0  0.2463
  C  C111  1  0.479400  0.500000  0.745800  1.0  -0.1199
  C  C112  1  0.370400  0.500000  0.539100  1.0  -0.1193
  C  C113  1  0.193800  0.000000  0.867500  1.0  0.3078
  C  C114  1  0.167200  0.000000  0.817100  1.0  0.2326
  C  C115  1  0.106620  0.000000  0.702200  1.0  0.1471
  C  C116  1  0.076310  0.000000  0.644700  1.0  0.0133
  C  C117  1  0.033400  0.000000  0.671400  1.0  0.2321
  C  C118  1  0.090410  0.000000  0.563300  1.0  0.245
  C  C119  1  0.020600  0.000000  0.745800  1.0  -0.1186
  C  C120  1  0.129600  0.000000  0.539100  1.0  -0.1201
  C  C121  1  0.693800  0.500000  0.867500  1.0  0.3078
  C  C122  1  0.667200  0.500000  0.817100  1.0  0.2326
  C  C123  1  0.606620  0.500000  0.702200  1.0  0.1471
  C  C124  1  0.576310  0.500000  0.644700  1.0  0.0133
  C  C125  1  0.533400  0.500000  0.671400  1.0  0.2321
  C  C126  1  0.590410  0.500000  0.563300  1.0  0.245
  C  C127  1  0.520600  0.500000  0.745800  1.0  -0.1186
  C  C128  1  0.629600  0.500000  0.539100  1.0  -0.1201
  C  C129  1  0.193800  0.000000  0.132500  1.0  0.3077
  C  C130  1  0.167200  0.000000  0.182900  1.0  0.233
  C  C131  1  0.106620  0.000000  0.297800  1.0  0.1473
  C  C132  1  0.076310  0.000000  0.355300  1.0  0.0134
  C  C133  1  0.033400  0.000000  0.328600  1.0  0.2345
  C  C134  1  0.090410  0.000000  0.436700  1.0  0.2457
  C  C135  1  0.020600  0.000000  0.254200  1.0  -0.1205
  C  C136  1  0.129600  0.000000  0.460900  1.0  -0.1203
  C  C137  1  0.693800  0.500000  0.132500  1.0  0.3077
  C  C138  1  0.667200  0.500000  0.182900  1.0  0.233
  C  C139  1  0.606620  0.500000  0.297800  1.0  0.1473
  C  C140  1  0.576310  0.500000  0.355300  1.0  0.0134
  C  C141  1  0.533400  0.500000  0.328600  1.0  0.2345
  C  C142  1  0.590410  0.500000  0.436700  1.0  0.2457
  C  C143  1  0.520600  0.500000  0.254200  1.0  -0.1205
  C  C144  1  0.629600  0.500000  0.460900  1.0  -0.1203
  C  C145  1  0.806200  0.000000  0.132500  1.0  0.3048
  C  C146  1  0.832800  0.000000  0.182900  1.0  0.2355
  C  C147  1  0.893380  0.000000  0.297800  1.0  0.146
  C  C148  1  0.923690  0.000000  0.355300  1.0  0.0136
  C  C149  1  0.966600  0.000000  0.328600  1.0  0.2329
  C  C150  1  0.909590  0.000000  0.436700  1.0  0.247
  C  C151  1  0.979400  0.000000  0.254200  1.0  -0.12
  C  C152  1  0.870400  0.000000  0.460900  1.0  -0.1181
  C  C153  1  0.306200  0.500000  0.132500  1.0  0.3048
  C  C154  1  0.332800  0.500000  0.182900  1.0  0.2355
  C  C155  1  0.393380  0.500000  0.297800  1.0  0.146
  C  C156  1  0.423690  0.500000  0.355300  1.0  0.0136
  C  C157  1  0.466600  0.500000  0.328600  1.0  0.2329
  C  C158  1  0.409590  0.500000  0.436700  1.0  0.247
  C  C159  1  0.479400  0.500000  0.254200  1.0  -0.12
  C  C160  1  0.370400  0.500000  0.460900  1.0  -0.1181
  N  N161  1  0.000000  0.000000  0.625500  1.0  -0.198
  N  N162  1  0.500000  0.500000  0.625500  1.0  -0.198
  N  N163  1  0.000000  0.000000  0.374500  1.0  -0.1972
  N  N164  1  0.500000  0.500000  0.374500  1.0  -0.1972
  N  N165  1  0.933800  0.000000  0.500000  1.0  -0.2017
  N  N166  1  0.433800  0.500000  0.500000  1.0  -0.2017
  N  N167  1  0.066200  0.000000  0.500000  1.0  -0.2034
  N  N168  1  0.566200  0.500000  0.500000  1.0  -0.2034
  O  O169  1  0.779500  0.158800  0.918200  1.0  -0.8636
  O  O170  1  0.279500  0.658800  0.918200  1.0  -0.8636
  O  O171  1  0.220500  0.841200  0.918200  1.0  -0.8645
  O  O172  1  0.720500  0.341200  0.918200  1.0  -0.8645
  O  O173  1  0.220500  0.158800  0.081800  1.0  -0.8629
  O  O174  1  0.720500  0.658800  0.081800  1.0  -0.8629
  O  O175  1  0.779500  0.841200  0.081800  1.0  -0.8634
  O  O176  1  0.279500  0.341200  0.081800  1.0  -0.8634
  O  O177  1  0.220500  0.841200  0.081800  1.0  -0.863
  O  O178  1  0.720500  0.341200  0.081800  1.0  -0.863
  O  O179  1  0.779500  0.158800  0.081800  1.0  -0.863
  O  O180  1  0.279500  0.658800  0.081800  1.0  -0.863
  O  O181  1  0.779500  0.841200  0.918200  1.0  -0.864
  O  O182  1  0.279500  0.341200  0.918200  1.0  -0.864
  O  O183  1  0.220500  0.158800  0.918200  1.0  -0.8642
  O  O184  1  0.720500  0.658800  0.918200  1.0  -0.8642
  O  O185  1  0.725100  0.000000  0.000000  1.0  -0.9111
  O  O186  1  0.225100  0.500000  0.000000  1.0  -0.9111
  O  O187  1  0.274900  0.000000  0.000000  1.0  -0.9123
  O  O188  1  0.774900  0.500000  0.000000  1.0  -0.9123
