# generated using pymatgen
data_Mn3Cr4(CO2)24
_symmetry_space_group_name_H-M   'P 1'
_cell_length_a   26.32960000
_cell_length_b   26.32960000
_cell_length_c   23.31400000
_cell_angle_alpha   90.00000000
_cell_angle_beta   90.00000000
_cell_angle_gamma   120.00000000
_symmetry_Int_Tables_number   1
_chemical_formula_structural   Mn3Cr4(CO2)24
_chemical_formula_sum   'Mn18 Cr24 C144 O288'
_cell_volume   13997.03171085
_cell_formula_units_Z   6
loop_
 _symmetry_equiv_pos_site_id
 _symmetry_equiv_pos_as_xyz
  1  'x, y, z'
loop_
 _atom_site_type_symbol
 _atom_site_label
 _atom_site_symmetry_multiplicity
 _atom_site_fract_x
 _atom_site_fract_y
 _atom_site_fract_z
 _atom_site_occupancy
 _atom_site_charge
  Mn  Mn1  1  0.598540  0.095570  0.327590  1.0  1.0087
  Mn  Mn2  1  0.265210  0.428900  0.660920  1.0  1.0087
  Mn  Mn3  1  0.931870  0.762240  0.994260  1.0  1.0088
  Mn  Mn4  1  0.904430  0.502970  0.327590  1.0  1.0085
  Mn  Mn5  1  0.571100  0.836300  0.660920  1.0  1.0134
  Mn  Mn6  1  0.237760  0.169640  0.994260  1.0  1.0085
  Mn  Mn7  1  0.497030  0.401460  0.327590  1.0  1.0092
  Mn  Mn8  1  0.163700  0.734790  0.660920  1.0  1.0092
  Mn  Mn9  1  0.830360  0.068130  0.994260  1.0  1.0091
  Mn  Mn10  1  0.904430  0.401460  0.827590  1.0  1.0085
  Mn  Mn11  1  0.571100  0.734790  0.160920  1.0  1.0084
  Mn  Mn12  1  0.237760  0.068130  0.494260  1.0  1.0085
  Mn  Mn13  1  0.497030  0.095570  0.827590  1.0  1.0075
  Mn  Mn14  1  0.163700  0.428900  0.160920  1.0  1.0124
  Mn  Mn15  1  0.830360  0.762240  0.494260  1.0  1.0075
  Mn  Mn16  1  0.598540  0.502970  0.827590  1.0  1.0081
  Mn  Mn17  1  0.265210  0.836300  0.160920  1.0  1.0082
  Mn  Mn18  1  0.931870  0.169640  0.494260  1.0  1.0081
  Cr  Cr19  1  0.358190  0.007450  0.337370  1.0  1.4619
  Cr  Cr20  1  0.024860  0.340780  0.670700  1.0  1.4619
  Cr  Cr21  1  0.691520  0.674120  0.004040  1.0  1.4619
  Cr  Cr22  1  0.992550  0.350740  0.337370  1.0  1.4618
  Cr  Cr23  1  0.659220  0.684070  0.670700  1.0  1.4618
  Cr  Cr24  1  0.325880  0.017410  0.004040  1.0  1.4618
  Cr  Cr25  1  0.649260  0.641810  0.337370  1.0  1.4611
  Cr  Cr26  1  0.315930  0.975140  0.670700  1.0  1.4611
  Cr  Cr27  1  0.982590  0.308480  0.004040  1.0  1.4611
  Cr  Cr28  1  0.992550  0.641810  0.837370  1.0  1.4611
  Cr  Cr29  1  0.659220  0.975140  0.170700  1.0  1.4611
  Cr  Cr30  1  0.325880  0.308480  0.504040  1.0  1.4611
  Cr  Cr31  1  0.649260  0.007450  0.837370  1.0  1.462
  Cr  Cr32  1  0.315930  0.340780  0.170700  1.0  1.462
  Cr  Cr33  1  0.982590  0.674120  0.504040  1.0  1.462
  Cr  Cr34  1  0.358190  0.350740  0.837370  1.0  1.4618
  Cr  Cr35  1  0.024860  0.684070  0.170700  1.0  1.4618
  Cr  Cr36  1  0.691520  0.017410  0.504040  1.0  1.4618
  Cr  Cr37  1  0.666667  0.333333  0.311860  1.0  1.4836
  Cr  Cr38  1  0.333333  0.666667  0.645190  1.0  1.4834
  Cr  Cr39  1  0.000000  0.000000  0.978530  1.0  1.4836
  Cr  Cr40  1  0.666667  0.333333  0.811860  1.0  1.4836
  Cr  Cr41  1  0.333333  0.666667  0.145190  1.0  1.4834
  Cr  Cr42  1  0.000000  0.000000  0.478530  1.0  1.4836
  C  C43  1  0.649600  0.223200  0.291500  1.0  0.5979
  C  C44  1  0.616200  0.218600  0.346400  1.0  0.582
  C  C45  1  0.472500  0.069100  0.303200  1.0  0.6372
  C  C46  1  0.473000  0.044100  0.363500  1.0  0.6237
  C  C47  1  0.323700  0.914200  0.265300  1.0  0.6514
  C  C48  1  0.291100  0.946200  0.244900  1.0  0.6316
  C  C49  1  0.315000  0.064600  0.401800  1.0  0.6387
  C  C50  1  0.281900  0.000400  0.421600  1.0  0.5958
  C  C51  1  0.316270  0.556530  0.624830  1.0  0.5976
  C  C52  1  0.282870  0.551930  0.679730  1.0  0.582
  C  C53  1  0.139170  0.402430  0.636530  1.0  0.6373
  C  C54  1  0.139670  0.377430  0.696830  1.0  0.6237
  C  C55  1  0.990370  0.247530  0.598630  1.0  0.6514
  C  C56  1  0.957770  0.279530  0.578230  1.0  0.6315
  C  C57  1  0.981670  0.397930  0.735130  1.0  0.6384
  C  C58  1  0.948570  0.333730  0.754930  1.0  0.5958
  C  C59  1  0.982930  0.889870  0.958170  1.0  0.5979
  C  C60  1  0.949530  0.885270  0.013070  1.0  0.5819
  C  C61  1  0.805830  0.735770  0.969870  1.0  0.6372
  C  C62  1  0.806330  0.710770  0.030170  1.0  0.6237
  C  C63  1  0.657030  0.580870  0.931970  1.0  0.6514
  C  C64  1  0.624430  0.612870  0.911570  1.0  0.6315
  C  C65  1  0.648330  0.731270  0.068470  1.0  0.6382
  C  C66  1  0.615230  0.667070  0.088270  1.0  0.5957
  C  C67  1  0.776800  0.426400  0.291500  1.0  0.5969
  C  C68  1  0.781400  0.397600  0.346400  1.0  0.5827
  C  C69  1  0.930900  0.403400  0.303200  1.0  0.6389
  C  C70  1  0.955900  0.428900  0.363500  1.0  0.6236
  C  C71  1  0.085800  0.409500  0.265300  1.0  0.6502
  C  C72  1  0.053800  0.344900  0.244900  1.0  0.6317
  C  C73  1  0.935400  0.250400  0.401800  1.0  0.6407
  C  C74  1  0.999600  0.281500  0.421600  1.0  0.5937
  C  C75  1  0.443470  0.759730  0.624830  1.0  0.5969
  C  C76  1  0.448070  0.730930  0.679730  1.0  0.5827
  C  C77  1  0.597570  0.736730  0.636530  1.0  0.6387
  C  C78  1  0.622570  0.762230  0.696830  1.0  0.6236
  C  C79  1  0.752470  0.742830  0.598630  1.0  0.6501
  C  C80  1  0.720470  0.678230  0.578230  1.0  0.6317
  C  C81  1  0.602070  0.583730  0.735130  1.0  0.641
  C  C82  1  0.666270  0.614830  0.754930  1.0  0.5937
  C  C83  1  0.110130  0.093070  0.958170  1.0  0.5986
  C  C84  1  0.114730  0.064270  0.013070  1.0  0.5826
  C  C85  1  0.264230  0.070070  0.969870  1.0  0.6389
  C  C86  1  0.289230  0.095570  0.030170  1.0  0.6236
  C  C87  1  0.419130  0.076170  0.931970  1.0  0.6502
  C  C88  1  0.387130  0.011570  0.911570  1.0  0.6317
  C  C89  1  0.268730  0.917070  0.068470  1.0  0.6409
  C  C90  1  0.332930  0.948170  0.088270  1.0  0.5937
  C  C91  1  0.573600  0.350400  0.291500  1.0  0.5962
  C  C92  1  0.602400  0.383800  0.346400  1.0  0.5818
  C  C93  1  0.596600  0.527500  0.303200  1.0  0.6387
  C  C94  1  0.571100  0.527000  0.363500  1.0  0.6235
  C  C95  1  0.590500  0.676300  0.265300  1.0  0.6518
  C  C96  1  0.655100  0.708900  0.244900  1.0  0.6316
  C  C97  1  0.749600  0.685000  0.401800  1.0  0.6411
  C  C98  1  0.718500  0.718100  0.421600  1.0  0.593
  C  C99  1  0.240270  0.683730  0.624830  1.0  0.5979
  C  C100  1  0.269070  0.717130  0.679730  1.0  0.5818
  C  C101  1  0.263270  0.860830  0.636530  1.0  0.6387
  C  C102  1  0.237770  0.860330  0.696830  1.0  0.6235
  C  C103  1  0.257170  0.009630  0.598630  1.0  0.6519
  C  C104  1  0.321770  0.042230  0.578230  1.0  0.6316
  C  C105  1  0.416270  0.018330  0.735130  1.0  0.6411
  C  C106  1  0.385170  0.051430  0.754930  1.0  0.593
  C  C107  1  0.906930  0.017070  0.958170  1.0  0.5959
  C  C108  1  0.935730  0.050470  0.013070  1.0  0.5819
  C  C109  1  0.929930  0.194170  0.969870  1.0  0.6387
  C  C110  1  0.904430  0.193670  0.030170  1.0  0.6235
  C  C111  1  0.923830  0.342970  0.931970  1.0  0.6518
  C  C112  1  0.988430  0.375570  0.911570  1.0  0.6316
  C  C113  1  0.082930  0.351670  0.068470  1.0  0.6412
  C  C114  1  0.051830  0.384770  0.088270  1.0  0.593
  C  C115  1  0.776800  0.350400  0.791500  1.0  0.5957
  C  C116  1  0.781400  0.383800  0.846400  1.0  0.5817
  C  C117  1  0.930900  0.527500  0.803200  1.0  0.6386
  C  C118  1  0.955900  0.527000  0.863500  1.0  0.6244
  C  C119  1  0.085800  0.676300  0.765300  1.0  0.6524
  C  C120  1  0.053800  0.708900  0.744900  1.0  0.6298
  C  C121  1  0.935400  0.685000  0.901800  1.0  0.642
  C  C122  1  0.999600  0.718100  0.921600  1.0  0.5927
  C  C123  1  0.443470  0.683730  0.124830  1.0  0.5954
  C  C124  1  0.448070  0.717130  0.179730  1.0  0.5817
  C  C125  1  0.597570  0.860830  0.136530  1.0  0.6388
  C  C126  1  0.622570  0.860330  0.196830  1.0  0.6244
  C  C127  1  0.752470  0.009630  0.098630  1.0  0.6524
  C  C128  1  0.720470  0.042230  0.078230  1.0  0.6297
  C  C129  1  0.602070  0.018330  0.235130  1.0  0.6417
  C  C130  1  0.666270  0.051430  0.254930  1.0  0.5927
  C  C131  1  0.110130  0.017070  0.458170  1.0  0.5957
  C  C132  1  0.114730  0.050470  0.513070  1.0  0.5816
  C  C133  1  0.264230  0.194170  0.469870  1.0  0.6386
  C  C134  1  0.289230  0.193670  0.530170  1.0  0.6244
  C  C135  1  0.419130  0.342970  0.431970  1.0  0.6524
  C  C136  1  0.387130  0.375570  0.411570  1.0  0.6298
  C  C137  1  0.268730  0.351670  0.568470  1.0  0.6415
  C  C138  1  0.332930  0.384770  0.588270  1.0  0.5927
  C  C139  1  0.573600  0.223200  0.791500  1.0  0.5984
  C  C140  1  0.602400  0.218600  0.846400  1.0  0.5827
  C  C141  1  0.596600  0.069100  0.803200  1.0  0.639
  C  C142  1  0.571100  0.044100  0.863500  1.0  0.6236
  C  C143  1  0.590500  0.914200  0.765300  1.0  0.6513
  C  C144  1  0.655100  0.946200  0.744900  1.0  0.6335
  C  C145  1  0.749600  0.064600  0.901800  1.0  0.6383
  C  C146  1  0.718500  0.000400  0.921600  1.0  0.5961
  C  C147  1  0.240270  0.556530  0.124830  1.0  0.5984
  C  C148  1  0.269070  0.551930  0.179730  1.0  0.5827
  C  C149  1  0.263270  0.402430  0.136530  1.0  0.6389
  C  C150  1  0.237770  0.377430  0.196830  1.0  0.6236
  C  C151  1  0.257170  0.247530  0.098630  1.0  0.6512
  C  C152  1  0.321770  0.279530  0.078230  1.0  0.6335
  C  C153  1  0.416270  0.397930  0.235130  1.0  0.6386
  C  C154  1  0.385170  0.333730  0.254930  1.0  0.5961
  C  C155  1  0.906930  0.889870  0.458170  1.0  0.6001
  C  C156  1  0.935730  0.885270  0.513070  1.0  0.5826
  C  C157  1  0.929930  0.735770  0.469870  1.0  0.639
  C  C158  1  0.904430  0.710770  0.530170  1.0  0.6236
  C  C159  1  0.923830  0.580870  0.431970  1.0  0.6513
  C  C160  1  0.988430  0.612870  0.411570  1.0  0.6335
  C  C161  1  0.082930  0.731270  0.568470  1.0  0.6385
  C  C162  1  0.051830  0.667070  0.588270  1.0  0.5961
  C  C163  1  0.649600  0.426400  0.791500  1.0  0.5971
  C  C164  1  0.616200  0.397600  0.846400  1.0  0.5818
  C  C165  1  0.472500  0.403400  0.803200  1.0  0.6381
  C  C166  1  0.473000  0.428900  0.863500  1.0  0.6228
  C  C167  1  0.323700  0.409500  0.765300  1.0  0.65
  C  C168  1  0.291100  0.344900  0.744900  1.0  0.6322
  C  C169  1  0.315000  0.250400  0.901800  1.0  0.6403
  C  C170  1  0.281900  0.281500  0.921600  1.0  0.592
  C  C171  1  0.316270  0.759730  0.124830  1.0  0.5987
  C  C172  1  0.282870  0.730930  0.179730  1.0  0.5818
  C  C173  1  0.139170  0.736730  0.136530  1.0  0.6381
  C  C174  1  0.139670  0.762230  0.196830  1.0  0.6228
  C  C175  1  0.990370  0.742830  0.098630  1.0  0.6501
  C  C176  1  0.957770  0.678230  0.078230  1.0  0.6322
  C  C177  1  0.981670  0.583730  0.235130  1.0  0.6403
  C  C178  1  0.948570  0.614830  0.254930  1.0  0.592
  C  C179  1  0.982930  0.093070  0.458170  1.0  0.5968
  C  C180  1  0.949530  0.064270  0.513070  1.0  0.5818
  C  C181  1  0.805830  0.070070  0.469870  1.0  0.6381
  C  C182  1  0.806330  0.095570  0.530170  1.0  0.6228
  C  C183  1  0.657030  0.076170  0.431970  1.0  0.65
  C  C184  1  0.624430  0.011570  0.411570  1.0  0.6322
  C  C185  1  0.648330  0.917070  0.568470  1.0  0.6404
  C  C186  1  0.615230  0.948170  0.588270  1.0  0.592
  O  O187  1  0.674200  0.273340  0.266630  1.0  -0.4753
  O  O188  1  0.615430  0.265600  0.360230  1.0  -0.4889
  O  O189  1  0.651600  0.179930  0.274600  1.0  -0.4617
  O  O190  1  0.591600  0.172600  0.373040  1.0  -0.4604
  O  O191  1  0.519600  0.099600  0.279200  1.0  -0.5255
  O  O192  1  0.517680  0.048050  0.382220  1.0  -0.4587
  O  O193  1  0.422680  0.056600  0.284220  1.0  -0.496
  O  O194  1  0.423800  0.021060  0.388420  1.0  -0.503
  O  O195  1  0.299640  0.989000  0.276800  1.0  -0.4907
  O  O196  1  0.354200  0.935330  0.309100  1.0  -0.495
  O  O197  1  0.317500  0.870800  0.238500  1.0  -0.561
  O  O198  1  0.261000  0.928500  0.201800  1.0  -0.5547
  O  O199  1  0.353810  0.076480  0.364800  1.0  -0.4869
  O  O200  1  0.297290  0.967000  0.396000  1.0  -0.4901
  O  O201  1  0.303900  0.100060  0.423600  1.0  -0.4893
  O  O202  1  0.242600  0.985100  0.457100  1.0  -0.4918
  O  O203  1  0.340870  0.606670  0.599960  1.0  -0.4753
  O  O204  1  0.282100  0.598930  0.693560  1.0  -0.4888
  O  O205  1  0.318270  0.513260  0.607930  1.0  -0.4617
  O  O206  1  0.258270  0.505930  0.706370  1.0  -0.4604
  O  O207  1  0.186270  0.432930  0.612530  1.0  -0.5255
  O  O208  1  0.184350  0.381380  0.715550  1.0  -0.4588
  O  O209  1  0.089350  0.389930  0.617550  1.0  -0.496
  O  O210  1  0.090470  0.354390  0.721750  1.0  -0.503
  O  O211  1  0.966310  0.322330  0.610130  1.0  -0.4907
  O  O212  1  0.020870  0.268660  0.642430  1.0  -0.495
  O  O213  1  0.984170  0.204130  0.571830  1.0  -0.5609
  O  O214  1  0.927670  0.261830  0.535130  1.0  -0.5547
  O  O215  1  0.020480  0.409810  0.698130  1.0  -0.4869
  O  O216  1  0.963960  0.300330  0.729330  1.0  -0.4901
  O  O217  1  0.970570  0.433390  0.756930  1.0  -0.4893
  O  O218  1  0.909270  0.318430  0.790430  1.0  -0.4918
  O  O219  1  0.007530  0.940010  0.933300  1.0  -0.4753
  O  O220  1  0.948760  0.932270  0.026900  1.0  -0.4888
  O  O221  1  0.984930  0.846600  0.941270  1.0  -0.4617
  O  O222  1  0.924930  0.839270  0.039710  1.0  -0.4604
  O  O223  1  0.852930  0.766270  0.945870  1.0  -0.5255
  O  O224  1  0.851010  0.714720  0.048890  1.0  -0.4582
  O  O225  1  0.756010  0.723270  0.950890  1.0  -0.496
  O  O226  1  0.757130  0.687730  0.055090  1.0  -0.503
  O  O227  1  0.632970  0.655670  0.943470  1.0  -0.491
  O  O228  1  0.687530  0.602000  0.975770  1.0  -0.495
  O  O229  1  0.650830  0.537470  0.905170  1.0  -0.5611
  O  O230  1  0.594330  0.595170  0.868470  1.0  -0.5547
  O  O231  1  0.687140  0.743150  0.031470  1.0  -0.4868
  O  O232  1  0.630620  0.633670  0.062670  1.0  -0.4902
  O  O233  1  0.637230  0.766730  0.090270  1.0  -0.4893
  O  O234  1  0.575930  0.651770  0.123770  1.0  -0.4915
  O  O235  1  0.726660  0.400860  0.266630  1.0  -0.4752
  O  O236  1  0.734400  0.349830  0.360230  1.0  -0.4891
  O  O237  1  0.820070  0.471670  0.274600  1.0  -0.4632
  O  O238  1  0.827400  0.419000  0.373040  1.0  -0.4592
  O  O239  1  0.900400  0.420000  0.279200  1.0  -0.5212
  O  O240  1  0.951950  0.469630  0.382220  1.0  -0.4606
  O  O241  1  0.943400  0.366080  0.284220  1.0  -0.4956
  O  O242  1  0.978940  0.402740  0.388420  1.0  -0.501
  O  O243  1  0.011000  0.310640  0.276800  1.0  -0.4896
  O  O244  1  0.064670  0.418870  0.309100  1.0  -0.4964
  O  O245  1  0.129200  0.446700  0.238500  1.0  -0.5589
  O  O246  1  0.071500  0.332500  0.201800  1.0  -0.5542
  O  O247  1  0.923520  0.277330  0.364800  1.0  -0.4843
  O  O248  1  0.033000  0.330290  0.396000  1.0  -0.4886
  O  O249  1  0.899940  0.203840  0.423600  1.0  -0.494
  O  O250  1  0.014900  0.257500  0.457100  1.0  -0.4916
  O  O251  1  0.393330  0.734190  0.599960  1.0  -0.4753
  O  O252  1  0.401070  0.683160  0.693560  1.0  -0.489
  O  O253  1  0.486740  0.805000  0.607930  1.0  -0.4632
  O  O254  1  0.494070  0.752330  0.706370  1.0  -0.4592
  O  O255  1  0.567070  0.753330  0.612530  1.0  -0.5212
  O  O256  1  0.618620  0.802960  0.715550  1.0  -0.4611
  O  O257  1  0.610070  0.699410  0.617550  1.0  -0.4956
  O  O258  1  0.645610  0.736070  0.721750  1.0  -0.5009
  O  O259  1  0.677670  0.643970  0.610130  1.0  -0.49
  O  O260  1  0.731340  0.752200  0.642430  1.0  -0.4963
  O  O261  1  0.795870  0.780030  0.571830  1.0  -0.5587
  O  O262  1  0.738170  0.665830  0.535130  1.0  -0.5542
  O  O263  1  0.590190  0.610660  0.698130  1.0  -0.4843
  O  O264  1  0.699670  0.663620  0.729330  1.0  -0.4885
  O  O265  1  0.566610  0.537170  0.756930  1.0  -0.494
  O  O266  1  0.681570  0.590830  0.790430  1.0  -0.4916
  O  O267  1  0.059990  0.067530  0.933300  1.0  -0.4752
  O  O268  1  0.067730  0.016500  0.026900  1.0  -0.489
  O  O269  1  0.153400  0.138340  0.941270  1.0  -0.4632
  O  O270  1  0.160730  0.085670  0.039710  1.0  -0.4592
  O  O271  1  0.233730  0.086670  0.945870  1.0  -0.5212
  O  O272  1  0.285280  0.136300  0.048890  1.0  -0.4611
  O  O273  1  0.276730  0.032750  0.950890  1.0  -0.4956
  O  O274  1  0.312270  0.069410  0.055090  1.0  -0.501
  O  O275  1  0.344330  0.977310  0.943470  1.0  -0.4897
  O  O276  1  0.398000  0.085540  0.975770  1.0  -0.4964
  O  O277  1  0.462530  0.113370  0.905170  1.0  -0.5587
  O  O278  1  0.404830  0.999170  0.868470  1.0  -0.5542
  O  O279  1  0.256850  0.944000  0.031470  1.0  -0.4843
  O  O280  1  0.366330  0.996960  0.062670  1.0  -0.4885
  O  O281  1  0.233270  0.870510  0.090270  1.0  -0.494
  O  O282  1  0.348230  0.924170  0.123770  1.0  -0.4916
  O  O283  1  0.599140  0.325800  0.266630  1.0  -0.4753
  O  O284  1  0.650170  0.384570  0.360230  1.0  -0.4884
  O  O285  1  0.528330  0.348400  0.274600  1.0  -0.4605
  O  O286  1  0.581000  0.408400  0.373040  1.0  -0.4612
  O  O287  1  0.580000  0.480400  0.279200  1.0  -0.5236
  O  O288  1  0.530370  0.482320  0.382220  1.0  -0.4618
  O  O289  1  0.633920  0.577320  0.284220  1.0  -0.4941
  O  O290  1  0.597260  0.576200  0.388420  1.0  -0.5025
  O  O291  1  0.689360  0.700360  0.276800  1.0  -0.4875
  O  O292  1  0.581130  0.645800  0.309100  1.0  -0.4956
  O  O293  1  0.553300  0.682500  0.238500  1.0  -0.5616
  O  O294  1  0.667500  0.739000  0.201800  1.0  -0.5528
  O  O295  1  0.722670  0.646190  0.364800  1.0  -0.4857
  O  O296  1  0.669710  0.702710  0.396000  1.0  -0.4864
  O  O297  1  0.796160  0.696100  0.423600  1.0  -0.4925
  O  O298  1  0.742500  0.757400  0.457100  1.0  -0.493
  O  O299  1  0.265810  0.659130  0.599960  1.0  -0.4753
  O  O300  1  0.316840  0.717900  0.693560  1.0  -0.4883
  O  O301  1  0.195000  0.681730  0.607930  1.0  -0.46
  O  O302  1  0.247670  0.741730  0.706370  1.0  -0.4612
  O  O303  1  0.246670  0.813730  0.612530  1.0  -0.5236
  O  O304  1  0.197040  0.815650  0.715550  1.0  -0.4622
  O  O305  1  0.300590  0.910650  0.617550  1.0  -0.4941
  O  O306  1  0.263930  0.909530  0.721750  1.0  -0.5025
  O  O307  1  0.356030  0.033690  0.610130  1.0  -0.4878
  O  O308  1  0.247800  0.979130  0.642430  1.0  -0.4956
  O  O309  1  0.219970  0.015830  0.571830  1.0  -0.5616
  O  O310  1  0.334170  0.072330  0.535130  1.0  -0.5526
  O  O311  1  0.389340  0.979520  0.698130  1.0  -0.4857
  O  O312  1  0.336380  0.036040  0.729330  1.0  -0.4864
  O  O313  1  0.462830  0.029430  0.756930  1.0  -0.4925
  O  O314  1  0.409170  0.090730  0.790430  1.0  -0.4929
  O  O315  1  0.932470  0.992470  0.933300  1.0  -0.4749
  O  O316  1  0.983500  0.051240  0.026900  1.0  -0.4883
  O  O317  1  0.861660  0.015070  0.941270  1.0  -0.4605
  O  O318  1  0.914330  0.075070  0.039710  1.0  -0.4612
  O  O319  1  0.913330  0.147070  0.945870  1.0  -0.5236
  O  O320  1  0.863700  0.148990  0.048890  1.0  -0.4618
  O  O321  1  0.967250  0.243990  0.950890  1.0  -0.4941
  O  O322  1  0.930590  0.242870  0.055090  1.0  -0.5025
  O  O323  1  0.022690  0.367030  0.943470  1.0  -0.4876
  O  O324  1  0.914460  0.312470  0.975770  1.0  -0.4956
  O  O325  1  0.886630  0.349170  0.905170  1.0  -0.5618
  O  O326  1  0.000830  0.405670  0.868470  1.0  -0.5526
  O  O327  1  0.056000  0.312860  0.031470  1.0  -0.4857
  O  O328  1  0.003040  0.369380  0.062670  1.0  -0.4864
  O  O329  1  0.129490  0.362770  0.090270  1.0  -0.4925
  O  O330  1  0.075830  0.424070  0.123770  1.0  -0.4929
  O  O331  1  0.726660  0.325800  0.766630  1.0  -0.4752
  O  O332  1  0.734400  0.384570  0.860230  1.0  -0.4886
  O  O333  1  0.820070  0.348400  0.774600  1.0  -0.4606
  O  O334  1  0.827400  0.408400  0.873040  1.0  -0.4621
  O  O335  1  0.900400  0.480400  0.779200  1.0  -0.5228
  O  O336  1  0.951950  0.482320  0.882220  1.0  -0.4621
  O  O337  1  0.943400  0.577320  0.784220  1.0  -0.4942
  O  O338  1  0.978940  0.576200  0.888420  1.0  -0.5021
  O  O339  1  0.011000  0.700360  0.776800  1.0  -0.4894
  O  O340  1  0.064670  0.645800  0.809100  1.0  -0.4973
  O  O341  1  0.129200  0.682500  0.738500  1.0  -0.5614
  O  O342  1  0.071500  0.739000  0.701800  1.0  -0.554
  O  O343  1  0.923520  0.646190  0.864800  1.0  -0.485
  O  O344  1  0.033000  0.702710  0.896000  1.0  -0.4863
  O  O345  1  0.899940  0.696100  0.923600  1.0  -0.492
  O  O346  1  0.014900  0.757400  0.957100  1.0  -0.4907
  O  O347  1  0.393330  0.659130  0.099960  1.0  -0.4752
  O  O348  1  0.401070  0.717900  0.193560  1.0  -0.4885
  O  O349  1  0.486740  0.681730  0.107930  1.0  -0.4606
  O  O350  1  0.494070  0.741730  0.206370  1.0  -0.4621
  O  O351  1  0.567070  0.813730  0.112530  1.0  -0.5228
  O  O352  1  0.618620  0.815650  0.215550  1.0  -0.4621
  O  O353  1  0.610070  0.910650  0.117550  1.0  -0.4942
  O  O354  1  0.645610  0.909530  0.221750  1.0  -0.5021
  O  O355  1  0.677670  0.033690  0.110130  1.0  -0.4894
  O  O356  1  0.731340  0.979130  0.142430  1.0  -0.4973
  O  O357  1  0.795870  0.015830  0.071830  1.0  -0.5614
  O  O358  1  0.738170  0.072330  0.035130  1.0  -0.554
  O  O359  1  0.590190  0.979520  0.198130  1.0  -0.485
  O  O360  1  0.699670  0.036040  0.229330  1.0  -0.4863
  O  O361  1  0.566610  0.029430  0.256930  1.0  -0.492
  O  O362  1  0.681570  0.090730  0.290430  1.0  -0.4906
  O  O363  1  0.059990  0.992470  0.433300  1.0  -0.4752
  O  O364  1  0.067730  0.051240  0.526900  1.0  -0.4885
  O  O365  1  0.153400  0.015070  0.441270  1.0  -0.4606
  O  O366  1  0.160730  0.075070  0.539710  1.0  -0.4621
  O  O367  1  0.233730  0.147070  0.445870  1.0  -0.5228
  O  O368  1  0.285280  0.148990  0.548890  1.0  -0.4617
  O  O369  1  0.276730  0.243990  0.450890  1.0  -0.4942
  O  O370  1  0.312270  0.242870  0.555090  1.0  -0.5021
  O  O371  1  0.344330  0.367030  0.443470  1.0  -0.4897
  O  O372  1  0.398000  0.312470  0.475770  1.0  -0.4973
  O  O373  1  0.462530  0.349170  0.405170  1.0  -0.5616
  O  O374  1  0.404830  0.405670  0.368470  1.0  -0.5539
  O  O375  1  0.256850  0.312860  0.531470  1.0  -0.4849
  O  O376  1  0.366330  0.369380  0.562670  1.0  -0.4864
  O  O377  1  0.233270  0.362770  0.590270  1.0  -0.4921
  O  O378  1  0.348230  0.424070  0.623770  1.0  -0.4905
  O  O379  1  0.599140  0.273340  0.766630  1.0  -0.4756
  O  O380  1  0.650170  0.265600  0.860230  1.0  -0.4876
  O  O381  1  0.528330  0.179930  0.774600  1.0  -0.4616
  O  O382  1  0.581000  0.172600  0.873040  1.0  -0.4605
  O  O383  1  0.580000  0.099600  0.779200  1.0  -0.5253
  O  O384  1  0.530370  0.048050  0.882220  1.0  -0.4585
  O  O385  1  0.633920  0.056600  0.784220  1.0  -0.4949
  O  O386  1  0.597260  0.021060  0.888420  1.0  -0.5026
  O  O387  1  0.689360  0.989000  0.776800  1.0  -0.4889
  O  O388  1  0.581130  0.935330  0.809100  1.0  -0.4945
  O  O389  1  0.553300  0.870800  0.738500  1.0  -0.5607
  O  O390  1  0.667500  0.928500  0.701800  1.0  -0.5536
  O  O391  1  0.722670  0.076480  0.864800  1.0  -0.4861
  O  O392  1  0.669710  0.967000  0.896000  1.0  -0.4904
  O  O393  1  0.796160  0.100060  0.923600  1.0  -0.4897
  O  O394  1  0.742500  0.985100  0.957100  1.0  -0.4915
  O  O395  1  0.265810  0.606670  0.099960  1.0  -0.4756
  O  O396  1  0.316840  0.598930  0.193560  1.0  -0.4876
  O  O397  1  0.195000  0.513260  0.107930  1.0  -0.4616
  O  O398  1  0.247670  0.505930  0.206370  1.0  -0.4605
  O  O399  1  0.246670  0.432930  0.112530  1.0  -0.5254
  O  O400  1  0.197040  0.381380  0.215550  1.0  -0.459
  O  O401  1  0.300590  0.389930  0.117550  1.0  -0.4949
  O  O402  1  0.263930  0.354390  0.221750  1.0  -0.5026
  O  O403  1  0.356030  0.322330  0.110130  1.0  -0.4892
  O  O404  1  0.247800  0.268660  0.142430  1.0  -0.4944
  O  O405  1  0.219970  0.204130  0.071830  1.0  -0.5604
  O  O406  1  0.334170  0.261830  0.035130  1.0  -0.5536
  O  O407  1  0.389340  0.409810  0.198130  1.0  -0.4861
  O  O408  1  0.336380  0.300330  0.229330  1.0  -0.4903
  O  O409  1  0.462830  0.433390  0.256930  1.0  -0.4897
  O  O410  1  0.409170  0.318430  0.290430  1.0  -0.4915
  O  O411  1  0.932470  0.940010  0.433300  1.0  -0.4756
  O  O412  1  0.983500  0.932270  0.526900  1.0  -0.4875
  O  O413  1  0.861660  0.846600  0.441270  1.0  -0.4616
  O  O414  1  0.914330  0.839270  0.539710  1.0  -0.4605
  O  O415  1  0.913330  0.766270  0.445870  1.0  -0.5254
  O  O416  1  0.863700  0.714720  0.548890  1.0  -0.459
  O  O417  1  0.967250  0.723270  0.450890  1.0  -0.4949
  O  O418  1  0.930590  0.687730  0.555090  1.0  -0.5026
  O  O419  1  0.022690  0.655670  0.443470  1.0  -0.489
  O  O420  1  0.914460  0.602000  0.475770  1.0  -0.4945
  O  O421  1  0.886630  0.537470  0.405170  1.0  -0.5604
  O  O422  1  0.000830  0.595170  0.368470  1.0  -0.5536
  O  O423  1  0.056000  0.743150  0.531470  1.0  -0.4861
  O  O424  1  0.003040  0.633670  0.562670  1.0  -0.4903
  O  O425  1  0.129490  0.766730  0.590270  1.0  -0.4897
  O  O426  1  0.075830  0.651770  0.623770  1.0  -0.4915
  O  O427  1  0.674200  0.400860  0.766630  1.0  -0.4733
  O  O428  1  0.615430  0.349830  0.860230  1.0  -0.49
  O  O429  1  0.651600  0.471670  0.774600  1.0  -0.4626
  O  O430  1  0.591600  0.419000  0.873040  1.0  -0.4587
  O  O431  1  0.519600  0.420000  0.779200  1.0  -0.5227
  O  O432  1  0.517680  0.469630  0.882220  1.0  -0.4608
  O  O433  1  0.422680  0.366080  0.784220  1.0  -0.495
  O  O434  1  0.423800  0.402740  0.888420  1.0  -0.5015
  O  O435  1  0.299640  0.310640  0.776800  1.0  -0.4894
  O  O436  1  0.354200  0.418870  0.809100  1.0  -0.4957
  O  O437  1  0.317500  0.446700  0.738500  1.0  -0.5583
  O  O438  1  0.261000  0.332500  0.701800  1.0  -0.553
  O  O439  1  0.353810  0.277330  0.864800  1.0  -0.4835
  O  O440  1  0.297290  0.330290  0.896000  1.0  -0.4896
  O  O441  1  0.303900  0.203840  0.923600  1.0  -0.4947
  O  O442  1  0.242600  0.257500  0.957100  1.0  -0.4921
  O  O443  1  0.340870  0.734190  0.099960  1.0  -0.4733
  O  O444  1  0.282100  0.683160  0.193560  1.0  -0.4901
  O  O445  1  0.318270  0.805000  0.107930  1.0  -0.462
  O  O446  1  0.258270  0.752330  0.206370  1.0  -0.4587
  O  O447  1  0.186270  0.753330  0.112530  1.0  -0.5227
  O  O448  1  0.184350  0.802960  0.215550  1.0  -0.4612
  O  O449  1  0.089350  0.699410  0.117550  1.0  -0.495
  O  O450  1  0.090470  0.736070  0.221750  1.0  -0.5015
  O  O451  1  0.966310  0.643970  0.110130  1.0  -0.4896
  O  O452  1  0.020870  0.752200  0.142430  1.0  -0.4957
  O  O453  1  0.984170  0.780030  0.071830  1.0  -0.5582
  O  O454  1  0.927670  0.665830  0.035130  1.0  -0.553
  O  O455  1  0.020480  0.610660  0.198130  1.0  -0.4835
  O  O456  1  0.963960  0.663620  0.229330  1.0  -0.4896
  O  O457  1  0.970570  0.537170  0.256930  1.0  -0.4947
  O  O458  1  0.909270  0.590830  0.290430  1.0  -0.4921
  O  O459  1  0.007530  0.067530  0.433300  1.0  -0.4734
  O  O460  1  0.948760  0.016500  0.526900  1.0  -0.49
  O  O461  1  0.984930  0.138340  0.441270  1.0  -0.4626
  O  O462  1  0.924930  0.085670  0.539710  1.0  -0.4587
  O  O463  1  0.852930  0.086670  0.445870  1.0  -0.5227
  O  O464  1  0.851010  0.136300  0.548890  1.0  -0.4608
  O  O465  1  0.756010  0.032750  0.450890  1.0  -0.495
  O  O466  1  0.757130  0.069410  0.555090  1.0  -0.5015
  O  O467  1  0.632970  0.977310  0.443470  1.0  -0.4895
  O  O468  1  0.687530  0.085540  0.475770  1.0  -0.4957
  O  O469  1  0.650830  0.113370  0.405170  1.0  -0.5584
  O  O470  1  0.594330  0.999170  0.368470  1.0  -0.553
  O  O471  1  0.687140  0.944000  0.531470  1.0  -0.4835
  O  O472  1  0.630620  0.996960  0.562670  1.0  -0.4896
  O  O473  1  0.637230  0.870510  0.590270  1.0  -0.4947
  O  O474  1  0.575930  0.924170  0.623770  1.0  -0.4919
