# generated using pymatgen
data_CdH12C16(NO2)2
_symmetry_space_group_name_H-M   'P 1'
_cell_length_a   13.20900000
_cell_length_b   13.92600000
_cell_length_c   12.24300000
_cell_angle_alpha   90.00000000
_cell_angle_beta   90.00000000
_cell_angle_gamma   90.00000000
_symmetry_Int_Tables_number   1
_chemical_formula_structural   CdH12C16(NO2)2
_chemical_formula_sum   'Cd4 H48 C64 N8 O16'
_cell_volume   2252.08190176
_cell_formula_units_Z   4
loop_
 _symmetry_equiv_pos_site_id
 _symmetry_equiv_pos_as_xyz
  1  'x, y, z'
loop_
 _atom_site_type_symbol
 _atom_site_label
 _atom_site_symmetry_multiplicity
 _atom_site_fract_x
 _atom_site_fract_y
 _atom_site_fract_z
 _atom_site_occupancy
 _atom_site_charge
  Cd  Cd1  1  0.250000  0.000000  0.279180  1.0  0.8915
  Cd  Cd2  1  0.750000  0.500000  0.779180  1.0  0.8915
  Cd  Cd3  1  0.250000  0.500000  0.220820  1.0  0.8914
  Cd  Cd4  1  0.750000  0.000000  0.720820  1.0  0.8914
  H  H5  1  0.516300  0.089900  0.041000  1.0  0.0988
  H  H6  1  0.452000  0.249500  0.150300  1.0  0.0881
  H  H7  1  0.627400  0.175700  0.939900  1.0  0.1239
  H  H8  1  0.725500  0.278800  0.840700  1.0  0.0728
  H  H9  1  0.623500  0.498800  0.001800  1.0  0.0771
  H  H10  1  0.523400  0.402300  0.106600  1.0  0.1142
  H  H11  1  0.983700  0.910100  0.041000  1.0  0.0988
  H  H12  1  0.048000  0.750500  0.150300  1.0  0.0874
  H  H13  1  0.872600  0.824300  0.939900  1.0  0.1244
  H  H14  1  0.774500  0.721200  0.840700  1.0  0.0728
  H  H15  1  0.876500  0.501200  0.001800  1.0  0.0773
  H  H16  1  0.976600  0.597700  0.106600  1.0  0.1146
  H  H17  1  0.016300  0.410100  0.541000  1.0  0.0989
  H  H18  1  0.952000  0.250500  0.650300  1.0  0.088
  H  H19  1  0.127400  0.324300  0.439900  1.0  0.1241
  H  H20  1  0.225500  0.221200  0.340700  1.0  0.0726
  H  H21  1  0.123500  0.001200  0.501800  1.0  0.0772
  H  H22  1  0.023400  0.097700  0.606600  1.0  0.114
  H  H23  1  0.483700  0.589900  0.541000  1.0  0.0986
  H  H24  1  0.548000  0.749500  0.650300  1.0  0.0875
  H  H25  1  0.372600  0.675700  0.439900  1.0  0.1243
  H  H26  1  0.274500  0.778800  0.340700  1.0  0.0725
  H  H27  1  0.376500  0.998800  0.501800  1.0  0.0771
  H  H28  1  0.476600  0.902300  0.606600  1.0  0.1145
  H  H29  1  0.983700  0.589900  0.459000  1.0  0.0983
  H  H30  1  0.048000  0.749500  0.349700  1.0  0.0877
  H  H31  1  0.872600  0.675700  0.560100  1.0  0.1243
  H  H32  1  0.774500  0.778800  0.659300  1.0  0.0712
  H  H33  1  0.876500  0.998800  0.498200  1.0  0.0771
  H  H34  1  0.976600  0.902300  0.393400  1.0  0.1149
  H  H35  1  0.516300  0.410100  0.459000  1.0  0.0985
  H  H36  1  0.452000  0.250500  0.349700  1.0  0.088
  H  H37  1  0.627400  0.324300  0.560100  1.0  0.124
  H  H38  1  0.725500  0.221200  0.659300  1.0  0.071
  H  H39  1  0.623500  0.001200  0.498200  1.0  0.0776
  H  H40  1  0.523400  0.097700  0.393400  1.0  0.1146
  H  H41  1  0.483700  0.910100  0.959000  1.0  0.0984
  H  H42  1  0.548000  0.750500  0.849700  1.0  0.0875
  H  H43  1  0.372600  0.824300  0.060100  1.0  0.1244
  H  H44  1  0.274500  0.721200  0.159300  1.0  0.0711
  H  H45  1  0.376500  0.501200  0.998200  1.0  0.0776
  H  H46  1  0.476600  0.597700  0.893400  1.0  0.115
  H  H47  1  0.016300  0.089900  0.959000  1.0  0.0985
  H  H48  1  0.952000  0.249500  0.849700  1.0  0.0883
  H  H49  1  0.127400  0.175700  0.060100  1.0  0.1239
  H  H50  1  0.225500  0.278800  0.159300  1.0  0.0715
  H  H51  1  0.123500  0.498800  0.998200  1.0  0.0772
  H  H52  1  0.023400  0.402300  0.893400  1.0  0.1149
  C  C53  1  0.400600  0.073400  0.157300  1.0  0.7306
  C  C54  1  0.476900  0.124700  0.090000  1.0  -0.1871
  C  C55  1  0.490300  0.217800  0.097800  1.0  -0.0682
  C  C56  1  0.559200  0.277000  0.032600  1.0  0.1292
  C  C57  1  0.623700  0.241400  0.952900  1.0  -0.1983
  C  C58  1  0.682100  0.304100  0.893200  1.0  0.1863
  C  C59  1  0.622500  0.433200  0.987700  1.0  0.1723
  C  C60  1  0.562300  0.375500  0.051100  1.0  -0.1835
  C  C61  1  0.099400  0.926600  0.157300  1.0  0.7295
  C  C62  1  0.023100  0.875300  0.090000  1.0  -0.1889
  C  C63  1  0.009700  0.782200  0.097800  1.0  -0.0686
  C  C64  1  0.940800  0.723000  0.032600  1.0  0.1285
  C  C65  1  0.876300  0.758600  0.952900  1.0  -0.1993
  C  C66  1  0.817900  0.695900  0.893200  1.0  0.1864
  C  C67  1  0.877500  0.566800  0.987700  1.0  0.173
  C  C68  1  0.937700  0.624500  0.051100  1.0  -0.182
  C  C69  1  0.900600  0.426600  0.657300  1.0  0.7293
  C  C70  1  0.976900  0.375300  0.590000  1.0  -0.187
  C  C71  1  0.990300  0.282200  0.597800  1.0  -0.0685
  C  C72  1  0.059200  0.223000  0.532600  1.0  0.129
  C  C73  1  0.123700  0.258600  0.452900  1.0  -0.1995
  C  C74  1  0.182100  0.195900  0.393200  1.0  0.1865
  C  C75  1  0.122500  0.066800  0.487700  1.0  0.173
  C  C76  1  0.062300  0.124500  0.551100  1.0  -0.1832
  C  C77  1  0.599400  0.573400  0.657300  1.0  0.7309
  C  C78  1  0.523100  0.624700  0.590000  1.0  -0.1882
  C  C79  1  0.509700  0.717800  0.597800  1.0  -0.0686
  C  C80  1  0.440800  0.777000  0.532600  1.0  0.1288
  C  C81  1  0.376300  0.741400  0.452900  1.0  -0.1981
  C  C82  1  0.317900  0.804100  0.393200  1.0  0.1859
  C  C83  1  0.377500  0.933200  0.487700  1.0  0.1722
  C  C84  1  0.437700  0.875500  0.551100  1.0  -0.1824
  C  C85  1  0.099400  0.573400  0.342700  1.0  0.7307
  C  C86  1  0.023100  0.624700  0.410000  1.0  -0.1882
  C  C87  1  0.009700  0.717800  0.402200  1.0  -0.069
  C  C88  1  0.940800  0.777000  0.467400  1.0  0.1291
  C  C89  1  0.876300  0.741400  0.547100  1.0  -0.1976
  C  C90  1  0.817900  0.804100  0.606800  1.0  0.1862
  C  C91  1  0.877500  0.933200  0.512300  1.0  0.1724
  C  C92  1  0.937700  0.875500  0.448900  1.0  -0.1818
  C  C93  1  0.400600  0.426600  0.342700  1.0  0.73
  C  C94  1  0.476900  0.375300  0.410000  1.0  -0.1874
  C  C95  1  0.490300  0.282200  0.402200  1.0  -0.069
  C  C96  1  0.559200  0.223000  0.467400  1.0  0.1292
  C  C97  1  0.623700  0.258600  0.547100  1.0  -0.1991
  C  C98  1  0.682100  0.195900  0.606800  1.0  0.1859
  C  C99  1  0.622500  0.066800  0.512300  1.0  0.1728
  C  C100  1  0.562300  0.124500  0.448900  1.0  -0.1832
  C  C101  1  0.599400  0.926600  0.842700  1.0  0.7299
  C  C102  1  0.523100  0.875300  0.910000  1.0  -0.1899
  C  C103  1  0.509700  0.782200  0.902200  1.0  -0.0692
  C  C104  1  0.440800  0.723000  0.967400  1.0  0.1287
  C  C105  1  0.376300  0.758600  0.047100  1.0  -0.1988
  C  C106  1  0.317900  0.695900  0.106800  1.0  0.1862
  C  C107  1  0.377500  0.566800  0.012300  1.0  0.1726
  C  C108  1  0.437700  0.624500  0.948900  1.0  -0.1817
  C  C109  1  0.900600  0.073400  0.842700  1.0  0.7307
  C  C110  1  0.976900  0.124700  0.910000  1.0  -0.1869
  C  C111  1  0.990300  0.217800  0.902200  1.0  -0.0683
  C  C112  1  0.059200  0.277000  0.967400  1.0  0.1294
  C  C113  1  0.123700  0.241400  0.047100  1.0  -0.1977
  C  C114  1  0.182100  0.304100  0.106800  1.0  0.186
  C  C115  1  0.122500  0.433200  0.012300  1.0  0.1725
  C  C116  1  0.062300  0.375500  0.948900  1.0  -0.1831
  N  N117  1  0.680000  0.399180  0.906600  1.0  -0.3344
  N  N118  1  0.820000  0.600820  0.906600  1.0  -0.3363
  N  N119  1  0.180000  0.100820  0.406600  1.0  -0.3353
  N  N120  1  0.320000  0.899180  0.406600  1.0  -0.3352
  N  N121  1  0.820000  0.899180  0.593400  1.0  -0.3362
  N  N122  1  0.680000  0.100820  0.593400  1.0  -0.3343
  N  N123  1  0.320000  0.600820  0.093400  1.0  -0.3353
  N  N124  1  0.180000  0.399180  0.093400  1.0  -0.335
  O  O125  1  0.354600  0.119810  0.230000  1.0  -0.592
  O  O126  1  0.382100  0.987550  0.139100  1.0  -0.6718
  O  O127  1  0.145400  0.880190  0.230000  1.0  -0.5939
  O  O128  1  0.117900  0.012450  0.139100  1.0  -0.6718
  O  O129  1  0.854600  0.380190  0.730000  1.0  -0.5931
  O  O130  1  0.882100  0.512450  0.639100  1.0  -0.671
  O  O131  1  0.645400  0.619810  0.730000  1.0  -0.5934
  O  O132  1  0.617900  0.487550  0.639100  1.0  -0.6724
  O  O133  1  0.145400  0.619810  0.270000  1.0  -0.594
  O  O134  1  0.117900  0.487550  0.360900  1.0  -0.6718
  O  O135  1  0.354600  0.380190  0.270000  1.0  -0.5935
  O  O136  1  0.382100  0.512450  0.360900  1.0  -0.6706
  O  O137  1  0.645400  0.880190  0.770000  1.0  -0.5948
  O  O138  1  0.617900  0.012450  0.860900  1.0  -0.6715
  O  O139  1  0.854600  0.119810  0.770000  1.0  -0.5932
  O  O140  1  0.882100  0.987550  0.860900  1.0  -0.6711
