# generated using pymatgen
data_CdH8C12(NO2)2
_symmetry_space_group_name_H-M   'P 1'
_cell_length_a   12.31560000
_cell_length_b   15.51130000
_cell_length_c   18.95210000
_cell_angle_alpha   90.00000000
_cell_angle_beta   90.00000000
_cell_angle_gamma   90.00000000
_symmetry_Int_Tables_number   1
_chemical_formula_structural   CdH8C12(NO2)2
_chemical_formula_sum   'Cd8 H64 C96 N16 O32'
_cell_volume   3620.43797604
_cell_formula_units_Z   8
loop_
 _symmetry_equiv_pos_site_id
 _symmetry_equiv_pos_as_xyz
  1  'x, y, z'
loop_
 _atom_site_type_symbol
 _atom_site_label
 _atom_site_symmetry_multiplicity
 _atom_site_fract_x
 _atom_site_fract_y
 _atom_site_fract_z
 _atom_site_occupancy
 _atom_site_charge
  Cd  Cd1  1  0.688200  0.716010  0.817990  1.0  0.9102
  Cd  Cd2  1  0.811800  0.283990  0.317990  1.0  0.9103
  Cd  Cd3  1  0.311800  0.216010  0.682010  1.0  0.9102
  Cd  Cd4  1  0.188200  0.783990  0.182010  1.0  0.9099
  Cd  Cd5  1  0.311800  0.283990  0.182010  1.0  0.91
  Cd  Cd6  1  0.188200  0.716010  0.682010  1.0  0.9102
  Cd  Cd7  1  0.688200  0.783990  0.317990  1.0  0.9101
  Cd  Cd8  1  0.811800  0.216010  0.817990  1.0  0.9101
  H  H9  1  0.498100  0.619000  0.906900  1.0  0.0794
  H  H10  1  0.384600  0.629500  0.000400  1.0  0.124
  H  H11  1  0.540900  0.842000  0.059100  1.0  0.1314
  H  H12  1  0.654600  0.822300  0.966300  1.0  0.0794
  H  H13  1  0.580800  0.417500  0.819900  1.0  0.1242
  H  H14  1  0.487300  0.294900  0.789400  1.0  0.0783
  H  H15  1  0.307200  0.422800  0.657900  1.0  0.0906
  H  H16  1  0.395400  0.549400  0.684800  1.0  0.1303
  H  H17  1  0.001900  0.381000  0.406900  1.0  0.0799
  H  H18  1  0.115400  0.370500  0.500400  1.0  0.1244
  H  H19  1  0.959100  0.158000  0.559100  1.0  0.1316
  H  H20  1  0.845400  0.177700  0.466300  1.0  0.0794
  H  H21  1  0.919200  0.582500  0.319900  1.0  0.1242
  H  H22  1  0.012700  0.705100  0.289400  1.0  0.0779
  H  H23  1  0.192800  0.577200  0.157900  1.0  0.0903
  H  H24  1  0.104600  0.450600  0.184800  1.0  0.1299
  H  H25  1  0.501900  0.119000  0.593100  1.0  0.0795
  H  H26  1  0.615400  0.129500  0.499600  1.0  0.1243
  H  H27  1  0.459100  0.342000  0.440900  1.0  0.1318
  H  H28  1  0.345400  0.322300  0.533700  1.0  0.0795
  H  H29  1  0.419200  0.917500  0.680100  1.0  0.1243
  H  H30  1  0.512700  0.794900  0.710600  1.0  0.0779
  H  H31  1  0.692800  0.922800  0.842100  1.0  0.0905
  H  H32  1  0.604600  0.049400  0.815200  1.0  0.1295
  H  H33  1  0.998100  0.881000  0.093100  1.0  0.0799
  H  H34  1  0.884600  0.870500  0.999600  1.0  0.125
  H  H35  1  0.040900  0.658000  0.940900  1.0  0.131
  H  H36  1  0.154600  0.677700  0.033700  1.0  0.0791
  H  H37  1  0.080800  0.082500  0.180100  1.0  0.1241
  H  H38  1  0.987300  0.205100  0.210600  1.0  0.078
  H  H39  1  0.807200  0.077200  0.342100  1.0  0.0908
  H  H40  1  0.895400  0.950600  0.315200  1.0  0.13
  H  H41  1  0.501900  0.381000  0.093100  1.0  0.0798
  H  H42  1  0.615400  0.370500  0.999600  1.0  0.1245
  H  H43  1  0.459100  0.158000  0.940900  1.0  0.1311
  H  H44  1  0.345400  0.177700  0.033700  1.0  0.079
  H  H45  1  0.419200  0.582500  0.180100  1.0  0.1239
  H  H46  1  0.512700  0.705100  0.210600  1.0  0.078
  H  H47  1  0.692800  0.577200  0.342100  1.0  0.0908
  H  H48  1  0.604600  0.450600  0.315200  1.0  0.1295
  H  H49  1  0.998100  0.619000  0.593100  1.0  0.0793
  H  H50  1  0.884600  0.629500  0.499600  1.0  0.1243
  H  H51  1  0.040900  0.842000  0.440900  1.0  0.1316
  H  H52  1  0.154600  0.822300  0.533700  1.0  0.0794
  H  H53  1  0.080800  0.417500  0.680100  1.0  0.124
  H  H54  1  0.987300  0.294900  0.710600  1.0  0.0782
  H  H55  1  0.807200  0.422800  0.842100  1.0  0.0907
  H  H56  1  0.895400  0.549400  0.815200  1.0  0.1296
  H  H57  1  0.498100  0.881000  0.406900  1.0  0.0801
  H  H58  1  0.384600  0.870500  0.500400  1.0  0.1248
  H  H59  1  0.540900  0.658000  0.559100  1.0  0.1314
  H  H60  1  0.654600  0.677700  0.466300  1.0  0.0795
  H  H61  1  0.580800  0.082500  0.319900  1.0  0.1242
  H  H62  1  0.487300  0.205100  0.289400  1.0  0.0781
  H  H63  1  0.307200  0.077200  0.157900  1.0  0.0903
  H  H64  1  0.395400  0.950600  0.184800  1.0  0.1303
  H  H65  1  0.001900  0.119000  0.906900  1.0  0.0796
  H  H66  1  0.115400  0.129500  0.000400  1.0  0.1238
  H  H67  1  0.959100  0.342000  0.059100  1.0  0.1316
  H  H68  1  0.845400  0.322300  0.966300  1.0  0.0796
  H  H69  1  0.919200  0.917500  0.819900  1.0  0.1243
  H  H70  1  0.012700  0.794900  0.789400  1.0  0.0781
  H  H71  1  0.192800  0.922800  0.657900  1.0  0.0902
  H  H72  1  0.104600  0.049400  0.684800  1.0  0.1299
  C  C73  1  0.507100  0.664960  0.937870  1.0  0.1772
  C  C74  1  0.437600  0.671410  0.993630  1.0  -0.1723
  C  C75  1  0.445390  0.739170  0.039720  1.0  -0.0272
  C  C76  1  0.529960  0.795940  0.028580  1.0  -0.1572
  C  C77  1  0.597460  0.783770  0.972220  1.0  0.1827
  C  C78  1  0.561060  0.578840  0.774160  1.0  0.654
  C  C79  1  0.499080  0.497740  0.754910  1.0  -0.0442
  C  C80  1  0.525610  0.420240  0.786460  1.0  -0.1499
  C  C81  1  0.468880  0.346550  0.767640  1.0  0.1717
  C  C82  1  0.363450  0.421570  0.690670  1.0  0.1795
  C  C83  1  0.416150  0.498300  0.706630  1.0  -0.1313
  C  C84  1  0.362290  0.752980  0.095720  1.0  0.628
  C  C85  1  0.992900  0.335040  0.437870  1.0  0.1771
  C  C86  1  0.062400  0.328590  0.493630  1.0  -0.1737
  C  C87  1  0.054610  0.260830  0.539720  1.0  -0.0267
  C  C88  1  0.970040  0.204060  0.528580  1.0  -0.1555
  C  C89  1  0.902540  0.216230  0.472220  1.0  0.1831
  C  C90  1  0.938940  0.421160  0.274160  1.0  0.6539
  C  C91  1  0.000920  0.502260  0.254910  1.0  -0.045
  C  C92  1  0.974390  0.579760  0.286460  1.0  -0.1492
  C  C93  1  0.031120  0.653450  0.267640  1.0  0.1716
  C  C94  1  0.136550  0.578430  0.190670  1.0  0.1801
  C  C95  1  0.083850  0.501700  0.206630  1.0  -0.1307
  C  C96  1  0.137710  0.247020  0.595720  1.0  0.6287
  C  C97  1  0.492900  0.164960  0.562130  1.0  0.1784
  C  C98  1  0.562400  0.171410  0.506370  1.0  -0.1743
  C  C99  1  0.554610  0.239170  0.460280  1.0  -0.0272
  C  C100  1  0.470040  0.295940  0.471420  1.0  -0.1558
  C  C101  1  0.402540  0.283770  0.527780  1.0  0.1829
  C  C102  1  0.438940  0.078840  0.725840  1.0  0.6547
  C  C103  1  0.500920  0.997740  0.745090  1.0  -0.0452
  C  C104  1  0.474390  0.920240  0.713540  1.0  -0.1495
  C  C105  1  0.531120  0.846550  0.732360  1.0  0.1716
  C  C106  1  0.636550  0.921570  0.809330  1.0  0.1801
  C  C107  1  0.583850  0.998300  0.793370  1.0  -0.1313
  C  C108  1  0.637710  0.252980  0.404280  1.0  0.6289
  C  C109  1  0.007100  0.835040  0.062130  1.0  0.1768
  C  C110  1  0.937600  0.828590  0.006370  1.0  -0.1743
  C  C111  1  0.945390  0.760830  0.960280  1.0  -0.0273
  C  C112  1  0.029960  0.704060  0.971420  1.0  -0.1563
  C  C113  1  0.097460  0.716230  0.027780  1.0  0.1826
  C  C114  1  0.061060  0.921160  0.225840  1.0  0.6529
  C  C115  1  0.999080  0.002260  0.245090  1.0  -0.043
  C  C116  1  0.025610  0.079760  0.213540  1.0  -0.15
  C  C117  1  0.968880  0.153450  0.232360  1.0  0.1719
  C  C118  1  0.863450  0.078430  0.309330  1.0  0.1804
  C  C119  1  0.916150  0.001700  0.293370  1.0  -0.1321
  C  C120  1  0.862290  0.747020  0.904280  1.0  0.6277
  C  C121  1  0.492900  0.335040  0.062130  1.0  0.1773
  C  C122  1  0.562400  0.328590  0.006370  1.0  -0.1749
  C  C123  1  0.554610  0.260830  0.960280  1.0  -0.0271
  C  C124  1  0.470040  0.204060  0.971420  1.0  -0.1555
  C  C125  1  0.402540  0.216230  0.027780  1.0  0.1828
  C  C126  1  0.438940  0.421160  0.225840  1.0  0.6538
  C  C127  1  0.500920  0.502260  0.245090  1.0  -0.0451
  C  C128  1  0.474390  0.579760  0.213540  1.0  -0.1496
  C  C129  1  0.531120  0.653450  0.232360  1.0  0.1719
  C  C130  1  0.636550  0.578430  0.309330  1.0  0.1805
  C  C131  1  0.583850  0.501700  0.293370  1.0  -0.1312
  C  C132  1  0.637710  0.247020  0.904280  1.0  0.6282
  C  C133  1  0.007100  0.664960  0.562130  1.0  0.1783
  C  C134  1  0.937600  0.671410  0.506370  1.0  -0.173
  C  C135  1  0.945390  0.739170  0.460280  1.0  -0.0273
  C  C136  1  0.029960  0.795940  0.471420  1.0  -0.1561
  C  C137  1  0.097460  0.783770  0.527780  1.0  0.1827
  C  C138  1  0.061060  0.578840  0.725840  1.0  0.6538
  C  C139  1  0.999080  0.497740  0.745090  1.0  -0.0442
  C  C140  1  0.025610  0.420240  0.713540  1.0  -0.1501
  C  C141  1  0.968880  0.346550  0.732360  1.0  0.1716
  C  C142  1  0.863450  0.421570  0.809330  1.0  0.18
  C  C143  1  0.916150  0.498300  0.793370  1.0  -0.132
  C  C144  1  0.862290  0.752980  0.404280  1.0  0.6279
  C  C145  1  0.507100  0.835040  0.437870  1.0  0.1769
  C  C146  1  0.437600  0.828590  0.493630  1.0  -0.1734
  C  C147  1  0.445390  0.760830  0.539720  1.0  -0.027
  C  C148  1  0.529960  0.704060  0.528580  1.0  -0.1561
  C  C149  1  0.597460  0.716230  0.472220  1.0  0.1828
  C  C150  1  0.561060  0.921160  0.274160  1.0  0.653
  C  C151  1  0.499080  0.002260  0.254910  1.0  -0.043
  C  C152  1  0.525610  0.079760  0.286460  1.0  -0.1498
  C  C153  1  0.468880  0.153450  0.267640  1.0  0.1718
  C  C154  1  0.363450  0.078430  0.190670  1.0  0.18
  C  C155  1  0.416150  0.001700  0.206630  1.0  -0.1312
  C  C156  1  0.362290  0.747020  0.595720  1.0  0.6281
  C  C157  1  0.992900  0.164960  0.937870  1.0  0.1771
  C  C158  1  0.062400  0.171410  0.993630  1.0  -0.1735
  C  C159  1  0.054610  0.239170  0.039720  1.0  -0.027
  C  C160  1  0.970040  0.295940  0.028580  1.0  -0.1572
  C  C161  1  0.902540  0.283770  0.972220  1.0  0.183
  C  C162  1  0.938940  0.078840  0.774160  1.0  0.655
  C  C163  1  0.000920  0.997740  0.754910  1.0  -0.0453
  C  C164  1  0.974390  0.920240  0.786460  1.0  -0.1492
  C  C165  1  0.031120  0.846550  0.767640  1.0  0.1717
  C  C166  1  0.136550  0.921570  0.690670  1.0  0.1796
  C  C167  1  0.083850  0.998300  0.706630  1.0  -0.1309
  C  C168  1  0.137710  0.252980  0.095720  1.0  0.6289
  N  N169  1  0.586990  0.720460  0.925250  1.0  -0.3243
  N  N170  1  0.389800  0.345920  0.720190  1.0  -0.3611
  N  N171  1  0.913010  0.279540  0.425250  1.0  -0.3235
  N  N172  1  0.110200  0.654080  0.220190  1.0  -0.3615
  N  N173  1  0.413010  0.220460  0.574750  1.0  -0.3241
  N  N174  1  0.610200  0.845920  0.779810  1.0  -0.3612
  N  N175  1  0.086990  0.779540  0.074750  1.0  -0.3235
  N  N176  1  0.889800  0.154080  0.279810  1.0  -0.3619
  N  N177  1  0.413010  0.279540  0.074750  1.0  -0.3239
  N  N178  1  0.610200  0.654080  0.279810  1.0  -0.3625
  N  N179  1  0.086990  0.720460  0.574750  1.0  -0.3236
  N  N180  1  0.889800  0.345920  0.779810  1.0  -0.3617
  N  N181  1  0.586990  0.779540  0.425250  1.0  -0.3239
  N  N182  1  0.389800  0.154080  0.220190  1.0  -0.3611
  N  N183  1  0.913010  0.220460  0.925250  1.0  -0.324
  N  N184  1  0.110200  0.845920  0.720190  1.0  -0.3604
  O  O185  1  0.648250  0.570560  0.805990  1.0  -0.5706
  O  O186  1  0.520760  0.649980  0.758840  1.0  -0.6202
  O  O187  1  0.345070  0.828630  0.116460  1.0  -0.5964
  O  O188  1  0.309270  0.689150  0.117080  1.0  -0.5884
  O  O189  1  0.851750  0.429440  0.305990  1.0  -0.5711
  O  O190  1  0.979240  0.350020  0.258840  1.0  -0.6208
  O  O191  1  0.154930  0.171370  0.616460  1.0  -0.5945
  O  O192  1  0.190730  0.310850  0.617080  1.0  -0.5883
  O  O193  1  0.351750  0.070560  0.694010  1.0  -0.5706
  O  O194  1  0.479240  0.149980  0.741160  1.0  -0.6184
  O  O195  1  0.654930  0.328630  0.383540  1.0  -0.5958
  O  O196  1  0.690730  0.189150  0.382920  1.0  -0.5873
  O  O197  1  0.148250  0.929440  0.194010  1.0  -0.5703
  O  O198  1  0.020760  0.850020  0.241160  1.0  -0.6218
  O  O199  1  0.845070  0.671370  0.883540  1.0  -0.5937
  O  O200  1  0.809270  0.810850  0.882920  1.0  -0.5878
  O  O201  1  0.351750  0.429440  0.194010  1.0  -0.5708
  O  O202  1  0.479240  0.350020  0.241160  1.0  -0.6204
  O  O203  1  0.654930  0.171370  0.883540  1.0  -0.5936
  O  O204  1  0.690730  0.310850  0.882920  1.0  -0.5876
  O  O205  1  0.148250  0.570560  0.694010  1.0  -0.5703
  O  O206  1  0.020760  0.649980  0.741160  1.0  -0.6203
  O  O207  1  0.845070  0.828630  0.383540  1.0  -0.5957
  O  O208  1  0.809270  0.689150  0.382920  1.0  -0.5879
  O  O209  1  0.648250  0.929440  0.305990  1.0  -0.5707
  O  O210  1  0.520760  0.850020  0.258840  1.0  -0.6221
  O  O211  1  0.345070  0.671370  0.616460  1.0  -0.5945
  O  O212  1  0.309270  0.810850  0.617080  1.0  -0.5888
  O  O213  1  0.851750  0.070560  0.805990  1.0  -0.5711
  O  O214  1  0.979240  0.149980  0.758840  1.0  -0.6184
  O  O215  1  0.154930  0.328630  0.116460  1.0  -0.5967
  O  O216  1  0.190730  0.189150  0.117080  1.0  -0.5881
