# generated using pymatgen
data_Mn3H28C48N6(O3F2)4
_symmetry_space_group_name_H-M   'P 1'
_cell_length_a   10.83360000
_cell_length_b   18.28670000
_cell_length_c   15.12580000
_cell_angle_alpha   90.00000000
_cell_angle_beta   111.20800000
_cell_angle_gamma   90.00000000
_symmetry_Int_Tables_number   1
_chemical_formula_structural   Mn3H28C48N6(O3F2)4
_chemical_formula_sum   'Mn6 H56 C96 N12 O24 F16'
_cell_volume   2793.63547253
_cell_formula_units_Z   2
loop_
 _symmetry_equiv_pos_site_id
 _symmetry_equiv_pos_as_xyz
  1  'x, y, z'
loop_
 _atom_site_type_symbol
 _atom_site_label
 _atom_site_symmetry_multiplicity
 _atom_site_fract_x
 _atom_site_fract_y
 _atom_site_fract_z
 _atom_site_occupancy
 _atom_site_charge
  Mn  Mn1  1  0.171700  0.011420  0.167710  1.0  1.025
  Mn  Mn2  1  0.828300  0.511420  0.332290  1.0  1.0245
  Mn  Mn3  1  0.828300  0.988580  0.832290  1.0  1.0247
  Mn  Mn4  1  0.171700  0.488580  0.667710  1.0  1.0255
  Mn  Mn5  1  0.500000  0.500000  0.000000  1.0  0.9938
  Mn  Mn6  1  0.500000  0.000000  0.500000  1.0  0.9938
  H  H7  1  0.044700  0.887400  0.289000  1.0  0.0819
  H  H8  1  0.100000  0.588200  0.449300  1.0  0.0786
  H  H9  1  0.213600  0.828400  0.455200  1.0  0.1042
  H  H10  1  0.149400  0.291900  0.939000  1.0  0.1095
  H  H11  1  0.867400  0.335100  0.343100  1.0  0.0665
  H  H12  1  0.411800  0.204400  0.240900  1.0  0.0856
  H  H13  1  0.756500  0.226700  0.324300  1.0  0.118
  H  H14  1  0.620700  0.134000  0.372400  1.0  0.0845
  H  H15  1  0.797500  0.674700  0.250500  1.0  0.0693
  H  H16  1  0.112200  0.173600  0.905500  1.0  0.0867
  H  H17  1  0.589700  0.338700  0.085100  1.0  0.054
  H  H18  1  0.322300  0.135800  0.064200  1.0  0.0817
  H  H19  1  0.234700  0.405600  0.935900  1.0  0.0728
  H  H20  1  0.546500  0.445200  0.305500  1.0  0.0705
  H  H21  1  0.955300  0.387400  0.211000  1.0  0.0826
  H  H22  1  0.900000  0.088200  0.050700  1.0  0.0789
  H  H23  1  0.786400  0.328400  0.044800  1.0  0.1045
  H  H24  1  0.850600  0.791900  0.561000  1.0  0.1091
  H  H25  1  0.132600  0.835100  0.156900  1.0  0.067
  H  H26  1  0.588200  0.704400  0.259100  1.0  0.0865
  H  H27  1  0.243500  0.726700  0.175700  1.0  0.1179
  H  H28  1  0.379300  0.634000  0.127600  1.0  0.0847
  H  H29  1  0.202500  0.174700  0.249500  1.0  0.0703
  H  H30  1  0.887800  0.673600  0.594500  1.0  0.0865
  H  H31  1  0.410300  0.838700  0.414900  1.0  0.0552
  H  H32  1  0.677700  0.635800  0.435800  1.0  0.0833
  H  H33  1  0.765300  0.905600  0.564100  1.0  0.073
  H  H34  1  0.453500  0.945200  0.194500  1.0  0.0697
  H  H35  1  0.955300  0.112600  0.711000  1.0  0.0824
  H  H36  1  0.900000  0.411800  0.550700  1.0  0.0788
  H  H37  1  0.786400  0.171600  0.544800  1.0  0.1041
  H  H38  1  0.850600  0.708100  0.061000  1.0  0.109
  H  H39  1  0.132600  0.664900  0.656900  1.0  0.0671
  H  H40  1  0.588200  0.795600  0.759100  1.0  0.0867
  H  H41  1  0.243500  0.773300  0.675700  1.0  0.1178
  H  H42  1  0.379300  0.866000  0.627600  1.0  0.0829
  H  H43  1  0.202500  0.325300  0.749500  1.0  0.0699
  H  H44  1  0.887800  0.826400  0.094500  1.0  0.0868
  H  H45  1  0.410300  0.661300  0.914900  1.0  0.0552
  H  H46  1  0.677700  0.864200  0.935800  1.0  0.0828
  H  H47  1  0.765300  0.594400  0.064100  1.0  0.0724
  H  H48  1  0.453500  0.554800  0.694500  1.0  0.0689
  H  H49  1  0.044700  0.612600  0.789000  1.0  0.0817
  H  H50  1  0.100000  0.911800  0.949300  1.0  0.0785
  H  H51  1  0.213600  0.671600  0.955200  1.0  0.1045
  H  H52  1  0.149400  0.208100  0.439000  1.0  0.1092
  H  H53  1  0.867400  0.164900  0.843100  1.0  0.0661
  H  H54  1  0.411800  0.295600  0.740900  1.0  0.0856
  H  H55  1  0.756500  0.273300  0.824300  1.0  0.1179
  H  H56  1  0.620700  0.366000  0.872400  1.0  0.0834
  H  H57  1  0.797500  0.825300  0.750500  1.0  0.0692
  H  H58  1  0.112200  0.326400  0.405500  1.0  0.0864
  H  H59  1  0.589700  0.161300  0.585100  1.0  0.054
  H  H60  1  0.322300  0.364200  0.564200  1.0  0.0818
  H  H61  1  0.234700  0.094400  0.435900  1.0  0.0726
  H  H62  1  0.546500  0.054800  0.805500  1.0  0.0703
  C  C63  1  0.207900  0.951460  0.371300  1.0  0.6999
  C  C64  1  0.108400  0.066690  0.954500  1.0  0.7058
  C  C65  1  0.450000  0.071140  0.298900  1.0  0.6916
  C  C66  1  0.576900  0.269170  0.302800  1.0  0.0315
  C  C67  1  0.068500  0.757180  0.378200  1.0  -0.1041
  C  C68  1  0.118700  0.886070  0.344700  1.0  -0.1753
  C  C69  1  0.059200  0.628510  0.413100  1.0  0.1593
  C  C70  1  0.943000  0.746540  0.311000  1.0  0.2933
  C  C71  1  0.141900  0.826170  0.398100  1.0  -0.1066
  C  C72  1  0.322300  0.241360  0.013100  1.0  -0.0024
  C  C73  1  0.240000  0.299530  0.968300  1.0  -0.1949
  C  C74  1  0.453700  0.259470  0.054300  1.0  0.3007
  C  C75  1  0.776900  0.336220  0.330900  1.0  0.1659
  C  C76  1  0.497700  0.201670  0.285100  1.0  -0.1374
  C  C77  1  0.710700  0.270350  0.320000  1.0  -0.2175
  C  C78  1  0.536900  0.137940  0.325700  1.0  -0.1792
  C  C79  1  0.881400  0.679270  0.296900  1.0  0.1402
  C  C80  1  0.126900  0.694570  0.429300  1.0  0.3524
  C  C81  1  0.161400  0.142050  0.953600  1.0  -0.2171
  C  C82  1  0.500100  0.329270  0.053500  1.0  0.133
  C  C83  1  0.272500  0.166920  0.015800  1.0  -0.2141
  C  C84  1  0.292200  0.368250  0.967300  1.0  0.1772
  C  C85  1  0.590200  0.400890  0.309200  1.0  0.1508
  C  C86  1  0.519400  0.336940  0.298200  1.0  0.3092
  C  C87  1  0.792100  0.451460  0.128700  1.0  0.7044
  C  C88  1  0.891600  0.566690  0.545500  1.0  0.7057
  C  C89  1  0.550000  0.571140  0.201100  1.0  0.692
  C  C90  1  0.423100  0.769170  0.197200  1.0  0.0316
  C  C91  1  0.931500  0.257180  0.121800  1.0  -0.1038
  C  C92  1  0.881300  0.386070  0.155300  1.0  -0.1747
  C  C93  1  0.940800  0.128510  0.086900  1.0  0.159
  C  C94  1  0.057000  0.246540  0.189000  1.0  0.2926
  C  C95  1  0.858100  0.326170  0.101900  1.0  -0.1068
  C  C96  1  0.677700  0.741360  0.486900  1.0  -0.0022
  C  C97  1  0.760000  0.799530  0.531700  1.0  -0.1952
  C  C98  1  0.546300  0.759470  0.445700  1.0  0.3003
  C  C99  1  0.223100  0.836220  0.169100  1.0  0.1645
  C  C100  1  0.502300  0.701670  0.214900  1.0  -0.1385
  C  C101  1  0.289300  0.770350  0.180000  1.0  -0.2168
  C  C102  1  0.463100  0.637940  0.174300  1.0  -0.1776
  C  C103  1  0.118600  0.179270  0.203100  1.0  0.142
  C  C104  1  0.873100  0.194570  0.070700  1.0  0.3517
  C  C105  1  0.838600  0.642050  0.546400  1.0  -0.2112
  C  C106  1  0.499900  0.829270  0.446500  1.0  0.1326
  C  C107  1  0.727500  0.666920  0.484200  1.0  -0.2169
  C  C108  1  0.707800  0.868250  0.532700  1.0  0.1773
  C  C109  1  0.409800  0.900890  0.190800  1.0  0.1512
  C  C110  1  0.480600  0.836940  0.201800  1.0  0.3104
  C  C111  1  0.792100  0.048540  0.628700  1.0  0.6992
  C  C112  1  0.891600  0.933310  0.045500  1.0  0.7058
  C  C113  1  0.550000  0.928860  0.701100  1.0  0.6912
  C  C114  1  0.423100  0.730830  0.697200  1.0  0.0316
  C  C115  1  0.931500  0.242820  0.621800  1.0  -0.1043
  C  C116  1  0.881300  0.113930  0.655300  1.0  -0.1753
  C  C117  1  0.940800  0.371490  0.586900  1.0  0.1596
  C  C118  1  0.057000  0.253460  0.689000  1.0  0.2914
  C  C119  1  0.858100  0.173830  0.601900  1.0  -0.1064
  C  C120  1  0.677700  0.758640  0.986900  1.0  -0.0022
  C  C121  1  0.760000  0.700470  0.031700  1.0  -0.1953
  C  C122  1  0.546300  0.740530  0.945700  1.0  0.2995
  C  C123  1  0.223100  0.663780  0.669100  1.0  0.1643
  C  C124  1  0.502300  0.798330  0.714900  1.0  -0.1386
  C  C125  1  0.289300  0.729650  0.680000  1.0  -0.2177
  C  C126  1  0.463100  0.862060  0.674300  1.0  -0.177
  C  C127  1  0.118600  0.320730  0.703100  1.0  0.1413
  C  C128  1  0.873100  0.305430  0.570700  1.0  0.3515
  C  C129  1  0.838600  0.857950  0.046400  1.0  -0.2114
  C  C130  1  0.499900  0.670730  0.946500  1.0  0.1331
  C  C131  1  0.727500  0.833080  0.984200  1.0  -0.2168
  C  C132  1  0.707800  0.631750  0.032700  1.0  0.1763
  C  C133  1  0.409800  0.599110  0.690800  1.0  0.1516
  C  C134  1  0.480600  0.663060  0.701800  1.0  0.3097
  C  C135  1  0.207900  0.548540  0.871300  1.0  0.6969
  C  C136  1  0.108400  0.433310  0.454500  1.0  0.7063
  C  C137  1  0.450000  0.428860  0.798900  1.0  0.6914
  C  C138  1  0.576900  0.230830  0.802800  1.0  0.0314
  C  C139  1  0.068500  0.742820  0.878200  1.0  -0.1046
  C  C140  1  0.118700  0.613930  0.844700  1.0  -0.1745
  C  C141  1  0.059200  0.871490  0.913100  1.0  0.1601
  C  C142  1  0.943000  0.753460  0.811000  1.0  0.2922
  C  C143  1  0.141900  0.673830  0.898100  1.0  -0.1065
  C  C144  1  0.322300  0.258640  0.513100  1.0  -0.0024
  C  C145  1  0.240000  0.200470  0.468300  1.0  -0.1953
  C  C146  1  0.453700  0.240530  0.554300  1.0  0.2999
  C  C147  1  0.776900  0.163780  0.830900  1.0  0.1655
  C  C148  1  0.497700  0.298330  0.785100  1.0  -0.138
  C  C149  1  0.710700  0.229650  0.820000  1.0  -0.2178
  C  C150  1  0.536900  0.362060  0.825700  1.0  -0.1778
  C  C151  1  0.881400  0.820730  0.796900  1.0  0.1412
  C  C152  1  0.126900  0.805430  0.929300  1.0  0.3518
  C  C153  1  0.161400  0.357950  0.453600  1.0  -0.2151
  C  C154  1  0.500100  0.170730  0.553500  1.0  0.1333
  C  C155  1  0.272500  0.333080  0.515800  1.0  -0.2146
  C  C156  1  0.292200  0.131750  0.467300  1.0  0.1773
  C  C157  1  0.590200  0.099110  0.809200  1.0  0.1524
  C  C158  1  0.519400  0.163060  0.798200  1.0  0.3089
  N  N159  1  0.719300  0.401260  0.324960  1.0  -0.3538
  N  N160  1  0.938400  0.620400  0.347990  1.0  -0.3476
  N  N161  1  0.420300  0.384000  0.008650  1.0  -0.3478
  N  N162  1  0.280700  0.901260  0.175040  1.0  -0.3534
  N  N163  1  0.061600  0.120400  0.152010  1.0  -0.3462
  N  N164  1  0.579700  0.884000  0.491350  1.0  -0.3483
  N  N165  1  0.280700  0.598740  0.675040  1.0  -0.355
  N  N166  1  0.061600  0.379600  0.652010  1.0  -0.3483
  N  N167  1  0.579700  0.616000  0.991350  1.0  -0.3492
  N  N168  1  0.719300  0.098740  0.824960  1.0  -0.3537
  N  N169  1  0.938400  0.879600  0.847990  1.0  -0.3474
  N  N170  1  0.420300  0.116000  0.508650  1.0  -0.348
  O  O171  1  0.165100  0.025340  0.024010  1.0  -0.6167
  O  O172  1  0.481900  0.017780  0.355890  1.0  -0.6321
  O  O173  1  0.180400  0.002780  0.311440  1.0  -0.6121
  O  O174  1  0.010800  0.049980  0.882580  1.0  -0.6231
  O  O175  1  0.354900  0.072480  0.221390  1.0  -0.5985
  O  O176  1  0.301600  0.951360  0.450130  1.0  -0.623
  O  O177  1  0.834900  0.525340  0.475990  1.0  -0.6181
  O  O178  1  0.518100  0.517780  0.144110  1.0  -0.6306
  O  O179  1  0.819600  0.502780  0.188560  1.0  -0.6106
  O  O180  1  0.989200  0.549980  0.617420  1.0  -0.6231
  O  O181  1  0.645100  0.572480  0.278610  1.0  -0.5983
  O  O182  1  0.698400  0.451360  0.049870  1.0  -0.6224
  O  O183  1  0.834900  0.974660  0.975990  1.0  -0.6181
  O  O184  1  0.518100  0.982220  0.644110  1.0  -0.633
  O  O185  1  0.819600  0.997220  0.688560  1.0  -0.6104
  O  O186  1  0.989200  0.950020  0.117420  1.0  -0.6246
  O  O187  1  0.645100  0.927520  0.778610  1.0  -0.5993
  O  O188  1  0.698400  0.048640  0.549870  1.0  -0.6234
  O  O189  1  0.165100  0.474660  0.524010  1.0  -0.6167
  O  O190  1  0.481900  0.482220  0.855890  1.0  -0.6334
  O  O191  1  0.180400  0.497220  0.811440  1.0  -0.6117
  O  O192  1  0.010800  0.450020  0.382580  1.0  -0.6248
  O  O193  1  0.354900  0.427520  0.721390  1.0  -0.5975
  O  O194  1  0.301600  0.548640  0.950130  1.0  -0.6232
  F  F195  1  0.543500  0.206970  0.097850  1.0  -0.162
  F  F196  1  0.877600  0.801090  0.255700  1.0  -0.1864
  F  F197  1  0.389300  0.341000  0.282600  1.0  -0.1613
  F  F198  1  0.251300  0.695000  0.482700  1.0  -0.1851
  F  F199  1  0.456500  0.706970  0.402150  1.0  -0.1612
  F  F200  1  0.122400  0.301090  0.244300  1.0  -0.1869
  F  F201  1  0.610700  0.841000  0.217400  1.0  -0.161
  F  F202  1  0.748700  0.195000  0.017300  1.0  -0.1848
  F  F203  1  0.456500  0.793030  0.902150  1.0  -0.1629
  F  F204  1  0.122400  0.198910  0.744300  1.0  -0.1876
  F  F205  1  0.610700  0.659000  0.717400  1.0  -0.16
  F  F206  1  0.748700  0.305000  0.517300  1.0  -0.1852
  F  F207  1  0.543500  0.293030  0.597850  1.0  -0.1636
  F  F208  1  0.877600  0.698910  0.755700  1.0  -0.1866
  F  F209  1  0.389300  0.159000  0.782600  1.0  -0.1593
  F  F210  1  0.251300  0.805000  0.982700  1.0  -0.1851
