# generated using pymatgen
data_MnH12C16(NO2)2
_symmetry_space_group_name_H-M   'P 1'
_cell_length_a   10.02690000
_cell_length_b   16.43970000
_cell_length_c   12.75480000
_cell_angle_alpha   90.00000000
_cell_angle_beta   90.64500000
_cell_angle_gamma   90.00000000
_symmetry_Int_Tables_number   1
_chemical_formula_structural   MnH12C16(NO2)2
_chemical_formula_sum   'Mn4 H48 C64 N8 O16'
_cell_volume   2102.35816306
_cell_formula_units_Z   4
loop_
 _symmetry_equiv_pos_site_id
 _symmetry_equiv_pos_as_xyz
  1  'x, y, z'
loop_
 _atom_site_type_symbol
 _atom_site_label
 _atom_site_symmetry_multiplicity
 _atom_site_fract_x
 _atom_site_fract_y
 _atom_site_fract_z
 _atom_site_occupancy
 _atom_site_charge
  Mn  Mn1  1  0.751600  0.000130  0.498230  1.0  1.0388
  Mn  Mn2  1  0.248400  0.500130  0.001770  1.0  1.0399
  Mn  Mn3  1  0.248400  0.999870  0.501770  1.0  1.0407
  Mn  Mn4  1  0.751600  0.499870  0.998230  1.0  1.0397
  H  H5  1  0.727000  0.803000  0.519200  1.0  0.0735
  H  H6  1  0.519600  0.098800  0.601500  1.0  0.0671
  H  H7  1  0.474100  0.209000  0.703600  1.0  0.1118
  H  H8  1  0.764700  0.684700  0.429600  1.0  0.1269
  H  H9  1  0.815300  0.614000  0.256500  1.0  0.0912
  H  H10  1  0.999000  0.700600  0.145400  1.0  0.0956
  H  H11  1  0.448000  0.315100  0.795100  1.0  0.11
  H  H12  1  0.857600  0.273900  0.684300  1.0  0.1147
  H  H13  1  0.893800  0.159700  0.585300  1.0  0.0702
  H  H14  1  0.886600  0.817600  0.186700  1.0  0.1157
  H  H15  1  0.845400  0.931600  0.282300  1.0  0.0842
  H  H16  1  0.710200  0.361000  0.787100  1.0  0.0897
  H  H17  1  0.273000  0.303000  0.980800  1.0  0.0737
  H  H18  1  0.480400  0.598800  0.898500  1.0  0.0665
  H  H19  1  0.525900  0.709000  0.796400  1.0  0.1121
  H  H20  1  0.235300  0.184700  0.070400  1.0  0.1263
  H  H21  1  0.184700  0.114000  0.243500  1.0  0.0916
  H  H22  1  0.001000  0.200600  0.354600  1.0  0.0951
  H  H23  1  0.552000  0.815100  0.704900  1.0  0.11
  H  H24  1  0.142400  0.773900  0.815700  1.0  0.1145
  H  H25  1  0.106200  0.659700  0.914700  1.0  0.0704
  H  H26  1  0.113400  0.317600  0.313300  1.0  0.1159
  H  H27  1  0.154600  0.431600  0.217700  1.0  0.0842
  H  H28  1  0.289800  0.861000  0.712900  1.0  0.0901
  H  H29  1  0.273000  0.197000  0.480800  1.0  0.0739
  H  H30  1  0.480400  0.901200  0.398500  1.0  0.0666
  H  H31  1  0.525900  0.791000  0.296400  1.0  0.112
  H  H32  1  0.235300  0.315300  0.570400  1.0  0.1269
  H  H33  1  0.184700  0.386000  0.743500  1.0  0.0912
  H  H34  1  0.001000  0.299400  0.854600  1.0  0.0949
  H  H35  1  0.552000  0.684900  0.204900  1.0  0.1102
  H  H36  1  0.142400  0.726100  0.315700  1.0  0.1144
  H  H37  1  0.106200  0.840300  0.414700  1.0  0.0705
  H  H38  1  0.113400  0.182400  0.813300  1.0  0.1159
  H  H39  1  0.154600  0.068400  0.717700  1.0  0.0844
  H  H40  1  0.289800  0.639000  0.212900  1.0  0.0902
  H  H41  1  0.727000  0.697000  0.019200  1.0  0.0738
  H  H42  1  0.519600  0.401200  0.101500  1.0  0.0673
  H  H43  1  0.474100  0.291000  0.203600  1.0  0.1118
  H  H44  1  0.764700  0.815300  0.929600  1.0  0.1269
  H  H45  1  0.815300  0.886000  0.756500  1.0  0.0913
  H  H46  1  0.999000  0.799400  0.645400  1.0  0.0951
  H  H47  1  0.448000  0.184900  0.295100  1.0  0.1102
  H  H48  1  0.857600  0.226100  0.184300  1.0  0.1146
  H  H49  1  0.893800  0.340300  0.085300  1.0  0.0701
  H  H50  1  0.886600  0.682400  0.686700  1.0  0.1154
  H  H51  1  0.845400  0.568400  0.782300  1.0  0.0845
  H  H52  1  0.710200  0.139000  0.287100  1.0  0.0896
  C  C53  1  0.760500  0.806000  0.451600  1.0  0.1791
  C  C54  1  0.588800  0.134100  0.619300  1.0  0.1861
  C  C55  1  0.560500  0.200500  0.680400  1.0  -0.1866
  C  C56  1  0.783100  0.734300  0.398000  1.0  -0.1629
  C  C57  1  0.864400  0.660200  0.240300  1.0  -0.1437
  C  C58  1  0.956800  0.653500  0.168300  1.0  -0.1547
  C  C59  1  0.520400  0.348900  0.809100  1.0  -0.2378
  C  C60  1  0.787200  0.238700  0.669400  1.0  -0.1971
  C  C61  1  0.808200  0.169900  0.609300  1.0  0.186
  C  C62  1  0.855000  0.812700  0.254700  1.0  -0.1942
  C  C63  1  0.833100  0.736200  0.297400  1.0  0.1093
  C  C64  1  0.829900  0.881200  0.312900  1.0  0.1787
  C  C65  1  0.660800  0.255100  0.707400  1.0  0.1241
  C  C66  1  0.637500  0.327700  0.771700  1.0  -0.1343
  C  C67  1  0.997500  0.573600  0.121500  1.0  0.7017
  C  C68  1  0.496800  0.423800  0.872800  1.0  0.7065
  C  C69  1  0.239500  0.306000  0.048400  1.0  0.1806
  C  C70  1  0.411200  0.634100  0.880700  1.0  0.186
  C  C71  1  0.439500  0.700500  0.819600  1.0  -0.1875
  C  C72  1  0.216900  0.234300  0.102000  1.0  -0.1633
  C  C73  1  0.135600  0.160200  0.259700  1.0  -0.1427
  C  C74  1  0.043200  0.153500  0.331700  1.0  -0.1562
  C  C75  1  0.479600  0.848900  0.690900  1.0  -0.2338
  C  C76  1  0.212800  0.738700  0.830600  1.0  -0.1962
  C  C77  1  0.191800  0.669900  0.890700  1.0  0.1868
  C  C78  1  0.145000  0.312700  0.245300  1.0  -0.1946
  C  C79  1  0.166900  0.236200  0.202600  1.0  0.1095
  C  C80  1  0.170100  0.381200  0.187100  1.0  0.178
  C  C81  1  0.339200  0.755100  0.792600  1.0  0.1244
  C  C82  1  0.362500  0.827700  0.728300  1.0  -0.1356
  C  C83  1  0.002500  0.073600  0.378500  1.0  0.7028
  C  C84  1  0.503200  0.923800  0.627200  1.0  0.705
  C  C85  1  0.239500  0.194000  0.548400  1.0  0.1811
  C  C86  1  0.411200  0.865900  0.380700  1.0  0.186
  C  C87  1  0.439500  0.799500  0.319600  1.0  -0.1877
  C  C88  1  0.216900  0.265700  0.602000  1.0  -0.1627
  C  C89  1  0.135600  0.339800  0.759700  1.0  -0.1436
  C  C90  1  0.043200  0.346500  0.831700  1.0  -0.158
  C  C91  1  0.479600  0.651100  0.190900  1.0  -0.2342
  C  C92  1  0.212800  0.761300  0.330600  1.0  -0.1949
  C  C93  1  0.191800  0.830100  0.390700  1.0  0.1864
  C  C94  1  0.145000  0.187300  0.745300  1.0  -0.1945
  C  C95  1  0.166900  0.263800  0.702600  1.0  0.1111
  C  C96  1  0.170100  0.118800  0.687100  1.0  0.1785
  C  C97  1  0.339200  0.744900  0.292600  1.0  0.1238
  C  C98  1  0.362500  0.672300  0.228300  1.0  -0.1359
  C  C99  1  0.002500  0.426400  0.878500  1.0  0.7012
  C  C100  1  0.503200  0.576200  0.127200  1.0  0.7085
  C  C101  1  0.760500  0.694000  0.951600  1.0  0.1797
  C  C102  1  0.588800  0.365900  0.119300  1.0  0.186
  C  C103  1  0.560500  0.299500  0.180400  1.0  -0.1865
  C  C104  1  0.783100  0.765700  0.898000  1.0  -0.1628
  C  C105  1  0.864400  0.839800  0.740300  1.0  -0.1443
  C  C106  1  0.956800  0.846500  0.668300  1.0  -0.1563
  C  C107  1  0.520400  0.151100  0.309100  1.0  -0.2381
  C  C108  1  0.787200  0.261300  0.169400  1.0  -0.1958
  C  C109  1  0.808200  0.330100  0.109300  1.0  0.1863
  C  C110  1  0.855000  0.687300  0.754700  1.0  -0.1931
  C  C111  1  0.833100  0.763800  0.797400  1.0  0.1106
  C  C112  1  0.829900  0.618800  0.812900  1.0  0.1777
  C  C113  1  0.660800  0.244900  0.207400  1.0  0.1236
  C  C114  1  0.637500  0.172300  0.271700  1.0  -0.1342
  C  C115  1  0.997500  0.926400  0.621500  1.0  0.7005
  C  C116  1  0.496800  0.076200  0.372800  1.0  0.7092
  N  N117  1  0.784600  0.879590  0.410900  1.0  -0.3471
  N  N118  1  0.711900  0.117520  0.584200  1.0  -0.3412
  N  N119  1  0.215400  0.379590  0.089100  1.0  -0.3476
  N  N120  1  0.288100  0.617520  0.915800  1.0  -0.341
  N  N121  1  0.215400  0.120410  0.589100  1.0  -0.3486
  N  N122  1  0.288100  0.882480  0.415800  1.0  -0.3414
  N  N123  1  0.784600  0.620410  0.910900  1.0  -0.348
  N  N124  1  0.711900  0.382480  0.084200  1.0  -0.3406
  O  O125  1  0.379200  0.433020  0.902400  1.0  -0.614
  O  O126  1  0.591600  0.472150  0.888300  1.0  -0.6137
  O  O127  1  0.913200  0.518310  0.109700  1.0  -0.6176
  O  O128  1  0.119700  0.568810  0.101400  1.0  -0.62
  O  O129  1  0.620800  0.933020  0.597600  1.0  -0.6149
  O  O130  1  0.408400  0.972150  0.611700  1.0  -0.6136
  O  O131  1  0.086800  0.018310  0.390300  1.0  -0.6155
  O  O132  1  0.880300  0.068810  0.398600  1.0  -0.6193
  O  O133  1  0.620800  0.566980  0.097600  1.0  -0.6148
  O  O134  1  0.408400  0.527850  0.111700  1.0  -0.6139
  O  O135  1  0.086800  0.481690  0.890300  1.0  -0.6151
  O  O136  1  0.880300  0.431190  0.898600  1.0  -0.6195
  O  O137  1  0.379200  0.066980  0.402400  1.0  -0.6142
  O  O138  1  0.591600  0.027850  0.388300  1.0  -0.6144
  O  O139  1  0.913200  0.981690  0.609700  1.0  -0.6169
  O  O140  1  0.119700  0.931190  0.601400  1.0  -0.6202
