# generated using pymatgen
data_MnH8C12(NO2)2
_symmetry_space_group_name_H-M   'P 1'
_cell_length_a   9.95450000
_cell_length_b   13.13640000
_cell_length_c   11.00940000
_cell_angle_alpha   90.00000000
_cell_angle_beta   101.70300000
_cell_angle_gamma   90.00000000
_symmetry_Int_Tables_number   1
_chemical_formula_structural   MnH8C12(NO2)2
_chemical_formula_sum   'Mn4 H32 C48 N8 O16'
_cell_volume   1409.73109091
_cell_formula_units_Z   4
loop_
 _symmetry_equiv_pos_site_id
 _symmetry_equiv_pos_as_xyz
  1  'x, y, z'
loop_
 _atom_site_type_symbol
 _atom_site_label
 _atom_site_symmetry_multiplicity
 _atom_site_fract_x
 _atom_site_fract_y
 _atom_site_fract_z
 _atom_site_occupancy
 _atom_site_charge
  Mn  Mn1  1  0.873710  0.192640  0.252220  1.0  1.0118
  Mn  Mn2  1  0.375580  0.191590  0.246640  1.0  1.0259
  Mn  Mn3  1  0.126290  0.692640  0.747780  1.0  1.0127
  Mn  Mn4  1  0.624420  0.691590  0.753360  1.0  1.0273
  H  H5  1  0.178900  0.488000  0.356000  1.0  0.1311
  H  H6  1  0.117800  0.308100  0.632000  1.0  0.1389
  H  H7  1  0.120200  0.448600  0.753000  1.0  0.0735
  H  H8  1  0.542800  0.859300  0.487500  1.0  0.1202
  H  H9  1  0.159800  0.626600  0.479600  1.0  0.0927
  H  H10  1  0.587800  0.325200  0.137900  1.0  0.0792
  H  H11  1  0.547400  0.998600  0.361700  1.0  0.074
  H  H12  1  0.153200  0.927100  0.496400  1.0  0.0956
  H  H13  1  0.166700  0.063100  0.367300  1.0  0.082
  H  H14  1  0.202300  0.515600  0.000500  1.0  0.1199
  H  H15  1  0.600500  0.462700  0.010900  1.0  0.1048
  H  H16  1  0.198600  0.375700  0.121700  1.0  0.0725
  H  H17  1  0.092800  0.894200  0.145200  1.0  0.1161
  H  H18  1  0.114600  0.936800  0.739700  1.0  0.0773
  H  H19  1  0.109700  0.078000  0.861000  1.0  0.1204
  H  H20  1  0.106300  0.757900  0.018700  1.0  0.0765
  H  H21  1  0.821100  0.988000  0.644000  1.0  0.1313
  H  H22  1  0.882200  0.808100  0.368000  1.0  0.1391
  H  H23  1  0.879800  0.948600  0.247000  1.0  0.0745
  H  H24  1  0.457200  0.359300  0.512500  1.0  0.1209
  H  H25  1  0.840200  0.126600  0.520400  1.0  0.0922
  H  H26  1  0.412200  0.825200  0.862100  1.0  0.0788
  H  H27  1  0.452600  0.498600  0.638300  1.0  0.0741
  H  H28  1  0.846800  0.427100  0.503600  1.0  0.096
  H  H29  1  0.833300  0.563100  0.632700  1.0  0.0813
  H  H30  1  0.797700  0.015600  0.999500  1.0  0.12
  H  H31  1  0.399500  0.962700  0.989100  1.0  0.1048
  H  H32  1  0.801400  0.875700  0.878300  1.0  0.0723
  H  H33  1  0.907200  0.394200  0.854800  1.0  0.1168
  H  H34  1  0.885400  0.436800  0.260300  1.0  0.0766
  H  H35  1  0.890300  0.578000  0.139000  1.0  0.1207
  H  H36  1  0.893700  0.257900  0.981300  1.0  0.0776
  C  C37  1  0.401500  0.504700  0.988300  1.0  -0.0761
  C  C38  1  0.150600  0.382500  0.481000  1.0  -0.0602
  C  C39  1  0.164200  0.478700  0.436000  1.0  -0.1405
  C  C40  1  0.130600  0.372100  0.600200  1.0  -0.2108
  C  C41  1  0.129800  0.456900  0.671300  1.0  0.1882
  C  C42  1  0.465500  0.900200  0.465100  1.0  -0.1305
  C  C43  1  0.155800  0.561400  0.511600  1.0  0.1748
  C  C44  1  0.508800  0.362700  0.107600  1.0  0.171
  C  C45  1  0.467200  0.983900  0.389300  1.0  0.1821
  C  C46  1  0.155700  0.290900  0.397200  1.0  0.6625
  C  C47  1  0.234600  0.940100  0.470100  1.0  -0.0868
  C  C48  1  0.243600  0.022300  0.392800  1.0  0.1872
  C  C49  1  0.281600  0.477100  0.025300  1.0  -0.1422
  C  C50  1  0.517400  0.446100  0.032100  1.0  -0.1272
  C  C51  1  0.280400  0.393000  0.098500  1.0  0.1941
  C  C52  1  0.409800  0.595900  0.907000  1.0  0.7095
  C  C53  1  0.090000  0.096500  0.096900  1.0  0.6734
  C  C54  1  0.101400  0.004100  0.019300  1.0  0.0128
  C  C55  1  0.099000  0.905400  0.063100  1.0  -0.1707
  C  C56  1  0.111700  0.927800  0.822900  1.0  0.184
  C  C57  1  0.107900  0.013600  0.895700  1.0  -0.1975
  C  C58  1  0.346000  0.878200  0.507400  1.0  -0.0926
  C  C59  1  0.105800  0.823100  0.985700  1.0  0.184
  C  C60  1  0.342400  0.790700  0.598800  1.0  0.6694
  C  C61  1  0.598500  0.004700  0.011700  1.0  -0.0789
  C  C62  1  0.849400  0.882500  0.519000  1.0  -0.0618
  C  C63  1  0.835800  0.978700  0.564000  1.0  -0.138
  C  C64  1  0.869400  0.872100  0.399800  1.0  -0.2108
  C  C65  1  0.870200  0.956900  0.328700  1.0  0.1901
  C  C66  1  0.534500  0.400200  0.534900  1.0  -0.1294
  C  C67  1  0.844200  0.061400  0.488400  1.0  0.1746
  C  C68  1  0.491200  0.862700  0.892400  1.0  0.171
  C  C69  1  0.532800  0.483900  0.610700  1.0  0.1819
  C  C70  1  0.844300  0.790900  0.602800  1.0  0.6646
  C  C71  1  0.765400  0.440100  0.529900  1.0  -0.0887
  C  C72  1  0.756400  0.522300  0.607200  1.0  0.1866
  C  C73  1  0.718400  0.977100  0.974700  1.0  -0.1427
  C  C74  1  0.482600  0.946100  0.967900  1.0  -0.1267
  C  C75  1  0.719600  0.893000  0.901500  1.0  0.1934
  C  C76  1  0.590200  0.095900  0.093000  1.0  0.7097
  C  C77  1  0.910000  0.596500  0.903100  1.0  0.6743
  C  C78  1  0.898600  0.504100  0.980700  1.0  0.012
  C  C79  1  0.901000  0.405400  0.936900  1.0  -0.1692
  C  C80  1  0.888300  0.427800  0.177100  1.0  0.1834
  C  C81  1  0.892100  0.513600  0.104300  1.0  -0.1981
  C  C82  1  0.654000  0.378200  0.492600  1.0  -0.0934
  C  C83  1  0.894200  0.323100  0.014300  1.0  0.1834
  C  C84  1  0.657600  0.290700  0.401200  1.0  0.6691
  N  N85  1  0.141900  0.550700  0.630100  1.0  -0.3368
  N  N86  1  0.390300  0.334100  0.138500  1.0  -0.342
  N  N87  1  0.358100  0.044800  0.354000  1.0  -0.3387
  N  N88  1  0.111500  0.832800  0.866500  1.0  -0.3451
  N  N89  1  0.858100  0.050700  0.369900  1.0  -0.3369
  N  N90  1  0.609700  0.834100  0.861500  1.0  -0.3435
  N  N91  1  0.641900  0.544800  0.646000  1.0  -0.34
  N  N92  1  0.888500  0.332800  0.133500  1.0  -0.343
  O  O93  1  0.261400  0.283800  0.355900  1.0  -0.6213
  O  O94  1  0.058100  0.228500  0.388900  1.0  -0.6123
  O  O95  1  0.184100  0.159000  0.114700  1.0  -0.6523
  O  O96  1  0.985900  0.099000  0.145700  1.0  -0.6127
  O  O97  1  0.518300  0.606900  0.869000  1.0  -0.6446
  O  O98  1  0.440400  0.729800  0.615700  1.0  -0.6232
  O  O99  1  0.233500  0.786500  0.637900  1.0  -0.6065
  O  O100  1  0.305500  0.650000  0.877800  1.0  -0.6346
  O  O101  1  0.738600  0.783800  0.644100  1.0  -0.6225
  O  O102  1  0.941900  0.728500  0.611100  1.0  -0.6122
  O  O103  1  0.815900  0.659000  0.885300  1.0  -0.6517
  O  O104  1  0.014100  0.599000  0.854300  1.0  -0.6126
  O  O105  1  0.481700  0.106900  0.131000  1.0  -0.6459
  O  O106  1  0.559600  0.229800  0.384300  1.0  -0.6227
  O  O107  1  0.766500  0.286500  0.362100  1.0  -0.6069
  O  O108  1  0.694500  0.150000  0.122200  1.0  -0.6354
