# generated using pymatgen
data_AgH18C14N3
_symmetry_space_group_name_H-M   'P 1'
_cell_length_a   9.73300000
_cell_length_b   22.32300000
_cell_length_c   15.63100000
_cell_angle_alpha   90.00000000
_cell_angle_beta   93.89000000
_cell_angle_gamma   90.00000000
_symmetry_Int_Tables_number   1
_chemical_formula_structural   AgH18C14N3
_chemical_formula_sum   'Ag8 H144 C112 N24'
_cell_volume   3388.31934501
_cell_formula_units_Z   8
loop_
 _symmetry_equiv_pos_site_id
 _symmetry_equiv_pos_as_xyz
  1  'x, y, z'
loop_
 _atom_site_type_symbol
 _atom_site_label
 _atom_site_symmetry_multiplicity
 _atom_site_fract_x
 _atom_site_fract_y
 _atom_site_fract_z
 _atom_site_occupancy
 _atom_site_charge
  Ag  Ag1  1  0.811760  0.252490  0.077380  1.0  0.1916
  Ag  Ag2  1  0.613600  0.456040  0.331820  1.0  0.1822
  Ag  Ag3  1  0.311760  0.752490  0.077380  1.0  0.1916
  Ag  Ag4  1  0.113600  0.956040  0.331820  1.0  0.1822
  Ag  Ag5  1  0.811760  0.747510  0.577380  1.0  0.1914
  Ag  Ag6  1  0.613600  0.543960  0.831820  1.0  0.1809
  Ag  Ag7  1  0.311760  0.247510  0.577380  1.0  0.1914
  Ag  Ag8  1  0.113600  0.043960  0.831820  1.0  0.1809
  H  H9  1  0.612700  0.220800  0.209100  1.0  0.073
  H  H10  1  0.400500  0.248800  0.258200  1.0  0.0977
  H  H11  1  0.369000  0.373200  0.070300  1.0  0.0976
  H  H12  1  0.576000  0.341000  0.024900  1.0  0.0631
  H  H13  1  0.176100  0.303300  0.225700  1.0  0.0849
  H  H14  1  0.171100  0.354500  0.153700  1.0  0.0772
  H  H15  1  0.402500  0.433300  0.216600  1.0  0.0569
  H  H16  1  0.248900  0.454100  0.186700  1.0  0.0676
  H  H17  1  0.223300  0.495700  0.321900  1.0  0.0499
  H  H18  1  0.353300  0.525000  0.280000  1.0  0.0624
  H  H19  1  0.264200  0.420000  0.433100  1.0  0.0469
  H  H20  1  0.415700  0.397200  0.462800  1.0  0.0533
  H  H21  1  0.437100  0.353700  0.327100  1.0  0.0498
  H  H22  1  0.305500  0.326900  0.370300  1.0  0.0757
  H  H23  1  0.324800  0.519300  0.468200  1.0  0.075
  H  H24  1  0.434500  0.553700  0.414200  1.0  0.0803
  H  H25  1  0.671400  0.553000  0.454700  1.0  0.107
  H  H26  1  0.845900  0.542100  0.563000  1.0  0.0805
  H  H27  1  0.593100  0.451700  0.707600  1.0  0.0859
  H  H28  1  0.417900  0.456400  0.600800  1.0  0.1042
  H  H29  1  0.935500  0.507600  0.696900  1.0  0.0738
  H  H30  1  0.848600  0.461000  0.749100  1.0  0.0848
  H  H31  1  0.936300  0.611600  0.729200  1.0  0.049
  H  H32  1  0.776300  0.613500  0.698100  1.0  0.0541
  H  H33  1  0.724500  0.656200  0.826700  1.0  0.04
  H  H34  1  0.836300  0.696300  0.782200  1.0  0.0592
  H  H35  1  0.799900  0.587400  0.940800  1.0  0.057
  H  H36  1  0.959100  0.585100  0.973900  1.0  0.0744
  H  H37  1  0.013700  0.545400  0.840900  1.0  0.0366
  H  H38  1  0.908000  0.502800  0.886600  1.0  0.0526
  H  H39  1  0.941800  0.736600  0.913200  1.0  0.0953
  H  H40  1  0.981800  0.693200  0.992000  1.0  0.0857
  H  H41  1  0.721900  0.778000  0.895700  1.0  0.0885
  H  H42  1  0.501300  0.795400  0.940000  1.0  0.1003
  H  H43  1  0.568000  0.676900  0.125200  1.0  0.0533
  H  H44  1  0.785500  0.655200  0.079500  1.0  0.1062
  H  H45  1  0.112700  0.720800  0.209100  1.0  0.073
  H  H46  1  0.900500  0.748800  0.258200  1.0  0.0977
  H  H47  1  0.869000  0.873200  0.070300  1.0  0.0976
  H  H48  1  0.076000  0.841000  0.024900  1.0  0.0631
  H  H49  1  0.676100  0.803300  0.225700  1.0  0.0849
  H  H50  1  0.671100  0.854500  0.153700  1.0  0.0772
  H  H51  1  0.902500  0.933300  0.216600  1.0  0.0569
  H  H52  1  0.748900  0.954100  0.186700  1.0  0.0676
  H  H53  1  0.723300  0.995700  0.321900  1.0  0.0499
  H  H54  1  0.853300  0.025000  0.280000  1.0  0.0624
  H  H55  1  0.764200  0.920000  0.433100  1.0  0.0469
  H  H56  1  0.915700  0.897200  0.462800  1.0  0.0533
  H  H57  1  0.937100  0.853700  0.327100  1.0  0.0498
  H  H58  1  0.805500  0.826900  0.370300  1.0  0.0757
  H  H59  1  0.824800  0.019300  0.468200  1.0  0.075
  H  H60  1  0.934500  0.053700  0.414200  1.0  0.0803
  H  H61  1  0.171400  0.053000  0.454700  1.0  0.107
  H  H62  1  0.345900  0.042100  0.563000  1.0  0.0805
  H  H63  1  0.093100  0.951700  0.707600  1.0  0.0859
  H  H64  1  0.917900  0.956400  0.600800  1.0  0.1042
  H  H65  1  0.435500  0.007600  0.696900  1.0  0.0738
  H  H66  1  0.348600  0.961000  0.749100  1.0  0.0848
  H  H67  1  0.436300  0.111600  0.729200  1.0  0.049
  H  H68  1  0.276300  0.113500  0.698100  1.0  0.0541
  H  H69  1  0.224500  0.156200  0.826700  1.0  0.04
  H  H70  1  0.336300  0.196300  0.782200  1.0  0.0592
  H  H71  1  0.299900  0.087400  0.940800  1.0  0.057
  H  H72  1  0.459100  0.085100  0.973900  1.0  0.0744
  H  H73  1  0.513700  0.045400  0.840900  1.0  0.0366
  H  H74  1  0.408000  0.002800  0.886600  1.0  0.0526
  H  H75  1  0.441800  0.236600  0.913200  1.0  0.0953
  H  H76  1  0.481800  0.193200  0.992000  1.0  0.0857
  H  H77  1  0.221900  0.278000  0.895700  1.0  0.0885
  H  H78  1  0.001300  0.295400  0.940000  1.0  0.1003
  H  H79  1  0.068000  0.176900  0.125200  1.0  0.0533
  H  H80  1  0.285500  0.155200  0.079500  1.0  0.1062
  H  H81  1  0.612700  0.779200  0.709100  1.0  0.0716
  H  H82  1  0.400500  0.751200  0.758200  1.0  0.0961
  H  H83  1  0.369000  0.626800  0.570300  1.0  0.0972
  H  H84  1  0.576000  0.659000  0.524900  1.0  0.0633
  H  H85  1  0.176100  0.696700  0.725700  1.0  0.085
  H  H86  1  0.171100  0.645500  0.653700  1.0  0.0771
  H  H87  1  0.402500  0.566700  0.716600  1.0  0.0567
  H  H88  1  0.248900  0.545900  0.686700  1.0  0.0673
  H  H89  1  0.223300  0.504300  0.821900  1.0  0.0507
  H  H90  1  0.353300  0.475000  0.780000  1.0  0.0602
  H  H91  1  0.264200  0.580000  0.933100  1.0  0.0471
  H  H92  1  0.415700  0.602800  0.962800  1.0  0.0526
  H  H93  1  0.437100  0.646300  0.827100  1.0  0.0496
  H  H94  1  0.305500  0.673100  0.870300  1.0  0.0744
  H  H95  1  0.324800  0.480700  0.968200  1.0  0.0755
  H  H96  1  0.434500  0.446300  0.914200  1.0  0.0789
  H  H97  1  0.671400  0.447000  0.954700  1.0  0.1066
  H  H98  1  0.845900  0.457900  0.063000  1.0  0.0804
  H  H99  1  0.593100  0.548300  0.207600  1.0  0.0855
  H  H100  1  0.417900  0.543600  0.100800  1.0  0.104
  H  H101  1  0.935500  0.492400  0.196900  1.0  0.0741
  H  H102  1  0.848600  0.539000  0.249100  1.0  0.0849
  H  H103  1  0.936300  0.388400  0.229200  1.0  0.0481
  H  H104  1  0.776300  0.386500  0.198100  1.0  0.0532
  H  H105  1  0.724500  0.343800  0.326700  1.0  0.0402
  H  H106  1  0.836300  0.303700  0.282200  1.0  0.055
  H  H107  1  0.799900  0.412600  0.440800  1.0  0.0566
  H  H108  1  0.959100  0.414900  0.473900  1.0  0.0741
  H  H109  1  0.013700  0.454600  0.340900  1.0  0.0361
  H  H110  1  0.908000  0.497200  0.386600  1.0  0.053
  H  H111  1  0.941800  0.263400  0.413200  1.0  0.0944
  H  H112  1  0.981800  0.306800  0.492000  1.0  0.0858
  H  H113  1  0.721900  0.222000  0.395700  1.0  0.0876
  H  H114  1  0.501300  0.204600  0.440000  1.0  0.0994
  H  H115  1  0.568000  0.323100  0.625200  1.0  0.053
  H  H116  1  0.785500  0.344800  0.579500  1.0  0.1054
  H  H117  1  0.112700  0.279200  0.709100  1.0  0.0716
  H  H118  1  0.900500  0.251200  0.758200  1.0  0.0961
  H  H119  1  0.869000  0.126800  0.570300  1.0  0.0972
  H  H120  1  0.076000  0.159000  0.524900  1.0  0.0633
  H  H121  1  0.676100  0.196700  0.725700  1.0  0.085
  H  H122  1  0.671100  0.145500  0.653700  1.0  0.0771
  H  H123  1  0.902500  0.066700  0.716600  1.0  0.0567
  H  H124  1  0.748900  0.045900  0.686700  1.0  0.0673
  H  H125  1  0.723300  0.004300  0.821900  1.0  0.0507
  H  H126  1  0.853300  0.975000  0.780000  1.0  0.0602
  H  H127  1  0.764200  0.080000  0.933100  1.0  0.0471
  H  H128  1  0.915700  0.102800  0.962800  1.0  0.0526
  H  H129  1  0.937100  0.146300  0.827100  1.0  0.0496
  H  H130  1  0.805500  0.173100  0.870300  1.0  0.0744
  H  H131  1  0.824800  0.980700  0.968200  1.0  0.0755
  H  H132  1  0.934500  0.946300  0.914200  1.0  0.0789
  H  H133  1  0.171400  0.947000  0.954700  1.0  0.1066
  H  H134  1  0.345900  0.957900  0.063000  1.0  0.0804
  H  H135  1  0.093100  0.048300  0.207600  1.0  0.0855
  H  H136  1  0.917900  0.043600  0.100800  1.0  0.104
  H  H137  1  0.435500  0.992400  0.196900  1.0  0.0741
  H  H138  1  0.348600  0.039000  0.249100  1.0  0.0849
  H  H139  1  0.436300  0.888400  0.229200  1.0  0.0481
  H  H140  1  0.276300  0.886500  0.198100  1.0  0.0532
  H  H141  1  0.224500  0.843800  0.326700  1.0  0.0402
  H  H142  1  0.336300  0.803700  0.282200  1.0  0.055
  H  H143  1  0.299900  0.912600  0.440800  1.0  0.0566
  H  H144  1  0.459100  0.914900  0.473900  1.0  0.0741
  H  H145  1  0.513700  0.954600  0.340900  1.0  0.0361
  H  H146  1  0.408000  0.997200  0.386600  1.0  0.053
  H  H147  1  0.441800  0.763400  0.413200  1.0  0.0944
  H  H148  1  0.481800  0.806800  0.492000  1.0  0.0858
  H  H149  1  0.221900  0.722000  0.395700  1.0  0.0876
  H  H150  1  0.001300  0.704600  0.440000  1.0  0.0994
  H  H151  1  0.068000  0.823100  0.625200  1.0  0.053
  H  H152  1  0.285500  0.844800  0.579500  1.0  0.1054
  C  C153  1  0.562000  0.252300  0.180700  1.0  0.1412
  C  C154  1  0.434000  0.269000  0.210400  1.0  -0.1791
  C  C155  1  0.358000  0.314000  0.170900  1.0  0.0977
  C  C156  1  0.416000  0.341400  0.100000  1.0  -0.2231
  C  C157  1  0.541000  0.322500  0.073800  1.0  0.1439
  C  C158  1  0.228000  0.337000  0.202300  1.0  -0.1301
  C  C159  1  0.309000  0.440600  0.236400  1.0  -0.0049
  C  C160  1  0.316700  0.487500  0.303400  1.0  -0.0357
  C  C161  1  0.357000  0.411800  0.413100  1.0  -0.0117
  C  C162  1  0.345000  0.363500  0.346000  1.0  -0.0234
  C  C163  1  0.416000  0.515800  0.444400  1.0  -0.1315
  C  C164  1  0.526000  0.507000  0.517700  1.0  0.0737
  C  C165  1  0.655000  0.532400  0.506200  1.0  -0.2184
  C  C166  1  0.757000  0.526800  0.571600  1.0  -0.1198
  C  C167  1  0.735000  0.499900  0.648500  1.0  0.0331
  C  C168  1  0.608000  0.472900  0.656400  1.0  -0.1308
  C  C169  1  0.504000  0.475500  0.593500  1.0  -0.1884
  C  C170  1  0.845000  0.500700  0.720800  1.0  -0.1843
  C  C171  1  0.842000  0.608700  0.748800  1.0  0.0151
  C  C172  1  0.821000  0.657200  0.809800  1.0  0.0117
  C  C173  1  0.895000  0.590600  0.922500  1.0  -0.0074
  C  C174  1  0.919000  0.542400  0.859500  1.0  0.0237
  C  C175  1  0.913000  0.700300  0.943600  1.0  -0.1063
  C  C176  1  0.775000  0.713200  0.980200  1.0  0.0527
  C  C177  1  0.690000  0.755300  0.941900  1.0  -0.1537
  C  C178  1  0.559000  0.766200  0.968200  1.0  0.1089
  C  C179  1  0.597000  0.696700  0.075700  1.0  0.1253
  C  C180  1  0.729000  0.684000  0.049400  1.0  -0.2159
  C  C181  1  0.062000  0.752300  0.180700  1.0  0.1412
  C  C182  1  0.934000  0.769000  0.210400  1.0  -0.1791
  C  C183  1  0.858000  0.814000  0.170900  1.0  0.0977
  C  C184  1  0.916000  0.841400  0.100000  1.0  -0.2231
  C  C185  1  0.041000  0.822500  0.073800  1.0  0.1439
  C  C186  1  0.728000  0.837000  0.202300  1.0  -0.1301
  C  C187  1  0.809000  0.940600  0.236400  1.0  -0.0049
  C  C188  1  0.816700  0.987500  0.303400  1.0  -0.0357
  C  C189  1  0.857000  0.911800  0.413100  1.0  -0.0117
  C  C190  1  0.845000  0.863500  0.346000  1.0  -0.0234
  C  C191  1  0.916000  0.015800  0.444400  1.0  -0.1315
  C  C192  1  0.026000  0.007000  0.517700  1.0  0.0737
  C  C193  1  0.155000  0.032400  0.506200  1.0  -0.2184
  C  C194  1  0.257000  0.026800  0.571600  1.0  -0.1198
  C  C195  1  0.235000  0.999900  0.648500  1.0  0.0331
  C  C196  1  0.108000  0.972900  0.656400  1.0  -0.1308
  C  C197  1  0.004000  0.975500  0.593500  1.0  -0.1884
  C  C198  1  0.345000  0.000700  0.720800  1.0  -0.1843
  C  C199  1  0.342000  0.108700  0.748800  1.0  0.0151
  C  C200  1  0.321000  0.157200  0.809800  1.0  0.0117
  C  C201  1  0.395000  0.090600  0.922500  1.0  -0.0074
  C  C202  1  0.419000  0.042400  0.859500  1.0  0.0237
  C  C203  1  0.413000  0.200300  0.943600  1.0  -0.1063
  C  C204  1  0.275000  0.213200  0.980200  1.0  0.0527
  C  C205  1  0.190000  0.255300  0.941900  1.0  -0.1537
  C  C206  1  0.059000  0.266200  0.968200  1.0  0.1089
  C  C207  1  0.097000  0.196700  0.075700  1.0  0.1253
  C  C208  1  0.229000  0.184000  0.049400  1.0  -0.2159
  C  C209  1  0.562000  0.747700  0.680700  1.0  0.1423
  C  C210  1  0.434000  0.731000  0.710400  1.0  -0.1821
  C  C211  1  0.358000  0.686000  0.670900  1.0  0.0979
  C  C212  1  0.416000  0.658600  0.600000  1.0  -0.2224
  C  C213  1  0.541000  0.677500  0.573800  1.0  0.1436
  C  C214  1  0.228000  0.663000  0.702300  1.0  -0.13
  C  C215  1  0.309000  0.559400  0.736400  1.0  -0.0035
  C  C216  1  0.316700  0.512500  0.803400  1.0  -0.0346
  C  C217  1  0.357000  0.588200  0.913100  1.0  -0.0111
  C  C218  1  0.345000  0.636500  0.846000  1.0  -0.0239
  C  C219  1  0.416000  0.484200  0.944400  1.0  -0.1316
  C  C220  1  0.526000  0.493000  0.017700  1.0  0.0739
  C  C221  1  0.655000  0.467600  0.006200  1.0  -0.2174
  C  C222  1  0.757000  0.473200  0.071600  1.0  -0.1192
  C  C223  1  0.735000  0.500100  0.148500  1.0  0.0324
  C  C224  1  0.608000  0.527100  0.156400  1.0  -0.1315
  C  C225  1  0.504000  0.524500  0.093500  1.0  -0.1888
  C  C226  1  0.845000  0.499300  0.220800  1.0  -0.1837
  C  C227  1  0.842000  0.391300  0.248800  1.0  0.0147
  C  C228  1  0.821000  0.342800  0.309800  1.0  0.0111
  C  C229  1  0.895000  0.409400  0.422500  1.0  -0.0072
  C  C230  1  0.919000  0.457600  0.359500  1.0  0.0232
  C  C231  1  0.913000  0.299700  0.443600  1.0  -0.1064
  C  C232  1  0.775000  0.286800  0.480200  1.0  0.0533
  C  C233  1  0.690000  0.244700  0.441900  1.0  -0.154
  C  C234  1  0.559000  0.233800  0.468200  1.0  0.1086
  C  C235  1  0.597000  0.303300  0.575700  1.0  0.1249
  C  C236  1  0.729000  0.316000  0.549400  1.0  -0.2156
  C  C237  1  0.062000  0.247700  0.680700  1.0  0.1423
  C  C238  1  0.934000  0.231000  0.710400  1.0  -0.1821
  C  C239  1  0.858000  0.186000  0.670900  1.0  0.0979
  C  C240  1  0.916000  0.158600  0.600000  1.0  -0.2224
  C  C241  1  0.041000  0.177500  0.573800  1.0  0.1436
  C  C242  1  0.728000  0.163000  0.702300  1.0  -0.13
  C  C243  1  0.809000  0.059400  0.736400  1.0  -0.0035
  C  C244  1  0.816700  0.012500  0.803400  1.0  -0.0346
  C  C245  1  0.857000  0.088200  0.913100  1.0  -0.0111
  C  C246  1  0.845000  0.136500  0.846000  1.0  -0.0239
  C  C247  1  0.916000  0.984200  0.944400  1.0  -0.1316
  C  C248  1  0.026000  0.993000  0.017700  1.0  0.0739
  C  C249  1  0.155000  0.967600  0.006200  1.0  -0.2174
  C  C250  1  0.257000  0.973200  0.071600  1.0  -0.1192
  C  C251  1  0.235000  0.000100  0.148500  1.0  0.0324
  C  C252  1  0.108000  0.027100  0.156400  1.0  -0.1315
  C  C253  1  0.004000  0.024500  0.093500  1.0  -0.1888
  C  C254  1  0.345000  0.999300  0.220800  1.0  -0.1837
  C  C255  1  0.342000  0.891300  0.248800  1.0  0.0147
  C  C256  1  0.321000  0.842800  0.309800  1.0  0.0111
  C  C257  1  0.395000  0.909400  0.422500  1.0  -0.0072
  C  C258  1  0.419000  0.957600  0.359500  1.0  0.0232
  C  C259  1  0.413000  0.799700  0.443600  1.0  -0.1064
  C  C260  1  0.275000  0.786800  0.480200  1.0  0.0533
  C  C261  1  0.190000  0.744700  0.441900  1.0  -0.154
  C  C262  1  0.059000  0.733800  0.468200  1.0  0.1086
  C  C263  1  0.097000  0.803300  0.575700  1.0  0.1249
  C  C264  1  0.229000  0.816000  0.549400  1.0  -0.2156
  N  N265  1  0.617000  0.279400  0.113200  1.0  -0.3557
  N  N266  1  0.254600  0.384500  0.271800  1.0  -0.2765
  N  N267  1  0.413100  0.466200  0.382500  1.0  -0.225
  N  N268  1  0.823000  0.548300  0.787400  1.0  -0.2397
  N  N269  1  0.916000  0.650900  0.886300  1.0  -0.2804
  N  N270  1  0.514000  0.733300  0.036600  1.0  -0.349
  N  N271  1  0.117000  0.779400  0.113200  1.0  -0.3557
  N  N272  1  0.754600  0.884500  0.271800  1.0  -0.2765
  N  N273  1  0.913100  0.966200  0.382500  1.0  -0.225
  N  N274  1  0.323000  0.048300  0.787400  1.0  -0.2397
  N  N275  1  0.416000  0.150900  0.886300  1.0  -0.2804
  N  N276  1  0.014000  0.233300  0.036600  1.0  -0.349
  N  N277  1  0.617000  0.720600  0.613200  1.0  -0.3546
  N  N278  1  0.254600  0.615500  0.771800  1.0  -0.2764
  N  N279  1  0.413100  0.533800  0.882500  1.0  -0.2253
  N  N280  1  0.823000  0.451700  0.287400  1.0  -0.2398
  N  N281  1  0.916000  0.349100  0.386300  1.0  -0.2811
  N  N282  1  0.514000  0.266700  0.536600  1.0  -0.3481
  N  N283  1  0.117000  0.220600  0.613200  1.0  -0.3546
  N  N284  1  0.754600  0.115500  0.771800  1.0  -0.2764
  N  N285  1  0.913100  0.033800  0.882500  1.0  -0.2253
  N  N286  1  0.323000  0.951700  0.287400  1.0  -0.2398
  N  N287  1  0.416000  0.849100  0.386300  1.0  -0.2811
  N  N288  1  0.014000  0.766700  0.536600  1.0  -0.3481
