# generated using pymatgen
data_AgH18C14N3
_symmetry_space_group_name_H-M   'P 1'
_cell_length_a   12.28200000
_cell_length_b   22.79000000
_cell_length_c   13.58000000
_cell_angle_alpha   90.00000000
_cell_angle_beta   91.87000000
_cell_angle_gamma   90.00000000
_symmetry_Int_Tables_number   1
_chemical_formula_structural   AgH18C14N3
_chemical_formula_sum   'Ag8 H144 C112 N24'
_cell_volume   3799.10973644
_cell_formula_units_Z   8
loop_
 _symmetry_equiv_pos_site_id
 _symmetry_equiv_pos_as_xyz
  1  'x, y, z'
loop_
 _atom_site_type_symbol
 _atom_site_label
 _atom_site_symmetry_multiplicity
 _atom_site_fract_x
 _atom_site_fract_y
 _atom_site_fract_z
 _atom_site_occupancy
 _atom_site_charge
  Ag  Ag1  1  0.250000  0.250000  0.500000  1.0  0.2256
  Ag  Ag2  1  0.750000  0.250000  0.000000  1.0  0.2256
  Ag  Ag3  1  0.750000  0.750000  0.500000  1.0  0.2256
  Ag  Ag4  1  0.250000  0.750000  0.000000  1.0  0.2256
  Ag  Ag5  1  0.500000  0.451170  0.250000  1.0  0.1926
  Ag  Ag6  1  0.000000  0.951170  0.250000  1.0  0.1926
  Ag  Ag7  1  0.500000  0.548830  0.750000  1.0  0.1912
  Ag  Ag8  1  0.000000  0.048830  0.750000  1.0  0.1912
  H  H9  1  0.431000  0.205000  0.375700  1.0  0.0662
  H  H10  1  0.606500  0.224200  0.335300  1.0  0.0979
  H  H11  1  0.620700  0.348300  0.547900  1.0  0.1033
  H  H12  1  0.444200  0.325200  0.584000  1.0  0.0726
  H  H13  1  0.791500  0.317100  0.461800  1.0  0.0853
  H  H14  1  0.780600  0.270200  0.374500  1.0  0.0829
  H  H15  1  0.776600  0.418500  0.429800  1.0  0.0686
  H  H16  1  0.651700  0.413900  0.392400  1.0  0.0563
  H  H17  1  0.734800  0.497500  0.322700  1.0  0.0629
  H  H18  1  0.824000  0.456200  0.274000  1.0  0.0619
  H  H19  1  0.772900  0.388500  0.145300  1.0  0.0613
  H  H20  1  0.648100  0.382100  0.108700  1.0  0.0544
  H  H21  1  0.603000  0.342000  0.262200  1.0  0.0435
  H  H22  1  0.697900  0.303700  0.215600  1.0  0.049
  H  H23  1  0.756500  0.485100  0.095700  1.0  0.0728
  H  H24  1  0.701800  0.532900  0.165100  1.0  0.0783
  H  H25  1  0.509300  0.557300  0.142700  1.0  0.092
  H  H26  1  0.647000  0.440400  0.958600  1.0  0.0904
  H  H27  1  0.931000  0.705000  0.375700  1.0  0.0662
  H  H28  1  0.106500  0.724200  0.335300  1.0  0.0979
  H  H29  1  0.120700  0.848300  0.547900  1.0  0.1033
  H  H30  1  0.944200  0.825200  0.584000  1.0  0.0726
  H  H31  1  0.291500  0.817100  0.461800  1.0  0.0853
  H  H32  1  0.280600  0.770200  0.374500  1.0  0.0829
  H  H33  1  0.276600  0.918500  0.429800  1.0  0.0686
  H  H34  1  0.151700  0.913900  0.392400  1.0  0.0563
  H  H35  1  0.234800  0.997500  0.322700  1.0  0.0629
  H  H36  1  0.324000  0.956200  0.274000  1.0  0.0619
  H  H37  1  0.272900  0.888500  0.145300  1.0  0.0613
  H  H38  1  0.148100  0.882100  0.108700  1.0  0.0544
  H  H39  1  0.103000  0.842000  0.262200  1.0  0.0435
  H  H40  1  0.197900  0.803700  0.215600  1.0  0.049
  H  H41  1  0.256500  0.985100  0.095700  1.0  0.0728
  H  H42  1  0.201800  0.032900  0.165100  1.0  0.0783
  H  H43  1  0.009300  0.057300  0.142700  1.0  0.092
  H  H44  1  0.147000  0.940400  0.958600  1.0  0.0904
  H  H45  1  0.569000  0.205000  0.124300  1.0  0.0671
  H  H46  1  0.393500  0.224200  0.164700  1.0  0.0979
  H  H47  1  0.379300  0.348300  0.952100  1.0  0.103
  H  H48  1  0.555800  0.325200  0.916000  1.0  0.0725
  H  H49  1  0.208500  0.317100  0.038200  1.0  0.0862
  H  H50  1  0.219400  0.270200  0.125500  1.0  0.0835
  H  H51  1  0.223400  0.418500  0.070200  1.0  0.0704
  H  H52  1  0.348300  0.413900  0.107600  1.0  0.0568
  H  H53  1  0.265200  0.497500  0.177300  1.0  0.0646
  H  H54  1  0.176000  0.456200  0.226000  1.0  0.0614
  H  H55  1  0.227100  0.388500  0.354700  1.0  0.0607
  H  H56  1  0.351900  0.382100  0.391300  1.0  0.0514
  H  H57  1  0.397000  0.342000  0.237800  1.0  0.0454
  H  H58  1  0.302100  0.303700  0.284400  1.0  0.0488
  H  H59  1  0.243500  0.485100  0.404300  1.0  0.0723
  H  H60  1  0.298200  0.532900  0.334900  1.0  0.0785
  H  H61  1  0.490700  0.557300  0.357300  1.0  0.0941
  H  H62  1  0.353000  0.440400  0.541400  1.0  0.0907
  H  H63  1  0.069000  0.705000  0.124300  1.0  0.0671
  H  H64  1  0.893500  0.724200  0.164700  1.0  0.0979
  H  H65  1  0.879300  0.848300  0.952100  1.0  0.103
  H  H66  1  0.055800  0.825200  0.916000  1.0  0.0725
  H  H67  1  0.708500  0.817100  0.038200  1.0  0.0862
  H  H68  1  0.719400  0.770200  0.125500  1.0  0.0835
  H  H69  1  0.723400  0.918500  0.070200  1.0  0.0704
  H  H70  1  0.848300  0.913900  0.107600  1.0  0.0568
  H  H71  1  0.765200  0.997500  0.177300  1.0  0.0646
  H  H72  1  0.676000  0.956200  0.226000  1.0  0.0614
  H  H73  1  0.727100  0.888500  0.354700  1.0  0.0607
  H  H74  1  0.851900  0.882100  0.391300  1.0  0.0514
  H  H75  1  0.897000  0.842000  0.237800  1.0  0.0454
  H  H76  1  0.802100  0.803700  0.284400  1.0  0.0488
  H  H77  1  0.743500  0.985100  0.404300  1.0  0.0723
  H  H78  1  0.798200  0.032900  0.334900  1.0  0.0785
  H  H79  1  0.990700  0.057300  0.357300  1.0  0.0941
  H  H80  1  0.853000  0.940400  0.541400  1.0  0.0907
  H  H81  1  0.569000  0.795000  0.624300  1.0  0.0659
  H  H82  1  0.393500  0.775800  0.664700  1.0  0.0975
  H  H83  1  0.379300  0.651700  0.452100  1.0  0.1029
  H  H84  1  0.555800  0.674800  0.416000  1.0  0.0726
  H  H85  1  0.208500  0.682900  0.538200  1.0  0.086
  H  H86  1  0.219400  0.729800  0.625500  1.0  0.0833
  H  H87  1  0.223400  0.581500  0.570200  1.0  0.0702
  H  H88  1  0.348300  0.586100  0.607600  1.0  0.0569
  H  H89  1  0.265200  0.502500  0.677300  1.0  0.0628
  H  H90  1  0.176000  0.543800  0.726000  1.0  0.0612
  H  H91  1  0.227100  0.611500  0.854700  1.0  0.0609
  H  H92  1  0.351900  0.617900  0.891300  1.0  0.0508
  H  H93  1  0.397000  0.658000  0.737800  1.0  0.0456
  H  H94  1  0.302100  0.696300  0.784400  1.0  0.0476
  H  H95  1  0.243500  0.514900  0.904300  1.0  0.0722
  H  H96  1  0.298200  0.467100  0.834900  1.0  0.0773
  H  H97  1  0.490700  0.442700  0.857300  1.0  0.0933
  H  H98  1  0.353000  0.559600  0.041400  1.0  0.0904
  H  H99  1  0.069000  0.295000  0.624300  1.0  0.0659
  H  H100  1  0.893500  0.275800  0.664700  1.0  0.0975
  H  H101  1  0.879300  0.151700  0.452100  1.0  0.1029
  H  H102  1  0.055800  0.174800  0.416000  1.0  0.0726
  H  H103  1  0.708500  0.182900  0.538200  1.0  0.086
  H  H104  1  0.719400  0.229800  0.625500  1.0  0.0833
  H  H105  1  0.723400  0.081500  0.570200  1.0  0.0702
  H  H106  1  0.848300  0.086100  0.607600  1.0  0.0569
  H  H107  1  0.765200  0.002500  0.677300  1.0  0.0628
  H  H108  1  0.676000  0.043800  0.726000  1.0  0.0612
  H  H109  1  0.727100  0.111500  0.854700  1.0  0.0609
  H  H110  1  0.851900  0.117900  0.891300  1.0  0.0508
  H  H111  1  0.897000  0.158000  0.737800  1.0  0.0456
  H  H112  1  0.802100  0.196300  0.784400  1.0  0.0476
  H  H113  1  0.743500  0.014900  0.904300  1.0  0.0722
  H  H114  1  0.798200  0.967100  0.834900  1.0  0.0773
  H  H115  1  0.990700  0.942700  0.857300  1.0  0.0933
  H  H116  1  0.853000  0.059600  0.041400  1.0  0.0904
  H  H117  1  0.431000  0.795000  0.875700  1.0  0.0665
  H  H118  1  0.606500  0.775800  0.835300  1.0  0.0982
  H  H119  1  0.620700  0.651700  0.047900  1.0  0.1037
  H  H120  1  0.444200  0.674800  0.084000  1.0  0.0725
  H  H121  1  0.791500  0.682900  0.961800  1.0  0.0856
  H  H122  1  0.780600  0.729800  0.874500  1.0  0.0833
  H  H123  1  0.776600  0.581500  0.929800  1.0  0.069
  H  H124  1  0.651700  0.586100  0.892400  1.0  0.0563
  H  H125  1  0.734800  0.502500  0.822700  1.0  0.0634
  H  H126  1  0.824000  0.543800  0.774000  1.0  0.0616
  H  H127  1  0.772900  0.611500  0.645300  1.0  0.0617
  H  H128  1  0.648100  0.617900  0.608700  1.0  0.0551
  H  H129  1  0.603000  0.658000  0.762200  1.0  0.0442
  H  H130  1  0.697900  0.696300  0.715600  1.0  0.0493
  H  H131  1  0.756500  0.514900  0.595700  1.0  0.0724
  H  H132  1  0.701800  0.467100  0.665100  1.0  0.079
  H  H133  1  0.509300  0.442700  0.642700  1.0  0.0916
  H  H134  1  0.647000  0.559600  0.458600  1.0  0.0908
  H  H135  1  0.931000  0.295000  0.875700  1.0  0.0665
  H  H136  1  0.106500  0.275800  0.835300  1.0  0.0982
  H  H137  1  0.120700  0.151700  0.047900  1.0  0.1037
  H  H138  1  0.944200  0.174800  0.084000  1.0  0.0725
  H  H139  1  0.291500  0.182900  0.961800  1.0  0.0856
  H  H140  1  0.280600  0.229800  0.874500  1.0  0.0833
  H  H141  1  0.276600  0.081500  0.929800  1.0  0.069
  H  H142  1  0.151700  0.086100  0.892400  1.0  0.0563
  H  H143  1  0.234800  0.002500  0.822700  1.0  0.0634
  H  H144  1  0.324000  0.043800  0.774000  1.0  0.0616
  H  H145  1  0.272900  0.111500  0.645300  1.0  0.0617
  H  H146  1  0.148100  0.117900  0.608700  1.0  0.0551
  H  H147  1  0.103000  0.158000  0.762200  1.0  0.0442
  H  H148  1  0.197900  0.196300  0.715600  1.0  0.0493
  H  H149  1  0.256500  0.014900  0.595700  1.0  0.0724
  H  H150  1  0.201800  0.967100  0.665100  1.0  0.079
  H  H151  1  0.009300  0.942700  0.642700  1.0  0.0916
  H  H152  1  0.147000  0.059600  0.458600  1.0  0.0908
  C  C153  1  0.469900  0.235000  0.410200  1.0  0.1491
  C  C154  1  0.574300  0.246290  0.386000  1.0  -0.244
  C  C155  1  0.634900  0.290090  0.434700  1.0  0.1041
  C  C156  1  0.583000  0.318990  0.510600  1.0  -0.231
  C  C157  1  0.477500  0.305200  0.531500  1.0  0.1512
  C  C158  1  0.746800  0.305560  0.403000  1.0  -0.1232
  C  C159  1  0.728000  0.411680  0.371300  1.0  0.0142
  C  C160  1  0.747500  0.458150  0.294600  1.0  -0.0307
  C  C161  1  0.696700  0.389630  0.166900  1.0  -0.0248
  C  C162  1  0.680300  0.342550  0.243500  1.0  0.0061
  C  C163  1  0.690300  0.494520  0.132300  1.0  -0.113
  C  C164  1  0.593800  0.498300  0.061500  1.0  0.0395
  C  C165  1  0.505500  0.533960  0.084800  1.0  -0.1545
  C  C166  1  0.587300  0.464490  0.975600  1.0  -0.1423
  C  C167  1  0.969900  0.735000  0.410200  1.0  0.1491
  C  C168  1  0.074300  0.746290  0.386000  1.0  -0.244
  C  C169  1  0.134900  0.790090  0.434700  1.0  0.1041
  C  C170  1  0.083000  0.818990  0.510600  1.0  -0.231
  C  C171  1  0.977500  0.805200  0.531500  1.0  0.1512
  C  C172  1  0.246800  0.805560  0.403000  1.0  -0.1232
  C  C173  1  0.228000  0.911680  0.371300  1.0  0.0142
  C  C174  1  0.247500  0.958150  0.294600  1.0  -0.0307
  C  C175  1  0.196700  0.889630  0.166900  1.0  -0.0248
  C  C176  1  0.180300  0.842550  0.243500  1.0  0.0061
  C  C177  1  0.190300  0.994520  0.132300  1.0  -0.113
  C  C178  1  0.093800  0.998300  0.061500  1.0  0.0395
  C  C179  1  0.005500  0.033960  0.084800  1.0  -0.1545
  C  C180  1  0.087300  0.964490  0.975600  1.0  -0.1423
  C  C181  1  0.530100  0.235000  0.089800  1.0  0.1498
  C  C182  1  0.425700  0.246290  0.114000  1.0  -0.2447
  C  C183  1  0.365100  0.290090  0.065300  1.0  0.1038
  C  C184  1  0.417000  0.318990  0.989400  1.0  -0.2307
  C  C185  1  0.522500  0.305200  0.968500  1.0  0.151
  C  C186  1  0.253200  0.305560  0.097000  1.0  -0.1238
  C  C187  1  0.272000  0.411680  0.128700  1.0  0.0125
  C  C188  1  0.252500  0.458150  0.205400  1.0  -0.0308
  C  C189  1  0.303300  0.389630  0.333100  1.0  -0.0223
  C  C190  1  0.319700  0.342550  0.256500  1.0  0.0045
  C  C191  1  0.309700  0.494520  0.367700  1.0  -0.114
  C  C192  1  0.406200  0.498300  0.438500  1.0  0.0388
  C  C193  1  0.494500  0.533960  0.415200  1.0  -0.1522
  C  C194  1  0.412700  0.464490  0.524400  1.0  -0.143
  C  C195  1  0.030100  0.735000  0.089800  1.0  0.1498
  C  C196  1  0.925700  0.746290  0.114000  1.0  -0.2447
  C  C197  1  0.865100  0.790090  0.065300  1.0  0.1038
  C  C198  1  0.917000  0.818990  0.989400  1.0  -0.2307
  C  C199  1  0.022500  0.805200  0.968500  1.0  0.151
  C  C200  1  0.753200  0.805560  0.097000  1.0  -0.1238
  C  C201  1  0.772000  0.911680  0.128700  1.0  0.0125
  C  C202  1  0.752500  0.958150  0.205400  1.0  -0.0308
  C  C203  1  0.803300  0.889630  0.333100  1.0  -0.0223
  C  C204  1  0.819700  0.842550  0.256500  1.0  0.0045
  C  C205  1  0.809700  0.994520  0.367700  1.0  -0.114
  C  C206  1  0.906200  0.998300  0.438500  1.0  0.0388
  C  C207  1  0.994500  0.033960  0.415200  1.0  -0.1522
  C  C208  1  0.912700  0.964490  0.524400  1.0  -0.143
  C  C209  1  0.530100  0.765000  0.589800  1.0  0.1487
  C  C210  1  0.425700  0.753710  0.614000  1.0  -0.2438
  C  C211  1  0.365100  0.709910  0.565300  1.0  0.103
  C  C212  1  0.417000  0.681010  0.489400  1.0  -0.2309
  C  C213  1  0.522500  0.694800  0.468500  1.0  0.1515
  C  C214  1  0.253200  0.694440  0.597000  1.0  -0.1237
  C  C215  1  0.272000  0.588320  0.628700  1.0  0.013
  C  C216  1  0.252500  0.541850  0.705400  1.0  -0.0307
  C  C217  1  0.303300  0.610370  0.833100  1.0  -0.0226
  C  C218  1  0.319700  0.657450  0.756500  1.0  0.0051
  C  C219  1  0.309700  0.505480  0.867700  1.0  -0.1141
  C  C220  1  0.406200  0.501700  0.938500  1.0  0.0396
  C  C221  1  0.494500  0.466040  0.915200  1.0  -0.1442
  C  C222  1  0.412700  0.535510  0.024400  1.0  -0.1451
  C  C223  1  0.030100  0.265000  0.589800  1.0  0.1487
  C  C224  1  0.925700  0.253710  0.614000  1.0  -0.2438
  C  C225  1  0.865100  0.209910  0.565300  1.0  0.103
  C  C226  1  0.917000  0.181010  0.489400  1.0  -0.2309
  C  C227  1  0.022500  0.194800  0.468500  1.0  0.1515
  C  C228  1  0.753200  0.194440  0.597000  1.0  -0.1237
  C  C229  1  0.772000  0.088320  0.628700  1.0  0.013
  C  C230  1  0.752500  0.041850  0.705400  1.0  -0.0307
  C  C231  1  0.803300  0.110370  0.833100  1.0  -0.0226
  C  C232  1  0.819700  0.157450  0.756500  1.0  0.0051
  C  C233  1  0.809700  0.005480  0.867700  1.0  -0.1141
  C  C234  1  0.906200  0.001700  0.938500  1.0  0.0396
  C  C235  1  0.994500  0.966040  0.915200  1.0  -0.1442
  C  C236  1  0.912700  0.035510  0.024400  1.0  -0.1451
  C  C237  1  0.469900  0.765000  0.910200  1.0  0.1462
  C  C238  1  0.574300  0.753710  0.886000  1.0  -0.2437
  C  C239  1  0.634900  0.709910  0.934700  1.0  0.1034
  C  C240  1  0.583000  0.681010  0.010600  1.0  -0.2312
  C  C241  1  0.477500  0.694800  0.031500  1.0  0.1503
  C  C242  1  0.746800  0.694440  0.903000  1.0  -0.1229
  C  C243  1  0.728000  0.588320  0.871300  1.0  0.0143
  C  C244  1  0.747500  0.541850  0.794600  1.0  -0.0316
  C  C245  1  0.696700  0.610370  0.666900  1.0  -0.0246
  C  C246  1  0.680300  0.657450  0.743500  1.0  0.0067
  C  C247  1  0.690300  0.505480  0.632300  1.0  -0.1134
  C  C248  1  0.593800  0.501700  0.561500  1.0  0.0396
  C  C249  1  0.505500  0.466040  0.584800  1.0  -0.1461
  C  C250  1  0.587300  0.535510  0.475600  1.0  -0.1439
  C  C251  1  0.969900  0.265000  0.910200  1.0  0.1462
  C  C252  1  0.074300  0.253710  0.886000  1.0  -0.2437
  C  C253  1  0.134900  0.209910  0.934700  1.0  0.1034
  C  C254  1  0.083000  0.181010  0.010600  1.0  -0.2312
  C  C255  1  0.977500  0.194800  0.031500  1.0  0.1503
  C  C256  1  0.246800  0.194440  0.903000  1.0  -0.1229
  C  C257  1  0.228000  0.088320  0.871300  1.0  0.0143
  C  C258  1  0.247500  0.041850  0.794600  1.0  -0.0316
  C  C259  1  0.196700  0.110370  0.666900  1.0  -0.0246
  C  C260  1  0.180300  0.157450  0.743500  1.0  0.0067
  C  C261  1  0.190300  0.005480  0.632300  1.0  -0.1134
  C  C262  1  0.093800  0.001700  0.561500  1.0  0.0396
  C  C263  1  0.005500  0.966040  0.584800  1.0  -0.1461
  C  C264  1  0.087300  0.035510  0.475600  1.0  -0.1439
  N  N265  1  0.419200  0.264680  0.481300  1.0  -0.3382
  N  N266  1  0.749200  0.353470  0.330000  1.0  -0.3396
  N  N267  1  0.672700  0.448510  0.208000  1.0  -0.2387
  N  N268  1  0.919200  0.764680  0.481300  1.0  -0.3382
  N  N269  1  0.249200  0.853470  0.330000  1.0  -0.3396
  N  N270  1  0.172700  0.948510  0.208000  1.0  -0.2387
  N  N271  1  0.580800  0.264680  0.018700  1.0  -0.3321
  N  N272  1  0.250800  0.353470  0.170000  1.0  -0.3399
  N  N273  1  0.327300  0.448510  0.292000  1.0  -0.238
  N  N274  1  0.080800  0.764680  0.018700  1.0  -0.3321
  N  N275  1  0.750800  0.853470  0.170000  1.0  -0.3399
  N  N276  1  0.827300  0.948510  0.292000  1.0  -0.238
  N  N277  1  0.580800  0.735320  0.518700  1.0  -0.3319
  N  N278  1  0.250800  0.646530  0.670000  1.0  -0.3393
  N  N279  1  0.327300  0.551490  0.792000  1.0  -0.239
  N  N280  1  0.080800  0.235320  0.518700  1.0  -0.3319
  N  N281  1  0.750800  0.146530  0.670000  1.0  -0.3393
  N  N282  1  0.827300  0.051490  0.792000  1.0  -0.239
  N  N283  1  0.419200  0.735320  0.981300  1.0  -0.3343
  N  N284  1  0.749200  0.646530  0.830000  1.0  -0.3394
  N  N285  1  0.672700  0.551490  0.708000  1.0  -0.2395
  N  N286  1  0.919200  0.235320  0.981300  1.0  -0.3343
  N  N287  1  0.249200  0.146530  0.830000  1.0  -0.3394
  N  N288  1  0.172700  0.051490  0.708000  1.0  -0.2395
