# generated using pymatgen
data_AgH18C14N3
_symmetry_space_group_name_H-M   'P 1'
_cell_length_a   12.97500000
_cell_length_b   23.05000000
_cell_length_c   13.15500000
_cell_angle_alpha   90.00000000
_cell_angle_beta   91.81900000
_cell_angle_gamma   90.00000000
_symmetry_Int_Tables_number   1
_chemical_formula_structural   AgH18C14N3
_chemical_formula_sum   'Ag8 H144 C112 N24'
_cell_volume   3932.33263737
_cell_formula_units_Z   8
loop_
 _symmetry_equiv_pos_site_id
 _symmetry_equiv_pos_as_xyz
  1  'x, y, z'
loop_
 _atom_site_type_symbol
 _atom_site_label
 _atom_site_symmetry_multiplicity
 _atom_site_fract_x
 _atom_site_fract_y
 _atom_site_fract_z
 _atom_site_occupancy
 _atom_site_charge
  Ag  Ag1  1  0.750000  0.250000  0.500000  1.0  0.2113
  Ag  Ag2  1  0.250000  0.250000  0.000000  1.0  0.2113
  Ag  Ag3  1  0.250000  0.750000  0.500000  1.0  0.2113
  Ag  Ag4  1  0.750000  0.750000  0.000000  1.0  0.2113
  Ag  Ag5  1  0.000000  0.445230  0.250000  1.0  0.2067
  Ag  Ag6  1  0.500000  0.945230  0.250000  1.0  0.2067
  Ag  Ag7  1  0.000000  0.554770  0.750000  1.0  0.2058
  Ag  Ag8  1  0.500000  0.054770  0.750000  1.0  0.2058
  H  H9  1  0.931900  0.324000  0.589200  1.0  0.0684
  H  H10  1  0.099700  0.345200  0.560800  1.0  0.0993
  H  H11  1  0.095800  0.223500  0.338600  1.0  0.1045
  H  H12  1  0.925000  0.205500  0.371300  1.0  0.0756
  H  H13  1  0.264000  0.315200  0.479000  1.0  0.0825
  H  H14  1  0.259000  0.269200  0.388200  1.0  0.0841
  H  H15  1  0.100400  0.338400  0.262200  1.0  0.0447
  H  H16  1  0.195600  0.302200  0.220300  1.0  0.053
  H  H17  1  0.267100  0.387900  0.152600  1.0  0.0659
  H  H18  1  0.152000  0.379500  0.107000  1.0  0.0556
  H  H19  1  0.214800  0.494000  0.333900  1.0  0.0629
  H  H20  1  0.303800  0.454300  0.288200  1.0  0.0639
  H  H21  1  0.249600  0.415500  0.445900  1.0  0.0669
  H  H22  1  0.134200  0.409700  0.399800  1.0  0.0604
  H  H23  1  0.243700  0.483200  0.096800  1.0  0.0754
  H  H24  1  0.192300  0.529400  0.171000  1.0  0.0805
  H  H25  1  0.012800  0.556500  0.146800  1.0  0.09
  H  H26  1  0.865300  0.561900  0.043200  1.0  0.0935
  H  H27  1  0.431900  0.824000  0.589200  1.0  0.0684
  H  H28  1  0.599700  0.845200  0.560800  1.0  0.0993
  H  H29  1  0.595800  0.723500  0.338600  1.0  0.1045
  H  H30  1  0.425000  0.705500  0.371300  1.0  0.0756
  H  H31  1  0.764000  0.815200  0.479000  1.0  0.0825
  H  H32  1  0.759000  0.769200  0.388200  1.0  0.0841
  H  H33  1  0.600400  0.838400  0.262200  1.0  0.0447
  H  H34  1  0.695600  0.802200  0.220300  1.0  0.053
  H  H35  1  0.767100  0.887900  0.152600  1.0  0.0659
  H  H36  1  0.652000  0.879500  0.107000  1.0  0.0556
  H  H37  1  0.714800  0.994000  0.333900  1.0  0.0629
  H  H38  1  0.803800  0.954300  0.288200  1.0  0.0639
  H  H39  1  0.749600  0.915500  0.445900  1.0  0.0669
  H  H40  1  0.634200  0.909700  0.399800  1.0  0.0604
  H  H41  1  0.743700  0.983200  0.096800  1.0  0.0754
  H  H42  1  0.692300  0.029400  0.171000  1.0  0.0805
  H  H43  1  0.512800  0.056500  0.146800  1.0  0.09
  H  H44  1  0.365300  0.061900  0.043200  1.0  0.0935
  H  H45  1  0.068100  0.324000  0.910800  1.0  0.0685
  H  H46  1  0.900300  0.345200  0.939200  1.0  0.0992
  H  H47  1  0.904200  0.223500  0.161400  1.0  0.1049
  H  H48  1  0.075000  0.205500  0.128700  1.0  0.0765
  H  H49  1  0.736000  0.315200  0.021000  1.0  0.0825
  H  H50  1  0.741000  0.269200  0.111800  1.0  0.0844
  H  H51  1  0.899600  0.338400  0.237800  1.0  0.0467
  H  H52  1  0.804400  0.302200  0.279700  1.0  0.0538
  H  H53  1  0.732900  0.387900  0.347400  1.0  0.0658
  H  H54  1  0.848000  0.379500  0.393000  1.0  0.0544
  H  H55  1  0.785200  0.494000  0.166100  1.0  0.0651
  H  H56  1  0.696200  0.454300  0.211800  1.0  0.0641
  H  H57  1  0.750400  0.415500  0.054100  1.0  0.0684
  H  H58  1  0.865800  0.409700  0.100200  1.0  0.0647
  H  H59  1  0.756300  0.483200  0.403200  1.0  0.075
  H  H60  1  0.807700  0.529400  0.329000  1.0  0.0811
  H  H61  1  0.987200  0.556500  0.353200  1.0  0.091
  H  H62  1  0.134700  0.561900  0.456800  1.0  0.0925
  H  H63  1  0.568100  0.824000  0.910800  1.0  0.0685
  H  H64  1  0.400300  0.845200  0.939200  1.0  0.0992
  H  H65  1  0.404200  0.723500  0.161400  1.0  0.1049
  H  H66  1  0.575000  0.705500  0.128700  1.0  0.0765
  H  H67  1  0.236000  0.815200  0.021000  1.0  0.0825
  H  H68  1  0.241000  0.769200  0.111800  1.0  0.0844
  H  H69  1  0.399600  0.838400  0.237800  1.0  0.0467
  H  H70  1  0.304400  0.802200  0.279700  1.0  0.0538
  H  H71  1  0.232900  0.887900  0.347400  1.0  0.0658
  H  H72  1  0.348000  0.879500  0.393000  1.0  0.0544
  H  H73  1  0.285200  0.994000  0.166100  1.0  0.0651
  H  H74  1  0.196200  0.954300  0.211800  1.0  0.0641
  H  H75  1  0.250400  0.915500  0.054100  1.0  0.0684
  H  H76  1  0.365800  0.909700  0.100200  1.0  0.0647
  H  H77  1  0.256300  0.983200  0.403200  1.0  0.075
  H  H78  1  0.307700  0.029400  0.329000  1.0  0.0811
  H  H79  1  0.487200  0.056500  0.353200  1.0  0.091
  H  H80  1  0.634700  0.061900  0.456800  1.0  0.0925
  H  H81  1  0.068100  0.676000  0.410800  1.0  0.0684
  H  H82  1  0.900300  0.654800  0.439200  1.0  0.0991
  H  H83  1  0.904200  0.776500  0.661400  1.0  0.1048
  H  H84  1  0.075000  0.794500  0.628700  1.0  0.0763
  H  H85  1  0.736000  0.684800  0.521000  1.0  0.0824
  H  H86  1  0.741000  0.730800  0.611800  1.0  0.0848
  H  H87  1  0.899600  0.661600  0.737800  1.0  0.0466
  H  H88  1  0.804400  0.697800  0.779700  1.0  0.0528
  H  H89  1  0.732900  0.612100  0.847400  1.0  0.0656
  H  H90  1  0.848000  0.620500  0.893000  1.0  0.054
  H  H91  1  0.785200  0.506000  0.666100  1.0  0.0648
  H  H92  1  0.696200  0.545700  0.711800  1.0  0.0634
  H  H93  1  0.750400  0.584500  0.554100  1.0  0.0682
  H  H94  1  0.865800  0.590300  0.600200  1.0  0.0648
  H  H95  1  0.756300  0.516800  0.903200  1.0  0.0749
  H  H96  1  0.807700  0.470600  0.829000  1.0  0.0778
  H  H97  1  0.987200  0.443500  0.853200  1.0  0.0895
  H  H98  1  0.134700  0.438100  0.956800  1.0  0.0923
  H  H99  1  0.568100  0.176000  0.410800  1.0  0.0684
  H  H100  1  0.400300  0.154800  0.439200  1.0  0.0991
  H  H101  1  0.404200  0.276500  0.661400  1.0  0.1048
  H  H102  1  0.575000  0.294500  0.628700  1.0  0.0763
  H  H103  1  0.236000  0.184800  0.521000  1.0  0.0824
  H  H104  1  0.241000  0.230800  0.611800  1.0  0.0848
  H  H105  1  0.399600  0.161600  0.737800  1.0  0.0466
  H  H106  1  0.304400  0.197800  0.779700  1.0  0.0528
  H  H107  1  0.232900  0.112100  0.847400  1.0  0.0656
  H  H108  1  0.348000  0.120500  0.893000  1.0  0.054
  H  H109  1  0.285200  0.006000  0.666100  1.0  0.0648
  H  H110  1  0.196200  0.045700  0.711800  1.0  0.0634
  H  H111  1  0.250400  0.084500  0.554100  1.0  0.0682
  H  H112  1  0.365800  0.090300  0.600200  1.0  0.0648
  H  H113  1  0.256300  0.016800  0.903200  1.0  0.0749
  H  H114  1  0.307700  0.970600  0.829000  1.0  0.0778
  H  H115  1  0.487200  0.943500  0.853200  1.0  0.0895
  H  H116  1  0.634700  0.938100  0.956800  1.0  0.0923
  H  H117  1  0.931900  0.676000  0.089200  1.0  0.0683
  H  H118  1  0.099700  0.654800  0.060800  1.0  0.0997
  H  H119  1  0.095800  0.776500  0.838600  1.0  0.1051
  H  H120  1  0.925000  0.794500  0.871300  1.0  0.078
  H  H121  1  0.264000  0.684800  0.979000  1.0  0.0827
  H  H122  1  0.259000  0.730800  0.888200  1.0  0.085
  H  H123  1  0.100400  0.661600  0.762200  1.0  0.0452
  H  H124  1  0.195600  0.697800  0.720300  1.0  0.0532
  H  H125  1  0.267100  0.612100  0.652600  1.0  0.0661
  H  H126  1  0.152000  0.620500  0.607000  1.0  0.0563
  H  H127  1  0.214800  0.506000  0.833900  1.0  0.0635
  H  H128  1  0.303800  0.545700  0.788200  1.0  0.0636
  H  H129  1  0.249600  0.584500  0.945900  1.0  0.0671
  H  H130  1  0.134200  0.590300  0.899800  1.0  0.0605
  H  H131  1  0.243700  0.516800  0.596800  1.0  0.0754
  H  H132  1  0.192300  0.470600  0.671000  1.0  0.0796
  H  H133  1  0.012800  0.443500  0.646800  1.0  0.0893
  H  H134  1  0.865300  0.438100  0.543200  1.0  0.0933
  H  H135  1  0.431900  0.176000  0.089200  1.0  0.0683
  H  H136  1  0.599700  0.154800  0.060800  1.0  0.0997
  H  H137  1  0.595800  0.276500  0.838600  1.0  0.1051
  H  H138  1  0.425000  0.294500  0.871300  1.0  0.078
  H  H139  1  0.764000  0.184800  0.979000  1.0  0.0827
  H  H140  1  0.759000  0.230800  0.888200  1.0  0.085
  H  H141  1  0.600400  0.161600  0.762200  1.0  0.0452
  H  H142  1  0.695600  0.197800  0.720300  1.0  0.0532
  H  H143  1  0.767100  0.112100  0.652600  1.0  0.0661
  H  H144  1  0.652000  0.120500  0.607000  1.0  0.0563
  H  H145  1  0.714800  0.006000  0.833900  1.0  0.0635
  H  H146  1  0.803800  0.045700  0.788200  1.0  0.0636
  H  H147  1  0.749600  0.084500  0.945900  1.0  0.0671
  H  H148  1  0.634200  0.090300  0.899800  1.0  0.0605
  H  H149  1  0.743700  0.016800  0.596800  1.0  0.0754
  H  H150  1  0.692300  0.970600  0.671000  1.0  0.0796
  H  H151  1  0.512800  0.943500  0.646800  1.0  0.0893
  H  H152  1  0.365300  0.938100  0.543200  1.0  0.0933
  C  C153  1  0.965300  0.304100  0.536200  1.0  0.1524
  C  C154  1  0.065100  0.316800  0.519900  1.0  -0.251
  C  C155  1  0.117800  0.288500  0.442700  1.0  0.0954
  C  C156  1  0.062700  0.245500  0.389200  1.0  -0.199
  C  C157  1  0.960800  0.234700  0.409200  1.0  0.1407
  C  C158  1  0.225300  0.304000  0.416000  1.0  -0.117
  C  C159  1  0.174800  0.340200  0.248100  1.0  0.007
  C  C160  1  0.193400  0.387500  0.169900  1.0  -0.0198
  C  C161  1  0.230100  0.455300  0.305300  1.0  -0.0385
  C  C162  1  0.207900  0.408500  0.382800  1.0  -0.0015
  C  C163  1  0.181300  0.492000  0.135400  1.0  -0.1396
  C  C164  1  0.089300  0.496620  0.063400  1.0  0.0247
  C  C165  1  0.007700  0.533380  0.087100  1.0  -0.1466
  C  C166  1  0.919900  0.536740  0.025300  1.0  -0.1644
  C  C167  1  0.465300  0.804100  0.536200  1.0  0.1524
  C  C168  1  0.565100  0.816800  0.519900  1.0  -0.251
  C  C169  1  0.617800  0.788500  0.442700  1.0  0.0954
  C  C170  1  0.562700  0.745500  0.389200  1.0  -0.199
  C  C171  1  0.460800  0.734700  0.409200  1.0  0.1407
  C  C172  1  0.725300  0.804000  0.416000  1.0  -0.117
  C  C173  1  0.674800  0.840200  0.248100  1.0  0.007
  C  C174  1  0.693400  0.887500  0.169900  1.0  -0.0198
  C  C175  1  0.730100  0.955300  0.305300  1.0  -0.0385
  C  C176  1  0.707900  0.908500  0.382800  1.0  -0.0015
  C  C177  1  0.681300  0.992000  0.135400  1.0  -0.1396
  C  C178  1  0.589300  0.996620  0.063400  1.0  0.0247
  C  C179  1  0.507700  0.033380  0.087100  1.0  -0.1466
  C  C180  1  0.419900  0.036740  0.025300  1.0  -0.1644
  C  C181  1  0.034700  0.304100  0.963800  1.0  0.1518
  C  C182  1  0.934900  0.316800  0.980100  1.0  -0.2514
  C  C183  1  0.882200  0.288500  0.057300  1.0  0.0953
  C  C184  1  0.937300  0.245500  0.110800  1.0  -0.1994
  C  C185  1  0.039200  0.234700  0.090800  1.0  0.1396
  C  C186  1  0.774700  0.304000  0.084000  1.0  -0.1146
  C  C187  1  0.825200  0.340200  0.251900  1.0  0.0055
  C  C188  1  0.806600  0.387500  0.330100  1.0  -0.0182
  C  C189  1  0.769900  0.455300  0.194700  1.0  -0.0371
  C  C190  1  0.792100  0.408500  0.117200  1.0  -0.0033
  C  C191  1  0.818700  0.492000  0.364600  1.0  -0.14
  C  C192  1  0.910700  0.496620  0.436600  1.0  0.0251
  C  C193  1  0.992300  0.533380  0.412900  1.0  -0.1444
  C  C194  1  0.080100  0.536740  0.474700  1.0  -0.1653
  C  C195  1  0.534700  0.804100  0.963800  1.0  0.1518
  C  C196  1  0.434900  0.816800  0.980100  1.0  -0.2514
  C  C197  1  0.382200  0.788500  0.057300  1.0  0.0953
  C  C198  1  0.437300  0.745500  0.110800  1.0  -0.1994
  C  C199  1  0.539200  0.734700  0.090800  1.0  0.1396
  C  C200  1  0.274700  0.804000  0.084000  1.0  -0.1146
  C  C201  1  0.325200  0.840200  0.251900  1.0  0.0055
  C  C202  1  0.306600  0.887500  0.330100  1.0  -0.0182
  C  C203  1  0.269900  0.955300  0.194700  1.0  -0.0371
  C  C204  1  0.292100  0.908500  0.117200  1.0  -0.0033
  C  C205  1  0.318700  0.992000  0.364600  1.0  -0.14
  C  C206  1  0.410700  0.996620  0.436600  1.0  0.0251
  C  C207  1  0.492300  0.033380  0.412900  1.0  -0.1444
  C  C208  1  0.580100  0.036740  0.474700  1.0  -0.1653
  C  C209  1  0.034700  0.695900  0.463800  1.0  0.1535
  C  C210  1  0.934900  0.683200  0.480100  1.0  -0.2504
  C  C211  1  0.882200  0.711500  0.557300  1.0  0.0952
  C  C212  1  0.937300  0.754500  0.610800  1.0  -0.1997
  C  C213  1  0.039200  0.765300  0.590800  1.0  0.1444
  C  C214  1  0.774700  0.696000  0.584000  1.0  -0.1146
  C  C215  1  0.825200  0.659800  0.751900  1.0  0.0054
  C  C216  1  0.806600  0.612500  0.830100  1.0  -0.0184
  C  C217  1  0.769900  0.544700  0.694700  1.0  -0.0369
  C  C218  1  0.792100  0.591500  0.617200  1.0  -0.0026
  C  C219  1  0.818700  0.508000  0.864600  1.0  -0.1396
  C  C220  1  0.910700  0.503380  0.936600  1.0  0.0262
  C  C221  1  0.992300  0.466620  0.912900  1.0  -0.1474
  C  C222  1  0.080100  0.463260  0.974700  1.0  -0.1596
  C  C223  1  0.534700  0.195900  0.463800  1.0  0.1535
  C  C224  1  0.434900  0.183200  0.480100  1.0  -0.2504
  C  C225  1  0.382200  0.211500  0.557300  1.0  0.0952
  C  C226  1  0.437300  0.254500  0.610800  1.0  -0.1997
  C  C227  1  0.539200  0.265300  0.590800  1.0  0.1444
  C  C228  1  0.274700  0.196000  0.584000  1.0  -0.1146
  C  C229  1  0.325200  0.159800  0.751900  1.0  0.0054
  C  C230  1  0.306600  0.112500  0.830100  1.0  -0.0184
  C  C231  1  0.269900  0.044700  0.694700  1.0  -0.0369
  C  C232  1  0.292100  0.091500  0.617200  1.0  -0.0026
  C  C233  1  0.318700  0.008000  0.864600  1.0  -0.1396
  C  C234  1  0.410700  0.003380  0.936600  1.0  0.0262
  C  C235  1  0.492300  0.966620  0.912900  1.0  -0.1474
  C  C236  1  0.580100  0.963260  0.974700  1.0  -0.1596
  C  C237  1  0.965300  0.695900  0.036200  1.0  0.1512
  C  C238  1  0.065100  0.683200  0.019900  1.0  -0.2511
  C  C239  1  0.117800  0.711500  0.942700  1.0  0.0956
  C  C240  1  0.062700  0.754500  0.889200  1.0  -0.1986
  C  C241  1  0.960800  0.765300  0.909200  1.0  0.1442
  C  C242  1  0.225300  0.696000  0.916000  1.0  -0.1166
  C  C243  1  0.174800  0.659800  0.748100  1.0  0.0068
  C  C244  1  0.193400  0.612500  0.669900  1.0  -0.0201
  C  C245  1  0.230100  0.544700  0.805300  1.0  -0.0395
  C  C246  1  0.207900  0.591500  0.882800  1.0  -0.0012
  C  C247  1  0.181300  0.508000  0.635400  1.0  -0.1405
  C  C248  1  0.089300  0.503380  0.563400  1.0  0.0254
  C  C249  1  0.007700  0.466620  0.587100  1.0  -0.1502
  C  C250  1  0.919900  0.463260  0.525300  1.0  -0.1582
  C  C251  1  0.465300  0.195900  0.036200  1.0  0.1512
  C  C252  1  0.565100  0.183200  0.019900  1.0  -0.2511
  C  C253  1  0.617800  0.211500  0.942700  1.0  0.0956
  C  C254  1  0.562700  0.254500  0.889200  1.0  -0.1986
  C  C255  1  0.460800  0.265300  0.909200  1.0  0.1442
  C  C256  1  0.725300  0.196000  0.916000  1.0  -0.1166
  C  C257  1  0.674800  0.159800  0.748100  1.0  0.0068
  C  C258  1  0.693400  0.112500  0.669900  1.0  -0.0201
  C  C259  1  0.730100  0.044700  0.805300  1.0  -0.0395
  C  C260  1  0.707900  0.091500  0.882800  1.0  -0.0012
  C  C261  1  0.681300  0.008000  0.635400  1.0  -0.1405
  C  C262  1  0.589300  0.003380  0.563400  1.0  0.0254
  C  C263  1  0.507700  0.966620  0.587100  1.0  -0.1502
  C  C264  1  0.419900  0.963260  0.525300  1.0  -0.1582
  N  N265  1  0.910100  0.264400  0.481100  1.0  -0.344
  N  N266  1  0.232900  0.351660  0.341600  1.0  -0.3353
  N  N267  1  0.164200  0.445020  0.211600  1.0  -0.2114
  N  N268  1  0.410100  0.764400  0.481100  1.0  -0.344
  N  N269  1  0.732900  0.851660  0.341600  1.0  -0.3353
  N  N270  1  0.664200  0.945020  0.211600  1.0  -0.2114
  N  N271  1  0.089900  0.264400  0.018900  1.0  -0.3384
  N  N272  1  0.767100  0.351660  0.158400  1.0  -0.3361
  N  N273  1  0.835800  0.445020  0.288400  1.0  -0.2116
  N  N274  1  0.589900  0.764400  0.018900  1.0  -0.3384
  N  N275  1  0.267100  0.851660  0.158400  1.0  -0.3361
  N  N276  1  0.335800  0.945020  0.288400  1.0  -0.2116
  N  N277  1  0.089900  0.735600  0.518900  1.0  -0.3392
  N  N278  1  0.767100  0.648340  0.658400  1.0  -0.3356
  N  N279  1  0.835800  0.554980  0.788400  1.0  -0.2119
  N  N280  1  0.589900  0.235600  0.518900  1.0  -0.3392
  N  N281  1  0.267100  0.148340  0.658400  1.0  -0.3356
  N  N282  1  0.335800  0.054980  0.788400  1.0  -0.2119
  N  N283  1  0.910100  0.735600  0.981100  1.0  -0.3417
  N  N284  1  0.232900  0.648340  0.841600  1.0  -0.3348
  N  N285  1  0.164200  0.554980  0.711600  1.0  -0.2121
  N  N286  1  0.410100  0.235600  0.981100  1.0  -0.3417
  N  N287  1  0.732900  0.148340  0.841600  1.0  -0.3348
  N  N288  1  0.664200  0.054980  0.711600  1.0  -0.2121
