# generated using pymatgen
data_TiH3(C4O3)3
_symmetry_space_group_name_H-M   'P 1'
_cell_length_a   22.91180000
_cell_length_b   22.91180000
_cell_length_c   22.91180000
_cell_angle_alpha   90.00000000
_cell_angle_beta   90.00000000
_cell_angle_gamma   90.00000000
_symmetry_Int_Tables_number   1
_chemical_formula_structural   TiH3(C4O3)3
_chemical_formula_sum   'Ti16 H48 C192 O144'
_cell_volume   12027.56268143
_cell_formula_units_Z   16
loop_
 _symmetry_equiv_pos_site_id
 _symmetry_equiv_pos_as_xyz
  1  'x, y, z'
loop_
 _atom_site_type_symbol
 _atom_site_label
 _atom_site_symmetry_multiplicity
 _atom_site_fract_x
 _atom_site_fract_y
 _atom_site_fract_z
 _atom_site_occupancy
 _atom_site_charge
  Ti  Ti1  1  0.600950  0.899050  0.100950  1.0  1.9095
  Ti  Ti2  1  0.100950  0.399050  0.600950  1.0  1.9095
  Ti  Ti3  1  0.899050  0.100950  0.600950  1.0  1.9087
  Ti  Ti4  1  0.399050  0.600950  0.100950  1.0  1.9087
  Ti  Ti5  1  0.399050  0.399050  0.399050  1.0  1.9128
  Ti  Ti6  1  0.899050  0.899050  0.899050  1.0  1.9128
  Ti  Ti7  1  0.100950  0.600950  0.899050  1.0  1.9076
  Ti  Ti8  1  0.600950  0.100950  0.399050  1.0  1.9076
  Ti  Ti9  1  0.149050  0.850950  0.350950  1.0  1.9087
  Ti  Ti10  1  0.649050  0.350950  0.850950  1.0  1.9087
  Ti  Ti11  1  0.350950  0.149050  0.850950  1.0  1.9095
  Ti  Ti12  1  0.850950  0.649050  0.350950  1.0  1.9095
  Ti  Ti13  1  0.649050  0.649050  0.649050  1.0  1.9128
  Ti  Ti14  1  0.149050  0.149050  0.149050  1.0  1.9128
  Ti  Ti15  1  0.850950  0.350950  0.149050  1.0  1.9076
  Ti  Ti16  1  0.350950  0.850950  0.649050  1.0  1.9076
  H  H17  1  0.576800  0.095890  0.213600  1.0  0.1258
  H  H18  1  0.076800  0.595890  0.713600  1.0  0.1258
  H  H19  1  0.923200  0.904110  0.713600  1.0  0.1253
  H  H20  1  0.423200  0.404110  0.213600  1.0  0.1253
  H  H21  1  0.423200  0.595890  0.286400  1.0  0.1256
  H  H22  1  0.923200  0.095890  0.786400  1.0  0.1256
  H  H23  1  0.076800  0.404110  0.786400  1.0  0.1252
  H  H24  1  0.576800  0.904110  0.286400  1.0  0.1252
  H  H25  1  0.213600  0.576800  0.095890  1.0  0.1257
  H  H26  1  0.713600  0.076800  0.595890  1.0  0.1257
  H  H27  1  0.713600  0.923200  0.904110  1.0  0.1259
  H  H28  1  0.213600  0.423200  0.404110  1.0  0.1259
  H  H29  1  0.286400  0.423200  0.595890  1.0  0.1256
  H  H30  1  0.786400  0.923200  0.095890  1.0  0.1256
  H  H31  1  0.786400  0.076800  0.404110  1.0  0.1262
  H  H32  1  0.286400  0.576800  0.904110  1.0  0.1262
  H  H33  1  0.095890  0.213600  0.576800  1.0  0.1252
  H  H34  1  0.595890  0.713600  0.076800  1.0  0.1252
  H  H35  1  0.904110  0.713600  0.923200  1.0  0.1234
  H  H36  1  0.404110  0.213600  0.423200  1.0  0.1234
  H  H37  1  0.595890  0.286400  0.423200  1.0  0.1256
  H  H38  1  0.095890  0.786400  0.923200  1.0  0.1256
  H  H39  1  0.404110  0.786400  0.076800  1.0  0.123
  H  H40  1  0.904110  0.286400  0.576800  1.0  0.123
  H  H41  1  0.345890  0.826800  0.463600  1.0  0.1259
  H  H42  1  0.845890  0.326800  0.963600  1.0  0.1259
  H  H43  1  0.154110  0.173200  0.963600  1.0  0.1237
  H  H44  1  0.654110  0.673200  0.463600  1.0  0.1237
  H  H45  1  0.845890  0.673200  0.536400  1.0  0.1256
  H  H46  1  0.345890  0.173200  0.036400  1.0  0.1256
  H  H47  1  0.654110  0.326800  0.036400  1.0  0.1237
  H  H48  1  0.154110  0.826800  0.536400  1.0  0.1237
  H  H49  1  0.826800  0.463600  0.345890  1.0  0.1246
  H  H50  1  0.326800  0.963600  0.845890  1.0  0.1246
  H  H51  1  0.173200  0.963600  0.154110  1.0  0.1251
  H  H52  1  0.673200  0.463600  0.654110  1.0  0.1251
  H  H53  1  0.673200  0.536400  0.845890  1.0  0.1247
  H  H54  1  0.173200  0.036400  0.345890  1.0  0.1247
  H  H55  1  0.326800  0.036400  0.654110  1.0  0.1252
  H  H56  1  0.826800  0.536400  0.154110  1.0  0.1252
  H  H57  1  0.463600  0.345890  0.826800  1.0  0.1261
  H  H58  1  0.963600  0.845890  0.326800  1.0  0.1261
  H  H59  1  0.963600  0.154110  0.173200  1.0  0.1257
  H  H60  1  0.463600  0.654110  0.673200  1.0  0.1257
  H  H61  1  0.536400  0.845890  0.673200  1.0  0.1263
  H  H62  1  0.036400  0.345890  0.173200  1.0  0.1263
  H  H63  1  0.036400  0.654110  0.326800  1.0  0.1257
  H  H64  1  0.536400  0.154110  0.826800  1.0  0.1257
  C  C65  1  0.576800  0.990420  0.309020  1.0  -0.1034
  C  C66  1  0.576800  0.046330  0.287800  1.0  0.3008
  C  C67  1  0.576800  0.055900  0.228780  1.0  -0.0903
  C  C68  1  0.576800  0.980140  0.372410  1.0  0.6933
  C  C69  1  0.076800  0.490420  0.809020  1.0  -0.1034
  C  C70  1  0.076800  0.546330  0.787800  1.0  0.3008
  C  C71  1  0.076800  0.555900  0.728780  1.0  -0.0903
  C  C72  1  0.076800  0.480140  0.872410  1.0  0.6933
  C  C73  1  0.923200  0.009580  0.809020  1.0  -0.1028
  C  C74  1  0.923200  0.953670  0.787800  1.0  0.3018
  C  C75  1  0.923200  0.944100  0.728780  1.0  -0.0895
  C  C76  1  0.923200  0.019860  0.872410  1.0  0.6941
  C  C77  1  0.423200  0.509580  0.309020  1.0  -0.1028
  C  C78  1  0.423200  0.453670  0.287800  1.0  0.3018
  C  C79  1  0.423200  0.444100  0.228780  1.0  -0.0895
  C  C80  1  0.423200  0.519860  0.372410  1.0  0.6941
  C  C81  1  0.423200  0.490420  0.190980  1.0  -0.1042
  C  C82  1  0.423200  0.546330  0.212200  1.0  0.3015
  C  C83  1  0.423200  0.555900  0.271220  1.0  -0.0916
  C  C84  1  0.423200  0.480140  0.127590  1.0  0.6898
  C  C85  1  0.923200  0.990420  0.690980  1.0  -0.1042
  C  C86  1  0.923200  0.046330  0.712200  1.0  0.3015
  C  C87  1  0.923200  0.055900  0.771220  1.0  -0.0916
  C  C88  1  0.923200  0.980140  0.627590  1.0  0.6898
  C  C89  1  0.076800  0.509580  0.690980  1.0  -0.1034
  C  C90  1  0.076800  0.453670  0.712200  1.0  0.3011
  C  C91  1  0.076800  0.444100  0.771220  1.0  -0.0915
  C  C92  1  0.076800  0.519860  0.627590  1.0  0.6924
  C  C93  1  0.576800  0.009580  0.190980  1.0  -0.1034
  C  C94  1  0.576800  0.953670  0.212200  1.0  0.3011
  C  C95  1  0.576800  0.944100  0.271220  1.0  -0.0915
  C  C96  1  0.576800  0.019860  0.127590  1.0  0.6924
  C  C97  1  0.309020  0.576800  0.990420  1.0  -0.1027
  C  C98  1  0.287800  0.576800  0.046330  1.0  0.3059
  C  C99  1  0.228780  0.576800  0.055900  1.0  -0.0897
  C  C100  1  0.372410  0.576800  0.980140  1.0  0.6866
  C  C101  1  0.809020  0.076800  0.490420  1.0  -0.1027
  C  C102  1  0.787800  0.076800  0.546330  1.0  0.3059
  C  C103  1  0.728780  0.076800  0.555900  1.0  -0.0897
  C  C104  1  0.872410  0.076800  0.480140  1.0  0.6866
  C  C105  1  0.809020  0.923200  0.009580  1.0  -0.1004
  C  C106  1  0.787800  0.923200  0.953670  1.0  0.3068
  C  C107  1  0.728780  0.923200  0.944100  1.0  -0.0903
  C  C108  1  0.872410  0.923200  0.019860  1.0  0.6892
  C  C109  1  0.309020  0.423200  0.509580  1.0  -0.1004
  C  C110  1  0.287800  0.423200  0.453670  1.0  0.3068
  C  C111  1  0.228780  0.423200  0.444100  1.0  -0.0903
  C  C112  1  0.372410  0.423200  0.519860  1.0  0.6892
  C  C113  1  0.190980  0.423200  0.490420  1.0  -0.1032
  C  C114  1  0.212200  0.423200  0.546330  1.0  0.3063
  C  C115  1  0.271220  0.423200  0.555900  1.0  -0.0914
  C  C116  1  0.127590  0.423200  0.480140  1.0  0.6872
  C  C117  1  0.690980  0.923200  0.990420  1.0  -0.1032
  C  C118  1  0.712200  0.923200  0.046330  1.0  0.3063
  C  C119  1  0.771220  0.923200  0.055900  1.0  -0.0914
  C  C120  1  0.627590  0.923200  0.980140  1.0  0.6872
  C  C121  1  0.690980  0.076800  0.509580  1.0  -0.1014
  C  C122  1  0.712200  0.076800  0.453670  1.0  0.3068
  C  C123  1  0.771220  0.076800  0.444100  1.0  -0.0924
  C  C124  1  0.627590  0.076800  0.519860  1.0  0.687
  C  C125  1  0.190980  0.576800  0.009580  1.0  -0.1014
  C  C126  1  0.212200  0.576800  0.953670  1.0  0.3068
  C  C127  1  0.271220  0.576800  0.944100  1.0  -0.0924
  C  C128  1  0.127590  0.576800  0.019860  1.0  0.687
  C  C129  1  0.990420  0.309020  0.576800  1.0  -0.1018
  C  C130  1  0.046330  0.287800  0.576800  1.0  0.3025
  C  C131  1  0.055900  0.228780  0.576800  1.0  -0.0917
  C  C132  1  0.980140  0.372410  0.576800  1.0  0.6866
  C  C133  1  0.490420  0.809020  0.076800  1.0  -0.1018
  C  C134  1  0.546330  0.787800  0.076800  1.0  0.3025
  C  C135  1  0.555900  0.728780  0.076800  1.0  -0.0917
  C  C136  1  0.480140  0.872410  0.076800  1.0  0.6866
  C  C137  1  0.009580  0.809020  0.923200  1.0  -0.1012
  C  C138  1  0.953670  0.787800  0.923200  1.0  0.3027
  C  C139  1  0.944100  0.728780  0.923200  1.0  -0.0904
  C  C140  1  0.019860  0.872410  0.923200  1.0  0.6837
  C  C141  1  0.509580  0.309020  0.423200  1.0  -0.1012
  C  C142  1  0.453670  0.287800  0.423200  1.0  0.3027
  C  C143  1  0.444100  0.228780  0.423200  1.0  -0.0904
  C  C144  1  0.519860  0.372410  0.423200  1.0  0.6837
  C  C145  1  0.490420  0.190980  0.423200  1.0  -0.1019
  C  C146  1  0.546330  0.212200  0.423200  1.0  0.3016
  C  C147  1  0.555900  0.271220  0.423200  1.0  -0.0937
  C  C148  1  0.480140  0.127590  0.423200  1.0  0.6856
  C  C149  1  0.990420  0.690980  0.923200  1.0  -0.1019
  C  C150  1  0.046330  0.712200  0.923200  1.0  0.3016
  C  C151  1  0.055900  0.771220  0.923200  1.0  -0.0937
  C  C152  1  0.980140  0.627590  0.923200  1.0  0.6856
  C  C153  1  0.509580  0.690980  0.076800  1.0  -0.1004
  C  C154  1  0.453670  0.712200  0.076800  1.0  0.3022
  C  C155  1  0.444100  0.771220  0.076800  1.0  -0.0923
  C  C156  1  0.519860  0.627590  0.076800  1.0  0.6844
  C  C157  1  0.009580  0.190980  0.576800  1.0  -0.1004
  C  C158  1  0.953670  0.212200  0.576800  1.0  0.3022
  C  C159  1  0.944100  0.271220  0.576800  1.0  -0.0923
  C  C160  1  0.019860  0.127590  0.576800  1.0  0.6844
  C  C161  1  0.240420  0.826800  0.559020  1.0  -0.1032
  C  C162  1  0.296330  0.826800  0.537800  1.0  0.3017
  C  C163  1  0.305900  0.826800  0.478780  1.0  -0.0916
  C  C164  1  0.230140  0.826800  0.622410  1.0  0.6942
  C  C165  1  0.740420  0.326800  0.059020  1.0  -0.1032
  C  C166  1  0.796330  0.326800  0.037800  1.0  0.3017
  C  C167  1  0.805900  0.326800  0.978780  1.0  -0.0916
  C  C168  1  0.730140  0.326800  0.122410  1.0  0.6942
  C  C169  1  0.259580  0.173200  0.059020  1.0  -0.1024
  C  C170  1  0.203670  0.173200  0.037800  1.0  0.3022
  C  C171  1  0.194100  0.173200  0.978780  1.0  -0.0901
  C  C172  1  0.269860  0.173200  0.122410  1.0  0.6932
  C  C173  1  0.759580  0.673200  0.559020  1.0  -0.1024
  C  C174  1  0.703670  0.673200  0.537800  1.0  0.3022
  C  C175  1  0.694100  0.673200  0.478780  1.0  -0.0901
  C  C176  1  0.769860  0.673200  0.622410  1.0  0.6932
  C  C177  1  0.740420  0.673200  0.440980  1.0  -0.1044
  C  C178  1  0.796330  0.673200  0.462200  1.0  0.3019
  C  C179  1  0.805900  0.673200  0.521220  1.0  -0.0932
  C  C180  1  0.730140  0.673200  0.377590  1.0  0.6919
  C  C181  1  0.240420  0.173200  0.940980  1.0  -0.1044
  C  C182  1  0.296330  0.173200  0.962200  1.0  0.3019
  C  C183  1  0.305900  0.173200  0.021220  1.0  -0.0932
  C  C184  1  0.230140  0.173200  0.877590  1.0  0.6919
  C  C185  1  0.759580  0.326800  0.940980  1.0  -0.1033
  C  C186  1  0.703670  0.326800  0.962200  1.0  0.3017
  C  C187  1  0.694100  0.326800  0.021220  1.0  -0.0924
  C  C188  1  0.769860  0.326800  0.877590  1.0  0.6897
  C  C189  1  0.259580  0.826800  0.440980  1.0  -0.1033
  C  C190  1  0.203670  0.826800  0.462200  1.0  0.3017
  C  C191  1  0.194100  0.826800  0.521220  1.0  -0.0924
  C  C192  1  0.269860  0.826800  0.377590  1.0  0.6897
  C  C193  1  0.826800  0.559020  0.240420  1.0  -0.1028
  C  C194  1  0.826800  0.537800  0.296330  1.0  0.3061
  C  C195  1  0.826800  0.478780  0.305900  1.0  -0.0881
  C  C196  1  0.826800  0.622410  0.230140  1.0  0.6845
  C  C197  1  0.326800  0.059020  0.740420  1.0  -0.1028
  C  C198  1  0.326800  0.037800  0.796330  1.0  0.3061
  C  C199  1  0.326800  0.978780  0.805900  1.0  -0.0881
  C  C200  1  0.326800  0.122410  0.730140  1.0  0.6845
  C  C201  1  0.173200  0.059020  0.259580  1.0  -0.1013
  C  C202  1  0.173200  0.037800  0.203670  1.0  0.3073
  C  C203  1  0.173200  0.978780  0.194100  1.0  -0.0877
  C  C204  1  0.173200  0.122410  0.269860  1.0  0.6851
  C  C205  1  0.673200  0.559020  0.759580  1.0  -0.1013
  C  C206  1  0.673200  0.537800  0.703670  1.0  0.3073
  C  C207  1  0.673200  0.478780  0.694100  1.0  -0.0877
  C  C208  1  0.673200  0.622410  0.769860  1.0  0.6851
  C  C209  1  0.673200  0.440980  0.740420  1.0  -0.1036
  C  C210  1  0.673200  0.462200  0.796330  1.0  0.3063
  C  C211  1  0.673200  0.521220  0.805900  1.0  -0.0895
  C  C212  1  0.673200  0.377590  0.730140  1.0  0.6837
  C  C213  1  0.173200  0.940980  0.240420  1.0  -0.1036
  C  C214  1  0.173200  0.962200  0.296330  1.0  0.3063
  C  C215  1  0.173200  0.021220  0.305900  1.0  -0.0895
  C  C216  1  0.173200  0.877590  0.230140  1.0  0.6837
  C  C217  1  0.326800  0.940980  0.759580  1.0  -0.1006
  C  C218  1  0.326800  0.962200  0.703670  1.0  0.3062
  C  C219  1  0.326800  0.021220  0.694100  1.0  -0.0902
  C  C220  1  0.326800  0.877590  0.769860  1.0  0.685
  C  C221  1  0.826800  0.440980  0.259580  1.0  -0.1006
  C  C222  1  0.826800  0.462200  0.203670  1.0  0.3062
  C  C223  1  0.826800  0.521220  0.194100  1.0  -0.0902
  C  C224  1  0.826800  0.377590  0.269860  1.0  0.685
  C  C225  1  0.559020  0.240420  0.826800  1.0  -0.1015
  C  C226  1  0.537800  0.296330  0.826800  1.0  0.3014
  C  C227  1  0.478780  0.305900  0.826800  1.0  -0.0928
  C  C228  1  0.622410  0.230140  0.826800  1.0  0.687
  C  C229  1  0.059020  0.740420  0.326800  1.0  -0.1015
  C  C230  1  0.037800  0.796330  0.326800  1.0  0.3014
  C  C231  1  0.978780  0.805900  0.326800  1.0  -0.0928
  C  C232  1  0.122410  0.730140  0.326800  1.0  0.687
  C  C233  1  0.059020  0.259580  0.173200  1.0  -0.1015
  C  C234  1  0.037800  0.203670  0.173200  1.0  0.3014
  C  C235  1  0.978780  0.194100  0.173200  1.0  -0.0917
  C  C236  1  0.122410  0.269860  0.173200  1.0  0.688
  C  C237  1  0.559020  0.759580  0.673200  1.0  -0.1015
  C  C238  1  0.537800  0.703670  0.673200  1.0  0.3014
  C  C239  1  0.478780  0.694100  0.673200  1.0  -0.0917
  C  C240  1  0.622410  0.769860  0.673200  1.0  0.688
  C  C241  1  0.440980  0.740420  0.673200  1.0  -0.1029
  C  C242  1  0.462200  0.796330  0.673200  1.0  0.3012
  C  C243  1  0.521220  0.805900  0.673200  1.0  -0.0944
  C  C244  1  0.377590  0.730140  0.673200  1.0  0.6872
  C  C245  1  0.940980  0.240420  0.173200  1.0  -0.1029
  C  C246  1  0.962200  0.296330  0.173200  1.0  0.3012
  C  C247  1  0.021220  0.305900  0.173200  1.0  -0.0944
  C  C248  1  0.877590  0.230140  0.173200  1.0  0.6872
  C  C249  1  0.940980  0.759580  0.326800  1.0  -0.1017
  C  C250  1  0.962200  0.703670  0.326800  1.0  0.3013
  C  C251  1  0.021220  0.694100  0.326800  1.0  -0.0942
  C  C252  1  0.877590  0.769860  0.326800  1.0  0.6895
  C  C253  1  0.440980  0.259580  0.826800  1.0  -0.1017
  C  C254  1  0.462200  0.203670  0.826800  1.0  0.3013
  C  C255  1  0.521220  0.194100  0.826800  1.0  -0.0942
  C  C256  1  0.377590  0.269860  0.826800  1.0  0.6895
  O  O257  1  0.567090  0.931490  0.391700  1.0  -0.3683
  O  O258  1  0.586380  0.020900  0.406000  1.0  -0.5889
  O  O259  1  0.576800  0.090290  0.323680  1.0  -0.6076
  O  O260  1  0.067090  0.431490  0.891700  1.0  -0.3683
  O  O261  1  0.086380  0.520900  0.906000  1.0  -0.5889
  O  O262  1  0.076800  0.590290  0.823680  1.0  -0.6076
  O  O263  1  0.932910  0.068510  0.891700  1.0  -0.3621
  O  O264  1  0.913620  0.979100  0.906000  1.0  -0.5874
  O  O265  1  0.923200  0.909710  0.823680  1.0  -0.6078
  O  O266  1  0.432910  0.568510  0.391700  1.0  -0.3621
  O  O267  1  0.413620  0.479100  0.406000  1.0  -0.5874
  O  O268  1  0.423200  0.409710  0.323680  1.0  -0.6078
  O  O269  1  0.432910  0.431490  0.108300  1.0  -0.364
  O  O270  1  0.413620  0.520900  0.094000  1.0  -0.5896
  O  O271  1  0.423200  0.590290  0.176320  1.0  -0.6083
  O  O272  1  0.932910  0.931490  0.608300  1.0  -0.364
  O  O273  1  0.913620  0.020900  0.594000  1.0  -0.5896
  O  O274  1  0.923200  0.090290  0.676320  1.0  -0.6083
  O  O275  1  0.067090  0.568510  0.608300  1.0  -0.3645
  O  O276  1  0.086380  0.479100  0.594000  1.0  -0.589
  O  O277  1  0.076800  0.409710  0.676320  1.0  -0.6087
  O  O278  1  0.567090  0.068510  0.108300  1.0  -0.3645
  O  O279  1  0.586380  0.979100  0.094000  1.0  -0.589
  O  O280  1  0.576800  0.909710  0.176320  1.0  -0.6087
  O  O281  1  0.391700  0.567090  0.931490  1.0  -0.3683
  O  O282  1  0.406000  0.586380  0.020900  1.0  -0.5847
  O  O283  1  0.323680  0.576800  0.090290  1.0  -0.6054
  O  O284  1  0.891700  0.067090  0.431490  1.0  -0.3683
  O  O285  1  0.906000  0.086380  0.520900  1.0  -0.5847
  O  O286  1  0.823680  0.076800  0.590290  1.0  -0.6054
  O  O287  1  0.891700  0.932910  0.068510  1.0  -0.3685
  O  O288  1  0.906000  0.913620  0.979100  1.0  -0.5856
  O  O289  1  0.823680  0.923200  0.909710  1.0  -0.6022
  O  O290  1  0.391700  0.432910  0.568510  1.0  -0.3685
  O  O291  1  0.406000  0.413620  0.479100  1.0  -0.5856
  O  O292  1  0.323680  0.423200  0.409710  1.0  -0.6022
  O  O293  1  0.108300  0.432910  0.431490  1.0  -0.37
  O  O294  1  0.094000  0.413620  0.520900  1.0  -0.5847
  O  O295  1  0.176320  0.423200  0.590290  1.0  -0.6058
  O  O296  1  0.608300  0.932910  0.931490  1.0  -0.37
  O  O297  1  0.594000  0.913620  0.020900  1.0  -0.5847
  O  O298  1  0.676320  0.923200  0.090290  1.0  -0.6058
  O  O299  1  0.608300  0.067090  0.568510  1.0  -0.3676
  O  O300  1  0.594000  0.086380  0.479100  1.0  -0.5855
  O  O301  1  0.676320  0.076800  0.409710  1.0  -0.6031
  O  O302  1  0.108300  0.567090  0.068510  1.0  -0.3676
  O  O303  1  0.094000  0.586380  0.979100  1.0  -0.5855
  O  O304  1  0.176320  0.576800  0.909710  1.0  -0.6031
  O  O305  1  0.931490  0.391700  0.567090  1.0  -0.3708
  O  O306  1  0.020900  0.406000  0.586380  1.0  -0.5832
  O  O307  1  0.090290  0.323680  0.576800  1.0  -0.6062
  O  O308  1  0.431490  0.891700  0.067090  1.0  -0.3708
  O  O309  1  0.520900  0.906000  0.086380  1.0  -0.5832
  O  O310  1  0.590290  0.823680  0.076800  1.0  -0.6062
  O  O311  1  0.068510  0.891700  0.932910  1.0  -0.3684
  O  O312  1  0.979100  0.906000  0.913620  1.0  -0.5833
  O  O313  1  0.909710  0.823680  0.923200  1.0  -0.6067
  O  O314  1  0.568510  0.391700  0.432910  1.0  -0.3684
  O  O315  1  0.479100  0.406000  0.413620  1.0  -0.5833
  O  O316  1  0.409710  0.323680  0.423200  1.0  -0.6067
  O  O317  1  0.431490  0.108300  0.432910  1.0  -0.3699
  O  O318  1  0.520900  0.094000  0.413620  1.0  -0.5832
  O  O319  1  0.590290  0.176320  0.423200  1.0  -0.6068
  O  O320  1  0.931490  0.608300  0.932910  1.0  -0.3699
  O  O321  1  0.020900  0.594000  0.913620  1.0  -0.5832
  O  O322  1  0.090290  0.676320  0.923200  1.0  -0.6068
  O  O323  1  0.568510  0.608300  0.067090  1.0  -0.37
  O  O324  1  0.479100  0.594000  0.086380  1.0  -0.5848
  O  O325  1  0.409710  0.676320  0.076800  1.0  -0.6081
  O  O326  1  0.068510  0.108300  0.567090  1.0  -0.37
  O  O327  1  0.979100  0.094000  0.586380  1.0  -0.5848
  O  O328  1  0.909710  0.176320  0.576800  1.0  -0.6081
  O  O329  1  0.181490  0.817090  0.641700  1.0  -0.3696
  O  O330  1  0.270900  0.836380  0.656000  1.0  -0.5843
  O  O331  1  0.340290  0.826800  0.573680  1.0  -0.606
  O  O332  1  0.681490  0.317090  0.141700  1.0  -0.3696
  O  O333  1  0.770900  0.336380  0.156000  1.0  -0.5843
  O  O334  1  0.840290  0.326800  0.073680  1.0  -0.606
  O  O335  1  0.318510  0.182910  0.141700  1.0  -0.3687
  O  O336  1  0.229100  0.163620  0.156000  1.0  -0.5863
  O  O337  1  0.159710  0.173200  0.073680  1.0  -0.607
  O  O338  1  0.818510  0.682910  0.641700  1.0  -0.3687
  O  O339  1  0.729100  0.663620  0.656000  1.0  -0.5863
  O  O340  1  0.659710  0.673200  0.573680  1.0  -0.607
  O  O341  1  0.681490  0.682910  0.358300  1.0  -0.3692
  O  O342  1  0.770900  0.663620  0.344000  1.0  -0.5854
  O  O343  1  0.840290  0.673200  0.426320  1.0  -0.6067
  O  O344  1  0.181490  0.182910  0.858300  1.0  -0.3692
  O  O345  1  0.270900  0.163620  0.844000  1.0  -0.5854
  O  O346  1  0.340290  0.173200  0.926320  1.0  -0.6067
  O  O347  1  0.818510  0.317090  0.858300  1.0  -0.368
  O  O348  1  0.729100  0.336380  0.844000  1.0  -0.5852
  O  O349  1  0.659710  0.326800  0.926320  1.0  -0.6081
  O  O350  1  0.318510  0.817090  0.358300  1.0  -0.368
  O  O351  1  0.229100  0.836380  0.344000  1.0  -0.5852
  O  O352  1  0.159710  0.826800  0.426320  1.0  -0.6081
  O  O353  1  0.817090  0.641700  0.181490  1.0  -0.3695
  O  O354  1  0.836380  0.656000  0.270900  1.0  -0.5874
  O  O355  1  0.826800  0.573680  0.340290  1.0  -0.6058
  O  O356  1  0.317090  0.141700  0.681490  1.0  -0.3695
  O  O357  1  0.336380  0.156000  0.770900  1.0  -0.5874
  O  O358  1  0.326800  0.073680  0.840290  1.0  -0.6058
  O  O359  1  0.182910  0.141700  0.318510  1.0  -0.3655
  O  O360  1  0.163620  0.156000  0.229100  1.0  -0.5872
  O  O361  1  0.173200  0.073680  0.159710  1.0  -0.6026
  O  O362  1  0.682910  0.641700  0.818510  1.0  -0.3655
  O  O363  1  0.663620  0.656000  0.729100  1.0  -0.5872
  O  O364  1  0.673200  0.573680  0.659710  1.0  -0.6026
  O  O365  1  0.682910  0.358300  0.681490  1.0  -0.3678
  O  O366  1  0.663620  0.344000  0.770900  1.0  -0.5875
  O  O367  1  0.673200  0.426320  0.840290  1.0  -0.6067
  O  O368  1  0.182910  0.858300  0.181490  1.0  -0.3678
  O  O369  1  0.163620  0.844000  0.270900  1.0  -0.5875
  O  O370  1  0.173200  0.926320  0.340290  1.0  -0.6067
  O  O371  1  0.317090  0.858300  0.818510  1.0  -0.3674
  O  O372  1  0.336380  0.844000  0.729100  1.0  -0.588
  O  O373  1  0.326800  0.926320  0.659710  1.0  -0.6045
  O  O374  1  0.817090  0.358300  0.318510  1.0  -0.3674
  O  O375  1  0.836380  0.344000  0.229100  1.0  -0.588
  O  O376  1  0.826800  0.426320  0.159710  1.0  -0.6045
  O  O377  1  0.641700  0.181490  0.817090  1.0  -0.3673
  O  O378  1  0.656000  0.270900  0.836380  1.0  -0.5842
  O  O379  1  0.573680  0.340290  0.826800  1.0  -0.6081
  O  O380  1  0.141700  0.681490  0.317090  1.0  -0.3673
  O  O381  1  0.156000  0.770900  0.336380  1.0  -0.5842
  O  O382  1  0.073680  0.840290  0.326800  1.0  -0.6081
  O  O383  1  0.141700  0.318510  0.182910  1.0  -0.3633
  O  O384  1  0.156000  0.229100  0.163620  1.0  -0.5837
  O  O385  1  0.073680  0.159710  0.173200  1.0  -0.6061
  O  O386  1  0.641700  0.818510  0.682910  1.0  -0.3633
  O  O387  1  0.656000  0.729100  0.663620  1.0  -0.5837
  O  O388  1  0.573680  0.659710  0.673200  1.0  -0.6061
  O  O389  1  0.358300  0.681490  0.682910  1.0  -0.3678
  O  O390  1  0.344000  0.770900  0.663620  1.0  -0.5849
  O  O391  1  0.426320  0.840290  0.673200  1.0  -0.6078
  O  O392  1  0.858300  0.181490  0.182910  1.0  -0.3678
  O  O393  1  0.844000  0.270900  0.163620  1.0  -0.5849
  O  O394  1  0.926320  0.340290  0.173200  1.0  -0.6078
  O  O395  1  0.858300  0.818510  0.317090  1.0  -0.3651
  O  O396  1  0.844000  0.729100  0.336380  1.0  -0.5832
  O  O397  1  0.926320  0.659710  0.326800  1.0  -0.6083
  O  O398  1  0.358300  0.318510  0.817090  1.0  -0.3651
  O  O399  1  0.344000  0.229100  0.836380  1.0  -0.5832
  O  O400  1  0.426320  0.159710  0.826800  1.0  -0.6083
