# generated using pymatgen
data_MnFe(CN)6
_symmetry_space_group_name_H-M   'P 1'
_cell_length_a   8.53100000
_cell_length_b   13.37600000
_cell_length_c   13.63100000
_cell_angle_alpha   90.00000000
_cell_angle_beta   90.00000000
_cell_angle_gamma   90.00000000
_symmetry_Int_Tables_number   1
_chemical_formula_structural   MnFe(CN)6
_chemical_formula_sum   'Mn4 Fe4 C24 N24'
_cell_volume   1555.44235194
_cell_formula_units_Z   4
loop_
 _symmetry_equiv_pos_site_id
 _symmetry_equiv_pos_as_xyz
  1  'x, y, z'
loop_
 _atom_site_type_symbol
 _atom_site_label
 _atom_site_symmetry_multiplicity
 _atom_site_fract_x
 _atom_site_fract_y
 _atom_site_fract_z
 _atom_site_occupancy
 _atom_site_charge
  Mn  Mn1  1  0.815010  0.750000  0.775400  1.0  1.3245
  Mn  Mn2  1  0.315010  0.250000  0.724600  1.0  1.3241
  Mn  Mn3  1  0.184990  0.250000  0.224600  1.0  1.3243
  Mn  Mn4  1  0.684990  0.750000  0.275400  1.0  1.3247
  Fe  Fe5  1  0.500000  0.000000  0.000000  1.0  -0.2985
  Fe  Fe6  1  0.000000  0.000000  0.500000  1.0  -0.2985
  Fe  Fe7  1  0.500000  0.500000  0.000000  1.0  -0.2985
  Fe  Fe8  1  0.000000  0.500000  0.500000  1.0  -0.2985
  C  C9  1  0.626700  0.915530  0.915460  1.0  0.3104
  C  C10  1  0.686400  0.075430  0.030670  1.0  0.1813
  C  C11  1  0.550900  0.914590  0.110440  1.0  0.3076
  C  C12  1  0.126700  0.084470  0.584540  1.0  0.3081
  C  C13  1  0.186400  0.924570  0.469330  1.0  0.1819
  C  C14  1  0.050900  0.085410  0.389560  1.0  0.3058
  C  C15  1  0.373300  0.415530  0.084540  1.0  0.3088
  C  C16  1  0.313600  0.575430  0.969330  1.0  0.1807
  C  C17  1  0.449100  0.414590  0.889560  1.0  0.3067
  C  C18  1  0.873300  0.584470  0.415460  1.0  0.3089
  C  C19  1  0.813600  0.424570  0.530670  1.0  0.1801
  C  C20  1  0.949100  0.585410  0.610440  1.0  0.307
  C  C21  1  0.373300  0.084470  0.084540  1.0  0.3076
  C  C22  1  0.313600  0.924570  0.969330  1.0  0.1764
  C  C23  1  0.449100  0.085410  0.889560  1.0  0.3059
  C  C24  1  0.873300  0.915530  0.415460  1.0  0.31
  C  C25  1  0.813600  0.075430  0.530670  1.0  0.1763
  C  C26  1  0.949100  0.914590  0.610440  1.0  0.3073
  C  C27  1  0.626700  0.584470  0.915460  1.0  0.3092
  C  C28  1  0.686400  0.424570  0.030670  1.0  0.178
  C  C29  1  0.550900  0.585410  0.110440  1.0  0.3069
  C  C30  1  0.126700  0.415530  0.584540  1.0  0.3097
  C  C31  1  0.186400  0.575430  0.469330  1.0  0.1778
  C  C32  1  0.050900  0.414590  0.389560  1.0  0.3062
  N  N33  1  0.701600  0.865910  0.865510  1.0  -0.4921
  N  N34  1  0.585400  0.864090  0.174370  1.0  -0.486
  N  N35  1  0.797300  0.117930  0.049230  1.0  -0.3295
  N  N36  1  0.201600  0.134090  0.634490  1.0  -0.4918
  N  N37  1  0.085400  0.135910  0.325630  1.0  -0.4874
  N  N38  1  0.297300  0.882070  0.450770  1.0  -0.3291
  N  N39  1  0.298400  0.365910  0.134490  1.0  -0.4924
  N  N40  1  0.414600  0.364090  0.825630  1.0  -0.4868
  N  N41  1  0.202700  0.617930  0.950770  1.0  -0.3287
  N  N42  1  0.798400  0.634090  0.365510  1.0  -0.4925
  N  N43  1  0.914600  0.635910  0.674370  1.0  -0.486
  N  N44  1  0.702700  0.382070  0.549230  1.0  -0.3289
  N  N45  1  0.298400  0.134090  0.134490  1.0  -0.4926
  N  N46  1  0.414600  0.135910  0.825630  1.0  -0.487
  N  N47  1  0.202700  0.882070  0.950770  1.0  -0.3288
  N  N48  1  0.798400  0.865910  0.365510  1.0  -0.4927
  N  N49  1  0.914600  0.864090  0.674370  1.0  -0.4855
  N  N50  1  0.702700  0.117930  0.549230  1.0  -0.3289
  N  N51  1  0.701600  0.634090  0.865510  1.0  -0.492
  N  N52  1  0.585400  0.635910  0.174370  1.0  -0.4864
  N  N53  1  0.797300  0.382070  0.049230  1.0  -0.3293
  N  N54  1  0.201600  0.365910  0.634490  1.0  -0.4916
  N  N55  1  0.085400  0.364090  0.325630  1.0  -0.4872
  N  N56  1  0.297300  0.617930  0.450770  1.0  -0.3291
