# generated using pymatgen
data_CoH9C16N2O4F3
_symmetry_space_group_name_H-M   'P 1'
_cell_length_a   9.73530000
_cell_length_b   17.74350000
_cell_length_c   11.76450000
_cell_angle_alpha   90.00000000
_cell_angle_beta   104.07000000
_cell_angle_gamma   90.00000000
_symmetry_Int_Tables_number   1
_chemical_formula_structural   CoH9C16N2O4F3
_chemical_formula_sum   'Co4 H36 C64 N8 O16 F12'
_cell_volume   1971.21314731
_cell_formula_units_Z   4
loop_
 _symmetry_equiv_pos_site_id
 _symmetry_equiv_pos_as_xyz
  1  'x, y, z'
loop_
 _atom_site_type_symbol
 _atom_site_label
 _atom_site_symmetry_multiplicity
 _atom_site_fract_x
 _atom_site_fract_y
 _atom_site_fract_z
 _atom_site_occupancy
 _atom_site_charge
  Co  Co1  1  0.000000  0.000000  0.000000  1.0  0.9079
  Co  Co2  1  0.000000  0.500000  0.500000  1.0  0.9079
  Co  Co3  1  0.500000  0.500000  0.500000  1.0  0.759
  Co  Co4  1  0.500000  0.000000  0.000000  1.0  0.759
  H  H5  1  0.876100  0.153200  0.063400  1.0  0.067
  H  H6  1  0.267700  0.085600  0.132300  1.0  0.0664
  H  H7  1  0.303400  0.321000  0.283800  1.0  0.0887
  H  H8  1  0.037600  0.364800  0.294400  1.0  0.0892
  H  H9  1  0.505100  0.672700  0.527200  1.0  0.0652
  H  H10  1  0.340700  0.550200  0.253500  1.0  0.0971
  H  H11  1  0.434900  0.869700  0.269200  1.0  0.0893
  H  H12  1  0.429500  0.781000  0.427200  1.0  0.1173
  H  H13  1  0.194200  0.796800  0.151300  1.0  0.0789
  H  H14  1  0.123900  0.653200  0.436600  1.0  0.0674
  H  H15  1  0.732300  0.585600  0.367700  1.0  0.0654
  H  H16  1  0.696600  0.821000  0.216200  1.0  0.0883
  H  H17  1  0.962400  0.864800  0.205600  1.0  0.0891
  H  H18  1  0.494900  0.172700  0.972800  1.0  0.0651
  H  H19  1  0.659300  0.050200  0.246500  1.0  0.0967
  H  H20  1  0.565100  0.369700  0.230800  1.0  0.0894
  H  H21  1  0.570500  0.281000  0.072800  1.0  0.1173
  H  H22  1  0.805800  0.296800  0.348700  1.0  0.0799
  H  H23  1  0.123900  0.846800  0.936600  1.0  0.0673
  H  H24  1  0.732300  0.914400  0.867700  1.0  0.0656
  H  H25  1  0.696600  0.679000  0.716200  1.0  0.088
  H  H26  1  0.962400  0.635200  0.705600  1.0  0.0893
  H  H27  1  0.494900  0.327300  0.472800  1.0  0.0647
  H  H28  1  0.659300  0.449800  0.746500  1.0  0.0968
  H  H29  1  0.565100  0.130300  0.730800  1.0  0.0895
  H  H30  1  0.570500  0.219000  0.572800  1.0  0.1167
  H  H31  1  0.805800  0.203200  0.848700  1.0  0.0797
  H  H32  1  0.876100  0.346800  0.563400  1.0  0.067
  H  H33  1  0.267700  0.414400  0.632300  1.0  0.066
  H  H34  1  0.303400  0.179000  0.783800  1.0  0.0885
  H  H35  1  0.037600  0.135200  0.794400  1.0  0.0891
  H  H36  1  0.505100  0.827300  0.027200  1.0  0.0653
  H  H37  1  0.340700  0.949800  0.753500  1.0  0.0973
  H  H38  1  0.434900  0.630300  0.769200  1.0  0.0894
  H  H39  1  0.429500  0.719000  0.927200  1.0  0.1172
  H  H40  1  0.194200  0.703200  0.651300  1.0  0.0791
  C  C41  1  0.971600  0.161900  0.096500  1.0  0.1297
  C  C42  1  0.200400  0.121620  0.137900  1.0  0.1588
  C  C43  1  0.244500  0.187750  0.197300  1.0  0.2793
  C  C44  1  0.151200  0.245110  0.206400  1.0  -0.1512
  C  C45  1  0.010800  0.229910  0.151600  1.0  0.3648
  C  C46  1  0.205900  0.314300  0.268800  1.0  -0.0978
  C  C47  1  0.210700  0.436120  0.368620  1.0  0.6885
  C  C48  1  0.135400  0.368550  0.306500  1.0  -0.1627
  C  C49  1  0.310800  0.661000  0.226700  1.0  0.2931
  C  C50  1  0.455100  0.669200  0.449200  1.0  0.1685
  C  C51  1  0.358900  0.597050  0.289600  1.0  0.1429
  C  C52  1  0.348000  0.865150  0.215100  1.0  -0.1441
  C  C53  1  0.409700  0.734790  0.389400  1.0  -0.2127
  C  C54  1  0.334700  0.732450  0.273300  1.0  0.0453
  C  C55  1  0.288500  0.932000  0.142200  1.0  0.6994
  C  C56  1  0.281300  0.800090  0.205300  1.0  -0.1116
  C  C57  1  0.028400  0.661900  0.403500  1.0  0.1286
  C  C58  1  0.799600  0.621620  0.362100  1.0  0.1594
  C  C59  1  0.755500  0.687750  0.302700  1.0  0.2787
  C  C60  1  0.848800  0.745110  0.293600  1.0  -0.1511
  C  C61  1  0.989200  0.729910  0.348400  1.0  0.3656
  C  C62  1  0.794100  0.814300  0.231200  1.0  -0.1005
  C  C63  1  0.789300  0.936120  0.131380  1.0  0.6878
  C  C64  1  0.864600  0.868550  0.193500  1.0  -0.1633
  C  C65  1  0.689200  0.161000  0.273300  1.0  0.2929
  C  C66  1  0.544900  0.169200  0.050800  1.0  0.1693
  C  C67  1  0.641100  0.097050  0.210400  1.0  0.1415
  C  C68  1  0.652000  0.365150  0.284900  1.0  -0.1428
  C  C69  1  0.590300  0.234790  0.110600  1.0  -0.2123
  C  C70  1  0.665300  0.232450  0.226700  1.0  0.0459
  C  C71  1  0.711500  0.432000  0.357800  1.0  0.701
  C  C72  1  0.718700  0.300090  0.294700  1.0  -0.1124
  C  C73  1  0.028400  0.838100  0.903500  1.0  0.1281
  C  C74  1  0.799600  0.878380  0.862100  1.0  0.1595
  C  C75  1  0.755500  0.812250  0.802700  1.0  0.2784
  C  C76  1  0.848800  0.754890  0.793600  1.0  -0.1508
  C  C77  1  0.989200  0.770090  0.848400  1.0  0.3657
  C  C78  1  0.794100  0.685700  0.731200  1.0  -0.1004
  C  C79  1  0.789300  0.563880  0.631380  1.0  0.6876
  C  C80  1  0.864600  0.631450  0.693500  1.0  -0.1633
  C  C81  1  0.689200  0.339000  0.773300  1.0  0.2925
  C  C82  1  0.544900  0.330800  0.550800  1.0  0.1698
  C  C83  1  0.641100  0.402950  0.710400  1.0  0.139
  C  C84  1  0.652000  0.134850  0.784900  1.0  -0.1421
  C  C85  1  0.590300  0.265210  0.610600  1.0  -0.2126
  C  C86  1  0.665300  0.267550  0.726700  1.0  0.046
  C  C87  1  0.711500  0.068000  0.857800  1.0  0.701
  C  C88  1  0.718700  0.199910  0.794700  1.0  -0.112
  C  C89  1  0.971600  0.338100  0.596500  1.0  0.1296
  C  C90  1  0.200400  0.378380  0.637900  1.0  0.1596
  C  C91  1  0.244500  0.312250  0.697300  1.0  0.2794
  C  C92  1  0.151200  0.254890  0.706400  1.0  -0.1509
  C  C93  1  0.010800  0.270090  0.651600  1.0  0.3649
  C  C94  1  0.205900  0.185700  0.768800  1.0  -0.098
  C  C95  1  0.210700  0.063880  0.868620  1.0  0.6883
  C  C96  1  0.135400  0.131450  0.806500  1.0  -0.1624
  C  C97  1  0.310800  0.839000  0.726700  1.0  0.2913
  C  C98  1  0.455100  0.830800  0.949200  1.0  0.169
  C  C99  1  0.358900  0.902950  0.789600  1.0  0.1406
  C  C100  1  0.348000  0.634850  0.715100  1.0  -0.1436
  C  C101  1  0.409700  0.765210  0.889400  1.0  -0.2131
  C  C102  1  0.334700  0.767550  0.773300  1.0  0.0455
  C  C103  1  0.288500  0.568000  0.642200  1.0  0.7007
  C  C104  1  0.281300  0.699910  0.705300  1.0  -0.1113
  N  N105  1  0.064530  0.107700  0.088290  1.0  -0.3291
  N  N106  1  0.431200  0.600720  0.401020  1.0  -0.3455
  N  N107  1  0.935470  0.607700  0.411710  1.0  -0.3281
  N  N108  1  0.568800  0.100720  0.098980  1.0  -0.3453
  N  N109  1  0.935470  0.892300  0.911710  1.0  -0.3302
  N  N110  1  0.568800  0.399280  0.598980  1.0  -0.3468
  N  N111  1  0.064530  0.392300  0.588290  1.0  -0.3302
  N  N112  1  0.431200  0.899280  0.901020  1.0  -0.3468
  O  O113  1  0.343090  0.435910  0.390540  1.0  -0.5805
  O  O114  1  0.136070  0.488900  0.392110  1.0  -0.6062
  O  O115  1  0.155830  0.937940  0.115140  1.0  -0.6184
  O  O116  1  0.374760  0.977320  0.117050  1.0  -0.6051
  O  O117  1  0.656910  0.935910  0.109460  1.0  -0.5795
  O  O118  1  0.863930  0.988900  0.107890  1.0  -0.606
  O  O119  1  0.844170  0.437940  0.384860  1.0  -0.6185
  O  O120  1  0.625240  0.477320  0.382950  1.0  -0.6045
  O  O121  1  0.656910  0.564090  0.609460  1.0  -0.5795
  O  O122  1  0.863930  0.511100  0.607890  1.0  -0.6054
  O  O123  1  0.844170  0.062060  0.884860  1.0  -0.6182
  O  O124  1  0.625240  0.022680  0.882950  1.0  -0.6046
  O  O125  1  0.343090  0.064090  0.890540  1.0  -0.5804
  O  O126  1  0.136070  0.011100  0.892110  1.0  -0.6061
  O  O127  1  0.155830  0.562060  0.615140  1.0  -0.6184
  O  O128  1  0.374760  0.522680  0.617050  1.0  -0.6042
  F  F129  1  0.377500  0.193830  0.255300  1.0  -0.2205
  F  F130  1  0.239000  0.653150  0.113540  1.0  -0.1562
  F  F131  1  0.916400  0.282000  0.144100  1.0  -0.2155
  F  F132  1  0.622500  0.693830  0.244700  1.0  -0.2215
  F  F133  1  0.761000  0.153150  0.386460  1.0  -0.1588
  F  F134  1  0.083600  0.782000  0.355900  1.0  -0.2172
  F  F135  1  0.622500  0.806170  0.744700  1.0  -0.2215
  F  F136  1  0.761000  0.346850  0.886460  1.0  -0.1589
  F  F137  1  0.083600  0.718000  0.855900  1.0  -0.2185
  F  F138  1  0.377500  0.306170  0.755300  1.0  -0.2208
  F  F139  1  0.239000  0.846850  0.613540  1.0  -0.1582
  F  F140  1  0.916400  0.218000  0.644100  1.0  -0.2168
