# generated using pymatgen
data_Cd3H28C48N6(O3F2)4
_symmetry_space_group_name_H-M   'P 1'
_cell_length_a   10.69450000
_cell_length_b   18.57600000
_cell_length_c   14.92080000
_cell_angle_alpha   90.00000000
_cell_angle_beta   107.75800000
_cell_angle_gamma   90.00000000
_symmetry_Int_Tables_number   1
_chemical_formula_structural   Cd3H28C48N6(O3F2)4
_chemical_formula_sum   'Cd6 H56 C96 N12 O24 F16'
_cell_volume   2822.94783091
_cell_formula_units_Z   2
loop_
 _symmetry_equiv_pos_site_id
 _symmetry_equiv_pos_as_xyz
  1  'x, y, z'
loop_
 _atom_site_type_symbol
 _atom_site_label
 _atom_site_symmetry_multiplicity
 _atom_site_fract_x
 _atom_site_fract_y
 _atom_site_fract_z
 _atom_site_occupancy
 _atom_site_charge
  Cd  Cd1  1  0.670550  0.011330  0.670120  1.0  0.9942
  Cd  Cd2  1  0.329450  0.511330  0.829880  1.0  0.995
  Cd  Cd3  1  0.329450  0.988670  0.329880  1.0  0.9948
  Cd  Cd4  1  0.670550  0.488670  0.170120  1.0  0.994
  Cd  Cd5  1  0.000000  0.000000  0.000000  1.0  0.9849
  Cd  Cd6  1  0.000000  0.500000  0.500000  1.0  0.9849
  H  H7  1  0.707900  0.825700  0.959000  1.0  0.104
  H  H8  1  0.115100  0.135300  0.869400  1.0  0.089
  H  H9  1  0.548500  0.886500  0.796500  1.0  0.0866
  H  H10  1  0.909400  0.208400  0.746000  1.0  0.0851
  H  H11  1  0.614400  0.323700  0.908100  1.0  0.0939
  H  H12  1  0.084900  0.160400  0.084000  1.0  0.0776
  H  H13  1  0.820400  0.363400  0.060200  1.0  0.0879
  H  H14  1  0.650600  0.208300  0.942500  1.0  0.1163
  H  H15  1  0.255600  0.229700  0.826200  1.0  0.1133
  H  H16  1  0.735000  0.095600  0.940200  1.0  0.0748
  H  H17  1  0.366600  0.336300  0.844300  1.0  0.0806
  H  H18  1  0.598200  0.587700  0.944900  1.0  0.0826
  H  H19  1  0.308400  0.673700  0.748900  1.0  0.0926
  H  H20  1  0.042600  0.444900  0.806300  1.0  0.0834
  H  H21  1  0.292100  0.325700  0.541000  1.0  0.1036
  H  H22  1  0.884900  0.635300  0.630600  1.0  0.0891
  H  H23  1  0.451500  0.386500  0.703500  1.0  0.0873
  H  H24  1  0.090600  0.708400  0.754000  1.0  0.085
  H  H25  1  0.385600  0.823700  0.591900  1.0  0.0945
  H  H26  1  0.915100  0.660400  0.416000  1.0  0.0779
  H  H27  1  0.179600  0.863400  0.439800  1.0  0.0887
  H  H28  1  0.349400  0.708300  0.557500  1.0  0.1171
  H  H29  1  0.744400  0.729700  0.673800  1.0  0.1128
  H  H30  1  0.265000  0.595600  0.559800  1.0  0.0745
  H  H31  1  0.633400  0.836300  0.655700  1.0  0.0813
  H  H32  1  0.401800  0.087700  0.555100  1.0  0.0824
  H  H33  1  0.691600  0.173700  0.751100  1.0  0.0924
  H  H34  1  0.957400  0.944900  0.693700  1.0  0.0829
  H  H35  1  0.292100  0.174300  0.041000  1.0  0.1037
  H  H36  1  0.884900  0.864700  0.130600  1.0  0.0874
  H  H37  1  0.451500  0.113500  0.203500  1.0  0.0872
  H  H38  1  0.090600  0.791600  0.254000  1.0  0.0851
  H  H39  1  0.385600  0.676300  0.091900  1.0  0.0946
  H  H40  1  0.915100  0.839600  0.916000  1.0  0.078
  H  H41  1  0.179600  0.636600  0.939800  1.0  0.0886
  H  H42  1  0.349400  0.791700  0.057500  1.0  0.1168
  H  H43  1  0.744400  0.770300  0.173800  1.0  0.1133
  H  H44  1  0.265000  0.904400  0.059800  1.0  0.0749
  H  H45  1  0.633400  0.663700  0.155700  1.0  0.0813
  H  H46  1  0.401800  0.412300  0.055100  1.0  0.0823
  H  H47  1  0.691600  0.326300  0.251100  1.0  0.0921
  H  H48  1  0.957400  0.555100  0.193700  1.0  0.0824
  H  H49  1  0.707900  0.674300  0.459000  1.0  0.1045
  H  H50  1  0.115100  0.364700  0.369400  1.0  0.0877
  H  H51  1  0.548500  0.613500  0.296500  1.0  0.0863
  H  H52  1  0.909400  0.291600  0.246000  1.0  0.0848
  H  H53  1  0.614400  0.176300  0.408100  1.0  0.094
  H  H54  1  0.084900  0.339600  0.584000  1.0  0.0776
  H  H55  1  0.820400  0.136600  0.560200  1.0  0.0877
  H  H56  1  0.650600  0.291700  0.442500  1.0  0.1163
  H  H57  1  0.255600  0.270300  0.326200  1.0  0.1135
  H  H58  1  0.735000  0.404400  0.440200  1.0  0.0753
  H  H59  1  0.366600  0.163700  0.344300  1.0  0.0804
  H  H60  1  0.598200  0.912300  0.444900  1.0  0.0818
  H  H61  1  0.308400  0.826300  0.248900  1.0  0.0926
  H  H62  1  0.042600  0.055100  0.306300  1.0  0.0831
  C  C63  1  0.704600  0.949500  0.881100  1.0  0.6972
  C  C64  1  0.074100  0.271100  0.805300  1.0  -0.0011
  C  C65  1  0.611700  0.431300  0.948300  1.0  0.7081
  C  C66  1  0.569300  0.755600  0.879800  1.0  -0.1126
  C  C67  1  0.949400  0.074900  0.794200  1.0  0.7318
  C  C68  1  0.640000  0.824200  0.902500  1.0  -0.1225
  C  C69  1  0.950700  0.239800  0.053700  1.0  0.2925
  C  C70  1  0.033600  0.139900  0.824100  1.0  -0.1795
  C  C71  1  0.618600  0.884600  0.851600  1.0  -0.1477
  C  C72  1  0.994400  0.204800  0.786900  1.0  -0.1451
  C  C73  1  0.663100  0.356300  0.952500  1.0  -0.2084
  C  C74  1  0.996700  0.170100  0.053800  1.0  0.1335
  C  C75  1  0.772000  0.332100  0.013900  1.0  -0.1761
  C  C76  1  0.624400  0.693500  0.929300  1.0  0.3884
  C  C77  1  0.739900  0.200600  0.970700  1.0  -0.1853
  C  C78  1  0.820500  0.257900  0.012600  1.0  -0.0288
  C  C79  1  0.209600  0.272700  0.821900  1.0  -0.1864
  C  C80  1  0.447800  0.745700  0.813800  1.0  0.3071
  C  C81  1  0.791200  0.132300  0.970400  1.0  0.1826
  C  C82  1  0.276000  0.337300  0.832100  1.0  0.1807
  C  C83  1  0.559000  0.627900  0.910600  1.0  0.1478
  C  C84  1  0.388100  0.678400  0.796200  1.0  0.1374
  C  C85  1  0.017200  0.338500  0.800900  1.0  0.2982
  C  C86  1  0.086600  0.401300  0.810400  1.0  0.1504
  C  C87  1  0.295400  0.449500  0.618900  1.0  0.6992
  C  C88  1  0.925900  0.771100  0.694700  1.0  -0.0013
  C  C89  1  0.388300  0.931300  0.551700  1.0  0.7059
  C  C90  1  0.430700  0.255600  0.620200  1.0  -0.1128
  C  C91  1  0.050600  0.574900  0.705800  1.0  0.731
  C  C92  1  0.360000  0.324200  0.597500  1.0  -0.1262
  C  C93  1  0.049300  0.739800  0.446300  1.0  0.2927
  C  C94  1  0.966400  0.639900  0.675900  1.0  -0.179
  C  C95  1  0.381400  0.384600  0.648400  1.0  -0.1472
  C  C96  1  0.005600  0.704800  0.713100  1.0  -0.1483
  C  C97  1  0.336900  0.856300  0.547500  1.0  -0.2053
  C  C98  1  0.003300  0.670100  0.446200  1.0  0.1333
  C  C99  1  0.228000  0.832100  0.486100  1.0  -0.1769
  C  C100  1  0.375600  0.193500  0.570700  1.0  0.3886
  C  C101  1  0.260100  0.700600  0.529300  1.0  -0.1842
  C  C102  1  0.179500  0.757900  0.487400  1.0  -0.0284
  C  C103  1  0.790400  0.772700  0.678100  1.0  -0.1848
  C  C104  1  0.552200  0.245700  0.686200  1.0  0.3059
  C  C105  1  0.208800  0.632300  0.529600  1.0  0.1817
  C  C106  1  0.724000  0.837300  0.667900  1.0  0.1802
  C  C107  1  0.441000  0.127900  0.589400  1.0  0.1472
  C  C108  1  0.611900  0.178400  0.703800  1.0  0.1384
  C  C109  1  0.982800  0.838500  0.699100  1.0  0.3006
  C  C110  1  0.913400  0.901300  0.689600  1.0  0.1503
  C  C111  1  0.295400  0.050500  0.118900  1.0  0.6994
  C  C112  1  0.925900  0.728900  0.194700  1.0  -0.0011
  C  C113  1  0.388300  0.568700  0.051700  1.0  0.7055
  C  C114  1  0.430700  0.244400  0.120200  1.0  -0.1129
  C  C115  1  0.050600  0.925100  0.205800  1.0  0.7305
  C  C116  1  0.360000  0.175800  0.097500  1.0  -0.1254
  C  C117  1  0.049300  0.760200  0.946300  1.0  0.2927
  C  C118  1  0.966400  0.860100  0.175900  1.0  -0.1792
  C  C119  1  0.381400  0.115400  0.148400  1.0  -0.1479
  C  C120  1  0.005600  0.795200  0.213100  1.0  -0.1479
  C  C121  1  0.336900  0.643700  0.047500  1.0  -0.2063
  C  C122  1  0.003300  0.829900  0.946200  1.0  0.1328
  C  C123  1  0.228000  0.667900  0.986100  1.0  -0.1773
  C  C124  1  0.375600  0.306500  0.070700  1.0  0.3883
  C  C125  1  0.260100  0.799400  0.029300  1.0  -0.1841
  C  C126  1  0.179500  0.742100  0.987400  1.0  -0.0284
  C  C127  1  0.790400  0.727300  0.178100  1.0  -0.1859
  C  C128  1  0.552200  0.254300  0.186200  1.0  0.3061
  C  C129  1  0.208800  0.867700  0.029600  1.0  0.1827
  C  C130  1  0.724000  0.662700  0.167900  1.0  0.1804
  C  C131  1  0.441000  0.372100  0.089400  1.0  0.1469
  C  C132  1  0.611900  0.321600  0.203800  1.0  0.138
  C  C133  1  0.982800  0.661500  0.199100  1.0  0.3002
  C  C134  1  0.913400  0.598700  0.189600  1.0  0.1496
  C  C135  1  0.704600  0.550500  0.381100  1.0  0.6974
  C  C136  1  0.074100  0.228900  0.305300  1.0  -0.0009
  C  C137  1  0.611700  0.068700  0.448300  1.0  0.7065
  C  C138  1  0.569300  0.744400  0.379800  1.0  -0.1128
  C  C139  1  0.949400  0.425100  0.294200  1.0  0.7312
  C  C140  1  0.640000  0.675800  0.402500  1.0  -0.122
  C  C141  1  0.950700  0.260200  0.553700  1.0  0.2928
  C  C142  1  0.033600  0.360100  0.324100  1.0  -0.179
  C  C143  1  0.618600  0.615400  0.351600  1.0  -0.147
  C  C144  1  0.994400  0.295200  0.286900  1.0  -0.1453
  C  C145  1  0.663100  0.143700  0.452500  1.0  -0.2116
  C  C146  1  0.996700  0.329900  0.553800  1.0  0.1334
  C  C147  1  0.772000  0.167900  0.513900  1.0  -0.1761
  C  C148  1  0.624400  0.806500  0.429300  1.0  0.3879
  C  C149  1  0.739900  0.299400  0.470700  1.0  -0.1851
  C  C150  1  0.820500  0.242100  0.512600  1.0  -0.0287
  C  C151  1  0.209600  0.227300  0.321900  1.0  -0.1867
  C  C152  1  0.447800  0.754300  0.313800  1.0  0.3069
  C  C153  1  0.791200  0.367700  0.470400  1.0  0.1828
  C  C154  1  0.276000  0.162700  0.332100  1.0  0.1805
  C  C155  1  0.559000  0.872100  0.410600  1.0  0.1477
  C  C156  1  0.388100  0.821600  0.296200  1.0  0.1379
  C  C157  1  0.017200  0.161500  0.300900  1.0  0.2978
  C  C158  1  0.086600  0.098700  0.310400  1.0  0.1507
  N  N159  1  0.917600  0.116500  0.011500  1.0  -0.353
  N  N160  1  0.443000  0.620100  0.845900  1.0  -0.3521
  N  N161  1  0.216600  0.401500  0.825400  1.0  -0.3508
  N  N162  1  0.082400  0.616500  0.488500  1.0  -0.3538
  N  N163  1  0.557000  0.120100  0.654100  1.0  -0.3497
  N  N164  1  0.783400  0.901500  0.674600  1.0  -0.3522
  N  N165  1  0.082400  0.883500  0.988500  1.0  -0.3532
  N  N166  1  0.557000  0.379900  0.154100  1.0  -0.3514
  N  N167  1  0.783400  0.598500  0.174600  1.0  -0.3523
  N  N168  1  0.917600  0.383500  0.511500  1.0  -0.3535
  N  N169  1  0.443000  0.879900  0.345900  1.0  -0.3508
  N  N170  1  0.216600  0.098500  0.325400  1.0  -0.35
  O  O171  1  0.678700  0.002450  0.825300  1.0  -0.6784
  O  O172  1  0.664700  0.474670  0.013600  1.0  -0.6681
  O  O173  1  0.980600  0.019260  0.845000  1.0  -0.6747
  O  O174  1  0.855500  0.078840  0.719900  1.0  -0.6002
  O  O175  1  0.795500  0.946810  0.957600  1.0  -0.6338
  O  O176  1  0.517500  0.444850  0.876000  1.0  -0.6524
  O  O177  1  0.321300  0.502450  0.674700  1.0  -0.6777
  O  O178  1  0.335300  0.974670  0.486400  1.0  -0.6675
  O  O179  1  0.019400  0.519260  0.655000  1.0  -0.6749
  O  O180  1  0.144500  0.578840  0.780100  1.0  -0.5997
  O  O181  1  0.204500  0.446810  0.542400  1.0  -0.6333
  O  O182  1  0.482500  0.944850  0.624000  1.0  -0.6514
  O  O183  1  0.321300  0.997550  0.174700  1.0  -0.6772
  O  O184  1  0.335300  0.525330  0.986400  1.0  -0.6679
  O  O185  1  0.019400  0.980740  0.155000  1.0  -0.676
  O  O186  1  0.144500  0.921160  0.280100  1.0  -0.6
  O  O187  1  0.204500  0.053190  0.042400  1.0  -0.6336
  O  O188  1  0.482500  0.555150  0.124000  1.0  -0.6516
  O  O189  1  0.678700  0.497550  0.325300  1.0  -0.6772
  O  O190  1  0.664700  0.025330  0.513600  1.0  -0.6681
  O  O191  1  0.980600  0.480740  0.345000  1.0  -0.6758
  O  O192  1  0.855500  0.421160  0.219900  1.0  -0.6
  O  O193  1  0.795500  0.553190  0.457600  1.0  -0.6336
  O  O194  1  0.517500  0.055150  0.376000  1.0  -0.6531
  F  F195  1  0.038800  0.291470  0.094600  1.0  -0.1462
  F  F196  1  0.385000  0.799700  0.760000  1.0  -0.1693
  F  F197  1  0.885600  0.342300  0.784800  1.0  -0.1521
  F  F198  1  0.743100  0.694300  0.980300  1.0  -0.1859
  F  F199  1  0.961200  0.791470  0.405400  1.0  -0.145
  F  F200  1  0.615000  0.299700  0.740000  1.0  -0.169
  F  F201  1  0.114400  0.842300  0.715200  1.0  -0.1526
  F  F202  1  0.256900  0.194300  0.519700  1.0  -0.1841
  F  F203  1  0.961200  0.708530  0.905400  1.0  -0.1449
  F  F204  1  0.615000  0.200300  0.240000  1.0  -0.1692
  F  F205  1  0.114400  0.657700  0.215200  1.0  -0.1528
  F  F206  1  0.256900  0.305700  0.019700  1.0  -0.184
  F  F207  1  0.038800  0.208530  0.594600  1.0  -0.1451
  F  F208  1  0.385000  0.700300  0.260000  1.0  -0.1695
  F  F209  1  0.885600  0.157700  0.284800  1.0  -0.1518
  F  F210  1  0.743100  0.805700  0.480300  1.0  -0.1862
