# generated using pymatgen
data_KMn5Mo3H3C23N22
_symmetry_space_group_name_H-M   'P 1'
_cell_length_a   7.52530000
_cell_length_b   34.22570000
_cell_length_c   19.52510000
_cell_angle_alpha   90.00000000
_cell_angle_beta   90.48300000
_cell_angle_gamma   90.00000000
_symmetry_Int_Tables_number   1
_chemical_formula_structural   KMn5Mo3H3C23N22
_chemical_formula_sum   'K4 Mn20 Mo12 H12 C92 N88'
_cell_volume   5028.67991239
_cell_formula_units_Z   4
loop_
 _symmetry_equiv_pos_site_id
 _symmetry_equiv_pos_as_xyz
  1  'x, y, z'
loop_
 _atom_site_type_symbol
 _atom_site_label
 _atom_site_symmetry_multiplicity
 _atom_site_fract_x
 _atom_site_fract_y
 _atom_site_fract_z
 _atom_site_occupancy
 _atom_site_charge
  K  K1  1  0.233900  0.065020  0.616660  1.0  0.934
  K  K2  1  0.266100  0.565020  0.883340  1.0  0.9329
  K  K3  1  0.766100  0.934980  0.383340  1.0  0.9324
  K  K4  1  0.733900  0.434980  0.116660  1.0  0.9335
  Mn  Mn5  1  0.725230  0.018730  0.848510  1.0  1.0921
  Mn  Mn6  1  0.231260  0.174010  0.735050  1.0  1.0405
  Mn  Mn7  1  0.234270  0.066950  0.400930  1.0  1.176
  Mn  Mn8  1  0.228460  0.259130  0.010600  1.0  1.1255
  Mn  Mn9  1  0.724800  0.150440  0.149710  1.0  1.0575
  Mn  Mn10  1  0.774770  0.518730  0.651490  1.0  1.0921
  Mn  Mn11  1  0.268740  0.674010  0.764950  1.0  1.0414
  Mn  Mn12  1  0.265730  0.566950  0.099070  1.0  1.1748
  Mn  Mn13  1  0.271540  0.759130  0.489400  1.0  1.1268
  Mn  Mn14  1  0.775200  0.650440  0.350290  1.0  1.0593
  Mn  Mn15  1  0.274770  0.981270  0.151490  1.0  1.0919
  Mn  Mn16  1  0.768740  0.825990  0.264950  1.0  1.0416
  Mn  Mn17  1  0.765730  0.933050  0.599070  1.0  1.176
  Mn  Mn18  1  0.771540  0.740870  0.989400  1.0  1.126
  Mn  Mn19  1  0.275200  0.849560  0.850290  1.0  1.0602
  Mn  Mn20  1  0.225230  0.481270  0.348510  1.0  1.0915
  Mn  Mn21  1  0.731260  0.325990  0.235050  1.0  1.0408
  Mn  Mn22  1  0.734270  0.433050  0.900930  1.0  1.1769
  Mn  Mn23  1  0.728460  0.240870  0.510600  1.0  1.1257
  Mn  Mn24  1  0.224800  0.349560  0.649710  1.0  1.0581
  Mo  Mo25  1  0.212700  0.100860  0.975770  1.0  0.4187
  Mo  Mo26  1  0.737210  0.088350  0.600540  1.0  0.4051
  Mo  Mo27  1  0.731610  0.279310  0.811970  1.0  0.4009
  Mo  Mo28  1  0.287300  0.600860  0.524230  1.0  0.4176
  Mo  Mo29  1  0.762790  0.588350  0.899460  1.0  0.4013
  Mo  Mo30  1  0.768390  0.779310  0.688030  1.0  0.4012
  Mo  Mo31  1  0.787300  0.899140  0.024230  1.0  0.4167
  Mo  Mo32  1  0.262790  0.911650  0.399460  1.0  0.4001
  Mo  Mo33  1  0.268390  0.720690  0.188030  1.0  0.4005
  Mo  Mo34  1  0.712700  0.399140  0.475770  1.0  0.4176
  Mo  Mo35  1  0.237210  0.411650  0.100540  1.0  0.4041
  Mo  Mo36  1  0.231610  0.220690  0.311970  1.0  0.4005
  H  H37  1  0.836200  0.126700  0.389800  1.0  0.1256
  H  H38  1  0.721300  0.162700  0.367800  1.0  0.1577
  H  H39  1  0.629400  0.124800  0.394900  1.0  0.1441
  H  H40  1  0.663800  0.626700  0.110200  1.0  0.1241
  H  H41  1  0.778700  0.662700  0.132200  1.0  0.1577
  H  H42  1  0.870600  0.624800  0.105100  1.0  0.1434
  H  H43  1  0.163800  0.873300  0.610200  1.0  0.1238
  H  H44  1  0.278700  0.837300  0.632200  1.0  0.1556
  H  H45  1  0.370600  0.875200  0.605100  1.0  0.1436
  H  H46  1  0.336200  0.373300  0.889800  1.0  0.1247
  H  H47  1  0.221300  0.337300  0.867800  1.0  0.1559
  H  H48  1  0.129400  0.375200  0.894900  1.0  0.1442
  C  C49  1  0.387100  0.061950  0.922100  1.0  0.1535
  C  C50  1  0.274800  0.127780  0.881500  1.0  0.0364
  C  C51  1  0.191400  0.163160  0.989500  1.0  0.0821
  C  C52  1  0.028900  0.109900  0.056300  1.0  0.1699
  C  C53  1  0.200900  0.046010  0.031100  1.0  0.1664
  C  C54  1  0.432300  0.112500  0.043500  1.0  0.0426
  C  C55  1  0.989300  0.081970  0.915100  1.0  0.108
  C  C56  1  0.679700  0.058600  0.694100  1.0  0.0718
  C  C57  1  0.535000  0.120190  0.651800  1.0  0.1212
  C  C58  1  0.539700  0.075360  0.524500  1.0  0.1203
  C  C59  1  0.242400  0.352560  0.059900  1.0  0.1436
  C  C60  1  0.925200  0.085510  0.518500  1.0  0.1433
  C  C61  1  0.806300  0.027870  0.589300  1.0  0.0803
  C  C62  1  0.932900  0.113320  0.667000  1.0  0.1008
  C  C63  1  0.915500  0.274920  0.895900  1.0  0.159
  C  C64  1  0.739400  0.339670  0.849500  1.0  0.112
  C  C65  1  0.412800  0.195800  0.239600  1.0  0.1278
  C  C66  1  0.904700  0.232730  0.786600  1.0  0.0939
  C  C67  1  0.563800  0.234450  0.775800  1.0  0.0481
  C  C68  1  0.036800  0.193990  0.244600  1.0  0.113
  C  C69  1  0.543600  0.270860  0.894600  1.0  0.1023
  C  C70  1  0.715100  0.119850  0.299000  1.0  0.2663
  C  C71  1  0.726200  0.134800  0.369400  1.0  -0.3809
  C  C72  1  0.112900  0.561950  0.577900  1.0  0.1534
  C  C73  1  0.225200  0.627780  0.618500  1.0  0.034
  C  C74  1  0.308600  0.663160  0.510500  1.0  0.0826
  C  C75  1  0.471100  0.609900  0.443700  1.0  0.1705
  C  C76  1  0.299100  0.546010  0.468900  1.0  0.167
  C  C77  1  0.067700  0.612500  0.456500  1.0  0.0432
  C  C78  1  0.510700  0.581970  0.584900  1.0  0.1083
  C  C79  1  0.820300  0.558600  0.805900  1.0  0.0731
  C  C80  1  0.965000  0.620190  0.848200  1.0  0.1211
  C  C81  1  0.960300  0.575360  0.975500  1.0  0.1208
  C  C82  1  0.257600  0.852560  0.440100  1.0  0.1438
  C  C83  1  0.574800  0.585510  0.981500  1.0  0.1434
  C  C84  1  0.693700  0.527870  0.910700  1.0  0.0808
  C  C85  1  0.567100  0.613320  0.833000  1.0  0.0995
  C  C86  1  0.584500  0.774920  0.604100  1.0  0.1576
  C  C87  1  0.760600  0.839670  0.650500  1.0  0.1128
  C  C88  1  0.087200  0.695800  0.260400  1.0  0.1282
  C  C89  1  0.595300  0.732730  0.713400  1.0  0.0926
  C  C90  1  0.936200  0.734450  0.724200  1.0  0.0489
  C  C91  1  0.463200  0.693990  0.255400  1.0  0.1129
  C  C92  1  0.956400  0.770860  0.605400  1.0  0.1003
  C  C93  1  0.784900  0.619850  0.201000  1.0  0.2656
  C  C94  1  0.773800  0.634800  0.130600  1.0  -0.3838
  C  C95  1  0.612900  0.938050  0.077900  1.0  0.1531
  C  C96  1  0.725200  0.872220  0.118500  1.0  0.0341
  C  C97  1  0.808600  0.836840  0.010500  1.0  0.0834
  C  C98  1  0.971100  0.890100  0.943700  1.0  0.1705
  C  C99  1  0.799100  0.953990  0.968900  1.0  0.1661
  C  C100  1  0.567700  0.887500  0.956500  1.0  0.0425
  C  C101  1  0.010700  0.918030  0.084900  1.0  0.108
  C  C102  1  0.320300  0.941400  0.305900  1.0  0.0729
  C  C103  1  0.465000  0.879810  0.348200  1.0  0.1209
  C  C104  1  0.460300  0.924640  0.475500  1.0  0.1201
  C  C105  1  0.757600  0.647440  0.940100  1.0  0.1439
  C  C106  1  0.074800  0.914490  0.481500  1.0  0.1434
  C  C107  1  0.193700  0.972130  0.410700  1.0  0.0797
  C  C108  1  0.067100  0.886680  0.333000  1.0  0.0992
  C  C109  1  0.084500  0.725080  0.104100  1.0  0.1575
  C  C110  1  0.260600  0.660330  0.150500  1.0  0.1132
  C  C111  1  0.587200  0.804200  0.760400  1.0  0.1271
  C  C112  1  0.095300  0.767270  0.213400  1.0  0.0917
  C  C113  1  0.436200  0.765550  0.224200  1.0  0.0483
  C  C114  1  0.963200  0.806010  0.755400  1.0  0.1134
  C  C115  1  0.456400  0.729140  0.105400  1.0  0.1005
  C  C116  1  0.284900  0.880150  0.701000  1.0  0.2654
  C  C117  1  0.273800  0.865200  0.630600  1.0  -0.3839
  C  C118  1  0.887100  0.438050  0.422100  1.0  0.1534
  C  C119  1  0.774800  0.372220  0.381500  1.0  0.0363
  C  C120  1  0.691400  0.336840  0.489500  1.0  0.0829
  C  C121  1  0.528900  0.390100  0.556300  1.0  0.17
  C  C122  1  0.700900  0.453990  0.531100  1.0  0.1656
  C  C123  1  0.932300  0.387500  0.543500  1.0  0.042
  C  C124  1  0.489300  0.418030  0.415100  1.0  0.1079
  C  C125  1  0.179700  0.441400  0.194100  1.0  0.0716
  C  C126  1  0.035000  0.379810  0.151800  1.0  0.1211
  C  C127  1  0.039700  0.424640  0.024500  1.0  0.119
  C  C128  1  0.742400  0.147440  0.559900  1.0  0.1437
  C  C129  1  0.425200  0.414490  0.018500  1.0  0.1433
  C  C130  1  0.306300  0.472130  0.089300  1.0  0.0795
  C  C131  1  0.432900  0.386680  0.167000  1.0  0.1007
  C  C132  1  0.415500  0.225080  0.395900  1.0  0.1583
  C  C133  1  0.239400  0.160330  0.349500  1.0  0.1121
  C  C134  1  0.912800  0.304200  0.739600  1.0  0.126
  C  C135  1  0.404700  0.267270  0.286600  1.0  0.0929
  C  C136  1  0.063800  0.265550  0.275800  1.0  0.0475
  C  C137  1  0.536800  0.306010  0.744600  1.0  0.1131
  C  C138  1  0.043600  0.229140  0.394600  1.0  0.103
  C  C139  1  0.215100  0.380150  0.799000  1.0  0.2653
  C  C140  1  0.226200  0.365200  0.869400  1.0  -0.3811
  N  N141  1  0.482000  0.041370  0.892500  1.0  -0.4727
  N  N142  1  0.294600  0.141450  0.828180  1.0  -0.4219
  N  N143  1  0.193600  0.196110  0.998400  1.0  -0.4404
  N  N144  1  0.931700  0.114900  0.101030  1.0  -0.481
  N  N145  1  0.203400  0.017820  0.063600  1.0  -0.5108
  N  N146  1  0.539700  0.120100  0.083500  1.0  -0.4466
  N  N147  1  0.874900  0.070470  0.881400  1.0  -0.4864
  N  N148  1  0.663500  0.044460  0.747400  1.0  -0.4761
  N  N149  1  0.425000  0.136570  0.680080  1.0  -0.4723
  N  N150  1  0.435400  0.069720  0.481500  1.0  -0.4835
  N  N151  1  0.247000  0.320290  0.042600  1.0  -0.4695
  N  N152  1  0.024700  0.082260  0.474200  1.0  -0.4368
  N  N153  1  0.829100  0.995060  0.581900  1.0  -0.4922
  N  N154  1  0.030000  0.128800  0.704100  1.0  -0.4931
  N  N155  1  0.011500  0.272350  0.942200  1.0  -0.474
  N  N156  1  0.748500  0.371430  0.868200  1.0  -0.4373
  N  N157  1  0.508400  0.181790  0.200900  1.0  -0.4542
  N  N158  1  0.007700  0.208970  0.772500  1.0  -0.4359
  N  N159  1  0.459700  0.211620  0.757700  1.0  -0.4903
  N  N160  1  0.933800  0.181050  0.206700  1.0  -0.4577
  N  N161  1  0.445800  0.265610  0.938320  1.0  -0.4286
  N  N162  1  0.708500  0.109460  0.243200  1.0  -0.4894
  N  N163  1  0.018000  0.541370  0.607500  1.0  -0.473
  N  N164  1  0.205400  0.641450  0.671820  1.0  -0.4215
  N  N165  1  0.306400  0.696110  0.501600  1.0  -0.4398
  N  N166  1  0.568300  0.614900  0.398970  1.0  -0.4795
  N  N167  1  0.296600  0.517820  0.436400  1.0  -0.5099
  N  N168  1  0.960300  0.620100  0.416500  1.0  -0.4466
  N  N169  1  0.625100  0.570470  0.618600  1.0  -0.4847
  N  N170  1  0.836500  0.544460  0.752600  1.0  -0.4795
  N  N171  1  0.075000  0.636570  0.819920  1.0  -0.471
  N  N172  1  0.064600  0.569720  0.018500  1.0  -0.4815
  N  N173  1  0.253000  0.820290  0.457400  1.0  -0.47
  N  N174  1  0.475300  0.582260  0.025800  1.0  -0.4374
  N  N175  1  0.670900  0.495060  0.918100  1.0  -0.4921
  N  N176  1  0.470000  0.628800  0.795900  1.0  -0.4931
  N  N177  1  0.488500  0.772350  0.557800  1.0  -0.4747
  N  N178  1  0.751500  0.871430  0.631800  1.0  -0.4372
  N  N179  1  0.991600  0.681790  0.299100  1.0  -0.4548
  N  N180  1  0.492300  0.708970  0.727500  1.0  -0.4372
  N  N181  1  0.040300  0.711620  0.742300  1.0  -0.4883
  N  N182  1  0.566200  0.681050  0.293300  1.0  -0.4559
  N  N183  1  0.054200  0.765610  0.561680  1.0  -0.4276
  N  N184  1  0.791500  0.609460  0.256800  1.0  -0.4878
  N  N185  1  0.518000  0.958630  0.107500  1.0  -0.4764
  N  N186  1  0.705400  0.858550  0.171820  1.0  -0.4215
  N  N187  1  0.806400  0.803890  0.001600  1.0  -0.4348
  N  N188  1  0.068300  0.885100  0.898970  1.0  -0.4789
  N  N189  1  0.796600  0.982180  0.936400  1.0  -0.5107
  N  N190  1  0.460300  0.879900  0.916500  1.0  -0.4463
  N  N191  1  0.125100  0.929530  0.118600  1.0  -0.4847
  N  N192  1  0.336500  0.955540  0.252600  1.0  -0.4794
  N  N193  1  0.575000  0.863430  0.319920  1.0  -0.47
  N  N194  1  0.564600  0.930280  0.518500  1.0  -0.4816
  N  N195  1  0.753000  0.679710  0.957400  1.0  -0.471
  N  N196  1  0.975300  0.917740  0.525800  1.0  -0.4373
  N  N197  1  0.170900  0.004940  0.418100  1.0  -0.4927
  N  N198  1  0.970000  0.871200  0.295900  1.0  -0.4933
  N  N199  1  0.988500  0.727650  0.057800  1.0  -0.4746
  N  N200  1  0.251500  0.628570  0.131800  1.0  -0.4352
  N  N201  1  0.491600  0.818210  0.799100  1.0  -0.4546
  N  N202  1  0.992300  0.791030  0.227500  1.0  -0.4386
  N  N203  1  0.540300  0.788380  0.242300  1.0  -0.4889
  N  N204  1  0.066200  0.818950  0.793300  1.0  -0.4579
  N  N205  1  0.554200  0.734390  0.061680  1.0  -0.429
  N  N206  1  0.291500  0.890540  0.756800  1.0  -0.4879
  N  N207  1  0.982000  0.458630  0.392500  1.0  -0.475
  N  N208  1  0.794600  0.358550  0.328180  1.0  -0.4219
  N  N209  1  0.693600  0.303890  0.498400  1.0  -0.435
  N  N210  1  0.431700  0.385100  0.601030  1.0  -0.4811
  N  N211  1  0.703400  0.482180  0.563600  1.0  -0.5116
  N  N212  1  0.039700  0.379900  0.583500  1.0  -0.4462
  N  N213  1  0.374900  0.429530  0.381400  1.0  -0.486
  N  N214  1  0.163500  0.455540  0.247400  1.0  -0.4782
  N  N215  1  0.925000  0.363430  0.180080  1.0  -0.4713
  N  N216  1  0.935400  0.430280  0.981500  1.0  -0.4836
  N  N217  1  0.747000  0.179710  0.542600  1.0  -0.4716
  N  N218  1  0.524700  0.417740  0.974200  1.0  -0.4364
  N  N219  1  0.329100  0.504940  0.081900  1.0  -0.4932
  N  N220  1  0.530000  0.371200  0.204100  1.0  -0.493
  N  N221  1  0.511500  0.227650  0.442200  1.0  -0.4744
  N  N222  1  0.248500  0.128570  0.368200  1.0  -0.4354
  N  N223  1  0.008400  0.318210  0.700900  1.0  -0.4542
  N  N224  1  0.507700  0.291030  0.272500  1.0  -0.4377
  N  N225  1  0.959700  0.288380  0.257700  1.0  -0.4903
  N  N226  1  0.433800  0.318950  0.706700  1.0  -0.4591
  N  N227  1  0.945800  0.234390  0.438320  1.0  -0.4306
  N  N228  1  0.208500  0.390540  0.743200  1.0  -0.4902
