# generated using pymatgen
data_KNaMn3H21(C11O7)3
_symmetry_space_group_name_H-M   'P 1'
_cell_length_a   20.47510000
_cell_length_b   20.47510000
_cell_length_c   10.40750000
_cell_angle_alpha   90.00000000
_cell_angle_beta   90.00000000
_cell_angle_gamma   120.00000000
_symmetry_Int_Tables_number   1
_chemical_formula_structural   KNaMn3H21(C11O7)3
_chemical_formula_sum   'K2 Na2 Mn6 H42 C66 O42'
_cell_volume   3778.58428743
_cell_formula_units_Z   2
loop_
 _symmetry_equiv_pos_site_id
 _symmetry_equiv_pos_as_xyz
  1  'x, y, z'
loop_
 _atom_site_type_symbol
 _atom_site_label
 _atom_site_symmetry_multiplicity
 _atom_site_fract_x
 _atom_site_fract_y
 _atom_site_fract_z
 _atom_site_occupancy
 _atom_site_charge
  K  K1  1  0.333333  0.666667  0.936200  1.0  0.9491
  K  K2  1  0.666667  0.333333  0.436200  1.0  0.9491
  Na  Na3  1  0.666667  0.333333  0.028260  1.0  0.9115
  Na  Na4  1  0.333333  0.666667  0.528260  1.0  0.9115
  Mn  Mn5  1  0.379720  0.834660  0.712820  1.0  1.0946
  Mn  Mn6  1  0.165340  0.545060  0.712820  1.0  1.094
  Mn  Mn7  1  0.454940  0.620280  0.712820  1.0  1.0952
  Mn  Mn8  1  0.620280  0.165340  0.212820  1.0  1.0937
  Mn  Mn9  1  0.834660  0.454940  0.212820  1.0  1.0954
  Mn  Mn10  1  0.545060  0.379720  0.212820  1.0  1.0939
  H  H11  1  0.557000  0.005700  0.904000  1.0  0.1278
  H  H12  1  0.561000  0.983100  0.521000  1.0  0.1267
  H  H13  1  0.638000  0.188300  0.677500  1.0  0.1168
  H  H14  1  0.547600  0.873800  0.586300  1.0  0.111
  H  H15  1  0.656600  0.941200  0.689500  1.0  0.1037
  H  H16  1  0.642000  0.862300  0.642100  1.0  0.1237
  H  H17  1  0.632000  0.874900  0.787700  1.0  0.1227
  H  H18  1  0.994300  0.551300  0.904000  1.0  0.1285
  H  H19  1  0.016900  0.577900  0.521000  1.0  0.1266
  H  H20  1  0.811700  0.449700  0.677500  1.0  0.1157
  H  H21  1  0.126200  0.673800  0.586300  1.0  0.1078
  H  H22  1  0.058800  0.715400  0.689500  1.0  0.1062
  H  H23  1  0.137700  0.779700  0.642100  1.0  0.1209
  H  H24  1  0.125100  0.757100  0.787700  1.0  0.1213
  H  H25  1  0.448700  0.443000  0.904000  1.0  0.128
  H  H26  1  0.422100  0.439000  0.521000  1.0  0.1264
  H  H27  1  0.550300  0.362000  0.677500  1.0  0.1153
  H  H28  1  0.326200  0.452400  0.586300  1.0  0.1087
  H  H29  1  0.284600  0.343400  0.689500  1.0  0.1014
  H  H30  1  0.220300  0.358000  0.642100  1.0  0.1233
  H  H31  1  0.242900  0.368000  0.787700  1.0  0.1241
  H  H32  1  0.443000  0.994300  0.404000  1.0  0.1281
  H  H33  1  0.439000  0.016900  0.021000  1.0  0.1265
  H  H34  1  0.362000  0.811700  0.177500  1.0  0.1166
  H  H35  1  0.452400  0.126200  0.086300  1.0  0.1097
  H  H36  1  0.343400  0.058800  0.189500  1.0  0.1053
  H  H37  1  0.358000  0.137700  0.142100  1.0  0.1237
  H  H38  1  0.368000  0.125100  0.287700  1.0  0.1242
  H  H39  1  0.005700  0.448700  0.404000  1.0  0.1281
  H  H40  1  0.983100  0.422100  0.021000  1.0  0.1268
  H  H41  1  0.188300  0.550300  0.177500  1.0  0.1163
  H  H42  1  0.873800  0.326200  0.086300  1.0  0.1072
  H  H43  1  0.941200  0.284600  0.189500  1.0  0.1055
  H  H44  1  0.862300  0.220300  0.142100  1.0  0.1228
  H  H45  1  0.874900  0.242900  0.287700  1.0  0.1212
  H  H46  1  0.551300  0.557000  0.404000  1.0  0.1277
  H  H47  1  0.577900  0.561000  0.021000  1.0  0.1262
  H  H48  1  0.449700  0.638000  0.177500  1.0  0.1161
  H  H49  1  0.673800  0.547600  0.086300  1.0  0.1092
  H  H50  1  0.715400  0.656600  0.189500  1.0  0.1018
  H  H51  1  0.779700  0.642000  0.142100  1.0  0.123
  H  H52  1  0.757100  0.632000  0.287700  1.0  0.1221
  C  C53  1  0.492040  0.780960  0.691000  1.0  0.7291
  C  C54  1  0.615390  0.153710  0.927600  1.0  0.752
  C  C55  1  0.600760  0.105430  0.809000  1.0  -0.1474
  C  C56  1  0.568270  0.027250  0.822500  1.0  -0.1115
  C  C57  1  0.570700  0.013620  0.592900  1.0  -0.1334
  C  C58  1  0.552950  0.982150  0.715800  1.0  0.2396
  C  C59  1  0.603100  0.091210  0.579700  1.0  -0.1307
  C  C60  1  0.617210  0.136510  0.687500  1.0  0.0396
  C  C61  1  0.617750  0.124550  0.447800  1.0  0.6806
  C  C62  1  0.548540  0.864570  0.678400  1.0  0.0577
  C  C63  1  0.626200  0.887600  0.701300  1.0  -0.2959
  C  C64  1  0.219040  0.711080  0.691000  1.0  0.7294
  C  C65  1  0.846290  0.461680  0.927600  1.0  0.7532
  C  C66  1  0.894570  0.495330  0.809000  1.0  -0.146
  C  C67  1  0.972750  0.541020  0.822500  1.0  -0.1111
  C  C68  1  0.986380  0.557080  0.592900  1.0  -0.133
  C  C69  1  0.017850  0.570800  0.715800  1.0  0.2392
  C  C70  1  0.908790  0.511890  0.579700  1.0  -0.1306
  C  C71  1  0.863490  0.480700  0.687500  1.0  0.0375
  C  C72  1  0.875450  0.493200  0.447800  1.0  0.6837
  C  C73  1  0.135430  0.683970  0.678400  1.0  0.0567
  C  C74  1  0.112400  0.738600  0.701300  1.0  -0.2959
  C  C75  1  0.288920  0.507960  0.691000  1.0  0.7281
  C  C76  1  0.538320  0.384610  0.927600  1.0  0.7506
  C  C77  1  0.504670  0.399240  0.809000  1.0  -0.1479
  C  C78  1  0.458980  0.431730  0.822500  1.0  -0.112
  C  C79  1  0.442920  0.429300  0.592900  1.0  -0.1343
  C  C80  1  0.429200  0.447050  0.715800  1.0  0.2401
  C  C81  1  0.488110  0.396900  0.579700  1.0  -0.1309
  C  C82  1  0.519300  0.382790  0.687500  1.0  0.0363
  C  C83  1  0.506800  0.382250  0.447800  1.0  0.6809
  C  C84  1  0.316030  0.451460  0.678400  1.0  0.0575
  C  C85  1  0.261400  0.373800  0.701300  1.0  -0.2927
  C  C86  1  0.507960  0.219040  0.191000  1.0  0.7313
  C  C87  1  0.384610  0.846290  0.427600  1.0  0.7519
  C  C88  1  0.399240  0.894570  0.309000  1.0  -0.1458
  C  C89  1  0.431730  0.972750  0.322500  1.0  -0.1103
  C  C90  1  0.429300  0.986380  0.092900  1.0  -0.1345
  C  C91  1  0.447050  0.017850  0.215800  1.0  0.2395
  C  C92  1  0.396900  0.908790  0.079700  1.0  -0.1321
  C  C93  1  0.382790  0.863490  0.187500  1.0  0.0402
  C  C94  1  0.382250  0.875450  0.947800  1.0  0.6818
  C  C95  1  0.451460  0.135430  0.178400  1.0  0.0552
  C  C96  1  0.373800  0.112400  0.201300  1.0  -0.2956
  C  C97  1  0.780960  0.288920  0.191000  1.0  0.7285
  C  C98  1  0.153710  0.538320  0.427600  1.0  0.7533
  C  C99  1  0.105430  0.504670  0.309000  1.0  -0.1472
  C  C100  1  0.027250  0.458980  0.322500  1.0  -0.1114
  C  C101  1  0.013620  0.442920  0.092900  1.0  -0.1334
  C  C102  1  0.982150  0.429200  0.215800  1.0  0.2392
  C  C103  1  0.091210  0.488110  0.079700  1.0  -0.1304
  C  C104  1  0.136510  0.519300  0.187500  1.0  0.0369
  C  C105  1  0.124550  0.506800  0.947800  1.0  0.6811
  C  C106  1  0.864570  0.316030  0.178400  1.0  0.0584
  C  C107  1  0.887600  0.261400  0.201300  1.0  -0.2929
  C  C108  1  0.711080  0.492040  0.191000  1.0  0.7267
  C  C109  1  0.461680  0.615390  0.427600  1.0  0.7512
  C  C110  1  0.495330  0.600760  0.309000  1.0  -0.1466
  C  C111  1  0.541020  0.568270  0.322500  1.0  -0.112
  C  C112  1  0.557080  0.570700  0.092900  1.0  -0.1326
  C  C113  1  0.570800  0.552950  0.215800  1.0  0.2399
  C  C114  1  0.511890  0.603100  0.079700  1.0  -0.1317
  C  C115  1  0.480700  0.617210  0.187500  1.0  0.0367
  C  C116  1  0.493200  0.617750  0.947800  1.0  0.6799
  C  C117  1  0.683970  0.548540  0.178400  1.0  0.0561
  C  C118  1  0.738600  0.626200  0.201300  1.0  -0.2946
  O  O119  1  0.423510  0.759040  0.699590  1.0  -0.7334
  O  O120  1  0.519250  0.738460  0.686300  1.0  -0.576
  O  O121  1  0.514980  0.904520  0.734220  1.0  -0.3913
  O  O122  1  0.633380  0.191560  0.431950  1.0  -0.6242
  O  O123  1  0.599710  0.117770  0.032770  1.0  -0.6048
  O  O124  1  0.611170  0.082810  0.352690  1.0  -0.5789
  O  O125  1  0.640570  0.221880  0.915800  1.0  -0.7118
  O  O126  1  0.240960  0.664470  0.699590  1.0  -0.7312
  O  O127  1  0.261540  0.780790  0.686300  1.0  -0.5728
  O  O128  1  0.095480  0.610460  0.734220  1.0  -0.3923
  O  O129  1  0.808440  0.441820  0.431950  1.0  -0.6261
  O  O130  1  0.882230  0.481940  0.032770  1.0  -0.6043
  O  O131  1  0.917190  0.528360  0.352690  1.0  -0.5806
  O  O132  1  0.778120  0.418690  0.915800  1.0  -0.716
  O  O133  1  0.335530  0.576490  0.699590  1.0  -0.7339
  O  O134  1  0.219210  0.480750  0.686300  1.0  -0.575
  O  O135  1  0.389540  0.485020  0.734220  1.0  -0.3932
  O  O136  1  0.558180  0.366620  0.431950  1.0  -0.6264
  O  O137  1  0.518060  0.400290  0.032770  1.0  -0.6028
  O  O138  1  0.471640  0.388830  0.352690  1.0  -0.5798
  O  O139  1  0.581310  0.359430  0.915800  1.0  -0.714
  O  O140  1  0.576490  0.240960  0.199590  1.0  -0.7312
  O  O141  1  0.480750  0.261540  0.186300  1.0  -0.5738
  O  O142  1  0.485020  0.095480  0.234220  1.0  -0.3921
  O  O143  1  0.366620  0.808440  0.931950  1.0  -0.6256
  O  O144  1  0.400290  0.882230  0.532770  1.0  -0.6051
  O  O145  1  0.388830  0.917190  0.852690  1.0  -0.5801
  O  O146  1  0.359430  0.778120  0.415800  1.0  -0.7126
  O  O147  1  0.759040  0.335530  0.199590  1.0  -0.7314
  O  O148  1  0.738460  0.219210  0.186300  1.0  -0.5732
  O  O149  1  0.904520  0.389540  0.234220  1.0  -0.3919
  O  O150  1  0.191560  0.558180  0.931950  1.0  -0.6251
  O  O151  1  0.117770  0.518060  0.532770  1.0  -0.6043
  O  O152  1  0.082810  0.471640  0.852690  1.0  -0.5793
  O  O153  1  0.221880  0.581310  0.415800  1.0  -0.7158
  O  O154  1  0.664470  0.423510  0.199590  1.0  -0.7352
  O  O155  1  0.780790  0.519250  0.186300  1.0  -0.5745
  O  O156  1  0.610460  0.514980  0.234220  1.0  -0.3914
  O  O157  1  0.441820  0.633380  0.931950  1.0  -0.6272
  O  O158  1  0.481940  0.599710  0.532770  1.0  -0.6032
  O  O159  1  0.528360  0.611170  0.852690  1.0  -0.5812
  O  O160  1  0.418690  0.640570  0.415800  1.0  -0.7146
