# generated using pymatgen
data_KNaMn3H21(C11O7)3
_symmetry_space_group_name_H-M   'P 1'
_cell_length_a   20.44890000
_cell_length_b   20.44890000
_cell_length_c   10.39280000
_cell_angle_alpha   90.00000000
_cell_angle_beta   90.00000000
_cell_angle_gamma   120.00000000
_symmetry_Int_Tables_number   1
_chemical_formula_structural   KNaMn3H21(C11O7)3
_chemical_formula_sum   'K2 Na2 Mn6 H42 C66 O42'
_cell_volume   3763.59691371
_cell_formula_units_Z   2
loop_
 _symmetry_equiv_pos_site_id
 _symmetry_equiv_pos_as_xyz
  1  'x, y, z'
loop_
 _atom_site_type_symbol
 _atom_site_label
 _atom_site_symmetry_multiplicity
 _atom_site_fract_x
 _atom_site_fract_y
 _atom_site_fract_z
 _atom_site_occupancy
 _atom_site_charge
  K  K1  1  0.666667  0.333333  0.266430  1.0  0.9461
  K  K2  1  0.333333  0.666667  0.766430  1.0  0.9459
  Na  Na3  1  0.333333  0.666667  0.177520  1.0  0.9106
  Na  Na4  1  0.666667  0.333333  0.677520  1.0  0.9107
  Mn  Mn5  1  0.619510  0.165150  0.491000  1.0  1.0471
  Mn  Mn6  1  0.834850  0.454350  0.491000  1.0  1.0481
  Mn  Mn7  1  0.545650  0.380490  0.491000  1.0  1.0479
  Mn  Mn8  1  0.380490  0.834850  0.991000  1.0  1.0474
  Mn  Mn9  1  0.165150  0.545650  0.991000  1.0  1.0481
  Mn  Mn10  1  0.454350  0.619510  0.991000  1.0  1.0485
  H  H11  1  0.558700  0.005100  0.798800  1.0  0.1275
  H  H12  1  0.561600  0.982300  0.182100  1.0  0.1393
  H  H13  1  0.639600  0.188100  0.025600  1.0  0.1148
  H  H14  1  0.548800  0.872900  0.115200  1.0  0.1047
  H  H15  1  0.656000  0.940600  0.014000  1.0  0.1006
  H  H16  1  0.632600  0.873900  0.916800  1.0  0.1183
  H  H17  1  0.641600  0.862100  0.063300  1.0  0.1133
  H  H18  1  0.994900  0.553600  0.798800  1.0  0.1277
  H  H19  1  0.017700  0.579300  0.182100  1.0  0.1392
  H  H20  1  0.811900  0.451500  0.025600  1.0  0.1137
  H  H21  1  0.127100  0.675900  0.115200  1.0  0.102
  H  H22  1  0.059400  0.715400  0.014000  1.0  0.1014
  H  H23  1  0.126100  0.758700  0.916800  1.0  0.1149
  H  H24  1  0.137900  0.779500  0.063300  1.0  0.1137
  H  H25  1  0.446400  0.441300  0.798800  1.0  0.1269
  H  H26  1  0.420700  0.438400  0.182100  1.0  0.1398
  H  H27  1  0.548500  0.360400  0.025600  1.0  0.1131
  H  H28  1  0.324100  0.451200  0.115200  1.0  0.1042
  H  H29  1  0.284600  0.344000  0.014000  1.0  0.0978
  H  H30  1  0.241300  0.367400  0.916800  1.0  0.1177
  H  H31  1  0.220500  0.358400  0.063300  1.0  0.114
  H  H32  1  0.441300  0.994900  0.298800  1.0  0.127
  H  H33  1  0.438400  0.017700  0.682100  1.0  0.1394
  H  H34  1  0.360400  0.811900  0.525600  1.0  0.1149
  H  H35  1  0.451200  0.127100  0.615200  1.0  0.1032
  H  H36  1  0.344000  0.059400  0.514000  1.0  0.1007
  H  H37  1  0.367400  0.126100  0.416800  1.0  0.118
  H  H38  1  0.358400  0.137900  0.563300  1.0  0.1129
  H  H39  1  0.005100  0.446400  0.298800  1.0  0.1273
  H  H40  1  0.982300  0.420700  0.682100  1.0  0.1398
  H  H41  1  0.188100  0.548500  0.525600  1.0  0.1137
  H  H42  1  0.872900  0.324100  0.615200  1.0  0.1039
  H  H43  1  0.940600  0.284600  0.514000  1.0  0.1007
  H  H44  1  0.873900  0.241300  0.416800  1.0  0.1164
  H  H45  1  0.862100  0.220500  0.563300  1.0  0.1142
  H  H46  1  0.553600  0.558700  0.298800  1.0  0.1268
  H  H47  1  0.579300  0.561600  0.682100  1.0  0.1397
  H  H48  1  0.451500  0.639600  0.525600  1.0  0.1135
  H  H49  1  0.675900  0.548800  0.615200  1.0  0.1026
  H  H50  1  0.715400  0.656000  0.514000  1.0  0.0998
  H  H51  1  0.758700  0.632600  0.416800  1.0  0.1173
  H  H52  1  0.779500  0.641600  0.563300  1.0  0.1131
  C  C53  1  0.615700  0.153590  0.775700  1.0  0.7458
  C  C54  1  0.554010  0.981880  0.988100  1.0  0.2638
  C  C55  1  0.492810  0.780420  0.011600  1.0  0.7247
  C  C56  1  0.569420  0.026810  0.880300  1.0  -0.1171
  C  C57  1  0.571330  0.012910  0.110200  1.0  -0.129
  C  C58  1  0.617660  0.123770  0.256500  1.0  0.677
  C  C59  1  0.618140  0.136200  0.015700  1.0  0.0483
  C  C60  1  0.601300  0.105430  0.893900  1.0  -0.148
  C  C61  1  0.603710  0.091130  0.123800  1.0  -0.1508
  C  C62  1  0.549850  0.863990  0.022700  1.0  0.105
  C  C63  1  0.626000  0.887000  0.002600  1.0  -0.2976
  C  C64  1  0.846410  0.462110  0.775700  1.0  0.7458
  C  C65  1  0.018120  0.572130  0.988100  1.0  0.2625
  C  C66  1  0.219580  0.712390  0.011600  1.0  0.7256
  C  C67  1  0.973190  0.542610  0.880300  1.0  -0.1168
  C  C68  1  0.987090  0.558420  0.110200  1.0  -0.1288
  C  C69  1  0.876230  0.493890  0.256500  1.0  0.679
  C  C70  1  0.863800  0.481940  0.015700  1.0  0.0466
  C  C71  1  0.894570  0.495870  0.893900  1.0  -0.1476
  C  C72  1  0.908870  0.512580  0.123800  1.0  -0.1493
  C  C73  1  0.136010  0.685860  0.022700  1.0  0.104
  C  C74  1  0.113000  0.739000  0.002600  1.0  -0.2965
  C  C75  1  0.537890  0.384300  0.775700  1.0  0.7438
  C  C76  1  0.427870  0.445990  0.988100  1.0  0.2642
  C  C77  1  0.287610  0.507190  0.011600  1.0  0.7217
  C  C78  1  0.457390  0.430580  0.880300  1.0  -0.1171
  C  C79  1  0.441580  0.428670  0.110200  1.0  -0.1295
  C  C80  1  0.506110  0.382340  0.256500  1.0  0.6776
  C  C81  1  0.518060  0.381860  0.015700  1.0  0.0462
  C  C82  1  0.504130  0.398700  0.893900  1.0  -0.1487
  C  C83  1  0.487420  0.396290  0.123800  1.0  -0.152
  C  C84  1  0.314140  0.450150  0.022700  1.0  0.1057
  C  C85  1  0.261000  0.374000  0.002600  1.0  -0.2936
  C  C86  1  0.384300  0.846410  0.275700  1.0  0.745
  C  C87  1  0.445990  0.018120  0.488100  1.0  0.2623
  C  C88  1  0.507190  0.219580  0.511600  1.0  0.7253
  C  C89  1  0.430580  0.973190  0.380300  1.0  -0.1159
  C  C90  1  0.428670  0.987090  0.610200  1.0  -0.1304
  C  C91  1  0.382340  0.876230  0.756500  1.0  0.6777
  C  C92  1  0.381860  0.863800  0.515700  1.0  0.0487
  C  C93  1  0.398700  0.894570  0.393900  1.0  -0.1481
  C  C94  1  0.396290  0.908870  0.623800  1.0  -0.1512
  C  C95  1  0.450150  0.136010  0.522700  1.0  0.1036
  C  C96  1  0.374000  0.113000  0.502600  1.0  -0.2978
  C  C97  1  0.153590  0.537890  0.275700  1.0  0.7464
  C  C98  1  0.981880  0.427870  0.488100  1.0  0.2629
  C  C99  1  0.780420  0.287610  0.511600  1.0  0.726
  C  C100  1  0.026810  0.457390  0.380300  1.0  -0.1171
  C  C101  1  0.012910  0.441580  0.610200  1.0  -0.1295
  C  C102  1  0.123770  0.506110  0.756500  1.0  0.6781
  C  C103  1  0.136200  0.518060  0.515700  1.0  0.0461
  C  C104  1  0.105430  0.504130  0.393900  1.0  -0.1476
  C  C105  1  0.091130  0.487420  0.623800  1.0  -0.1507
  C  C106  1  0.863990  0.314140  0.522700  1.0  0.1053
  C  C107  1  0.887000  0.261000  0.502600  1.0  -0.2954
  C  C108  1  0.462110  0.615700  0.275700  1.0  0.7427
  C  C109  1  0.572130  0.554010  0.488100  1.0  0.2638
  C  C110  1  0.712390  0.492810  0.511600  1.0  0.7226
  C  C111  1  0.542610  0.569420  0.380300  1.0  -0.1176
  C  C112  1  0.558420  0.571330  0.610200  1.0  -0.1286
  C  C113  1  0.493890  0.617660  0.756500  1.0  0.6758
  C  C114  1  0.481940  0.618140  0.515700  1.0  0.0457
  C  C115  1  0.495870  0.601300  0.393900  1.0  -0.1491
  C  C116  1  0.512580  0.603710  0.623800  1.0  -0.1509
  C  C117  1  0.685860  0.549850  0.522700  1.0  0.1031
  C  C118  1  0.739000  0.626000  0.502600  1.0  -0.2945
  O  O119  1  0.424140  0.758740  0.002660  1.0  -0.737
  O  O120  1  0.515770  0.904220  0.969830  1.0  -0.3977
  O  O121  1  0.634100  0.191550  0.271620  1.0  -0.6144
  O  O122  1  0.519660  0.737420  0.017600  1.0  -0.5755
  O  O123  1  0.598630  0.116660  0.670570  1.0  -0.5964
  O  O124  1  0.610360  0.082280  0.351680  1.0  -0.5612
  O  O125  1  0.641230  0.221650  0.787500  1.0  -0.7177
  O  O126  1  0.241260  0.665400  0.002660  1.0  -0.7345
  O  O127  1  0.095780  0.611550  0.969830  1.0  -0.3988
  O  O128  1  0.808450  0.442550  0.271620  1.0  -0.6145
  O  O129  1  0.262580  0.782240  0.017600  1.0  -0.5728
  O  O130  1  0.883340  0.481970  0.670570  1.0  -0.5967
  O  O131  1  0.917720  0.528080  0.351680  1.0  -0.562
  O  O132  1  0.778350  0.419580  0.787500  1.0  -0.7219
  O  O133  1  0.334600  0.575860  0.002660  1.0  -0.7372
  O  O134  1  0.388450  0.484230  0.969830  1.0  -0.3982
  O  O135  1  0.557450  0.365900  0.271620  1.0  -0.6173
  O  O136  1  0.217760  0.480340  0.017600  1.0  -0.5751
  O  O137  1  0.518030  0.401370  0.670570  1.0  -0.5953
  O  O138  1  0.471920  0.389640  0.351680  1.0  -0.5614
  O  O139  1  0.580420  0.358770  0.787500  1.0  -0.7205
  O  O140  1  0.575860  0.241260  0.502660  1.0  -0.7342
  O  O141  1  0.484230  0.095780  0.469830  1.0  -0.3976
  O  O142  1  0.365900  0.808450  0.771620  1.0  -0.6142
  O  O143  1  0.480340  0.262580  0.517600  1.0  -0.5738
  O  O144  1  0.401370  0.883340  0.170570  1.0  -0.598
  O  O145  1  0.389640  0.917720  0.851680  1.0  -0.5627
  O  O146  1  0.358770  0.778350  0.287500  1.0  -0.7188
  O  O147  1  0.758740  0.334600  0.502660  1.0  -0.735
  O  O148  1  0.904220  0.388450  0.469830  1.0  -0.3969
  O  O149  1  0.191550  0.557450  0.771620  1.0  -0.6133
  O  O150  1  0.737420  0.217760  0.517600  1.0  -0.5734
  O  O151  1  0.116660  0.518030  0.170570  1.0  -0.5959
  O  O152  1  0.082280  0.471920  0.851680  1.0  -0.5638
  O  O153  1  0.221650  0.580420  0.287500  1.0  -0.7222
  O  O154  1  0.665400  0.424140  0.502660  1.0  -0.7393
  O  O155  1  0.611550  0.515770  0.469830  1.0  -0.3987
  O  O156  1  0.442550  0.634100  0.771620  1.0  -0.6161
  O  O157  1  0.782240  0.519660  0.517600  1.0  -0.5747
  O  O158  1  0.481970  0.598630  0.170570  1.0  -0.5948
  O  O159  1  0.528080  0.610360  0.851680  1.0  -0.561
  O  O160  1  0.419580  0.641230  0.287500  1.0  -0.7212
