# generated using pymatgen
data_CdH22C30(NO)6
_symmetry_space_group_name_H-M   'P 1'
_cell_length_a   20.38560000
_cell_length_b   13.82930000
_cell_length_c   13.15630000
_cell_angle_alpha   90.00000000
_cell_angle_beta   103.63200000
_cell_angle_gamma   90.00000000
_symmetry_Int_Tables_number   1
_chemical_formula_structural   CdH22C30(NO)6
_chemical_formula_sum   'Cd4 H88 C120 N24 O24'
_cell_volume   3604.52092987
_cell_formula_units_Z   4
loop_
 _symmetry_equiv_pos_site_id
 _symmetry_equiv_pos_as_xyz
  1  'x, y, z'
loop_
 _atom_site_type_symbol
 _atom_site_label
 _atom_site_symmetry_multiplicity
 _atom_site_fract_x
 _atom_site_fract_y
 _atom_site_fract_z
 _atom_site_occupancy
 _atom_site_charge
  Cd  Cd1  1  0.250000  0.250000  0.500000  1.0  0.9216
  Cd  Cd2  1  0.250000  0.750000  0.000000  1.0  0.9216
  Cd  Cd3  1  0.750000  0.250000  0.000000  1.0  0.9216
  Cd  Cd4  1  0.750000  0.750000  0.500000  1.0  0.9216
  H  H5  1  0.313700  0.123300  0.720800  1.0  0.0798
  H  H6  1  0.145000  0.919600  0.564900  1.0  0.1117
  H  H7  1  0.292800  0.990100  0.809800  1.0  0.1082
  H  H8  1  0.806200  0.174700  0.652300  1.0  0.1181
  H  H9  1  0.098900  0.244600  0.345400  1.0  0.0829
  H  H10  1  0.808900  0.339700  0.403900  1.0  0.1014
  H  H11  1  0.902500  0.245000  0.428700  1.0  0.2817
  H  H12  1  0.145000  0.279400  0.647100  1.0  0.0668
  H  H13  1  0.033300  0.272300  0.653200  1.0  0.1202
  H  H14  1  0.987200  0.239200  0.342100  1.0  0.1121
  H  H15  1  0.172500  0.052600  0.479700  1.0  0.0723
  H  H16  1  0.186300  0.623300  0.779200  1.0  0.0802
  H  H17  1  0.355000  0.419600  0.935100  1.0  0.1122
  H  H18  1  0.207200  0.490100  0.690200  1.0  0.1074
  H  H19  1  0.693800  0.674700  0.847700  1.0  0.1184
  H  H20  1  0.401100  0.744600  0.154600  1.0  0.0829
  H  H21  1  0.691100  0.839700  0.096100  1.0  0.1015
  H  H22  1  0.597500  0.745000  0.071300  1.0  0.2827
  H  H23  1  0.355000  0.779400  0.852900  1.0  0.0671
  H  H24  1  0.466700  0.772300  0.846800  1.0  0.1199
  H  H25  1  0.512800  0.739200  0.157900  1.0  0.1118
  H  H26  1  0.327500  0.552600  0.020300  1.0  0.0723
  H  H27  1  0.186300  0.376700  0.279200  1.0  0.0797
  H  H28  1  0.355000  0.580400  0.435100  1.0  0.112
  H  H29  1  0.207200  0.509900  0.190200  1.0  0.1074
  H  H30  1  0.693800  0.325300  0.347700  1.0  0.1185
  H  H31  1  0.401100  0.255400  0.654600  1.0  0.0828
  H  H32  1  0.691100  0.160300  0.596100  1.0  0.1017
  H  H33  1  0.597500  0.255000  0.571300  1.0  0.2826
  H  H34  1  0.355000  0.220600  0.352900  1.0  0.0668
  H  H35  1  0.466700  0.227700  0.346800  1.0  0.1202
  H  H36  1  0.512800  0.260800  0.657900  1.0  0.1116
  H  H37  1  0.327500  0.447400  0.520300  1.0  0.0724
  H  H38  1  0.313700  0.876700  0.220800  1.0  0.08
  H  H39  1  0.145000  0.080400  0.064900  1.0  0.1115
  H  H40  1  0.292800  0.009900  0.309800  1.0  0.108
  H  H41  1  0.806200  0.825300  0.152300  1.0  0.1178
  H  H42  1  0.098900  0.755400  0.845400  1.0  0.0829
  H  H43  1  0.808900  0.660300  0.903900  1.0  0.1009
  H  H44  1  0.902500  0.755000  0.928700  1.0  0.2817
  H  H45  1  0.145000  0.720600  0.147100  1.0  0.0672
  H  H46  1  0.033300  0.727700  0.153200  1.0  0.1203
  H  H47  1  0.987200  0.760800  0.842100  1.0  0.1123
  H  H48  1  0.172500  0.947400  0.979700  1.0  0.0725
  H  H49  1  0.813700  0.623300  0.720800  1.0  0.0798
  H  H50  1  0.645000  0.419600  0.564900  1.0  0.1117
  H  H51  1  0.792800  0.490100  0.809800  1.0  0.1082
  H  H52  1  0.306200  0.674700  0.652300  1.0  0.1181
  H  H53  1  0.598900  0.744600  0.345400  1.0  0.083
  H  H54  1  0.308900  0.839700  0.403900  1.0  0.1014
  H  H55  1  0.402500  0.745000  0.428700  1.0  0.2817
  H  H56  1  0.645000  0.779400  0.647100  1.0  0.0668
  H  H57  1  0.533300  0.772300  0.653200  1.0  0.1202
  H  H58  1  0.487200  0.739200  0.342100  1.0  0.1121
  H  H59  1  0.672500  0.552600  0.479700  1.0  0.0723
  H  H60  1  0.686300  0.123300  0.779200  1.0  0.0802
  H  H61  1  0.855000  0.919600  0.935100  1.0  0.1122
  H  H62  1  0.707200  0.990100  0.690200  1.0  0.1074
  H  H63  1  0.193800  0.174700  0.847700  1.0  0.1184
  H  H64  1  0.901100  0.244600  0.154600  1.0  0.0829
  H  H65  1  0.191100  0.339700  0.096100  1.0  0.1015
  H  H66  1  0.097500  0.245000  0.071300  1.0  0.2827
  H  H67  1  0.855000  0.279400  0.852900  1.0  0.0671
  H  H68  1  0.966700  0.272300  0.846800  1.0  0.1199
  H  H69  1  0.012800  0.239200  0.157900  1.0  0.1118
  H  H70  1  0.827500  0.052600  0.020300  1.0  0.0723
  H  H71  1  0.686300  0.876700  0.279200  1.0  0.0797
  H  H72  1  0.855000  0.080400  0.435100  1.0  0.112
  H  H73  1  0.707200  0.009900  0.190200  1.0  0.1074
  H  H74  1  0.193800  0.825300  0.347700  1.0  0.1185
  H  H75  1  0.901100  0.755400  0.654600  1.0  0.0825
  H  H76  1  0.191100  0.660300  0.596100  1.0  0.1017
  H  H77  1  0.097500  0.755000  0.571300  1.0  0.2826
  H  H78  1  0.855000  0.720600  0.352900  1.0  0.0668
  H  H79  1  0.966700  0.727700  0.346800  1.0  0.1202
  H  H80  1  0.012800  0.760800  0.657900  1.0  0.1116
  H  H81  1  0.827500  0.947400  0.520300  1.0  0.0724
  H  H82  1  0.813700  0.376700  0.220800  1.0  0.08
  H  H83  1  0.645000  0.580400  0.064900  1.0  0.1115
  H  H84  1  0.792800  0.509900  0.309800  1.0  0.108
  H  H85  1  0.306200  0.325300  0.152300  1.0  0.1178
  H  H86  1  0.598900  0.255400  0.845400  1.0  0.0827
  H  H87  1  0.308900  0.160300  0.903900  1.0  0.1009
  H  H88  1  0.402500  0.255000  0.928700  1.0  0.2817
  H  H89  1  0.645000  0.220600  0.147100  1.0  0.0672
  H  H90  1  0.533300  0.227700  0.153200  1.0  0.1203
  H  H91  1  0.487200  0.260800  0.842100  1.0  0.1123
  H  H92  1  0.672500  0.447400  0.979700  1.0  0.0725
  C  C93  1  0.197200  0.853200  0.758500  1.0  0.6771
  C  C94  1  0.215300  0.938800  0.698600  1.0  -0.0523
  C  C95  1  0.279500  0.081400  0.688500  1.0  0.1697
  C  C96  1  0.180000  0.959700  0.598500  1.0  -0.1404
  C  C97  1  0.266700  0.001800  0.742800  1.0  -0.1424
  C  C98  1  0.783700  0.204700  0.590700  1.0  -0.0626
  C  C99  1  0.085700  0.250400  0.408200  1.0  0.1792
  C  C100  1  0.785200  0.303000  0.442600  1.0  -0.1532
  C  C101  1  0.112600  0.270500  0.584900  1.0  0.1777
  C  C102  1  0.996900  0.257000  0.497500  1.0  0.2817
  C  C103  1  0.045400  0.267400  0.589500  1.0  -0.2568
  C  C104  1  0.819700  0.257200  0.532400  1.0  -0.03
  C  C105  1  0.018600  0.247500  0.405500  1.0  -0.2716
  C  C106  1  0.894900  0.261200  0.569500  1.0  0.5455
  C  C107  1  0.196700  0.040700  0.547800  1.0  0.1815
  C  C108  1  0.302800  0.353200  0.741500  1.0  0.6777
  C  C109  1  0.284700  0.438800  0.801400  1.0  -0.0526
  C  C110  1  0.220500  0.581400  0.811500  1.0  0.1696
  C  C111  1  0.320000  0.459700  0.901500  1.0  -0.1411
  C  C112  1  0.233300  0.501800  0.757200  1.0  -0.1411
  C  C113  1  0.716300  0.704700  0.909300  1.0  -0.0618
  C  C114  1  0.414300  0.750400  0.091800  1.0  0.1786
  C  C115  1  0.714800  0.803000  0.057400  1.0  -0.1537
  C  C116  1  0.387400  0.770500  0.915100  1.0  0.1773
  C  C117  1  0.503100  0.757000  0.002500  1.0  0.2821
  C  C118  1  0.454600  0.767400  0.910500  1.0  -0.256
  C  C119  1  0.680300  0.757200  0.967600  1.0  -0.0281
  C  C120  1  0.481400  0.747500  0.094500  1.0  -0.2717
  C  C121  1  0.605100  0.761200  0.930500  1.0  0.542
  C  C122  1  0.303300  0.540700  0.952200  1.0  0.1809
  C  C123  1  0.302800  0.646800  0.241500  1.0  0.6756
  C  C124  1  0.284700  0.561200  0.301400  1.0  -0.0531
  C  C125  1  0.220500  0.418600  0.311500  1.0  0.1689
  C  C126  1  0.320000  0.540300  0.401500  1.0  -0.141
  C  C127  1  0.233300  0.498200  0.257200  1.0  -0.1408
  C  C128  1  0.716300  0.295300  0.409300  1.0  -0.0681
  C  C129  1  0.414300  0.249600  0.591800  1.0  0.179
  C  C130  1  0.714800  0.197000  0.557400  1.0  -0.1536
  C  C131  1  0.387400  0.229500  0.415100  1.0  0.1771
  C  C132  1  0.503100  0.243000  0.502500  1.0  0.2819
  C  C133  1  0.454600  0.232600  0.410500  1.0  -0.2554
  C  C134  1  0.680300  0.242800  0.467600  1.0  -0.0284
  C  C135  1  0.481400  0.252500  0.594500  1.0  -0.2712
  C  C136  1  0.605100  0.238800  0.430500  1.0  0.5425
  C  C137  1  0.303300  0.459300  0.452200  1.0  0.1813
  C  C138  1  0.197200  0.146800  0.258500  1.0  0.6749
  C  C139  1  0.215300  0.061200  0.198600  1.0  -0.054
  C  C140  1  0.279500  0.918600  0.188500  1.0  0.1691
  C  C141  1  0.180000  0.040300  0.098500  1.0  -0.14
  C  C142  1  0.266700  0.998200  0.242800  1.0  -0.1427
  C  C143  1  0.783700  0.795300  0.090700  1.0  -0.0698
  C  C144  1  0.085700  0.749600  0.908200  1.0  0.1797
  C  C145  1  0.785200  0.697000  0.942600  1.0  -0.1541
  C  C146  1  0.112600  0.729500  0.084900  1.0  0.1781
  C  C147  1  0.996900  0.743000  0.997500  1.0  0.2816
  C  C148  1  0.045400  0.732600  0.089500  1.0  -0.2564
  C  C149  1  0.819700  0.742800  0.032400  1.0  -0.0289
  C  C150  1  0.018600  0.752500  0.905500  1.0  -0.271
  C  C151  1  0.894900  0.738800  0.069500  1.0  0.5457
  C  C152  1  0.196700  0.959300  0.047800  1.0  0.1814
  C  C153  1  0.697200  0.353200  0.758500  1.0  0.6771
  C  C154  1  0.715300  0.438800  0.698600  1.0  -0.0523
  C  C155  1  0.779500  0.581400  0.688500  1.0  0.1686
  C  C156  1  0.680000  0.459700  0.598500  1.0  -0.1404
  C  C157  1  0.766700  0.501800  0.742800  1.0  -0.1424
  C  C158  1  0.283700  0.704700  0.590700  1.0  -0.0626
  C  C159  1  0.585700  0.750400  0.408200  1.0  0.1792
  C  C160  1  0.285200  0.803000  0.442600  1.0  -0.1532
  C  C161  1  0.612600  0.770500  0.584900  1.0  0.1777
  C  C162  1  0.496900  0.757000  0.497500  1.0  0.2817
  C  C163  1  0.545400  0.767400  0.589500  1.0  -0.2568
  C  C164  1  0.319700  0.757200  0.532400  1.0  -0.03
  C  C165  1  0.518600  0.747500  0.405500  1.0  -0.2716
  C  C166  1  0.394900  0.761200  0.569500  1.0  0.5455
  C  C167  1  0.696700  0.540700  0.547800  1.0  0.1815
  C  C168  1  0.802800  0.853200  0.741500  1.0  0.6777
  C  C169  1  0.784700  0.938800  0.801400  1.0  -0.0526
  C  C170  1  0.720500  0.081400  0.811500  1.0  0.1685
  C  C171  1  0.820000  0.959700  0.901500  1.0  -0.1411
  C  C172  1  0.733300  0.001800  0.757200  1.0  -0.1411
  C  C173  1  0.216300  0.204700  0.909300  1.0  -0.0618
  C  C174  1  0.914300  0.250400  0.091800  1.0  0.1786
  C  C175  1  0.214800  0.303000  0.057400  1.0  -0.1537
  C  C176  1  0.887400  0.270500  0.915100  1.0  0.1773
  C  C177  1  0.003100  0.257000  0.002500  1.0  0.2821
  C  C178  1  0.954600  0.267400  0.910500  1.0  -0.256
  C  C179  1  0.180300  0.257200  0.967600  1.0  -0.0281
  C  C180  1  0.981400  0.247500  0.094500  1.0  -0.2717
  C  C181  1  0.105100  0.261200  0.930500  1.0  0.542
  C  C182  1  0.803300  0.040700  0.952200  1.0  0.1809
  C  C183  1  0.802800  0.146800  0.241500  1.0  0.6756
  C  C184  1  0.784700  0.061200  0.301400  1.0  -0.0531
  C  C185  1  0.720500  0.918600  0.311500  1.0  0.1678
  C  C186  1  0.820000  0.040300  0.401500  1.0  -0.141
  C  C187  1  0.733300  0.998200  0.257200  1.0  -0.1408
  C  C188  1  0.216300  0.795300  0.409300  1.0  -0.0681
  C  C189  1  0.914300  0.749600  0.591800  1.0  0.179
  C  C190  1  0.214800  0.697000  0.557400  1.0  -0.1536
  C  C191  1  0.887400  0.729500  0.415100  1.0  0.1771
  C  C192  1  0.003100  0.743000  0.502500  1.0  0.2819
  C  C193  1  0.954600  0.732600  0.410500  1.0  -0.2554
  C  C194  1  0.180300  0.742800  0.467600  1.0  -0.0284
  C  C195  1  0.981400  0.752500  0.594500  1.0  -0.2712
  C  C196  1  0.105100  0.738800  0.430500  1.0  0.5425
  C  C197  1  0.803300  0.959300  0.452200  1.0  0.1813
  C  C198  1  0.697200  0.646800  0.258500  1.0  0.6749
  C  C199  1  0.715300  0.561200  0.198600  1.0  -0.054
  C  C200  1  0.779500  0.418600  0.188500  1.0  0.168
  C  C201  1  0.680000  0.540300  0.098500  1.0  -0.14
  C  C202  1  0.766700  0.498200  0.242800  1.0  -0.1427
  C  C203  1  0.283700  0.295300  0.090700  1.0  -0.0698
  C  C204  1  0.585700  0.249600  0.908200  1.0  0.1797
  C  C205  1  0.285200  0.197000  0.942600  1.0  -0.1541
  C  C206  1  0.612600  0.229500  0.084900  1.0  0.1781
  C  C207  1  0.496900  0.243000  0.997500  1.0  0.2816
  C  C208  1  0.545400  0.232600  0.089500  1.0  -0.2564
  C  C209  1  0.319700  0.242800  0.032400  1.0  -0.0289
  C  C210  1  0.518600  0.252500  0.905500  1.0  -0.271
  C  C211  1  0.394900  0.238800  0.069500  1.0  0.5457
  C  C212  1  0.696700  0.459300  0.047800  1.0  0.1814
  N  N213  1  0.244800  0.101600  0.590900  1.0  -0.353
  N  N214  1  0.134000  0.261300  0.496500  1.0  -0.3503
  N  N215  1  0.927700  0.253300  0.490400  1.0  -0.356
  N  N216  1  0.255200  0.601600  0.909100  1.0  -0.3542
  N  N217  1  0.366000  0.761300  0.003500  1.0  -0.3469
  N  N218  1  0.572300  0.753300  0.009600  1.0  -0.3551
  N  N219  1  0.255200  0.398400  0.409100  1.0  -0.3534
  N  N220  1  0.366000  0.238700  0.503500  1.0  -0.3475
  N  N221  1  0.572300  0.246700  0.509600  1.0  -0.3554
  N  N222  1  0.244800  0.898400  0.090900  1.0  -0.3527
  N  N223  1  0.134000  0.738700  0.996500  1.0  -0.3505
  N  N224  1  0.927700  0.746700  0.990400  1.0  -0.3557
  N  N225  1  0.744800  0.601600  0.590900  1.0  -0.353
  N  N226  1  0.634000  0.761300  0.496500  1.0  -0.3503
  N  N227  1  0.427700  0.753300  0.490400  1.0  -0.356
  N  N228  1  0.755200  0.101600  0.909100  1.0  -0.3542
  N  N229  1  0.866000  0.261300  0.003500  1.0  -0.3469
  N  N230  1  0.072300  0.253300  0.009600  1.0  -0.3551
  N  N231  1  0.755200  0.898400  0.409100  1.0  -0.3534
  N  N232  1  0.866000  0.738700  0.503500  1.0  -0.3475
  N  N233  1  0.072300  0.746700  0.509600  1.0  -0.3554
  N  N234  1  0.744800  0.398400  0.090900  1.0  -0.3527
  N  N235  1  0.634000  0.238700  0.996500  1.0  -0.3505
  N  N236  1  0.427700  0.246700  0.990400  1.0  -0.3557
  O  O237  1  0.232800  0.841300  0.849600  1.0  -0.674
  O  O238  1  0.148900  0.801700  0.714200  1.0  -0.5981
  O  O239  1  0.923000  0.268300  0.660500  1.0  -0.485
  O  O240  1  0.267200  0.341300  0.650400  1.0  -0.6746
  O  O241  1  0.351100  0.301700  0.785800  1.0  -0.597
  O  O242  1  0.577000  0.768300  0.839500  1.0  -0.4847
  O  O243  1  0.267200  0.658700  0.150400  1.0  -0.6739
  O  O244  1  0.351100  0.698300  0.285800  1.0  -0.5971
  O  O245  1  0.577000  0.231700  0.339500  1.0  -0.4852
  O  O246  1  0.232800  0.158700  0.349600  1.0  -0.6733
  O  O247  1  0.148900  0.198300  0.214200  1.0  -0.5985
  O  O248  1  0.923000  0.731700  0.160500  1.0  -0.4852
  O  O249  1  0.732800  0.341300  0.849600  1.0  -0.674
  O  O250  1  0.648900  0.301700  0.714200  1.0  -0.5981
  O  O251  1  0.423000  0.768300  0.660500  1.0  -0.485
  O  O252  1  0.767200  0.841300  0.650400  1.0  -0.6746
  O  O253  1  0.851100  0.801700  0.785800  1.0  -0.597
  O  O254  1  0.077000  0.268300  0.839500  1.0  -0.4847
  O  O255  1  0.767200  0.158700  0.150400  1.0  -0.6739
  O  O256  1  0.851100  0.198300  0.285800  1.0  -0.5971
  O  O257  1  0.077000  0.731700  0.339500  1.0  -0.4852
  O  O258  1  0.732800  0.658700  0.349600  1.0  -0.6733
  O  O259  1  0.648900  0.698300  0.214200  1.0  -0.5985
  O  O260  1  0.423000  0.231700  0.160500  1.0  -0.4852
