# generated using pymatgen
data_Mn6As4H12S13N6
_symmetry_space_group_name_H-M   'P 1'
_cell_length_a   14.80200000
_cell_length_b   14.78000000
_cell_length_c   20.80100000
_cell_angle_alpha   90.00000000
_cell_angle_beta   90.36000000
_cell_angle_gamma   90.00000000
_symmetry_Int_Tables_number   1
_chemical_formula_structural   Mn6As4H12S13N6
_chemical_formula_sum   'Mn24 As16 H48 S52 N24'
_cell_volume   4550.61899446
_cell_formula_units_Z   4
loop_
 _symmetry_equiv_pos_site_id
 _symmetry_equiv_pos_as_xyz
  1  'x, y, z'
loop_
 _atom_site_type_symbol
 _atom_site_label
 _atom_site_symmetry_multiplicity
 _atom_site_fract_x
 _atom_site_fract_y
 _atom_site_fract_z
 _atom_site_occupancy
 _atom_site_charge
  Mn  Mn1  1  0.472880  0.889060  0.249930  1.0  0.7381
  Mn  Mn2  1  0.448350  0.135260  0.245990  1.0  0.7451
  Mn  Mn3  1  0.316770  0.000720  0.360210  1.0  0.7027
  Mn  Mn4  1  0.226980  0.865390  0.224480  1.0  0.6723
  Mn  Mn5  1  0.359990  0.002600  0.114970  1.0  0.737
  Mn  Mn6  1  0.205320  0.112590  0.225830  1.0  0.7571
  Mn  Mn7  1  0.972880  0.389060  0.249930  1.0  0.7381
  Mn  Mn8  1  0.948350  0.635260  0.245990  1.0  0.7451
  Mn  Mn9  1  0.816770  0.500720  0.360210  1.0  0.7027
  Mn  Mn10  1  0.726980  0.365390  0.224480  1.0  0.6723
  Mn  Mn11  1  0.859990  0.502600  0.114970  1.0  0.737
  Mn  Mn12  1  0.705320  0.612590  0.225830  1.0  0.7571
  Mn  Mn13  1  0.472880  0.110940  0.749930  1.0  0.7385
  Mn  Mn14  1  0.448350  0.864740  0.745990  1.0  0.7446
  Mn  Mn15  1  0.316770  0.999280  0.860210  1.0  0.7027
  Mn  Mn16  1  0.226980  0.134610  0.724480  1.0  0.6731
  Mn  Mn17  1  0.359990  0.997400  0.614970  1.0  0.737
  Mn  Mn18  1  0.205320  0.887410  0.725830  1.0  0.7573
  Mn  Mn19  1  0.972880  0.610940  0.749930  1.0  0.7385
  Mn  Mn20  1  0.948350  0.364740  0.745990  1.0  0.7446
  Mn  Mn21  1  0.816770  0.499280  0.860210  1.0  0.7027
  Mn  Mn22  1  0.726980  0.634610  0.724480  1.0  0.6731
  Mn  Mn23  1  0.859990  0.497400  0.614970  1.0  0.737
  Mn  Mn24  1  0.705320  0.387410  0.725830  1.0  0.7573
  As  As25  1  0.545890  0.025030  0.371570  1.0  0.4159
  As  As26  1  0.380370  0.773630  0.123290  1.0  0.4366
  As  As27  1  0.335900  0.231640  0.121360  1.0  0.3667
  As  As28  1  0.090770  0.979330  0.329310  1.0  0.4057
  As  As29  1  0.045890  0.525030  0.371570  1.0  0.4159
  As  As30  1  0.880370  0.273630  0.123290  1.0  0.4366
  As  As31  1  0.835900  0.731640  0.121360  1.0  0.3667
  As  As32  1  0.590770  0.479330  0.329310  1.0  0.4057
  As  As33  1  0.545890  0.974970  0.871570  1.0  0.4157
  As  As34  1  0.380370  0.226370  0.623290  1.0  0.4355
  As  As35  1  0.335900  0.768360  0.621360  1.0  0.3661
  As  As36  1  0.090770  0.020670  0.829310  1.0  0.4056
  As  As37  1  0.045890  0.474970  0.871570  1.0  0.4157
  As  As38  1  0.880370  0.726370  0.623290  1.0  0.4355
  As  As39  1  0.835900  0.268360  0.621360  1.0  0.3661
  As  As40  1  0.590770  0.520670  0.829310  1.0  0.4056
  H  H41  1  0.639800  0.818500  0.253900  1.0  0.2487
  H  H42  1  0.588000  0.767700  0.300300  1.0  0.2562
  H  H43  1  0.588300  0.732100  0.178100  1.0  0.2401
  H  H44  1  0.538800  0.680500  0.225200  1.0  0.2429
  H  H45  1  0.516800  0.302000  0.241100  1.0  0.2425
  H  H46  1  0.563000  0.257400  0.293800  1.0  0.2529
  H  H47  1  0.610300  0.241900  0.173400  1.0  0.2506
  H  H48  1  0.656000  0.195400  0.225700  1.0  0.2497
  H  H49  1  0.266800  0.052800  0.479500  1.0  0.2569
  H  H50  1  0.262900  0.954700  0.479900  1.0  0.2482
  H  H51  1  0.411300  0.047900  0.497200  1.0  0.2418
  H  H52  1  0.408800  0.949900  0.496000  1.0  0.239
  H  H53  1  0.139800  0.318500  0.253900  1.0  0.2487
  H  H54  1  0.088000  0.267700  0.300300  1.0  0.2562
  H  H55  1  0.088300  0.232100  0.178100  1.0  0.2401
  H  H56  1  0.038800  0.180500  0.225200  1.0  0.2429
  H  H57  1  0.016800  0.802000  0.241100  1.0  0.2425
  H  H58  1  0.063000  0.757400  0.293800  1.0  0.2529
  H  H59  1  0.110300  0.741900  0.173400  1.0  0.2506
  H  H60  1  0.156000  0.695400  0.225700  1.0  0.2497
  H  H61  1  0.766800  0.552800  0.479500  1.0  0.2569
  H  H62  1  0.762900  0.454700  0.479900  1.0  0.2482
  H  H63  1  0.911300  0.547900  0.497200  1.0  0.2418
  H  H64  1  0.908800  0.449900  0.496000  1.0  0.239
  H  H65  1  0.639800  0.181500  0.753900  1.0  0.2481
  H  H66  1  0.588000  0.232300  0.800300  1.0  0.2562
  H  H67  1  0.588300  0.267900  0.678100  1.0  0.2399
  H  H68  1  0.538800  0.319500  0.725200  1.0  0.2425
  H  H69  1  0.516800  0.698000  0.741100  1.0  0.243
  H  H70  1  0.563000  0.742600  0.793800  1.0  0.2532
  H  H71  1  0.610300  0.758100  0.673400  1.0  0.2508
  H  H72  1  0.656000  0.804600  0.725700  1.0  0.2486
  H  H73  1  0.266800  0.947200  0.979500  1.0  0.2574
  H  H74  1  0.262900  0.045300  0.979900  1.0  0.2478
  H  H75  1  0.411300  0.952100  0.997200  1.0  0.2419
  H  H76  1  0.408800  0.050100  0.996000  1.0  0.2378
  H  H77  1  0.139800  0.681500  0.753900  1.0  0.2481
  H  H78  1  0.088000  0.732300  0.800300  1.0  0.2562
  H  H79  1  0.088300  0.767900  0.678100  1.0  0.2399
  H  H80  1  0.038800  0.819500  0.725200  1.0  0.2425
  H  H81  1  0.016800  0.198000  0.741100  1.0  0.243
  H  H82  1  0.063000  0.242600  0.793800  1.0  0.2532
  H  H83  1  0.110300  0.258100  0.673400  1.0  0.2508
  H  H84  1  0.156000  0.304600  0.725700  1.0  0.2486
  H  H85  1  0.766800  0.447200  0.979500  1.0  0.2574
  H  H86  1  0.762900  0.545300  0.979900  1.0  0.2478
  H  H87  1  0.911300  0.452100  0.997200  1.0  0.2419
  H  H88  1  0.908800  0.550100  0.996000  1.0  0.2378
  S  S89  1  0.338500  0.000400  0.237120  1.0  -0.3788
  S  S90  1  0.583800  0.025800  0.266700  1.0  -0.4307
  S  S91  1  0.461500  0.898900  0.373830  1.0  -0.3629
  S  S92  1  0.362000  0.753600  0.229430  1.0  -0.3946
  S  S93  1  0.488400  0.881300  0.125090  1.0  -0.3351
  S  S94  1  0.436600  0.129800  0.371560  1.0  -0.3559
  S  S95  1  0.461800  0.147400  0.121290  1.0  -0.4248
  S  S96  1  0.316300  0.249200  0.227870  1.0  -0.4222
  S  S97  1  0.233000  0.123400  0.101690  1.0  -0.3749
  S  S98  1  0.196600  0.872700  0.348420  1.0  -0.3362
  S  S99  1  0.256800  0.856400  0.101050  1.0  -0.4129
  S  S100  1  0.091500  0.978800  0.221290  1.0  -0.3231
  S  S101  1  0.171700  0.104500  0.349810  1.0  -0.4417
  S  S102  1  0.838500  0.500400  0.237120  1.0  -0.3788
  S  S103  1  0.083800  0.525800  0.266700  1.0  -0.4307
  S  S104  1  0.961500  0.398900  0.373830  1.0  -0.3629
  S  S105  1  0.862000  0.253600  0.229430  1.0  -0.3946
  S  S106  1  0.988400  0.381300  0.125090  1.0  -0.3351
  S  S107  1  0.936600  0.629800  0.371560  1.0  -0.3559
  S  S108  1  0.961800  0.647400  0.121290  1.0  -0.4248
  S  S109  1  0.816300  0.749200  0.227870  1.0  -0.4222
  S  S110  1  0.733000  0.623400  0.101690  1.0  -0.3749
  S  S111  1  0.696600  0.372700  0.348420  1.0  -0.3362
  S  S112  1  0.756800  0.356400  0.101050  1.0  -0.4129
  S  S113  1  0.591500  0.478800  0.221290  1.0  -0.3231
  S  S114  1  0.671700  0.604500  0.349810  1.0  -0.4417
  S  S115  1  0.338500  0.999600  0.737120  1.0  -0.3779
  S  S116  1  0.583800  0.974200  0.766700  1.0  -0.4311
  S  S117  1  0.461500  0.101100  0.873830  1.0  -0.3629
  S  S118  1  0.362000  0.246400  0.729430  1.0  -0.3941
  S  S119  1  0.488400  0.118700  0.625090  1.0  -0.3356
  S  S120  1  0.436600  0.870200  0.871560  1.0  -0.3539
  S  S121  1  0.461800  0.852600  0.621290  1.0  -0.4242
  S  S122  1  0.316300  0.750800  0.727870  1.0  -0.4223
  S  S123  1  0.233000  0.876600  0.601690  1.0  -0.3754
  S  S124  1  0.196600  0.127300  0.848420  1.0  -0.3358
  S  S125  1  0.256800  0.143600  0.601050  1.0  -0.4134
  S  S126  1  0.091500  0.021200  0.721290  1.0  -0.3233
  S  S127  1  0.171700  0.895500  0.849810  1.0  -0.4415
  S  S128  1  0.838500  0.499600  0.737120  1.0  -0.3779
  S  S129  1  0.083800  0.474200  0.766700  1.0  -0.4311
  S  S130  1  0.961500  0.601100  0.873830  1.0  -0.3629
  S  S131  1  0.862000  0.746400  0.729430  1.0  -0.3941
  S  S132  1  0.988400  0.618700  0.625090  1.0  -0.3356
  S  S133  1  0.936600  0.370200  0.871560  1.0  -0.3539
  S  S134  1  0.961800  0.352600  0.621290  1.0  -0.4242
  S  S135  1  0.816300  0.250800  0.727870  1.0  -0.4223
  S  S136  1  0.733000  0.376600  0.601690  1.0  -0.3754
  S  S137  1  0.696600  0.627300  0.848420  1.0  -0.3358
  S  S138  1  0.756800  0.643600  0.601050  1.0  -0.4134
  S  S139  1  0.591500  0.521200  0.721290  1.0  -0.3233
  S  S140  1  0.671700  0.395500  0.849810  1.0  -0.4415
  N  N141  1  0.587800  0.788000  0.259500  1.0  -0.6652
  N  N142  1  0.590200  0.711700  0.218800  1.0  -0.6546
  N  N143  1  0.546500  0.251200  0.252300  1.0  -0.6538
  N  N144  1  0.626600  0.246600  0.215000  1.0  -0.662
  N  N145  1  0.297500  0.002400  0.469100  1.0  -0.663
  N  N146  1  0.377400  0.999500  0.507300  1.0  -0.6538
  N  N147  1  0.087800  0.288000  0.259500  1.0  -0.6652
  N  N148  1  0.090200  0.211700  0.218800  1.0  -0.6546
  N  N149  1  0.046500  0.751200  0.252300  1.0  -0.6538
  N  N150  1  0.126600  0.746600  0.215000  1.0  -0.662
  N  N151  1  0.797500  0.502400  0.469100  1.0  -0.663
  N  N152  1  0.877400  0.499500  0.507300  1.0  -0.6538
  N  N153  1  0.587800  0.212000  0.759500  1.0  -0.6648
  N  N154  1  0.590200  0.288300  0.718800  1.0  -0.654
  N  N155  1  0.546500  0.748800  0.752300  1.0  -0.655
  N  N156  1  0.626600  0.753400  0.715000  1.0  -0.6617
  N  N157  1  0.297500  0.997600  0.969100  1.0  -0.6628
  N  N158  1  0.377400  0.000500  0.007300  1.0  -0.6539
  N  N159  1  0.087800  0.712000  0.759500  1.0  -0.6648
  N  N160  1  0.090200  0.788300  0.718800  1.0  -0.654
  N  N161  1  0.046500  0.248800  0.752300  1.0  -0.655
  N  N162  1  0.126600  0.253400  0.715000  1.0  -0.6617
  N  N163  1  0.797500  0.497600  0.969100  1.0  -0.6628
  N  N164  1  0.877400  0.500500  0.007300  1.0  -0.6539
