# generated using pymatgen
data_CdH3(C3O2)3
_symmetry_space_group_name_H-M   'P 1'
_cell_length_a   10.09400000
_cell_length_b   13.69900000
_cell_length_c   13.72300000
_cell_angle_alpha   90.00000000
_cell_angle_beta   107.92000000
_cell_angle_gamma   90.00000000
_symmetry_Int_Tables_number   1
_chemical_formula_structural   CdH3(C3O2)3
_chemical_formula_sum   'Cd4 H12 C36 O24'
_cell_volume   1805.52753076
_cell_formula_units_Z   4
loop_
 _symmetry_equiv_pos_site_id
 _symmetry_equiv_pos_as_xyz
  1  'x, y, z'
loop_
 _atom_site_type_symbol
 _atom_site_label
 _atom_site_symmetry_multiplicity
 _atom_site_fract_x
 _atom_site_fract_y
 _atom_site_fract_z
 _atom_site_occupancy
 _atom_site_charge
  Cd  Cd1  1  0.673400  0.557230  0.081550  1.0  1.0945
  Cd  Cd2  1  0.326600  0.057230  0.418450  1.0  1.0937
  Cd  Cd3  1  0.326600  0.442770  0.918450  1.0  1.0933
  Cd  Cd4  1  0.673400  0.942770  0.581550  1.0  1.0943
  H  H5  1  0.851100  0.085800  0.442400  1.0  0.1383
  H  H6  1  0.986200  0.311400  0.312000  1.0  0.1463
  H  H7  1  0.579800  0.283800  0.278200  1.0  0.1499
  H  H8  1  0.148900  0.585800  0.057600  1.0  0.1385
  H  H9  1  0.013800  0.811400  0.188000  1.0  0.1461
  H  H10  1  0.420200  0.783800  0.221800  1.0  0.1498
  H  H11  1  0.148900  0.914200  0.557600  1.0  0.1386
  H  H12  1  0.013800  0.688600  0.688000  1.0  0.1463
  H  H13  1  0.420200  0.716200  0.721800  1.0  0.1495
  H  H14  1  0.851100  0.414200  0.942400  1.0  0.1385
  H  H15  1  0.986200  0.188600  0.812000  1.0  0.1456
  H  H16  1  0.579800  0.216200  0.778200  1.0  0.1501
  C  C17  1  0.752400  0.405500  0.223800  1.0  0.7371
  C  C18  1  0.578200  0.125000  0.387000  1.0  0.7347
  C  C19  1  0.084200  0.147300  0.405100  1.0  0.6885
  C  C20  1  0.832600  0.141500  0.401700  1.0  0.0609
  C  C21  1  0.941000  0.189800  0.378700  1.0  -0.1223
  C  C22  1  0.913300  0.277100  0.324100  1.0  0.0755
  C  C23  1  0.779900  0.313500  0.287600  1.0  -0.1187
  C  C24  1  0.670700  0.261500  0.305500  1.0  0.0623
  C  C25  1  0.696900  0.176400  0.363900  1.0  -0.1228
  C  C26  1  0.247600  0.905500  0.276200  1.0  0.7361
  C  C27  1  0.421800  0.625000  0.113000  1.0  0.7339
  C  C28  1  0.915800  0.647300  0.094900  1.0  0.688
  C  C29  1  0.167400  0.641500  0.098300  1.0  0.0592
  C  C30  1  0.059000  0.689800  0.121300  1.0  -0.1221
  C  C31  1  0.086700  0.777100  0.175900  1.0  0.0759
  C  C32  1  0.220100  0.813500  0.212400  1.0  -0.1194
  C  C33  1  0.329300  0.761500  0.194500  1.0  0.0635
  C  C34  1  0.303100  0.676400  0.136100  1.0  -0.1232
  C  C35  1  0.247600  0.594500  0.776200  1.0  0.7356
  C  C36  1  0.421800  0.875000  0.613000  1.0  0.7344
  C  C37  1  0.915800  0.852700  0.594900  1.0  0.6879
  C  C38  1  0.167400  0.858500  0.598300  1.0  0.0595
  C  C39  1  0.059000  0.810200  0.621300  1.0  -0.1222
  C  C40  1  0.086700  0.722900  0.675900  1.0  0.0761
  C  C41  1  0.220100  0.686500  0.712400  1.0  -0.1194
  C  C42  1  0.329300  0.738500  0.694500  1.0  0.0641
  C  C43  1  0.303100  0.823600  0.636100  1.0  -0.123
  C  C44  1  0.752400  0.094500  0.723800  1.0  0.7368
  C  C45  1  0.578200  0.375000  0.887000  1.0  0.735
  C  C46  1  0.084200  0.352700  0.905100  1.0  0.6883
  C  C47  1  0.832600  0.358500  0.901700  1.0  0.0606
  C  C48  1  0.941000  0.310200  0.878700  1.0  -0.1225
  C  C49  1  0.913300  0.222900  0.824100  1.0  0.0755
  C  C50  1  0.779900  0.186500  0.787600  1.0  -0.119
  C  C51  1  0.670700  0.238500  0.805500  1.0  0.0624
  C  C52  1  0.696900  0.323600  0.863900  1.0  -0.1226
  O  O53  1  0.852900  0.456300  0.218100  1.0  -0.5676
  O  O54  1  0.627300  0.429200  0.178000  1.0  -0.5509
  O  O55  1  0.604500  0.059700  0.455700  1.0  -0.7631
  O  O56  1  0.455200  0.149300  0.337300  1.0  -0.5465
  O  O57  1  0.166500  0.182100  0.360500  1.0  -0.5447
  O  O58  1  0.118000  0.076700  0.467000  1.0  -0.5491
  O  O59  1  0.147100  0.956300  0.281900  1.0  -0.5683
  O  O60  1  0.372700  0.929200  0.322000  1.0  -0.5514
  O  O61  1  0.395500  0.559700  0.044300  1.0  -0.7645
  O  O62  1  0.544800  0.649300  0.162700  1.0  -0.5446
  O  O63  1  0.833500  0.682100  0.139500  1.0  -0.5428
  O  O64  1  0.882000  0.576700  0.033000  1.0  -0.5485
  O  O65  1  0.147100  0.543700  0.781900  1.0  -0.5686
  O  O66  1  0.372700  0.570800  0.822000  1.0  -0.5517
  O  O67  1  0.395500  0.940300  0.544300  1.0  -0.765
  O  O68  1  0.544800  0.850700  0.662700  1.0  -0.5454
  O  O69  1  0.833500  0.817900  0.639500  1.0  -0.5424
  O  O70  1  0.882000  0.923300  0.533000  1.0  -0.5492
  O  O71  1  0.852900  0.043700  0.718100  1.0  -0.568
  O  O72  1  0.627300  0.070800  0.678000  1.0  -0.5509
  O  O73  1  0.604500  0.440300  0.955700  1.0  -0.7646
  O  O74  1  0.455200  0.350700  0.837300  1.0  -0.5475
  O  O75  1  0.166500  0.317900  0.860500  1.0  -0.5439
  O  O76  1  0.118000  0.423300  0.967000  1.0  -0.549
