# generated using pymatgen
data_V9(P2O9)4
_symmetry_space_group_name_H-M   'P 1'
_cell_length_a   14.30490000
_cell_length_b   10.15370000
_cell_length_c   18.31280000
_cell_angle_alpha   90.00000000
_cell_angle_beta   90.10700000
_cell_angle_gamma   90.00000000
_symmetry_Int_Tables_number   1
_chemical_formula_structural   V9(P2O9)4
_chemical_formula_sum   'V18 P16 O72'
_cell_volume   2659.88676710
_cell_formula_units_Z   2
loop_
 _symmetry_equiv_pos_site_id
 _symmetry_equiv_pos_as_xyz
  1  'x, y, z'
loop_
 _atom_site_type_symbol
 _atom_site_label
 _atom_site_symmetry_multiplicity
 _atom_site_fract_x
 _atom_site_fract_y
 _atom_site_fract_z
 _atom_site_occupancy
 _atom_site_charge
  V  V1  1  0.288210  0.200400  0.196800  1.0  1.2721
  V  V2  1  0.242350  0.684500  0.103830  1.0  1.2801
  V  V3  1  0.253220  0.847890  0.803390  1.0  1.2538
  V  V4  1  0.253260  0.362370  0.892460  1.0  1.2949
  V  V5  1  0.211790  0.700400  0.303200  1.0  1.2704
  V  V6  1  0.257650  0.184500  0.396170  1.0  1.2791
  V  V7  1  0.246780  0.347890  0.696610  1.0  1.2541
  V  V8  1  0.246740  0.862370  0.607540  1.0  1.2965
  V  V9  1  0.711790  0.799600  0.803200  1.0  1.2703
  V  V10  1  0.757650  0.315500  0.896170  1.0  1.2803
  V  V11  1  0.746780  0.152110  0.196610  1.0  1.2547
  V  V12  1  0.746740  0.637630  0.107540  1.0  1.2959
  V  V13  1  0.788210  0.299600  0.696800  1.0  1.2717
  V  V14  1  0.742350  0.815500  0.603830  1.0  1.28
  V  V15  1  0.753220  0.652110  0.303390  1.0  1.2548
  V  V16  1  0.753260  0.137630  0.392460  1.0  1.2941
  V  V17  1  0.000000  0.500000  0.000000  1.0  1.3905
  V  V18  1  0.500000  0.000000  0.500000  1.0  1.3905
  P  P19  1  0.345950  0.636990  0.697790  1.0  1.7413
  P  P20  1  0.184140  0.642850  0.930460  1.0  1.8671
  P  P21  1  0.333200  0.429230  0.313650  1.0  1.74
  P  P22  1  0.198330  0.389120  0.066850  1.0  1.867
  P  P23  1  0.154050  0.136990  0.802210  1.0  1.7392
  P  P24  1  0.315860  0.142850  0.569540  1.0  1.8668
  P  P25  1  0.166800  0.929230  0.186350  1.0  1.7395
  P  P26  1  0.301670  0.889120  0.433150  1.0  1.8669
  P  P27  1  0.654050  0.363010  0.302210  1.0  1.7409
  P  P28  1  0.815860  0.357150  0.069540  1.0  1.8667
  P  P29  1  0.666800  0.570770  0.686350  1.0  1.7397
  P  P30  1  0.801670  0.610880  0.933150  1.0  1.8669
  P  P31  1  0.845950  0.863010  0.197790  1.0  1.7386
  P  P32  1  0.684140  0.857150  0.430460  1.0  1.8671
  P  P33  1  0.833200  0.070770  0.813650  1.0  1.7402
  P  P34  1  0.698330  0.110880  0.566850  1.0  1.8671
  O  O35  1  0.197000  0.712400  0.003880  1.0  -0.8176
  O  O36  1  0.429800  0.487400  0.294800  1.0  -0.524
  O  O37  1  0.444400  0.674300  0.724600  1.0  -0.5376
  O  O38  1  0.287300  0.371400  0.245520  1.0  -0.7724
  O  O39  1  0.096100  0.558700  0.928510  1.0  -0.768
  O  O40  1  0.218000  0.326000  0.993540  1.0  -0.7893
  O  O41  1  0.325900  0.708800  0.626520  1.0  -0.7237
  O  O42  1  0.098100  0.444000  0.070870  1.0  -0.7456
  O  O43  1  0.206500  0.284000  0.125970  1.0  -0.7992
  O  O44  1  0.274600  0.676800  0.756580  1.0  -0.7268
  O  O45  1  0.172500  0.748600  0.871460  1.0  -0.7298
  O  O46  1  0.281700  0.925700  0.706170  1.0  -0.7571
  O  O47  1  0.272300  0.540200  0.341120  1.0  -0.7224
  O  O48  1  0.268000  0.500500  0.081610  1.0  -0.7232
  O  O49  1  0.283800  0.118900  0.295210  1.0  -0.7517
  O  O50  1  0.346600  0.325400  0.372840  1.0  -0.6952
  O  O51  1  0.340900  0.488400  0.684340  1.0  -0.7133
  O  O52  1  0.268000  0.553900  0.914240  1.0  -0.7124
  O  O53  1  0.303000  0.212400  0.496120  1.0  -0.8175
  O  O54  1  0.070200  0.987400  0.205200  1.0  -0.5233
  O  O55  1  0.055600  0.174300  0.775400  1.0  -0.5387
  O  O56  1  0.212700  0.871400  0.254480  1.0  -0.7696
  O  O57  1  0.403900  0.058700  0.571490  1.0  -0.7685
  O  O58  1  0.282000  0.826000  0.506460  1.0  -0.7895
  O  O59  1  0.174100  0.208800  0.873480  1.0  -0.7233
  O  O60  1  0.401900  0.944000  0.429130  1.0  -0.7469
  O  O61  1  0.293500  0.784000  0.374030  1.0  -0.7995
  O  O62  1  0.225400  0.176800  0.743420  1.0  -0.7297
  O  O63  1  0.327500  0.248600  0.628540  1.0  -0.7294
  O  O64  1  0.218300  0.425700  0.793830  1.0  -0.7574
  O  O65  1  0.227700  0.040200  0.158880  1.0  -0.7219
  O  O66  1  0.232000  0.000500  0.418390  1.0  -0.7233
  O  O67  1  0.216200  0.618900  0.204790  1.0  -0.7511
  O  O68  1  0.153400  0.825400  0.127160  1.0  -0.6967
  O  O69  1  0.159100  0.988400  0.815660  1.0  -0.7145
  O  O70  1  0.232000  0.053900  0.585760  1.0  -0.709
  O  O71  1  0.803000  0.287600  0.996120  1.0  -0.8162
  O  O72  1  0.570200  0.512600  0.705200  1.0  -0.5241
  O  O73  1  0.555600  0.325700  0.275400  1.0  -0.5393
  O  O74  1  0.712700  0.628600  0.754480  1.0  -0.772
  O  O75  1  0.903900  0.441300  0.071490  1.0  -0.7679
  O  O76  1  0.782000  0.674000  0.006460  1.0  -0.7896
  O  O77  1  0.674100  0.291200  0.373480  1.0  -0.7241
  O  O78  1  0.901900  0.556000  0.929130  1.0  -0.7473
  O  O79  1  0.793500  0.716000  0.874030  1.0  -0.7983
  O  O80  1  0.725400  0.323200  0.243420  1.0  -0.7284
  O  O81  1  0.827500  0.251400  0.128540  1.0  -0.7296
  O  O82  1  0.718300  0.074300  0.293830  1.0  -0.7587
  O  O83  1  0.727700  0.459800  0.658880  1.0  -0.7226
  O  O84  1  0.732000  0.499500  0.918390  1.0  -0.7213
  O  O85  1  0.716200  0.881100  0.704790  1.0  -0.7509
  O  O86  1  0.653400  0.674600  0.627160  1.0  -0.6964
  O  O87  1  0.659100  0.511600  0.315660  1.0  -0.7142
  O  O88  1  0.732000  0.446100  0.085760  1.0  -0.7091
  O  O89  1  0.697000  0.787600  0.503880  1.0  -0.8173
  O  O90  1  0.929800  0.012600  0.794800  1.0  -0.525
  O  O91  1  0.944400  0.825700  0.224600  1.0  -0.5385
  O  O92  1  0.787300  0.128600  0.745520  1.0  -0.7705
  O  O93  1  0.596100  0.941300  0.428510  1.0  -0.7677
  O  O94  1  0.718000  0.174000  0.493540  1.0  -0.7898
  O  O95  1  0.825900  0.791200  0.126520  1.0  -0.7244
  O  O96  1  0.598100  0.056000  0.570870  1.0  -0.7459
  O  O97  1  0.706500  0.216000  0.625970  1.0  -0.798
  O  O98  1  0.774600  0.823200  0.256580  1.0  -0.7282
  O  O99  1  0.672500  0.751400  0.371460  1.0  -0.7294
  O  O100  1  0.781700  0.574300  0.206170  1.0  -0.7563
  O  O101  1  0.772300  0.959800  0.841120  1.0  -0.7228
  O  O102  1  0.768000  0.999500  0.581610  1.0  -0.7258
  O  O103  1  0.783800  0.381100  0.795210  1.0  -0.7514
  O  O104  1  0.846600  0.174600  0.872840  1.0  -0.6944
  O  O105  1  0.840900  0.011600  0.184340  1.0  -0.713
  O  O106  1  0.768000  0.946100  0.414240  1.0  -0.712
