# generated using pymatgen
data_Mn9H80C128(N16O17)2
_symmetry_space_group_name_H-M   'P 1'
_cell_length_a   20.46040000
_cell_length_b   20.46040000
_cell_length_c   21.92310000
_cell_angle_alpha   82.51330000
_cell_angle_beta   62.22770000
_cell_angle_gamma   111.16900000
_symmetry_Int_Tables_number   1
_chemical_formula_structural   Mn9H80C128(N16O17)2
_chemical_formula_sum   'Mn18 H160 C256 N64 O68'
_cell_volume   7059.30684057
_cell_formula_units_Z   2
loop_
 _symmetry_equiv_pos_site_id
 _symmetry_equiv_pos_as_xyz
  1  'x, y, z'
loop_
 _atom_site_type_symbol
 _atom_site_label
 _atom_site_symmetry_multiplicity
 _atom_site_fract_x
 _atom_site_fract_y
 _atom_site_fract_z
 _atom_site_occupancy
 _atom_site_charge
  Mn  Mn1  1  0.280720  0.209420  0.603900  1.0  1.1775
  Mn  Mn2  1  0.153230  0.278570  0.588240  1.0  1.18
  Mn  Mn3  1  0.337170  0.334510  0.420900  1.0  1.1426
  Mn  Mn4  1  0.668480  0.387760  0.940800  1.0  1.1717
  Mn  Mn5  1  0.313320  0.884620  0.896100  1.0  1.1755
  Mn  Mn6  1  0.366810  0.741470  0.911760  1.0  1.1803
  Mn  Mn7  1  0.255410  0.758070  0.079100  1.0  1.1447
  Mn  Mn8  1  0.828560  0.609280  0.559200  1.0  1.1738
  Mn  Mn9  1  0.719280  0.790580  0.396100  1.0  1.1783
  Mn  Mn10  1  0.846770  0.721430  0.411760  1.0  1.181
  Mn  Mn11  1  0.662830  0.665490  0.579100  1.0  1.1442
  Mn  Mn12  1  0.331520  0.612240  0.059200  1.0  1.1749
  Mn  Mn13  1  0.686680  0.115380  0.103900  1.0  1.1752
  Mn  Mn14  1  0.633190  0.258530  0.088240  1.0  1.1792
  Mn  Mn15  1  0.744590  0.241930  0.920900  1.0  1.1386
  Mn  Mn16  1  0.171440  0.390720  0.440800  1.0  1.1717
  Mn  Mn17  1  0.260690  0.010690  0.750000  1.0  0.944
  Mn  Mn18  1  0.739310  0.989310  0.250000  1.0  0.9424
  H  H19  1  0.478500  0.162300  0.487800  1.0  0.1076
  H  H20  1  0.559300  0.320100  0.301800  1.0  0.1092
  H  H21  1  0.675200  0.302100  0.236500  1.0  0.1044
  H  H22  1  0.691700  0.214300  0.295600  1.0  0.0964
  H  H23  1  0.493600  0.975000  0.645000  1.0  0.1108
  H  H24  1  0.586600  0.851300  0.698900  1.0  0.1179
  H  H25  1  0.702800  0.905700  0.577500  1.0  0.1063
  H  H26  1  0.711000  0.989400  0.489400  1.0  0.105
  H  H27  1  0.350100  0.342400  0.644300  1.0  0.1046
  H  H28  1  0.402300  0.533600  0.510500  1.0  0.1018
  H  H29  1  0.441300  0.598600  0.576700  1.0  0.0953
  H  H30  1  0.441300  0.538300  0.673000  1.0  0.1267
  H  H31  1  0.336000  0.174400  0.809400  1.0  0.1143
  H  H32  1  0.419100  0.084200  0.913100  1.0  0.1227
  H  H33  1  0.482300  0.198500  0.922200  1.0  0.0991
  H  H34  1  0.477800  0.301600  0.872200  1.0  0.1215
  H  H35  1  0.064600  0.972500  0.689100  1.0  0.1169
  H  H36  1  0.061500  0.115300  0.547800  1.0  0.1187
  H  H37  1  0.934600  0.019300  0.576300  1.0  0.1036
  H  H38  1  0.872500  0.901700  0.662400  1.0  0.1111
  H  H39  1  0.844400  0.607900  0.835300  1.0  0.1207
  H  H40  1  0.911500  0.549900  0.970600  1.0  0.106
  H  H41  1  0.955400  0.670000  0.975000  1.0  0.1016
  H  H42  1  0.948200  0.760600  0.907000  1.0  0.1141
  H  H43  1  0.916300  0.281200  0.536500  1.0  0.1037
  H  H44  1  0.882900  0.106300  0.677400  1.0  0.1087
  H  H45  1  0.754600  0.032200  0.695000  1.0  0.1095
  H  H46  1  0.705600  0.081900  0.635300  1.0  0.1087
  H  H47  1  0.798200  0.423000  0.488000  1.0  0.1044
  H  H48  1  0.788300  0.534600  0.330300  1.0  0.114
  H  H49  1  0.751300  0.427300  0.300200  1.0  0.102
  H  H50  1  0.737100  0.318300  0.364800  1.0  0.1017
  H  H51  1  0.558000  0.146000  0.554000  1.0  0.2817
  H  H52  1  0.479000  0.089000  0.580000  1.0  0.3878
  H  H53  1  0.262600  0.241000  0.824400  1.0  0.275
  H  H54  1  0.304000  0.248000  0.750000  1.0  0.3287
  H  H55  1  0.913300  0.371500  0.423200  1.0  0.3581
  H  H56  1  0.888000  0.381000  0.491000  1.0  0.357
  H  H57  1  0.019000  0.894000  0.797000  1.0  0.3073
  H  H58  1  0.070900  0.880600  0.735700  1.0  0.2915
  H  H59  1  0.150100  0.966300  0.012200  1.0  0.1083
  H  H60  1  0.121900  0.861100  0.198200  1.0  0.1097
  H  H61  1  0.038600  0.911700  0.263500  1.0  0.1056
  H  H62  1  0.009900  0.987300  0.204400  1.0  0.0964
  H  H63  1  0.120000  0.138600  0.855000  1.0  0.11
  H  H64  1  0.050200  0.285500  0.801100  1.0  0.1177
  H  H65  1  0.983200  0.280300  0.922500  1.0  0.1072
  H  H66  1  0.978800  0.200400  0.010600  1.0  0.1056
  H  H67  1  0.486700  0.994400  0.855700  1.0  0.1048
  H  H68  1  0.544100  0.912800  0.989500  1.0  0.1015
  H  H69  1  0.675300  0.018000  0.923300  1.0  0.093
  H  H70  1  0.711300  0.114300  0.827000  1.0  0.1271
  H  H71  1  0.483800  0.145400  0.690600  1.0  0.113
  H  H72  1  0.497300  0.332200  0.586900  1.0  0.1219
  H  H73  1  0.620700  0.404500  0.577800  1.0  0.0992
  H  H74  1  0.673800  0.350000  0.627800  1.0  0.1222
  H  H75  1  0.161600  0.753700  0.810900  1.0  0.1186
  H  H76  1  0.163100  0.609300  0.952200  1.0  0.119
  H  H77  1  0.095600  0.510900  0.923700  1.0  0.105
  H  H78  1  0.064100  0.534900  0.837600  1.0  0.1119
  H  H79  1  0.943200  0.679700  0.664700  1.0  0.1223
  H  H80  1  0.020500  0.882100  0.529400  1.0  0.1062
  H  H81  1  0.145000  0.930400  0.525000  1.0  0.1043
  H  H82  1  0.167600  0.855200  0.593000  1.0  0.1137
  H  H83  1  0.317700  0.452800  0.963500  1.0  0.1053
  H  H84  1  0.283700  0.560300  0.822600  1.0  0.1088
  H  H85  1  0.227200  0.449600  0.805000  1.0  0.1083
  H  H86  1  0.217200  0.340900  0.864700  1.0  0.1096
  H  H87  1  0.411000  0.286200  0.012000  1.0  0.1035
  H  H88  1  0.364900  0.118600  0.169700  1.0  0.1145
  H  H89  1  0.227500  0.051500  0.199800  1.0  0.1018
  H  H90  1  0.183100  0.101900  0.135200  1.0  0.102
  H  H91  1  0.200000  0.112000  0.946000  1.0  0.2814
  H  H92  1  0.169000  0.059000  0.920000  1.0  0.3858
  H  H93  1  0.565400  0.087000  0.675600  1.0  0.2744
  H  H94  1  0.498000  0.054000  0.750000  1.0  0.3297
  H  H95  1  0.294700  0.336500  0.076800  1.0  0.3573
  H  H96  1  0.372000  0.379000  0.009000  1.0  0.3535
  H  H97  1  0.191000  0.816000  0.703000  1.0  0.3154
  H  H98  1  0.116300  0.806600  0.764300  1.0  0.2822
  H  H99  1  0.521500  0.837700  0.512200  1.0  0.1074
  H  H100  1  0.440700  0.679900  0.698200  1.0  0.1099
  H  H101  1  0.324800  0.697900  0.763500  1.0  0.1048
  H  H102  1  0.308300  0.785700  0.704400  1.0  0.0966
  H  H103  1  0.506400  0.025000  0.355000  1.0  0.1119
  H  H104  1  0.413400  0.148700  0.301100  1.0  0.1174
  H  H105  1  0.297200  0.094300  0.422500  1.0  0.1067
  H  H106  1  0.289000  0.010600  0.510600  1.0  0.1055
  H  H107  1  0.649900  0.657600  0.355700  1.0  0.1059
  H  H108  1  0.597700  0.466400  0.489500  1.0  0.1023
  H  H109  1  0.558700  0.401400  0.423300  1.0  0.0949
  H  H110  1  0.558700  0.461700  0.327000  1.0  0.1278
  H  H111  1  0.664000  0.825600  0.190600  1.0  0.115
  H  H112  1  0.580900  0.915800  0.086900  1.0  0.1226
  H  H113  1  0.517700  0.801500  0.077800  1.0  0.0995
  H  H114  1  0.522200  0.698400  0.127800  1.0  0.1219
  H  H115  1  0.935400  0.027500  0.310900  1.0  0.1167
  H  H116  1  0.938500  0.884700  0.452200  1.0  0.1191
  H  H117  1  0.065400  0.980700  0.423700  1.0  0.1043
  H  H118  1  0.127500  0.098300  0.337600  1.0  0.1112
  H  H119  1  0.155600  0.392100  0.164700  1.0  0.1196
  H  H120  1  0.088500  0.450100  0.029400  1.0  0.1058
  H  H121  1  0.044600  0.330000  0.025000  1.0  0.102
  H  H122  1  0.051800  0.239400  0.093000  1.0  0.114
  H  H123  1  0.083700  0.718800  0.463500  1.0  0.1054
  H  H124  1  0.117100  0.893700  0.322600  1.0  0.1081
  H  H125  1  0.245400  0.967800  0.305000  1.0  0.1088
  H  H126  1  0.294400  0.918100  0.364700  1.0  0.1089
  H  H127  1  0.201800  0.577000  0.512000  1.0  0.1047
  H  H128  1  0.211700  0.465400  0.669700  1.0  0.114
  H  H129  1  0.248700  0.572700  0.699800  1.0  0.1008
  H  H130  1  0.262900  0.681700  0.635200  1.0  0.1015
  H  H131  1  0.442000  0.854000  0.446000  1.0  0.282
  H  H132  1  0.521000  0.911000  0.420000  1.0  0.3919
  H  H133  1  0.737400  0.759000  0.175600  1.0  0.2755
  H  H134  1  0.696000  0.752000  0.250000  1.0  0.327
  H  H135  1  0.086700  0.628500  0.576800  1.0  0.3588
  H  H136  1  0.112000  0.619000  0.509000  1.0  0.3551
  H  H137  1  0.981000  0.106000  0.203000  1.0  0.3091
  H  H138  1  0.929100  0.119400  0.264300  1.0  0.2891
  H  H139  1  0.849900  0.033700  0.987800  1.0  0.1087
  H  H140  1  0.878100  0.138900  0.801800  1.0  0.109
  H  H141  1  0.961400  0.088300  0.736500  1.0  0.105
  H  H142  1  0.990100  0.012700  0.795600  1.0  0.0964
  H  H143  1  0.880000  0.861400  0.145000  1.0  0.11
  H  H144  1  0.949800  0.714500  0.198900  1.0  0.1174
  H  H145  1  0.016800  0.719700  0.077500  1.0  0.1057
  H  H146  1  0.021200  0.799600  0.989400  1.0  0.1057
  H  H147  1  0.513300  0.005600  0.144300  1.0  0.1056
  H  H148  1  0.455900  0.087200  0.010500  1.0  0.1021
  H  H149  1  0.324700  0.982000  0.076700  1.0  0.0933
  H  H150  1  0.288700  0.885700  0.173000  1.0  0.1273
  H  H151  1  0.516200  0.854600  0.309400  1.0  0.1136
  H  H152  1  0.502700  0.667800  0.413100  1.0  0.1229
  H  H153  1  0.379300  0.595500  0.422200  1.0  0.1022
  H  H154  1  0.326200  0.650000  0.372200  1.0  0.1222
  H  H155  1  0.838400  0.246300  0.189100  1.0  0.1195
  H  H156  1  0.836900  0.390700  0.047800  1.0  0.1188
  H  H157  1  0.904400  0.489100  0.076300  1.0  0.1049
  H  H158  1  0.935900  0.465100  0.162400  1.0  0.1111
  H  H159  1  0.056800  0.320300  0.335300  1.0  0.1203
  H  H160  1  0.979500  0.117900  0.470600  1.0  0.1065
  H  H161  1  0.855000  0.069600  0.475000  1.0  0.1046
  H  H162  1  0.832400  0.144800  0.407000  1.0  0.1135
  H  H163  1  0.682300  0.547200  0.036500  1.0  0.1046
  H  H164  1  0.716300  0.439700  0.177400  1.0  0.1088
  H  H165  1  0.772800  0.550400  0.195000  1.0  0.1075
  H  H166  1  0.782800  0.659100  0.135300  1.0  0.1089
  H  H167  1  0.589000  0.713800  0.988000  1.0  0.1035
  H  H168  1  0.635100  0.881400  0.830300  1.0  0.114
  H  H169  1  0.772500  0.948500  0.800200  1.0  0.1015
  H  H170  1  0.816900  0.898100  0.864800  1.0  0.1015
  H  H171  1  0.800000  0.888000  0.054000  1.0  0.2809
  H  H172  1  0.831000  0.941000  0.080000  1.0  0.3852
  H  H173  1  0.434600  0.913000  0.324400  1.0  0.2728
  H  H174  1  0.502000  0.946000  0.250000  1.0  0.3313
  H  H175  1  0.705300  0.663500  0.923200  1.0  0.3632
  H  H176  1  0.628000  0.621000  0.991000  1.0  0.3548
  H  H177  1  0.809000  0.184000  0.297000  1.0  0.3135
  H  H178  1  0.883700  0.193400  0.235700  1.0  0.285
  C  C179  1  0.602590  0.122210  0.429400  1.0  0.2034
  C  C180  1  0.610700  0.041000  0.497900  1.0  0.2354
  C  C181  1  0.587370  0.178730  0.398500  1.0  -0.0094
  C  C182  1  0.517990  0.190290  0.437600  1.0  -0.0301
  C  C183  1  0.508230  0.243270  0.401500  1.0  -0.13
  C  C184  1  0.566640  0.285160  0.325800  1.0  -0.0102
  C  C185  1  0.635720  0.273980  0.286700  1.0  -0.0793
  C  C186  1  0.645610  0.221690  0.322300  1.0  -0.1053
  C  C187  1  0.431860  0.253840  0.442700  1.0  0.7192
  C  C188  1  0.603500  0.991200  0.557900  1.0  -0.0557
  C  C189  1  0.535100  0.960560  0.631400  1.0  -0.0362
  C  C190  1  0.528950  0.908650  0.684200  1.0  -0.1366
  C  C191  1  0.591170  0.886930  0.663900  1.0  -0.0201
  C  C192  1  0.660190  0.918710  0.590900  1.0  -0.0929
  C  C193  1  0.665570  0.969530  0.538300  1.0  -0.1243
  C  C194  1  0.454260  0.872340  0.762600  1.0  0.6914
  C  C195  1  0.412510  0.399990  0.720500  1.0  0.2393
  C  C196  1  0.416700  0.319000  0.792700  1.0  0.2326
  C  C197  1  0.398480  0.433960  0.667200  1.0  -0.0359
  C  C198  1  0.370190  0.394110  0.629700  1.0  -0.0544
  C  C199  1  0.372220  0.431280  0.570500  1.0  -0.145
  C  C200  1  0.400050  0.508250  0.550500  1.0  -0.0464
  C  C201  1  0.424550  0.547450  0.589600  1.0  -0.0769
  C  C202  1  0.424360  0.511540  0.647300  1.0  -0.0874
  C  C203  1  0.347570  0.390430  0.527000  1.0  0.6901
  C  C204  1  0.408320  0.249780  0.832900  1.0  -0.076
  C  C205  1  0.367060  0.179940  0.830400  1.0  -0.0903
  C  C206  1  0.372330  0.118670  0.859200  1.0  -0.0994
  C  C207  1  0.415830  0.125270  0.893700  1.0  -0.0768
  C  C208  1  0.454130  0.193970  0.898500  1.0  -0.0959
  C  C209  1  0.451370  0.255930  0.868700  1.0  -0.1076
  C  C210  1  0.334900  0.046700  0.848400  1.0  0.6808
  C  C211  1  0.920390  0.849010  0.739600  1.0  0.223
  C  C212  1  0.891540  0.748860  0.817000  1.0  0.2549
  C  C213  1  0.961020  0.924680  0.686300  1.0  -0.0584
  C  C214  1  0.037650  0.981850  0.667300  1.0  -0.0783
  C  C215  1  0.074220  0.052380  0.616200  1.0  -0.1435
  C  C216  1  0.036610  0.067690  0.581900  1.0  -0.0417
  C  C217  1  0.960300  0.010100  0.599400  1.0  -0.0842
  C  C218  1  0.923100  0.939600  0.651100  1.0  -0.1088
  C  C219  1  0.153900  0.113100  0.602400  1.0  0.6538
  C  C220  1  0.897820  0.694280  0.862300  1.0  -0.0318
  C  C221  1  0.868460  0.620840  0.861900  1.0  -0.0388
  C  C222  1  0.875210  0.568290  0.900900  1.0  -0.1441
  C  C223  1  0.907760  0.586040  0.943800  1.0  -0.0471
  C  C224  1  0.934400  0.658200  0.946000  1.0  -0.1035
  C  C225  1  0.930000  0.712500  0.905500  1.0  -0.1084
  C  C226  1  0.843770  0.489830  0.899800  1.0  0.7159
  C  C227  1  0.773150  0.217050  0.542400  1.0  0.2317
  C  C228  1  0.755580  0.290920  0.475900  1.0  0.27
  C  C229  1  0.806090  0.187210  0.579300  1.0  -0.0268
  C  C230  1  0.883810  0.231090  0.567900  1.0  -0.0347
  C  C231  1  0.913700  0.200200  0.603500  1.0  -0.1619
  C  C232  1  0.864320  0.126280  0.652200  1.0  -0.0475
  C  C233  1  0.787160  0.082240  0.663200  1.0  -0.0915
  C  C234  1  0.757510  0.111890  0.627400  1.0  -0.0619
  C  C235  1  0.000820  0.248980  0.584000  1.0  0.7034
  C  C236  1  0.767310  0.359290  0.432400  1.0  0.003
  C  C237  1  0.788530  0.423770  0.450500  1.0  -0.1466
  C  C238  1  0.795430  0.488270  0.413500  1.0  -0.1523
  C  C239  1  0.782440  0.490860  0.356100  1.0  -0.0365
  C  C240  1  0.760500  0.426500  0.338000  1.0  -0.0874
  C  C241  1  0.752470  0.361030  0.376500  1.0  -0.0668
  C  C242  1  0.811620  0.553480  0.439300  1.0  0.7485
  C  C243  1  0.051610  0.031990  0.070600  1.0  0.2033
  C  C244  1  0.038900  0.108600  0.002100  1.0  0.2351
  C  C245  1  0.077230  0.985870  0.101500  1.0  -0.0093
  C  C246  1  0.127890  0.955590  0.062400  1.0  -0.0293
  C  C247  1  0.144770  0.909730  0.098500  1.0  -0.1294
  C  C248  1  0.110960  0.892440  0.174200  1.0  -0.0135
  C  C249  1  0.060680  0.922420  0.213300  1.0  -0.0802
  C  C250  1  0.043990  0.967910  0.177700  1.0  -0.1017
  C  C251  1  0.196540  0.874560  0.057300  1.0  0.7187
  C  C252  1  0.049100  0.161400  0.942100  1.0  -0.0567
  C  C253  1  0.091960  0.166500  0.868600  1.0  -0.0357
  C  C254  1  0.092850  0.213150  0.815800  1.0  -0.1363
  C  C255  1  0.050830  0.255070  0.836100  1.0  -0.0261
  C  C256  1  0.009610  0.251090  0.909100  1.0  -0.0918
  C  C257  1  0.007830  0.203870  0.961700  1.0  -0.1232
  C  C258  1  0.134940  0.216860  0.737400  1.0  0.6925
  C  C259  1  0.620490  0.133010  0.779500  1.0  0.2404
  C  C260  1  0.611700  0.209400  0.707300  1.0  0.2329
  C  C261  1  0.601160  0.065680  0.832800  1.0  -0.0369
  C  C262  1  0.523810  0.999890  0.870300  1.0  -0.0553
  C  C263  1  0.501780  0.942720  0.929500  1.0  -0.144
  C  C264  1  0.558750  0.950550  0.949500  1.0  -0.0447
  C  C265  1  0.637050  0.014150  0.910400  1.0  -0.0813
  C  C266  1  0.658840  0.071660  0.852700  1.0  -0.0906
  C  C267  1  0.417430  0.874570  0.973000  1.0  0.6896
  C  C268  1  0.582680  0.241220  0.667100  1.0  -0.0779
  C  C269  1  0.510340  0.197460  0.669600  1.0  -0.0886
  C  C270  1  0.477870  0.231530  0.640800  1.0  -0.0993
  C  C271  1  0.518970  0.309530  0.606300  1.0  -0.0789
  C  C272  1  0.592470  0.352630  0.601500  1.0  -0.0915
  C  C273  1  0.624630  0.320070  0.631300  1.0  -0.1053
  C  C274  1  0.395100  0.183300  0.651600  1.0  0.6828
  C  C275  1  0.088610  0.659990  0.760400  1.0  0.2216
  C  C276  1  0.065860  0.708540  0.683000  1.0  0.2556
  C  C277  1  0.110980  0.647320  0.813700  1.0  -0.0562
  C  C278  1  0.149150  0.704950  0.832700  1.0  -0.0794
  C  C279  1  0.168580  0.690420  0.883800  1.0  -0.1399
  C  C280  1  0.149590  0.618510  0.918100  1.0  -0.04
  C  C281  1  0.109500  0.559700  0.900600  1.0  -0.0814
  C  C282  1  0.090700  0.574200  0.848900  1.0  -0.1097
  C  C283  1  0.215500  0.756300  0.897600  1.0  0.6525
  C  C284  1  0.056580  0.760120  0.637700  1.0  -0.0318
  C  C285  1  0.982740  0.730360  0.638100  1.0  -0.0386
  C  C286  1  0.969190  0.776110  0.599100  1.0  -0.1467
  C  C287  1  0.029840  0.851560  0.556200  1.0  -0.0468
  C  C288  1  0.104200  0.880400  0.554000  1.0  -0.1018
  C  C289  1  0.118000  0.835500  0.594500  1.0  -0.1117
  C  C290  1  0.889630  0.743570  0.600200  1.0  0.7124
  C  C291  1  0.259450  0.315550  0.957600  1.0  0.232
  C  C292  1  0.266820  0.231480  0.024100  1.0  0.2711
  C  C293  1  0.266510  0.385390  0.920700  1.0  -0.0266
  C  C294  1  0.298990  0.451710  0.932100  1.0  -0.0314
  C  C295  1  0.303700  0.517200  0.896500  1.0  -0.1644
  C  C296  1  0.278480  0.516520  0.847800  1.0  -0.0473
  C  C297  1  0.245440  0.450360  0.836800  1.0  -0.0932
  C  C298  1  0.239290  0.384910  0.872600  1.0  -0.0634
  C  C299  1  0.332980  0.584820  0.916000  1.0  0.7059
  C  C300  1  0.291690  0.199710  0.067600  1.0  0.0023
  C  C301  1  0.374270  0.239030  0.049500  1.0  -0.1491
  C  C302  1  0.401770  0.208930  0.086500  1.0  -0.1514
  C  C303  1  0.346960  0.138540  0.143900  1.0  -0.0344
  C  C304  1  0.264500  0.098500  0.162000  1.0  -0.0876
  C  C305  1  0.237530  0.128970  0.123500  1.0  -0.0676
  C  C306  1  0.492780  0.250920  0.060700  1.0  0.7445
  C  C307  1  0.397410  0.877790  0.570600  1.0  0.2026
  C  C308  1  0.389300  0.959000  0.502100  1.0  0.2356
  C  C309  1  0.412630  0.821270  0.601500  1.0  -0.0094
  C  C310  1  0.482010  0.809710  0.562400  1.0  -0.0301
  C  C311  1  0.491770  0.756730  0.598500  1.0  -0.1295
  C  C312  1  0.433360  0.714840  0.674200  1.0  -0.0116
  C  C313  1  0.364280  0.726020  0.713300  1.0  -0.0793
  C  C314  1  0.354390  0.778310  0.677700  1.0  -0.1035
  C  C315  1  0.568140  0.746160  0.557300  1.0  0.7187
  C  C316  1  0.396500  0.008800  0.442100  1.0  -0.0554
  C  C317  1  0.464900  0.039440  0.368600  1.0  -0.0366
  C  C318  1  0.471050  0.091350  0.315800  1.0  -0.1355
  C  C319  1  0.408830  0.113070  0.336100  1.0  -0.0206
  C  C320  1  0.339810  0.081290  0.409100  1.0  -0.0962
  C  C321  1  0.334430  0.030470  0.461700  1.0  -0.1245
  C  C322  1  0.545740  0.127660  0.237400  1.0  0.6913
  C  C323  1  0.587490  0.600010  0.279500  1.0  0.2373
  C  C324  1  0.583300  0.681000  0.207300  1.0  0.232
  C  C325  1  0.601520  0.566040  0.332800  1.0  -0.0371
  C  C326  1  0.629810  0.605890  0.370300  1.0  -0.0545
  C  C327  1  0.627780  0.568720  0.429500  1.0  -0.1461
  C  C328  1  0.599950  0.491750  0.449500  1.0  -0.0479
  C  C329  1  0.575450  0.452550  0.410400  1.0  -0.0774
  C  C330  1  0.575640  0.488460  0.352700  1.0  -0.0873
  C  C331  1  0.652430  0.609570  0.473000  1.0  0.6883
  C  C332  1  0.591680  0.750220  0.167100  1.0  -0.0781
  C  C333  1  0.632940  0.820060  0.169600  1.0  -0.0912
  C  C334  1  0.627670  0.881330  0.140800  1.0  -0.0996
  C  C335  1  0.584170  0.874730  0.106300  1.0  -0.0753
  C  C336  1  0.545870  0.806030  0.101500  1.0  -0.0961
  C  C337  1  0.548630  0.744070  0.131300  1.0  -0.1056
  C  C338  1  0.665100  0.953300  0.151600  1.0  0.6817
  C  C339  1  0.079610  0.150990  0.260400  1.0  0.2242
  C  C340  1  0.108460  0.251140  0.183000  1.0  0.2559
  C  C341  1  0.038980  0.075320  0.313700  1.0  -0.0574
  C  C342  1  0.962350  0.018150  0.332700  1.0  -0.0771
  C  C343  1  0.925780  0.947620  0.383800  1.0  -0.1441
  C  C344  1  0.963390  0.932310  0.418100  1.0  -0.0404
  C  C345  1  0.039700  0.989900  0.400600  1.0  -0.0824
  C  C346  1  0.076900  0.060400  0.348900  1.0  -0.1095
  C  C347  1  0.846100  0.886900  0.397600  1.0  0.6534
  C  C348  1  0.102180  0.305720  0.137700  1.0  -0.0312
  C  C349  1  0.131540  0.379160  0.138100  1.0  -0.0408
  C  C350  1  0.124790  0.431710  0.099100  1.0  -0.1444
  C  C351  1  0.092240  0.413960  0.056200  1.0  -0.0466
  C  C352  1  0.065600  0.341800  0.054000  1.0  -0.105
  C  C353  1  0.070000  0.287500  0.094500  1.0  -0.1078
  C  C354  1  0.156230  0.510170  0.100200  1.0  0.7176
  C  C355  1  0.226850  0.782950  0.457600  1.0  0.2316
  C  C356  1  0.244420  0.709080  0.524100  1.0  0.2701
  C  C357  1  0.193910  0.812790  0.420700  1.0  -0.0259
  C  C358  1  0.116190  0.768910  0.432100  1.0  -0.0355
  C  C359  1  0.086300  0.799800  0.396500  1.0  -0.1624
  C  C360  1  0.135680  0.873720  0.347800  1.0  -0.048
  C  C361  1  0.212840  0.917760  0.336800  1.0  -0.0902
  C  C362  1  0.242490  0.888110  0.372600  1.0  -0.0641
  C  C363  1  0.999180  0.751020  0.416000  1.0  0.7034
  C  C364  1  0.232690  0.640710  0.567600  1.0  0.0025
  C  C365  1  0.211470  0.576230  0.549500  1.0  -0.147
  C  C366  1  0.204570  0.511730  0.586500  1.0  -0.1523
  C  C367  1  0.217560  0.509140  0.643900  1.0  -0.0378
  C  C368  1  0.239500  0.573500  0.662000  1.0  -0.0864
  C  C369  1  0.247530  0.638970  0.623500  1.0  -0.0674
  C  C370  1  0.188380  0.446520  0.560700  1.0  0.7464
  C  C371  1  0.948390  0.968010  0.929400  1.0  0.2038
  C  C372  1  0.961100  0.891400  0.997900  1.0  0.2349
  C  C373  1  0.922770  0.014130  0.898500  1.0  -0.009
  C  C374  1  0.872110  0.044410  0.937600  1.0  -0.0287
  C  C375  1  0.855230  0.090270  0.901500  1.0  -0.1297
  C  C376  1  0.889040  0.107560  0.825800  1.0  -0.0128
  C  C377  1  0.939320  0.077580  0.786700  1.0  -0.08
  C  C378  1  0.956010  0.032090  0.822300  1.0  -0.1036
  C  C379  1  0.803460  0.125440  0.942700  1.0  0.7191
  C  C380  1  0.950900  0.838600  0.057900  1.0  -0.057
  C  C381  1  0.908040  0.833500  0.131400  1.0  -0.0354
  C  C382  1  0.907150  0.786850  0.184200  1.0  -0.1372
  C  C383  1  0.949170  0.744930  0.163900  1.0  -0.0252
  C  C384  1  0.990390  0.748910  0.090900  1.0  -0.0924
  C  C385  1  0.992170  0.796130  0.038300  1.0  -0.1234
  C  C386  1  0.865060  0.783140  0.262600  1.0  0.6915
  C  C387  1  0.379510  0.866990  0.220500  1.0  0.2386
  C  C388  1  0.388300  0.790600  0.292700  1.0  0.2313
  C  C389  1  0.398840  0.934320  0.167200  1.0  -0.0368
  C  C390  1  0.476190  0.000110  0.129700  1.0  -0.0561
  C  C391  1  0.498220  0.057280  0.070500  1.0  -0.1438
  C  C392  1  0.441250  0.049450  0.050500  1.0  -0.0448
  C  C393  1  0.362950  0.985850  0.089600  1.0  -0.0823
  C  C394  1  0.341160  0.928340  0.147300  1.0  -0.0893
  C  C395  1  0.582570  0.125430  0.027000  1.0  0.6897
  C  C396  1  0.417320  0.758780  0.332900  1.0  -0.0774
  C  C397  1  0.489660  0.802540  0.330400  1.0  -0.0896
  C  C398  1  0.522130  0.768470  0.359200  1.0  -0.0991
  C  C399  1  0.481030  0.690470  0.393700  1.0  -0.0794
  C  C400  1  0.407530  0.647370  0.398500  1.0  -0.0932
  C  C401  1  0.375370  0.679930  0.368700  1.0  -0.0998
  C  C402  1  0.604900  0.816700  0.348400  1.0  0.6826
  C  C403  1  0.911390  0.340010  0.239600  1.0  0.2222
  C  C404  1  0.934140  0.291460  0.317000  1.0  0.2556
  C  C405  1  0.889020  0.352680  0.186300  1.0  -0.0569
  C  C406  1  0.850850  0.295050  0.167300  1.0  -0.0777
  C  C407  1  0.831420  0.309580  0.116200  1.0  -0.141
  C  C408  1  0.850410  0.381490  0.081900  1.0  -0.0387
  C  C409  1  0.890500  0.440300  0.099400  1.0  -0.0824
  C  C410  1  0.909300  0.425800  0.151100  1.0  -0.1099
  C  C411  1  0.784500  0.243700  0.102400  1.0  0.6528
  C  C412  1  0.943420  0.239880  0.362300  1.0  -0.032
  C  C413  1  0.017260  0.269640  0.361900  1.0  -0.0386
  C  C414  1  0.030810  0.223890  0.400900  1.0  -0.1459
  C  C415  1  0.970160  0.148440  0.443800  1.0  -0.047
  C  C416  1  0.895800  0.119600  0.446000  1.0  -0.1044
  C  C417  1  0.882000  0.164500  0.405500  1.0  -0.11
  C  C418  1  0.110370  0.256430  0.399800  1.0  0.7133
  C  C419  1  0.740550  0.684450  0.042400  1.0  0.232
  C  C420  1  0.733180  0.768520  0.975900  1.0  0.2679
  C  C421  1  0.733490  0.614610  0.079300  1.0  -0.027
  C  C422  1  0.701010  0.548290  0.067900  1.0  -0.0301
  C  C423  1  0.696300  0.482800  0.103500  1.0  -0.1639
  C  C424  1  0.721520  0.483480  0.152200  1.0  -0.0475
  C  C425  1  0.754560  0.549640  0.163200  1.0  -0.0917
  C  C426  1  0.760710  0.615090  0.127400  1.0  -0.0643
  C  C427  1  0.667020  0.415180  0.084000  1.0  0.7065
  C  C428  1  0.708310  0.800290  0.932400  1.0  0.0011
  C  C429  1  0.625730  0.760970  0.950500  1.0  -0.1518
  C  C430  1  0.598230  0.791070  0.913500  1.0  -0.1513
  C  C431  1  0.653040  0.861460  0.856100  1.0  -0.0334
  C  C432  1  0.735500  0.901500  0.838000  1.0  -0.087
  C  C433  1  0.762470  0.871030  0.876500  1.0  -0.0691
  C  C434  1  0.507220  0.749080  0.939300  1.0  0.7437
  N  N435  1  0.652690  0.099110  0.385600  1.0  -0.246
  N  N436  1  0.657370  0.048030  0.429000  1.0  -0.2635
  N  N437  1  0.573640  0.085800  0.500800  1.0  0.0812
  N  N438  1  0.528240  0.098680  0.565700  1.0  -0.5933
  N  N439  1  0.474020  0.437280  0.728300  1.0  -0.2098
  N  N440  1  0.476200  0.386240  0.774500  1.0  -0.2743
  N  N441  1  0.374350  0.325210  0.761200  1.0  0.0855
  N  N442  1  0.294070  0.272270  0.779000  1.0  -0.5707
  N  N443  1  0.848590  0.793750  0.756100  1.0  -0.2829
  N  N444  1  0.830320  0.730140  0.805800  1.0  -0.2518
  N  N445  1  0.948270  0.822610  0.777700  1.0  0.0941
  N  N446  1  0.021600  0.858800  0.778400  1.0  -0.5971
  N  N447  1  0.702190  0.175970  0.548200  1.0  -0.3458
  N  N448  1  0.691640  0.222920  0.505300  1.0  -0.3003
  N  N449  1  0.808630  0.289490  0.497500  1.0  0.0863
  N  N450  1  0.890190  0.348830  0.470000  1.0  -0.5978
  N  N451  1  0.984710  0.038290  0.114400  1.0  -0.2445
  N  N452  1  0.977030  0.086370  0.071000  1.0  -0.2644
  N  N453  1  0.086600  0.074440  0.999200  1.0  0.0805
  N  N454  1  0.164380  0.093940  0.934300  1.0  -0.5967
  N  N455  1  0.665580  0.202320  0.771700  1.0  -0.2099
  N  N456  1  0.660740  0.250700  0.725500  1.0  -0.2701
  N  N457  1  0.586410  0.135550  0.738800  1.0  0.0867
  N  N458  1  0.551270  0.073070  0.721000  1.0  -0.5778
  N  N459  1  0.049850  0.604690  0.743900  1.0  -0.2738
  N  N460  1  0.035940  0.636120  0.694200  1.0  -0.2494
  N  N461  1  0.100310  0.725970  0.722300  1.0  0.0935
  N  N462  1  0.137200  0.800000  0.721600  1.0  -0.6004
  N  N463  1  0.224170  0.250390  0.951800  1.0  -0.3474
  N  N464  1  0.228220  0.196940  0.994700  1.0  -0.3
  N  N465  1  0.286990  0.306130  0.002500  1.0  0.0872
  N  N466  1  0.318830  0.360190  0.030000  1.0  -0.5977
  N  N467  1  0.347310  0.900890  0.614400  1.0  -0.243
  N  N468  1  0.342630  0.951970  0.571000  1.0  -0.2638
  N  N469  1  0.426360  0.914200  0.499200  1.0  0.082
  N  N470  1  0.471760  0.901320  0.434300  1.0  -0.594
  N  N471  1  0.525980  0.562720  0.271700  1.0  -0.2107
  N  N472  1  0.523800  0.613760  0.225500  1.0  -0.2741
  N  N473  1  0.625650  0.674790  0.238800  1.0  0.085
  N  N474  1  0.705930  0.727730  0.221000  1.0  -0.5734
  N  N475  1  0.151410  0.206250  0.243900  1.0  -0.2802
  N  N476  1  0.169680  0.269860  0.194200  1.0  -0.254
  N  N477  1  0.051730  0.177390  0.222300  1.0  0.0937
  N  N478  1  0.978400  0.141200  0.221600  1.0  -0.5945
  N  N479  1  0.297810  0.824030  0.451800  1.0  -0.3468
  N  N480  1  0.308360  0.777080  0.494700  1.0  -0.3006
  N  N481  1  0.191370  0.710510  0.502500  1.0  0.0841
  N  N482  1  0.109810  0.651170  0.530000  1.0  -0.5966
  N  N483  1  0.015290  0.961710  0.885600  1.0  -0.2511
  N  N484  1  0.022970  0.913630  0.929000  1.0  -0.2638
  N  N485  1  0.913400  0.925560  0.000800  1.0  0.0806
  N  N486  1  0.835620  0.906060  0.065700  1.0  -0.5971
  N  N487  1  0.334420  0.797680  0.228300  1.0  -0.2094
  N  N488  1  0.339260  0.749300  0.274500  1.0  -0.2709
  N  N489  1  0.413590  0.864450  0.261200  1.0  0.0861
  N  N490  1  0.448730  0.926930  0.279000  1.0  -0.5776
  N  N491  1  0.950150  0.395310  0.256100  1.0  -0.2742
  N  N492  1  0.964060  0.363880  0.305800  1.0  -0.2478
  N  N493  1  0.899690  0.274030  0.277700  1.0  0.0939
  N  N494  1  0.862800  0.200000  0.278400  1.0  -0.5982
  N  N495  1  0.775830  0.749610  0.048200  1.0  -0.347
  N  N496  1  0.771780  0.803060  0.005300  1.0  -0.3002
  N  N497  1  0.713010  0.693870  0.997500  1.0  0.085
  N  N498  1  0.681170  0.639810  0.970000  1.0  -0.5954
  O  O499  1  0.427550  0.303860  0.407510  1.0  -0.6365
  O  O500  1  0.379990  0.212690  0.509500  1.0  -0.6082
  O  O501  1  0.442800  0.814620  0.802140  1.0  -0.5991
  O  O502  1  0.406930  0.902980  0.784470  1.0  -0.6134
  O  O503  1  0.371970  0.425290  0.463260  1.0  -0.5666
  O  O504  1  0.299810  0.318020  0.556790  1.0  -0.7831
  O  O505  1  0.278290  0.035230  0.835960  1.0  -0.6401
  O  O506  1  0.365790  0.003170  0.849440  1.0  -0.6117
  O  O507  1  0.177260  0.181350  0.573010  1.0  -0.6786
  O  O508  1  0.195390  0.094360  0.622970  1.0  -0.5899
  O  O509  1  0.800100  0.473480  0.871200  1.0  -0.6505
  O  O510  1  0.860770  0.445310  0.925700  1.0  -0.5756
  O  O511  1  0.044440  0.313460  0.532700  1.0  -0.6662
  O  O512  1  0.025650  0.223970  0.619800  1.0  -0.5871
  O  O513  1  0.827720  0.614700  0.400500  1.0  -0.6214
  O  O514  1  0.807410  0.541090  0.499000  1.0  -0.6157
  O  O515  1  0.214110  0.316800  0.471970  1.0  -0.7632
  O  O516  1  0.211370  0.835060  0.092490  1.0  -0.6394
  O  O517  1  0.222190  0.889490  0.990500  1.0  -0.6088
  O  O518  1  0.116760  0.244940  0.697860  1.0  -0.5998
  O  O519  1  0.187450  0.191400  0.715530  1.0  -0.6141
  O  O520  1  0.388550  0.835230  0.036740  1.0  -0.5675
  O  O521  1  0.374810  0.856600  0.943210  1.0  -0.7867
  O  O522  1  0.371190  0.114250  0.664040  1.0  -0.634
  O  O523  1  0.352610  0.215230  0.650560  1.0  -0.6105
  O  O524  1  0.254360  0.750270  0.926990  1.0  -0.6812
  O  O525  1  0.217330  0.818360  0.877030  1.0  -0.588
  O  O526  1  0.844680  0.671300  0.628800  1.0  -0.6514
  O  O527  1  0.871010  0.786470  0.574300  1.0  -0.5781
  O  O528  1  0.346160  0.577140  0.967300  1.0  -0.6566
  O  O529  1  0.343770  0.645450  0.880200  1.0  -0.5858
  O  O530  1  0.515200  0.228220  0.099500  1.0  -0.6186
  O  O531  1  0.540090  0.306410  0.001000  1.0  -0.6149
  O  O532  1  0.288770  0.686080  0.028030  1.0  -0.7642
  O  O533  1  0.572450  0.696140  0.592490  1.0  -0.6402
  O  O534  1  0.620010  0.787310  0.490500  1.0  -0.6092
  O  O535  1  0.557200  0.185380  0.197860  1.0  -0.5996
  O  O536  1  0.593070  0.097020  0.215530  1.0  -0.6134
  O  O537  1  0.628030  0.574710  0.536740  1.0  -0.566
  O  O538  1  0.700190  0.681980  0.443210  1.0  -0.7819
  O  O539  1  0.721710  0.964770  0.164040  1.0  -0.6375
  O  O540  1  0.634210  0.996830  0.150560  1.0  -0.6129
  O  O541  1  0.822740  0.818650  0.426990  1.0  -0.6779
  O  O542  1  0.804610  0.905640  0.377030  1.0  -0.5895
  O  O543  1  0.199900  0.526520  0.128800  1.0  -0.6555
  O  O544  1  0.139230  0.554690  0.074300  1.0  -0.5788
  O  O545  1  0.955560  0.686540  0.467300  1.0  -0.6603
  O  O546  1  0.974350  0.776030  0.380200  1.0  -0.5852
  O  O547  1  0.172280  0.385300  0.599500  1.0  -0.6212
  O  O548  1  0.192590  0.458910  0.501000  1.0  -0.6172
  O  O549  1  0.785890  0.683200  0.528030  1.0  -0.7634
  O  O550  1  0.788630  0.164940  0.907510  1.0  -0.6371
  O  O551  1  0.777810  0.110510  0.009500  1.0  -0.6086
  O  O552  1  0.883240  0.755060  0.302140  1.0  -0.5995
  O  O553  1  0.812550  0.808600  0.284470  1.0  -0.6137
  O  O554  1  0.611450  0.164770  0.963260  1.0  -0.5685
  O  O555  1  0.625190  0.143400  0.056790  1.0  -0.7839
  O  O556  1  0.628810  0.885750  0.335960  1.0  -0.6344
  O  O557  1  0.647390  0.784770  0.349440  1.0  -0.6105
  O  O558  1  0.745640  0.249730  0.073010  1.0  -0.6801
  O  O559  1  0.782670  0.181640  0.122970  1.0  -0.5881
  O  O560  1  0.155320  0.328700  0.371200  1.0  -0.6501
  O  O561  1  0.128990  0.213530  0.425700  1.0  -0.5792
  O  O562  1  0.653840  0.422860  0.032700  1.0  -0.6573
  O  O563  1  0.656230  0.354550  0.119800  1.0  -0.5858
  O  O564  1  0.484800  0.771780  0.900500  1.0  -0.6162
  O  O565  1  0.459910  0.693590  0.999000  1.0  -0.6152
  O  O566  1  0.711230  0.313920  0.971970  1.0  -0.7631
