# generated using pymatgen
data_ZnH6C12S2(NO2)2
_symmetry_space_group_name_H-M   'P 1'
_cell_length_a   11.17400000
_cell_length_b   12.83650000
_cell_length_c   12.83650000
_cell_angle_alpha   117.85200000
_cell_angle_beta   96.11970000
_cell_angle_gamma   83.88030000
_symmetry_Int_Tables_number   1
_chemical_formula_structural   ZnH6C12S2(NO2)2
_chemical_formula_sum   'Zn4 H24 C48 S8 N8 O16'
_cell_volume   1615.25502474
_cell_formula_units_Z   4
loop_
 _symmetry_equiv_pos_site_id
 _symmetry_equiv_pos_as_xyz
  1  'x, y, z'
loop_
 _atom_site_type_symbol
 _atom_site_label
 _atom_site_symmetry_multiplicity
 _atom_site_fract_x
 _atom_site_fract_y
 _atom_site_fract_z
 _atom_site_occupancy
 _atom_site_charge
  Zn  Zn1  1  0.865610  0.498410  0.973210  1.0  0.9504
  Zn  Zn2  1  0.634390  0.973210  0.498410  1.0  0.9508
  Zn  Zn3  1  0.134390  0.501590  0.026790  1.0  0.9508
  Zn  Zn4  1  0.365610  0.026790  0.501590  1.0  0.9504
  H  H5  1  0.765100  0.796700  0.309500  1.0  0.0784
  H  H6  1  0.110900  0.746200  0.397800  1.0  0.1106
  H  H7  1  0.081100  0.889200  0.589000  1.0  0.1165
  H  H8  1  0.180700  0.803600  0.961600  1.0  0.0781
  H  H9  1  0.846700  0.740800  0.827400  1.0  0.0901
  H  H10  1  0.850300  0.879800  0.763800  1.0  0.0968
  H  H11  1  0.734900  0.309500  0.796700  1.0  0.0799
  H  H12  1  0.389100  0.397800  0.746200  1.0  0.1103
  H  H13  1  0.418900  0.589000  0.889200  1.0  0.1173
  H  H14  1  0.319300  0.961600  0.803600  1.0  0.0779
  H  H15  1  0.653300  0.827400  0.740800  1.0  0.0898
  H  H16  1  0.649700  0.763800  0.879800  1.0  0.0966
  H  H17  1  0.234900  0.203300  0.690500  1.0  0.0779
  H  H18  1  0.889100  0.253800  0.602200  1.0  0.1102
  H  H19  1  0.918900  0.110800  0.411000  1.0  0.116
  H  H20  1  0.819300  0.196400  0.038400  1.0  0.0784
  H  H21  1  0.153300  0.259200  0.172600  1.0  0.0903
  H  H22  1  0.149700  0.120200  0.236200  1.0  0.0971
  H  H23  1  0.265100  0.690500  0.203300  1.0  0.0788
  H  H24  1  0.610900  0.602200  0.253800  1.0  0.1102
  H  H25  1  0.581100  0.411000  0.110800  1.0  0.1164
  H  H26  1  0.680700  0.038400  0.196400  1.0  0.078
  H  H27  1  0.346700  0.172600  0.259200  1.0  0.0901
  H  H28  1  0.350300  0.236200  0.120200  1.0  0.0971
  C  C29  1  0.954800  0.660600  0.210000  1.0  0.6948
  C  C30  1  0.940000  0.754900  0.333333  1.0  -0.2403
  C  C31  1  0.829700  0.815900  0.365900  1.0  0.1919
  C  C32  1  0.035100  0.784500  0.417700  1.0  0.0523
  C  C33  1  0.018000  0.870000  0.531200  1.0  -0.1713
  C  C34  1  0.904700  0.927300  0.557500  1.0  0.2095
  C  C35  1  0.012000  0.927500  0.835300  1.0  0.2647
  C  C36  1  0.111800  0.818100  0.921700  1.0  0.2044
  C  C37  1  0.013600  0.752100  0.898500  1.0  -0.2323
  C  C38  1  0.916400  0.780600  0.842400  1.0  0.0497
  C  C39  1  0.014200  0.659900  0.936300  1.0  0.6978
  C  C40  1  0.916500  0.865800  0.807000  1.0  -0.1843
  C  C41  1  0.545200  0.210000  0.660600  1.0  0.696
  C  C42  1  0.560000  0.333333  0.754900  1.0  -0.2377
  C  C43  1  0.670300  0.365900  0.815900  1.0  0.1914
  C  C44  1  0.464900  0.417700  0.784500  1.0  0.0546
  C  C45  1  0.482000  0.531200  0.870000  1.0  -0.1724
  C  C46  1  0.595300  0.557500  0.927300  1.0  0.2103
  C  C47  1  0.488000  0.835300  0.927500  1.0  0.2655
  C  C48  1  0.388200  0.921700  0.818100  1.0  0.2047
  C  C49  1  0.486400  0.898500  0.752100  1.0  -0.2288
  C  C50  1  0.583600  0.842400  0.780600  1.0  0.0491
  C  C51  1  0.485800  0.936300  0.659900  1.0  0.7005
  C  C52  1  0.583500  0.807000  0.865800  1.0  -0.1836
  C  C53  1  0.045200  0.339400  0.790000  1.0  0.6954
  C  C54  1  0.060000  0.245100  0.666667  1.0  -0.2385
  C  C55  1  0.170300  0.184100  0.634100  1.0  0.1922
  C  C56  1  0.964900  0.215500  0.582300  1.0  0.0528
  C  C57  1  0.982000  0.130000  0.468800  1.0  -0.1729
  C  C58  1  0.095300  0.072700  0.442500  1.0  0.2103
  C  C59  1  0.988000  0.072500  0.164700  1.0  0.2632
  C  C60  1  0.888200  0.181900  0.078300  1.0  0.2056
  C  C61  1  0.986400  0.247900  0.101500  1.0  -0.2322
  C  C62  1  0.083600  0.219400  0.157600  1.0  0.045
  C  C63  1  0.985800  0.340100  0.063700  1.0  0.6973
  C  C64  1  0.083500  0.134200  0.193000  1.0  -0.1837
  C  C65  1  0.454800  0.790000  0.339400  1.0  0.6958
  C  C66  1  0.440000  0.666667  0.245100  1.0  -0.2367
  C  C67  1  0.329700  0.634100  0.184100  1.0  0.1909
  C  C68  1  0.535100  0.582300  0.215500  1.0  0.053
  C  C69  1  0.518000  0.468800  0.130000  1.0  -0.1708
  C  C70  1  0.404700  0.442500  0.072700  1.0  0.2109
  C  C71  1  0.512000  0.164700  0.072500  1.0  0.2651
  C  C72  1  0.611800  0.078300  0.181900  1.0  0.2037
  C  C73  1  0.513600  0.101500  0.247900  1.0  -0.23
  C  C74  1  0.416400  0.157600  0.219400  1.0  0.0504
  C  C75  1  0.514200  0.063700  0.340100  1.0  0.7004
  C  C76  1  0.416500  0.193000  0.134200  1.0  -0.1851
  S  S77  1  0.020250  0.046310  0.801570  1.0  -0.0011
  S  S78  1  0.868310  0.040510  0.699870  1.0  0.0506
  S  S79  1  0.479750  0.801570  0.046310  1.0  -0.0037
  S  S80  1  0.631690  0.699870  0.040510  1.0  0.0509
  S  S81  1  0.979750  0.953690  0.198430  1.0  -0.0015
  S  S82  1  0.131690  0.959490  0.300130  1.0  0.0488
  S  S83  1  0.520250  0.198430  0.953690  1.0  -0.0037
  S  S84  1  0.368310  0.300130  0.959490  1.0  0.0487
  N  N85  1  0.110300  0.904900  0.887500  1.0  -0.3821
  N  N86  1  0.811700  0.902300  0.476100  1.0  -0.3396
  N  N87  1  0.389700  0.887500  0.904900  1.0  -0.383
  N  N88  1  0.688300  0.476100  0.902300  1.0  -0.3402
  N  N89  1  0.889700  0.095100  0.112500  1.0  -0.381
  N  N90  1  0.188300  0.097700  0.523900  1.0  -0.339
  N  N91  1  0.610300  0.112500  0.095100  1.0  -0.3821
  N  N92  1  0.311700  0.523900  0.097700  1.0  -0.3402
  O  O93  1  0.113400  0.627400  0.973000  1.0  -0.5873
  O  O94  1  0.914200  0.620100  0.929700  1.0  -0.6111
  O  O95  1  0.060900  0.625600  0.181400  1.0  -0.5998
  O  O96  1  0.861700  0.622200  0.143800  1.0  -0.5894
  O  O97  1  0.386600  0.973000  0.627400  1.0  -0.5888
  O  O98  1  0.585800  0.929700  0.620100  1.0  -0.6119
  O  O99  1  0.439100  0.181400  0.625600  1.0  -0.6
  O  O100  1  0.638300  0.143800  0.622200  1.0  -0.5888
  O  O101  1  0.886600  0.372600  0.027000  1.0  -0.5892
  O  O102  1  0.085800  0.379900  0.070300  1.0  -0.6119
  O  O103  1  0.939100  0.374400  0.818600  1.0  -0.6003
  O  O104  1  0.138300  0.377800  0.856200  1.0  -0.5899
  O  O105  1  0.613400  0.027000  0.372600  1.0  -0.5879
  O  O106  1  0.414200  0.070300  0.379900  1.0  -0.6112
  O  O107  1  0.560900  0.818600  0.374400  1.0  -0.5999
  O  O108  1  0.361700  0.856200  0.377800  1.0  -0.5882
