# generated using pymatgen
data_Cd2H28C37S4(N2O3)3
_symmetry_space_group_name_H-M   'P 1'
_cell_length_a   12.96490000
_cell_length_b   16.24390000
_cell_length_c   22.57360000
_cell_angle_alpha   106.40400000
_cell_angle_beta   90.00000000
_cell_angle_gamma   90.00000000
_symmetry_Int_Tables_number   1
_chemical_formula_structural   Cd2H28C37S4(N2O3)3
_chemical_formula_sum   'Cd8 H112 C148 S16 N24 O36'
_cell_volume   4560.49674480
_cell_formula_units_Z   4
loop_
 _symmetry_equiv_pos_site_id
 _symmetry_equiv_pos_as_xyz
  1  'x, y, z'
loop_
 _atom_site_type_symbol
 _atom_site_label
 _atom_site_symmetry_multiplicity
 _atom_site_fract_x
 _atom_site_fract_y
 _atom_site_fract_z
 _atom_site_occupancy
 _atom_site_charge
  Cd  Cd1  1  0.647390  0.198020  0.139970  1.0  1.0919
  Cd  Cd2  1  0.565400  0.421000  0.213510  1.0  1.1166
  Cd  Cd3  1  0.147390  0.801980  0.360030  1.0  1.0917
  Cd  Cd4  1  0.065400  0.579000  0.286490  1.0  1.1148
  Cd  Cd5  1  0.352610  0.801980  0.860030  1.0  1.0908
  Cd  Cd6  1  0.434600  0.579000  0.786490  1.0  1.1145
  Cd  Cd7  1  0.852610  0.198020  0.639970  1.0  1.0911
  Cd  Cd8  1  0.934600  0.421000  0.713510  1.0  1.1163
  H  H9  1  0.699000  0.331500  0.108700  1.0  0.4448
  H  H10  1  0.749400  0.345600  0.163100  1.0  0.4367
  H  H11  1  0.331800  0.118700  0.090900  1.0  0.1015
  H  H12  1  0.161500  0.080800  0.067200  1.0  0.117
  H  H13  1  0.251000  0.363100  0.120900  1.0  0.0682
  H  H14  1  0.011500  0.276400  0.977200  1.0  0.1183
  H  H15  1  0.995100  0.344000  0.899700  1.0  0.1094
  H  H16  1  0.958100  0.114500  0.779000  1.0  0.065
  H  H17  1  0.050500  0.327100  0.245900  1.0  0.0493
  H  H18  1  0.095000  0.038000  0.208400  1.0  0.1138
  H  H19  1  0.935600  0.090800  0.191100  1.0  0.085
  H  H20  1  0.279500  0.826900  0.200300  1.0  0.1255
  H  H21  1  0.276400  0.740300  0.098900  1.0  0.1053
  H  H22  1  0.291700  0.951300  0.042800  1.0  0.0696
  H  H23  1  0.778900  0.033500  0.084900  1.0  0.0808
  H  H24  1  0.782300  0.888000  0.063000  1.0  0.1091
  H  H25  1  0.501500  0.896300  0.137300  1.0  0.1153
  H  H26  1  0.504400  0.042700  0.156400  1.0  0.0749
  H  H27  1  0.638100  0.758700  0.115600  1.0  0.0968
  H  H28  1  0.701000  0.754700  0.055500  1.0  0.0932
  H  H29  1  0.539200  0.769100  0.007000  1.0  0.0899
  H  H30  1  0.484700  0.754700  0.065200  1.0  0.0699
  H  H31  1  0.487500  0.626900  0.983900  1.0  0.1044
  H  H32  1  0.608400  0.629400  0.983100  1.0  0.0929
  H  H33  1  0.704600  0.571600  0.053800  1.0  0.1367
  H  H34  1  0.706800  0.499900  0.127500  1.0  0.0761
  H  H35  1  0.410100  0.526100  0.149900  1.0  0.0848
  H  H36  1  0.400900  0.599600  0.077500  1.0  0.1332
  H  H37  1  0.199000  0.668500  0.391300  1.0  0.4448
  H  H38  1  0.249400  0.654400  0.336900  1.0  0.4382
  H  H39  1  0.831800  0.881300  0.409100  1.0  0.1015
  H  H40  1  0.661500  0.919200  0.432800  1.0  0.1172
  H  H41  1  0.751000  0.636900  0.379100  1.0  0.0682
  H  H42  1  0.511500  0.723600  0.522800  1.0  0.1182
  H  H43  1  0.495100  0.656000  0.600300  1.0  0.1101
  H  H44  1  0.458100  0.885500  0.721000  1.0  0.0651
  H  H45  1  0.550500  0.672900  0.254100  1.0  0.0506
  H  H46  1  0.595000  0.962000  0.291600  1.0  0.1145
  H  H47  1  0.435600  0.909200  0.308900  1.0  0.0852
  H  H48  1  0.779500  0.173100  0.299700  1.0  0.1252
  H  H49  1  0.776400  0.259700  0.401100  1.0  0.1044
  H  H50  1  0.791700  0.048700  0.457200  1.0  0.0693
  H  H51  1  0.278900  0.966500  0.415100  1.0  0.0812
  H  H52  1  0.282300  0.112000  0.437000  1.0  0.1086
  H  H53  1  0.001500  0.103700  0.362700  1.0  0.1152
  H  H54  1  0.004400  0.957300  0.343600  1.0  0.0752
  H  H55  1  0.138100  0.241300  0.384400  1.0  0.0968
  H  H56  1  0.201000  0.245300  0.444500  1.0  0.0932
  H  H57  1  0.039200  0.230900  0.493000  1.0  0.09
  H  H58  1  0.984700  0.245300  0.434800  1.0  0.0703
  H  H59  1  0.987500  0.373100  0.516100  1.0  0.1041
  H  H60  1  0.108400  0.370600  0.516900  1.0  0.0924
  H  H61  1  0.204600  0.428400  0.446200  1.0  0.1367
  H  H62  1  0.206800  0.500100  0.372500  1.0  0.0763
  H  H63  1  0.910100  0.473900  0.350100  1.0  0.084
  H  H64  1  0.900900  0.400400  0.422500  1.0  0.1326
  H  H65  1  0.301000  0.668500  0.891300  1.0  0.4459
  H  H66  1  0.250600  0.654400  0.836900  1.0  0.4376
  H  H67  1  0.668200  0.881300  0.909100  1.0  0.1017
  H  H68  1  0.838500  0.919200  0.932800  1.0  0.1173
  H  H69  1  0.749000  0.636900  0.879100  1.0  0.0685
  H  H70  1  0.988500  0.723600  0.022800  1.0  0.1183
  H  H71  1  0.004900  0.656000  0.100300  1.0  0.1104
  H  H72  1  0.041900  0.885500  0.221000  1.0  0.0657
  H  H73  1  0.949500  0.672900  0.754100  1.0  0.0507
  H  H74  1  0.905000  0.962000  0.791600  1.0  0.1146
  H  H75  1  0.064400  0.909200  0.808900  1.0  0.0851
  H  H76  1  0.720500  0.173100  0.799700  1.0  0.1254
  H  H77  1  0.723600  0.259700  0.901100  1.0  0.1042
  H  H78  1  0.708300  0.048700  0.957200  1.0  0.0695
  H  H79  1  0.221100  0.966500  0.915100  1.0  0.0811
  H  H80  1  0.217700  0.112000  0.937000  1.0  0.1088
  H  H81  1  0.498500  0.103700  0.862700  1.0  0.1153
  H  H82  1  0.495600  0.957300  0.843600  1.0  0.075
  H  H83  1  0.361900  0.241300  0.884400  1.0  0.0967
  H  H84  1  0.299000  0.245300  0.944500  1.0  0.0939
  H  H85  1  0.460800  0.230900  0.993000  1.0  0.0902
  H  H86  1  0.515300  0.245300  0.934800  1.0  0.0713
  H  H87  1  0.512500  0.373100  0.016100  1.0  0.1046
  H  H88  1  0.391600  0.370600  0.016900  1.0  0.0928
  H  H89  1  0.295400  0.428400  0.946200  1.0  0.1373
  H  H90  1  0.293200  0.500100  0.872500  1.0  0.0764
  H  H91  1  0.589900  0.473900  0.850100  1.0  0.0843
  H  H92  1  0.599100  0.400400  0.922500  1.0  0.1328
  H  H93  1  0.801000  0.331500  0.608700  1.0  0.4453
  H  H94  1  0.750600  0.345600  0.663100  1.0  0.4372
  H  H95  1  0.168200  0.118700  0.590900  1.0  0.1015
  H  H96  1  0.338500  0.080800  0.567200  1.0  0.1172
  H  H97  1  0.249000  0.363100  0.620900  1.0  0.0679
  H  H98  1  0.488500  0.276400  0.477200  1.0  0.1185
  H  H99  1  0.504900  0.344000  0.399700  1.0  0.1095
  H  H100  1  0.541900  0.114500  0.279000  1.0  0.0653
  H  H101  1  0.449500  0.327100  0.745900  1.0  0.0492
  H  H102  1  0.405000  0.038000  0.708400  1.0  0.114
  H  H103  1  0.564400  0.090800  0.691100  1.0  0.0852
  H  H104  1  0.220500  0.826900  0.700300  1.0  0.1256
  H  H105  1  0.223600  0.740300  0.598900  1.0  0.1046
  H  H106  1  0.208300  0.951300  0.542800  1.0  0.0698
  H  H107  1  0.721100  0.033500  0.584900  1.0  0.0808
  H  H108  1  0.717700  0.888000  0.563000  1.0  0.1092
  H  H109  1  0.998500  0.896300  0.637300  1.0  0.1154
  H  H110  1  0.995600  0.042700  0.656400  1.0  0.0747
  H  H111  1  0.861900  0.758700  0.615600  1.0  0.0977
  H  H112  1  0.799000  0.754700  0.555500  1.0  0.0943
  H  H113  1  0.960800  0.769100  0.507000  1.0  0.0901
  H  H114  1  0.015300  0.754700  0.565200  1.0  0.0707
  H  H115  1  0.012500  0.626900  0.483900  1.0  0.1049
  H  H116  1  0.891600  0.629400  0.483100  1.0  0.0935
  H  H117  1  0.795400  0.571600  0.553800  1.0  0.1374
  H  H118  1  0.793200  0.499900  0.627500  1.0  0.0764
  H  H119  1  0.089900  0.526100  0.649900  1.0  0.0847
  H  H120  1  0.099100  0.599600  0.577500  1.0  0.133
  C  C121  1  0.420000  0.273800  0.127290  1.0  0.7305
  C  C122  1  0.310300  0.246300  0.108750  1.0  -0.2133
  C  C123  1  0.282600  0.160700  0.091980  1.0  0.0472
  C  C124  1  0.181900  0.138000  0.076970  1.0  -0.1719
  C  C125  1  0.111800  0.201500  0.076650  1.0  0.2519
  C  C126  1  0.233800  0.305200  0.108550  1.0  0.2108
  C  C127  1  0.988300  0.156800  0.920580  1.0  0.2363
  C  C128  1  0.998600  0.244900  0.936630  1.0  -0.1691
  C  C129  1  0.989100  0.284700  0.890560  1.0  0.0437
  C  C130  1  0.970600  0.235900  0.830400  1.0  -0.2687
  C  C131  1  0.967300  0.147900  0.819570  1.0  0.2102
  C  C132  1  0.948400  0.273800  0.778330  1.0  0.7463
  C  C133  1  0.872900  0.250500  0.203870  1.0  0.6902
  C  C134  1  0.975000  0.216100  0.217590  1.0  -0.2678
  C  C135  1  0.059000  0.268300  0.238770  1.0  0.2263
  C  C136  1  0.162500  0.154900  0.238330  1.0  0.2386
  C  C137  1  0.084200  0.096700  0.216150  1.0  -0.1854
  C  C138  1  0.989900  0.128300  0.205940  1.0  0.0629
  C  C139  1  0.285400  0.939100  0.177310  1.0  0.2393
  C  C140  1  0.281300  0.850800  0.167360  1.0  -0.1932
  C  C141  1  0.280000  0.799700  0.107240  1.0  0.0427
  C  C142  1  0.284000  0.837200  0.059040  1.0  -0.2432
  C  C143  1  0.288600  0.925700  0.074750  1.0  0.213
  C  C144  1  0.285900  0.786600  0.991910  1.0  0.702
  C  C145  1  0.721900  0.005500  0.095030  1.0  0.1836
  C  C146  1  0.724200  0.917800  0.081700  1.0  -0.2291
  C  C147  1  0.641400  0.873200  0.095600  1.0  0.1627
  C  C148  1  0.558400  0.922700  0.125420  1.0  -0.2276
  C  C149  1  0.561000  0.011000  0.137150  1.0  0.1852
  C  C150  1  0.638900  0.777200  0.078300  1.0  -0.1971
  C  C151  1  0.545700  0.740900  0.039420  1.0  -0.0872
  C  C152  1  0.548300  0.643800  0.009540  1.0  -0.2095
  C  C153  1  0.551600  0.594600  0.056570  1.0  0.1861
  C  C154  1  0.643400  0.563500  0.072880  1.0  -0.2266
  C  C155  1  0.644100  0.520400  0.117370  1.0  0.1907
  C  C156  1  0.470400  0.535900  0.130610  1.0  0.1927
  C  C157  1  0.464400  0.579700  0.086790  1.0  -0.2107
  C  C158  1  0.920000  0.726200  0.372710  1.0  0.7302
  C  C159  1  0.810300  0.753700  0.391250  1.0  -0.213
  C  C160  1  0.782600  0.839300  0.408020  1.0  0.0473
  C  C161  1  0.681900  0.862000  0.423030  1.0  -0.1714
  C  C162  1  0.611800  0.798500  0.423350  1.0  0.2513
  C  C163  1  0.733800  0.694800  0.391450  1.0  0.2062
  C  C164  1  0.488300  0.843200  0.579420  1.0  0.2363
  C  C165  1  0.498600  0.755100  0.563370  1.0  -0.1775
  C  C166  1  0.489100  0.715300  0.609440  1.0  0.0425
  C  C167  1  0.470600  0.764100  0.669600  1.0  -0.2711
  C  C168  1  0.467300  0.852100  0.680430  1.0  0.2106
  C  C169  1  0.448400  0.726200  0.721670  1.0  0.7483
  C  C170  1  0.372900  0.749500  0.296130  1.0  0.6906
  C  C171  1  0.475000  0.783900  0.282410  1.0  -0.2691
  C  C172  1  0.559000  0.731700  0.261230  1.0  0.2279
  C  C173  1  0.662500  0.845100  0.261670  1.0  0.2393
  C  C174  1  0.584200  0.903300  0.283850  1.0  -0.1846
  C  C175  1  0.489900  0.871700  0.294060  1.0  0.0631
  C  C176  1  0.785400  0.060900  0.322690  1.0  0.2423
  C  C177  1  0.781300  0.149200  0.332640  1.0  -0.1945
  C  C178  1  0.780000  0.200300  0.392760  1.0  0.0419
  C  C179  1  0.784000  0.162800  0.440960  1.0  -0.2402
  C  C180  1  0.788600  0.074300  0.425250  1.0  0.2138
  C  C181  1  0.785900  0.213400  0.508090  1.0  0.7025
  C  C182  1  0.221900  0.994500  0.404970  1.0  0.1836
  C  C183  1  0.224200  0.082200  0.418300  1.0  -0.229
  C  C184  1  0.141400  0.126800  0.404400  1.0  0.163
  C  C185  1  0.058400  0.077300  0.374580  1.0  -0.2279
  C  C186  1  0.061000  0.989000  0.362850  1.0  0.1857
  C  C187  1  0.138900  0.222800  0.421700  1.0  -0.1959
  C  C188  1  0.045700  0.259100  0.460580  1.0  -0.0885
  C  C189  1  0.048300  0.356200  0.490460  1.0  -0.2089
  C  C190  1  0.051600  0.405400  0.443430  1.0  0.1851
  C  C191  1  0.143400  0.436500  0.427120  1.0  -0.2259
  C  C192  1  0.144100  0.479600  0.382630  1.0  0.1929
  C  C193  1  0.970400  0.464100  0.369390  1.0  0.1932
  C  C194  1  0.964400  0.420300  0.413210  1.0  -0.2111
  C  C195  1  0.580000  0.726200  0.872710  1.0  0.7304
  C  C196  1  0.689700  0.753700  0.891250  1.0  -0.2139
  C  C197  1  0.717400  0.839300  0.908020  1.0  0.0478
  C  C198  1  0.818100  0.862000  0.923030  1.0  -0.1707
  C  C199  1  0.888200  0.798500  0.923350  1.0  0.2509
  C  C200  1  0.766200  0.694800  0.891450  1.0  0.2063
  C  C201  1  0.011700  0.843200  0.079420  1.0  0.2364
  C  C202  1  0.001400  0.755100  0.063370  1.0  -0.1777
  C  C203  1  0.010900  0.715300  0.109440  1.0  0.0431
  C  C204  1  0.029400  0.764100  0.169600  1.0  -0.2707
  C  C205  1  0.032700  0.852100  0.180430  1.0  0.2119
  C  C206  1  0.051600  0.726200  0.221670  1.0  0.7485
  C  C207  1  0.127100  0.749500  0.796130  1.0  0.6916
  C  C208  1  0.025000  0.783900  0.782410  1.0  -0.2672
  C  C209  1  0.941000  0.731700  0.761230  1.0  0.2281
  C  C210  1  0.837500  0.845100  0.761670  1.0  0.2473
  C  C211  1  0.915800  0.903300  0.783850  1.0  -0.184
  C  C212  1  0.010100  0.871700  0.794060  1.0  0.0614
  C  C213  1  0.714600  0.060900  0.822690  1.0  0.2422
  C  C214  1  0.718700  0.149200  0.832640  1.0  -0.1947
  C  C215  1  0.720000  0.200300  0.892760  1.0  0.0412
  C  C216  1  0.716000  0.162800  0.940960  1.0  -0.2423
  C  C217  1  0.711400  0.074300  0.925250  1.0  0.2134
  C  C218  1  0.714100  0.213400  0.008090  1.0  0.7009
  C  C219  1  0.278100  0.994500  0.904970  1.0  0.1836
  C  C220  1  0.275800  0.082200  0.918300  1.0  -0.2263
  C  C221  1  0.358600  0.126800  0.904400  1.0  0.1624
  C  C222  1  0.441600  0.077300  0.874580  1.0  -0.2282
  C  C223  1  0.439000  0.989000  0.862850  1.0  0.1856
  C  C224  1  0.361100  0.222800  0.921700  1.0  -0.1968
  C  C225  1  0.454300  0.259100  0.960580  1.0  -0.088
  C  C226  1  0.451700  0.356200  0.990460  1.0  -0.2098
  C  C227  1  0.448400  0.405400  0.943430  1.0  0.1848
  C  C228  1  0.356600  0.436500  0.927120  1.0  -0.2272
  C  C229  1  0.355900  0.479600  0.882630  1.0  0.1881
  C  C230  1  0.529600  0.464100  0.869390  1.0  0.1927
  C  C231  1  0.535600  0.420300  0.913210  1.0  -0.2112
  C  C232  1  0.080000  0.273800  0.627290  1.0  0.7304
  C  C233  1  0.189700  0.246300  0.608750  1.0  -0.2133
  C  C234  1  0.217400  0.160700  0.591980  1.0  0.0477
  C  C235  1  0.318100  0.138000  0.576970  1.0  -0.1717
  C  C236  1  0.388200  0.201500  0.576650  1.0  0.2505
  C  C237  1  0.266200  0.305200  0.608550  1.0  0.2097
  C  C238  1  0.511700  0.156800  0.420580  1.0  0.2363
  C  C239  1  0.501400  0.244900  0.436630  1.0  -0.1707
  C  C240  1  0.510900  0.284700  0.390560  1.0  0.0431
  C  C241  1  0.529400  0.235900  0.330400  1.0  -0.2692
  C  C242  1  0.532700  0.147900  0.319570  1.0  0.2109
  C  C243  1  0.551600  0.273800  0.278330  1.0  0.7469
  C  C244  1  0.627100  0.250500  0.703870  1.0  0.6912
  C  C245  1  0.525000  0.216100  0.717590  1.0  -0.2668
  C  C246  1  0.441000  0.268300  0.738770  1.0  0.2266
  C  C247  1  0.337500  0.154900  0.738330  1.0  0.247
  C  C248  1  0.415800  0.096700  0.716150  1.0  -0.1849
  C  C249  1  0.510100  0.128300  0.705940  1.0  0.0616
  C  C250  1  0.214600  0.939100  0.677310  1.0  0.2393
  C  C251  1  0.218700  0.850800  0.667360  1.0  -0.1939
  C  C252  1  0.220000  0.799700  0.607240  1.0  0.0424
  C  C253  1  0.216000  0.837200  0.559040  1.0  -0.2433
  C  C254  1  0.211400  0.925700  0.574750  1.0  0.2124
  C  C255  1  0.214100  0.786600  0.491910  1.0  0.7001
  C  C256  1  0.778100  0.005500  0.595030  1.0  0.1832
  C  C257  1  0.775800  0.917800  0.581700  1.0  -0.2265
  C  C258  1  0.858600  0.873200  0.595600  1.0  0.1622
  C  C259  1  0.941600  0.922700  0.625420  1.0  -0.2277
  C  C260  1  0.939000  0.011000  0.637150  1.0  0.1857
  C  C261  1  0.861100  0.777200  0.578300  1.0  -0.1985
  C  C262  1  0.954300  0.740900  0.539420  1.0  -0.087
  C  C263  1  0.951700  0.643800  0.509540  1.0  -0.2101
  C  C264  1  0.948400  0.594600  0.556570  1.0  0.186
  C  C265  1  0.856600  0.563500  0.572880  1.0  -0.2262
  C  C266  1  0.855900  0.520400  0.617370  1.0  0.187
  C  C267  1  0.029600  0.535900  0.630610  1.0  0.1926
  C  C268  1  0.035600  0.579700  0.586790  1.0  -0.2108
  S  S269  1  0.987670  0.092160  0.972760  1.0  -0.0244
  S  S270  1  0.979160  0.177250  0.058230  1.0  0.0026
  S  S271  1  0.281330  0.003780  0.255790  1.0  -0.0073
  S  S272  1  0.291110  0.126910  0.252490  1.0  -0.0072
  S  S273  1  0.487670  0.907840  0.527240  1.0  -0.0267
  S  S274  1  0.479160  0.822750  0.441770  1.0  0.0028
  S  S275  1  0.781330  0.996220  0.244210  1.0  -0.0075
  S  S276  1  0.791110  0.873090  0.247510  1.0  -0.0074
  S  S277  1  0.012330  0.907840  0.027240  1.0  -0.0267
  S  S278  1  0.020840  0.822750  0.941770  1.0  0.0025
  S  S279  1  0.718670  0.996220  0.744210  1.0  -0.0067
  S  S280  1  0.708890  0.873090  0.747510  1.0  -0.0076
  S  S281  1  0.512330  0.092160  0.472760  1.0  -0.0246
  S  S282  1  0.520840  0.177250  0.558230  1.0  0.0022
  S  S283  1  0.218670  0.003780  0.755790  1.0  -0.0068
  S  S284  1  0.208890  0.126910  0.752490  1.0  -0.0074
  N  N285  1  0.136400  0.284000  0.091700  1.0  -0.4325
  N  N286  1  0.976300  0.107780  0.862800  1.0  -0.371
  N  N287  1  0.151800  0.239950  0.249720  1.0  -0.4477
  N  N288  1  0.289000  0.977230  0.132500  1.0  -0.4081
  N  N289  1  0.640700  0.052660  0.122210  1.0  -0.3679
  N  N290  1  0.559700  0.506530  0.146680  1.0  -0.4176
  N  N291  1  0.636400  0.716000  0.408300  1.0  -0.4339
  N  N292  1  0.476300  0.892220  0.637200  1.0  -0.3709
  N  N293  1  0.651800  0.760050  0.250280  1.0  -0.4465
  N  N294  1  0.789000  0.022770  0.367500  1.0  -0.4086
  N  N295  1  0.140700  0.947340  0.377790  1.0  -0.3675
  N  N296  1  0.059700  0.493470  0.353320  1.0  -0.4143
  N  N297  1  0.863600  0.716000  0.908300  1.0  -0.4343
  N  N298  1  0.023700  0.892220  0.137200  1.0  -0.3708
  N  N299  1  0.848200  0.760050  0.750280  1.0  -0.4465
  N  N300  1  0.711000  0.022770  0.867500  1.0  -0.4091
  N  N301  1  0.359300  0.947340  0.877790  1.0  -0.3679
  N  N302  1  0.440300  0.493470  0.853320  1.0  -0.4148
  N  N303  1  0.363600  0.284000  0.591700  1.0  -0.4349
  N  N304  1  0.523700  0.107780  0.362800  1.0  -0.3712
  N  N305  1  0.348200  0.239950  0.749720  1.0  -0.4473
  N  N306  1  0.211000  0.977230  0.632500  1.0  -0.4085
  N  N307  1  0.859300  0.052660  0.622210  1.0  -0.3681
  N  N308  1  0.940300  0.506530  0.646680  1.0  -0.4196
  O  O309  1  0.430800  0.348300  0.162300  1.0  -0.6654
  O  O310  1  0.489400  0.222550  0.104890  1.0  -0.6129
  O  O311  1  0.940100  0.351550  0.788500  1.0  -0.6338
  O  O312  1  0.942100  0.220400  0.726310  1.0  -0.6331
  O  O313  1  0.800300  0.197750  0.190750  1.0  -0.6352
  O  O314  1  0.866400  0.328830  0.206580  1.0  -0.66
  O  O315  1  0.282200  0.830740  0.954480  1.0  -0.6379
  O  O316  1  0.290000  0.706350  0.977630  1.0  -0.6399
  O  O317  1  0.692900  0.341690  0.146230  1.0  -0.8677
  O  O318  1  0.930800  0.651700  0.337700  1.0  -0.6629
  O  O319  1  0.989400  0.777450  0.395110  1.0  -0.6131
  O  O320  1  0.440100  0.648450  0.711500  1.0  -0.6344
  O  O321  1  0.442100  0.779600  0.773690  1.0  -0.6327
  O  O322  1  0.300300  0.802250  0.309250  1.0  -0.6355
  O  O323  1  0.366400  0.671170  0.293420  1.0  -0.6598
  O  O324  1  0.782200  0.169260  0.545520  1.0  -0.6386
  O  O325  1  0.790000  0.293650  0.522370  1.0  -0.6403
  O  O326  1  0.192900  0.658310  0.353770  1.0  -0.8707
  O  O327  1  0.569200  0.651700  0.837700  1.0  -0.6625
  O  O328  1  0.510600  0.777450  0.895110  1.0  -0.6127
  O  O329  1  0.059900  0.648450  0.211500  1.0  -0.6347
  O  O330  1  0.057900  0.779600  0.273690  1.0  -0.6335
  O  O331  1  0.199700  0.802250  0.809250  1.0  -0.6354
  O  O332  1  0.133600  0.671170  0.793420  1.0  -0.6604
  O  O333  1  0.717800  0.169260  0.045520  1.0  -0.6386
  O  O334  1  0.710000  0.293650  0.022370  1.0  -0.641
  O  O335  1  0.307100  0.658310  0.853770  1.0  -0.8672
  O  O336  1  0.069200  0.348300  0.662300  1.0  -0.6642
  O  O337  1  0.010600  0.222550  0.604890  1.0  -0.6133
  O  O338  1  0.559900  0.351550  0.288500  1.0  -0.6347
  O  O339  1  0.557900  0.220400  0.226310  1.0  -0.6338
  O  O340  1  0.699700  0.197750  0.690750  1.0  -0.6351
  O  O341  1  0.633600  0.328830  0.706580  1.0  -0.6598
  O  O342  1  0.217800  0.830740  0.454480  1.0  -0.6374
  O  O343  1  0.210000  0.706350  0.477630  1.0  -0.6429
  O  O344  1  0.807100  0.341690  0.646230  1.0  -0.8657
