# generated using pymatgen
data_U2CoP2H4(CO3)4
_symmetry_space_group_name_H-M   'P 1'
_cell_length_a   9.35680000
_cell_length_b   9.50260000
_cell_length_c   12.12820000
_cell_angle_alpha   90.00000000
_cell_angle_beta   103.91200000
_cell_angle_gamma   90.00000000
_symmetry_Int_Tables_number   1
_chemical_formula_structural   U2CoP2H4(CO3)4
_chemical_formula_sum   'U4 Co2 P4 H8 C8 O24'
_cell_volume   1046.73327101
_cell_formula_units_Z   2
loop_
 _symmetry_equiv_pos_site_id
 _symmetry_equiv_pos_as_xyz
  1  'x, y, z'
loop_
 _atom_site_type_symbol
 _atom_site_label
 _atom_site_symmetry_multiplicity
 _atom_site_fract_x
 _atom_site_fract_y
 _atom_site_fract_z
 _atom_site_occupancy
 _atom_site_charge
  U  U1  1  0.782560  0.677860  0.380230  1.0  2.4598
  U  U2  1  0.717440  0.177860  0.119770  1.0  2.4579
  U  U3  1  0.217440  0.322140  0.619770  1.0  2.459
  U  U4  1  0.282560  0.822140  0.880230  1.0  2.4586
  Co  Co5  1  0.500000  0.500000  0.500000  1.0  0.6171
  Co  Co6  1  0.000000  0.000000  0.000000  1.0  0.6171
  P  P7  1  0.591050  0.817470  0.115850  1.0  1.607
  P  P8  1  0.908950  0.317470  0.384150  1.0  1.6073
  P  P9  1  0.408950  0.182530  0.884150  1.0  1.6079
  P  P10  1  0.091050  0.682530  0.615850  1.0  1.6077
  H  H11  1  0.790900  0.692600  0.084400  1.0  0.2102
  H  H12  1  0.647500  0.660000  0.986100  1.0  0.2123
  H  H13  1  0.709100  0.192600  0.415600  1.0  0.2068
  H  H14  1  0.852500  0.160000  0.513900  1.0  0.2126
  H  H15  1  0.209100  0.307400  0.915600  1.0  0.2074
  H  H16  1  0.352500  0.340000  0.013900  1.0  0.2113
  H  H17  1  0.290900  0.807400  0.584400  1.0  0.2095
  H  H18  1  0.147500  0.840000  0.486100  1.0  0.2109
  C  C19  1  0.684600  0.670000  0.069300  1.0  -0.8208
  C  C20  1  0.668000  0.530100  0.124000  1.0  0.8563
  C  C21  1  0.815400  0.170000  0.430700  1.0  -0.823
  C  C22  1  0.832000  0.030100  0.376000  1.0  0.8614
  C  C23  1  0.315400  0.330000  0.930700  1.0  -0.8225
  C  C24  1  0.332000  0.469900  0.876000  1.0  0.8603
  C  C25  1  0.184600  0.830000  0.569300  1.0  -0.8214
  C  C26  1  0.168000  0.969900  0.624000  1.0  0.8547
  O  O27  1  0.623500  0.816000  0.244300  1.0  -0.8879
  O  O28  1  0.425300  0.804600  0.065300  1.0  -0.8458
  O  O29  1  0.654100  0.947300  0.069600  1.0  -0.9459
  O  O30  1  0.653300  0.528200  0.225700  1.0  -0.7113
  O  O31  1  0.673600  0.420900  0.066300  1.0  -0.6664
  O  O32  1  0.629300  0.658400  0.445600  1.0  -0.7723
  O  O33  1  0.876500  0.316000  0.255700  1.0  -0.8872
  O  O34  1  0.074700  0.304600  0.434700  1.0  -0.8459
  O  O35  1  0.845900  0.447300  0.430400  1.0  -0.9466
  O  O36  1  0.846700  0.028200  0.274300  1.0  -0.7183
  O  O37  1  0.826400  0.920900  0.433700  1.0  -0.6663
  O  O38  1  0.870700  0.158400  0.054400  1.0  -0.7709
  O  O39  1  0.376500  0.184000  0.755700  1.0  -0.8871
  O  O40  1  0.574700  0.195400  0.934700  1.0  -0.8458
  O  O41  1  0.345900  0.052700  0.930400  1.0  -0.9452
  O  O42  1  0.346700  0.471800  0.774300  1.0  -0.7181
  O  O43  1  0.326400  0.579100  0.933700  1.0  -0.667
  O  O44  1  0.370700  0.341600  0.554400  1.0  -0.7713
  O  O45  1  0.123500  0.684000  0.744300  1.0  -0.8879
  O  O46  1  0.925300  0.695400  0.565300  1.0  -0.8457
  O  O47  1  0.154100  0.552700  0.569600  1.0  -0.9449
  O  O48  1  0.153300  0.971800  0.725700  1.0  -0.7092
  O  O49  1  0.173600  0.079100  0.566300  1.0  -0.6663
  O  O50  1  0.129300  0.841600  0.945600  1.0  -0.7721
