# generated using pymatgen
data_Ni3H32C44(N3O8)2
_symmetry_space_group_name_H-M   'P 1'
_cell_length_a   12.79320000
_cell_length_b   12.79320000
_cell_length_c   18.03310000
_cell_angle_alpha   91.86460000
_cell_angle_beta   91.86460000
_cell_angle_gamma   106.13300000
_symmetry_Int_Tables_number   1
_chemical_formula_structural   Ni3H32C44(N3O8)2
_chemical_formula_sum   'Ni6 H64 C88 N12 O32'
_cell_volume   2831.01663947
_cell_formula_units_Z   2
loop_
 _symmetry_equiv_pos_site_id
 _symmetry_equiv_pos_as_xyz
  1  'x, y, z'
loop_
 _atom_site_type_symbol
 _atom_site_label
 _atom_site_symmetry_multiplicity
 _atom_site_fract_x
 _atom_site_fract_y
 _atom_site_fract_z
 _atom_site_occupancy
 _atom_site_charge
  Ni  Ni1  1  0.237110  0.275510  0.710570  1.0  0.8029
  Ni  Ni2  1  0.724490  0.762890  0.789430  1.0  0.825
  Ni  Ni3  1  0.762890  0.724490  0.289430  1.0  0.8237
  Ni  Ni4  1  0.275510  0.237110  0.210570  1.0  0.799
  Ni  Ni5  1  0.000000  0.000000  0.500000  1.0  0.5456
  Ni  Ni6  1  0.000000  0.000000  0.000000  1.0  0.5456
  H  H7  1  0.523100  0.467900  0.679500  1.0  0.113
  H  H8  1  0.460900  0.680100  0.533800  1.0  0.1181
  H  H9  1  0.283300  0.362500  0.520300  1.0  0.1142
  H  H10  1  0.347000  0.227800  0.526000  1.0  0.1204
  H  H11  1  0.358000  0.139800  0.584400  1.0  0.1328
  H  H12  1  0.507000  0.240400  0.649800  1.0  0.1183
  H  H13  1  0.490100  0.322900  0.714200  1.0  0.1321
  H  H14  1  0.308300  0.524900  0.721000  1.0  0.0786
  H  H15  1  0.042400  0.323000  0.629700  1.0  0.0976
  H  H16  1  0.266500  0.671500  0.671200  1.0  0.135
  H  H17  1  0.987400  0.466000  0.583600  1.0  0.12
  H  H18  1  0.237800  0.752200  0.542900  1.0  0.1323
  H  H19  1  0.935600  0.641400  0.621500  1.0  0.136
  H  H20  1  0.188100  0.899900  0.499800  1.0  0.0935
  H  H21  1  0.894900  0.789900  0.575500  1.0  0.0927
  H  H22  1  0.266600  0.653000  0.408000  1.0  0.4312
  H  H23  1  0.532100  0.476900  0.820500  1.0  0.1115
  H  H24  1  0.319900  0.539100  0.966200  1.0  0.1156
  H  H25  1  0.637500  0.716700  0.979700  1.0  0.1141
  H  H26  1  0.772200  0.653000  0.974000  1.0  0.1275
  H  H27  1  0.860200  0.642000  0.915600  1.0  0.1362
  H  H28  1  0.759600  0.493000  0.850200  1.0  0.1183
  H  H29  1  0.677100  0.509900  0.785800  1.0  0.1337
  H  H30  1  0.475100  0.691700  0.779000  1.0  0.082
  H  H31  1  0.677000  0.957600  0.870300  1.0  0.0977
  H  H32  1  0.328500  0.733500  0.828800  1.0  0.1345
  H  H33  1  0.534000  0.012600  0.916400  1.0  0.1205
  H  H34  1  0.247800  0.762200  0.957100  1.0  0.1306
  H  H35  1  0.358600  0.064400  0.878500  1.0  0.1353
  H  H36  1  0.100100  0.811900  0.000200  1.0  0.0949
  H  H37  1  0.210100  0.105100  0.924500  1.0  0.0933
  H  H38  1  0.347000  0.733400  0.092000  1.0  0.4276
  H  H39  1  0.476900  0.532100  0.320500  1.0  0.1113
  H  H40  1  0.539100  0.319900  0.466200  1.0  0.1183
  H  H41  1  0.716700  0.637500  0.479700  1.0  0.1138
  H  H42  1  0.653000  0.772200  0.474000  1.0  0.1316
  H  H43  1  0.642000  0.860200  0.415600  1.0  0.1296
  H  H44  1  0.493000  0.759600  0.350200  1.0  0.1156
  H  H45  1  0.509900  0.677100  0.285800  1.0  0.1328
  H  H46  1  0.691700  0.475100  0.279000  1.0  0.08
  H  H47  1  0.957600  0.677000  0.370300  1.0  0.0983
  H  H48  1  0.733500  0.328500  0.328800  1.0  0.1351
  H  H49  1  0.012600  0.534000  0.416400  1.0  0.1198
  H  H50  1  0.762200  0.247800  0.457100  1.0  0.1326
  H  H51  1  0.064400  0.358600  0.378500  1.0  0.1349
  H  H52  1  0.811900  0.100100  0.500200  1.0  0.0939
  H  H53  1  0.105100  0.210100  0.424500  1.0  0.0933
  H  H54  1  0.733400  0.347000  0.592000  1.0  0.4272
  H  H55  1  0.467900  0.523100  0.179500  1.0  0.1114
  H  H56  1  0.680100  0.460900  0.033800  1.0  0.1156
  H  H57  1  0.362500  0.283300  0.020300  1.0  0.1143
  H  H58  1  0.227800  0.347000  0.026000  1.0  0.1284
  H  H59  1  0.139800  0.358000  0.084400  1.0  0.1373
  H  H60  1  0.240400  0.507000  0.149800  1.0  0.118
  H  H61  1  0.322900  0.490100  0.214200  1.0  0.1289
  H  H62  1  0.524900  0.308300  0.221000  1.0  0.0813
  H  H63  1  0.323000  0.042400  0.129700  1.0  0.0967
  H  H64  1  0.671500  0.266500  0.171200  1.0  0.135
  H  H65  1  0.466000  0.987400  0.083600  1.0  0.1206
  H  H66  1  0.752200  0.237800  0.042900  1.0  0.131
  H  H67  1  0.641400  0.935600  0.121500  1.0  0.1364
  H  H68  1  0.899900  0.188100  0.999800  1.0  0.0947
  H  H69  1  0.789900  0.894900  0.075500  1.0  0.092
  H  H70  1  0.653000  0.266600  0.908000  1.0  0.4285
  C  C71  1  0.399040  0.396560  0.603900  1.0  0.1092
  C  C72  1  0.481900  0.481900  0.638100  1.0  -0.1114
  C  C73  1  0.504400  0.586600  0.612200  1.0  -0.088
  C  C74  1  0.445400  0.608600  0.551700  1.0  -0.0493
  C  C75  1  0.363300  0.523900  0.517800  1.0  -0.1442
  C  C76  1  0.340100  0.419100  0.543900  1.0  -0.1207
  C  C77  1  0.593100  0.676900  0.650900  1.0  0.6685
  C  C78  1  0.300300  0.542900  0.451000  1.0  0.6285
  C  C79  1  0.325000  0.199800  0.575400  1.0  -0.2411
  C  C80  1  0.201390  0.154210  0.573600  1.0  0.7035
  C  C81  1  0.452200  0.259800  0.680900  1.0  -0.2408
  C  C82  1  0.397700  0.163500  0.727300  1.0  0.6984
  C  C83  1  0.243500  0.512500  0.690800  1.0  0.1808
  C  C84  1  0.088200  0.395000  0.638700  1.0  0.1754
  C  C85  1  0.218500  0.600500  0.662300  1.0  -0.214
  C  C86  1  0.055600  0.479800  0.610100  1.0  -0.1861
  C  C87  1  0.122300  0.585500  0.620000  1.0  0.1225
  C  C88  1  0.092500  0.679500  0.588200  1.0  0.1056
  C  C89  1  0.166900  0.758700  0.550600  1.0  -0.2181
  C  C90  1  0.989300  0.693700  0.596600  1.0  -0.1747
  C  C91  1  0.136300  0.846300  0.524900  1.0  0.1577
  C  C92  1  0.965850  0.782150  0.569180  1.0  0.1768
  C  C93  1  0.603440  0.600960  0.896100  1.0  0.1088
  C  C94  1  0.518100  0.518100  0.861900  1.0  -0.1089
  C  C95  1  0.413400  0.495600  0.887800  1.0  -0.0928
  C  C96  1  0.391400  0.554600  0.948300  1.0  -0.0506
  C  C97  1  0.476100  0.636700  0.982200  1.0  -0.1442
  C  C98  1  0.580900  0.659900  0.956100  1.0  -0.1205
  C  C99  1  0.323100  0.406900  0.849100  1.0  0.6652
  C  C100  1  0.457100  0.699700  0.049000  1.0  0.6281
  C  C101  1  0.800200  0.675000  0.924600  1.0  -0.2422
  C  C102  1  0.845790  0.798610  0.926400  1.0  0.7043
  C  C103  1  0.740200  0.547800  0.819100  1.0  -0.2306
  C  C104  1  0.836500  0.602300  0.772700  1.0  0.6912
  C  C105  1  0.487500  0.756500  0.809200  1.0  0.1792
  C  C106  1  0.605000  0.911800  0.861300  1.0  0.1773
  C  C107  1  0.399500  0.781500  0.837700  1.0  -0.2104
  C  C108  1  0.520200  0.944400  0.889900  1.0  -0.1883
  C  C109  1  0.414500  0.877700  0.880000  1.0  0.1227
  C  C110  1  0.320500  0.907500  0.911800  1.0  0.103
  C  C111  1  0.241300  0.833100  0.949400  1.0  -0.2209
  C  C112  1  0.306300  0.010700  0.903400  1.0  -0.1772
  C  C113  1  0.153700  0.863700  0.975100  1.0  0.1582
  C  C114  1  0.217850  0.034150  0.930820  1.0  0.1767
  C  C115  1  0.600960  0.603440  0.396100  1.0  0.1091
  C  C116  1  0.518100  0.518100  0.361900  1.0  -0.1107
  C  C117  1  0.495600  0.413400  0.387800  1.0  -0.0891
  C  C118  1  0.554600  0.391400  0.448300  1.0  -0.0535
  C  C119  1  0.636700  0.476100  0.482200  1.0  -0.1447
  C  C120  1  0.659900  0.580900  0.456100  1.0  -0.123
  C  C121  1  0.406900  0.323100  0.349100  1.0  0.668
  C  C122  1  0.699700  0.457100  0.549000  1.0  0.6273
  C  C123  1  0.675000  0.800200  0.424600  1.0  -0.2433
  C  C124  1  0.798610  0.845790  0.426400  1.0  0.7068
  C  C125  1  0.547800  0.740200  0.319100  1.0  -0.2461
  C  C126  1  0.602300  0.836500  0.272700  1.0  0.7086
  C  C127  1  0.756500  0.487500  0.309200  1.0  0.1814
  C  C128  1  0.911800  0.605000  0.361300  1.0  0.1776
  C  C129  1  0.781500  0.399500  0.337700  1.0  -0.215
  C  C130  1  0.944400  0.520200  0.389900  1.0  -0.185
  C  C131  1  0.877700  0.414500  0.380000  1.0  0.1234
  C  C132  1  0.907500  0.320500  0.411800  1.0  0.1054
  C  C133  1  0.833100  0.241300  0.449400  1.0  -0.2193
  C  C134  1  0.010700  0.306300  0.403400  1.0  -0.1728
  C  C135  1  0.863700  0.153700  0.475100  1.0  0.1576
  C  C136  1  0.034150  0.217850  0.430820  1.0  0.1762
  C  C137  1  0.396560  0.399040  0.103900  1.0  0.1091
  C  C138  1  0.481900  0.481900  0.138100  1.0  -0.1111
  C  C139  1  0.586600  0.504400  0.112200  1.0  -0.0929
  C  C140  1  0.608600  0.445400  0.051700  1.0  -0.0512
  C  C141  1  0.523900  0.363300  0.017800  1.0  -0.1444
  C  C142  1  0.419100  0.340100  0.043900  1.0  -0.1214
  C  C143  1  0.676900  0.593100  0.150900  1.0  0.6638
  C  C144  1  0.542900  0.300300  0.951000  1.0  0.6283
  C  C145  1  0.199800  0.325000  0.075400  1.0  -0.2443
  C  C146  1  0.154210  0.201390  0.073600  1.0  0.7037
  C  C147  1  0.259800  0.452200  0.180900  1.0  -0.2474
  C  C148  1  0.163500  0.397700  0.227300  1.0  0.6896
  C  C149  1  0.512500  0.243500  0.190800  1.0  0.1793
  C  C150  1  0.395000  0.088200  0.138700  1.0  0.177
  C  C151  1  0.600500  0.218500  0.162300  1.0  -0.2104
  C  C152  1  0.479800  0.055600  0.110100  1.0  -0.1887
  C  C153  1  0.585500  0.122300  0.120000  1.0  0.124
  C  C154  1  0.679500  0.092500  0.088200  1.0  0.1028
  C  C155  1  0.758700  0.166900  0.050600  1.0  -0.2205
  C  C156  1  0.693700  0.989300  0.096600  1.0  -0.1757
  C  C157  1  0.846300  0.136300  0.024900  1.0  0.1584
  C  C158  1  0.782150  0.965850  0.069180  1.0  0.1774
  N  N159  1  0.181700  0.409100  0.678620  1.0  -0.3455
  N  N160  1  0.369400  0.288760  0.632940  1.0  -0.0383
  N  N161  1  0.037380  0.859820  0.533300  1.0  -0.2891
  N  N162  1  0.590900  0.818300  0.821380  1.0  -0.3465
  N  N163  1  0.711240  0.630600  0.867060  1.0  -0.0377
  N  N164  1  0.140180  0.962620  0.966700  1.0  -0.291
  N  N165  1  0.818300  0.590900  0.321380  1.0  -0.3463
  N  N166  1  0.630600  0.711240  0.367060  1.0  -0.0383
  N  N167  1  0.962620  0.140180  0.466700  1.0  -0.2896
  N  N168  1  0.409100  0.181700  0.178620  1.0  -0.3486
  N  N169  1  0.288760  0.369400  0.132940  1.0  -0.0388
  N  N170  1  0.859820  0.037380  0.033300  1.0  -0.2902
  O  O171  1  0.298070  0.147670  0.738350  1.0  -0.5684
  O  O172  1  0.453400  0.103800  0.749000  1.0  -0.6003
  O  O173  1  0.148570  0.183510  0.624240  1.0  -0.5849
  O  O174  1  0.160850  0.087850  0.521820  1.0  -0.54
  O  O175  1  0.627180  0.657180  0.713250  1.0  -0.5847
  O  O176  1  0.624900  0.764500  0.619100  1.0  -0.6044
  O  O177  1  0.322380  0.643020  0.431350  1.0  -0.522
  O  O178  1  0.239400  0.466600  0.414400  1.0  -0.5034
  O  O179  1  0.852330  0.701930  0.761650  1.0  -0.5674
  O  O180  1  0.896200  0.546600  0.751000  1.0  -0.6025
  O  O181  1  0.816490  0.851430  0.875760  1.0  -0.5866
  O  O182  1  0.912150  0.839150  0.978180  1.0  -0.5384
  O  O183  1  0.342820  0.372820  0.786750  1.0  -0.5846
  O  O184  1  0.235500  0.375100  0.880900  1.0  -0.6035
  O  O185  1  0.356980  0.677620  0.068650  1.0  -0.5233
  O  O186  1  0.533400  0.760600  0.085600  1.0  -0.5051
  O  O187  1  0.701930  0.852330  0.261650  1.0  -0.5688
  O  O188  1  0.546600  0.896200  0.251000  1.0  -0.5991
  O  O189  1  0.851430  0.816490  0.375760  1.0  -0.584
  O  O190  1  0.839150  0.912150  0.478180  1.0  -0.5371
  O  O191  1  0.372820  0.342820  0.286750  1.0  -0.5833
  O  O192  1  0.375100  0.235500  0.380900  1.0  -0.6038
  O  O193  1  0.677620  0.356980  0.568650  1.0  -0.5221
  O  O194  1  0.760600  0.533400  0.585600  1.0  -0.5034
  O  O195  1  0.147670  0.298070  0.238350  1.0  -0.5674
  O  O196  1  0.103800  0.453400  0.249000  1.0  -0.6019
  O  O197  1  0.183510  0.148570  0.124240  1.0  -0.5873
  O  O198  1  0.087850  0.160850  0.021820  1.0  -0.5417
  O  O199  1  0.657180  0.627180  0.213250  1.0  -0.5854
  O  O200  1  0.764500  0.624900  0.119100  1.0  -0.5988
  O  O201  1  0.643020  0.322380  0.931350  1.0  -0.5225
  O  O202  1  0.466600  0.239400  0.914400  1.0  -0.5039
