# generated using pymatgen
data_Ni2H21C25N3O8
_symmetry_space_group_name_H-M   'P 1'
_cell_length_a   17.65740000
_cell_length_b   17.65740000
_cell_length_c   18.65180000
_cell_angle_alpha   90.00000000
_cell_angle_beta   90.00000000
_cell_angle_gamma   90.00000000
_symmetry_Int_Tables_number   1
_chemical_formula_structural   Ni2H21C25N3O8
_chemical_formula_sum   'Ni16 H168 C200 N24 O64'
_cell_volume   5815.32861007
_cell_formula_units_Z   8
loop_
 _symmetry_equiv_pos_site_id
 _symmetry_equiv_pos_as_xyz
  1  'x, y, z'
loop_
 _atom_site_type_symbol
 _atom_site_label
 _atom_site_symmetry_multiplicity
 _atom_site_fract_x
 _atom_site_fract_y
 _atom_site_fract_z
 _atom_site_occupancy
 _atom_site_charge
  Ni  Ni1  1  0.617790  0.419940  0.926300  1.0  0.8992
  Ni  Ni2  1  0.723920  0.532930  0.813450  1.0  0.8325
  Ni  Ni3  1  0.382210  0.580060  0.426300  1.0  0.8995
  Ni  Ni4  1  0.276080  0.467070  0.313450  1.0  0.8327
  Ni  Ni5  1  0.080060  0.117790  0.676300  1.0  0.8966
  Ni  Ni6  1  0.967070  0.223920  0.563450  1.0  0.83
  Ni  Ni7  1  0.919940  0.882210  0.176300  1.0  0.8993
  Ni  Ni8  1  0.032930  0.776080  0.063450  1.0  0.832
  Ni  Ni9  1  0.882210  0.919940  0.823700  1.0  0.8986
  Ni  Ni10  1  0.776080  0.032930  0.936550  1.0  0.8326
  Ni  Ni11  1  0.117790  0.080060  0.323700  1.0  0.8984
  Ni  Ni12  1  0.223920  0.967070  0.436550  1.0  0.8329
  Ni  Ni13  1  0.419940  0.617790  0.073700  1.0  0.8973
  Ni  Ni14  1  0.532930  0.723920  0.186550  1.0  0.8318
  Ni  Ni15  1  0.580060  0.382210  0.573700  1.0  0.897
  Ni  Ni16  1  0.467070  0.276080  0.686550  1.0  0.8309
  H  H17  1  0.668300  0.078100  0.263100  1.0  0.1054
  H  H18  1  0.583900  0.088200  0.287100  1.0  0.0937
  H  H19  1  0.684800  0.969100  0.161300  1.0  0.1218
  H  H20  1  0.656600  0.844500  0.141300  1.0  0.083
  H  H21  1  0.507500  0.979900  0.294400  1.0  0.1353
  H  H22  1  0.484500  0.854500  0.271300  1.0  0.0805
  H  H23  1  0.657800  0.699100  0.696800  1.0  0.1121
  H  H24  1  0.738600  0.685200  0.729800  1.0  0.1092
  H  H25  1  0.724600  0.767700  0.805200  1.0  0.0995
  H  H26  1  0.574300  0.634900  0.904500  1.0  0.1089
  H  H27  1  0.540700  0.644000  0.780500  1.0  0.1191
  H  H28  1  0.576200  0.591800  0.721500  1.0  0.1285
  H  H29  1  0.644800  0.826900  0.999500  1.0  0.1045
  H  H30  1  0.718200  0.373000  0.049200  1.0  0.0887
  H  H31  1  0.718900  0.298200  0.149800  1.0  0.1123
  H  H32  1  0.507900  0.239800  0.107800  1.0  0.1157
  H  H33  1  0.510400  0.315500  0.009400  1.0  0.0819
  H  H34  1  0.661300  0.214100  0.229600  1.0  0.1006
  H  H35  1  0.573500  0.223400  0.237600  1.0  0.1044
  H  H36  1  0.637300  0.112900  0.146700  1.0  0.0765
  H  H37  1  0.551500  0.118500  0.167600  1.0  0.0654
  H  H38  1  0.331700  0.921900  0.763100  1.0  0.1048
  H  H39  1  0.416100  0.911800  0.787100  1.0  0.0935
  H  H40  1  0.315200  0.030900  0.661300  1.0  0.1211
  H  H41  1  0.343400  0.155500  0.641300  1.0  0.0828
  H  H42  1  0.492500  0.020100  0.794400  1.0  0.1352
  H  H43  1  0.515500  0.145500  0.771300  1.0  0.0801
  H  H44  1  0.342200  0.300900  0.196800  1.0  0.1111
  H  H45  1  0.261400  0.314800  0.229800  1.0  0.1075
  H  H46  1  0.275400  0.232300  0.305200  1.0  0.0994
  H  H47  1  0.425700  0.365100  0.404500  1.0  0.1083
  H  H48  1  0.459300  0.356000  0.280500  1.0  0.119
  H  H49  1  0.423800  0.408200  0.221500  1.0  0.1292
  H  H50  1  0.355200  0.173100  0.499500  1.0  0.1044
  H  H51  1  0.281800  0.627000  0.549200  1.0  0.0885
  H  H52  1  0.281100  0.701800  0.649800  1.0  0.1126
  H  H53  1  0.492100  0.760200  0.607800  1.0  0.1156
  H  H54  1  0.489600  0.684500  0.509400  1.0  0.0814
  H  H55  1  0.338700  0.785900  0.729600  1.0  0.098
  H  H56  1  0.426500  0.776600  0.737600  1.0  0.1029
  H  H57  1  0.362700  0.887100  0.646700  1.0  0.0768
  H  H58  1  0.448500  0.881500  0.667600  1.0  0.0658
  H  H59  1  0.421900  0.168300  0.013100  1.0  0.109
  H  H60  1  0.411800  0.083900  0.037100  1.0  0.094
  H  H61  1  0.530900  0.184800  0.911300  1.0  0.1225
  H  H62  1  0.655500  0.156600  0.891300  1.0  0.0834
  H  H63  1  0.520100  0.007500  0.044400  1.0  0.1357
  H  H64  1  0.645500  0.984500  0.021300  1.0  0.08
  H  H65  1  0.800900  0.157800  0.446800  1.0  0.1121
  H  H66  1  0.814800  0.238600  0.479800  1.0  0.1085
  H  H67  1  0.732300  0.224600  0.555200  1.0  0.1
  H  H68  1  0.865100  0.074300  0.654500  1.0  0.1088
  H  H69  1  0.856000  0.040700  0.530500  1.0  0.1197
  H  H70  1  0.908200  0.076200  0.471500  1.0  0.1257
  H  H71  1  0.673100  0.144800  0.749500  1.0  0.1043
  H  H72  1  0.127000  0.218200  0.799200  1.0  0.0877
  H  H73  1  0.201800  0.218900  0.899800  1.0  0.1121
  H  H74  1  0.260200  0.007900  0.857800  1.0  0.1148
  H  H75  1  0.184500  0.010400  0.759400  1.0  0.0812
  H  H76  1  0.285900  0.161300  0.979600  1.0  0.0993
  H  H77  1  0.276600  0.073500  0.987600  1.0  0.1041
  H  H78  1  0.387100  0.137300  0.896700  1.0  0.0765
  H  H79  1  0.381500  0.051500  0.917600  1.0  0.0645
  H  H80  1  0.578100  0.831700  0.513100  1.0  0.1095
  H  H81  1  0.588200  0.916100  0.537100  1.0  0.0931
  H  H82  1  0.469100  0.815200  0.411300  1.0  0.1205
  H  H83  1  0.344500  0.843400  0.391300  1.0  0.0829
  H  H84  1  0.479900  0.992500  0.544400  1.0  0.1355
  H  H85  1  0.354500  0.015500  0.521300  1.0  0.08
  H  H86  1  0.199100  0.842200  0.946800  1.0  0.1126
  H  H87  1  0.185200  0.761400  0.979800  1.0  0.1087
  H  H88  1  0.267700  0.775400  0.055200  1.0  0.0994
  H  H89  1  0.134900  0.925700  0.154500  1.0  0.1086
  H  H90  1  0.144000  0.959300  0.030500  1.0  0.1188
  H  H91  1  0.091800  0.923800  0.971500  1.0  0.127
  H  H92  1  0.326900  0.855200  0.249500  1.0  0.1045
  H  H93  1  0.873000  0.781800  0.299200  1.0  0.0878
  H  H94  1  0.798200  0.781100  0.399800  1.0  0.1125
  H  H95  1  0.739800  0.992100  0.357800  1.0  0.1157
  H  H96  1  0.815500  0.989600  0.259400  1.0  0.0816
  H  H97  1  0.714100  0.838700  0.479600  1.0  0.1009
  H  H98  1  0.723400  0.926500  0.487600  1.0  0.1029
  H  H99  1  0.612900  0.862700  0.396700  1.0  0.077
  H  H100  1  0.618500  0.948500  0.417600  1.0  0.0663
  H  H101  1  0.831700  0.578100  0.486900  1.0  0.1052
  H  H102  1  0.916100  0.588200  0.462900  1.0  0.0931
  H  H103  1  0.815200  0.469100  0.588700  1.0  0.1219
  H  H104  1  0.843400  0.344500  0.608700  1.0  0.083
  H  H105  1  0.992500  0.479900  0.455600  1.0  0.1359
  H  H106  1  0.015500  0.354500  0.478700  1.0  0.0802
  H  H107  1  0.842200  0.199100  0.053200  1.0  0.1116
  H  H108  1  0.761400  0.185200  0.020200  1.0  0.1076
  H  H109  1  0.775400  0.267700  0.944800  1.0  0.0987
  H  H110  1  0.925700  0.134900  0.845500  1.0  0.1086
  H  H111  1  0.959300  0.144000  0.969500  1.0  0.1189
  H  H112  1  0.923800  0.091800  0.028500  1.0  0.13
  H  H113  1  0.855200  0.326900  0.750500  1.0  0.1048
  H  H114  1  0.781800  0.873000  0.700800  1.0  0.0882
  H  H115  1  0.781100  0.798200  0.600200  1.0  0.1127
  H  H116  1  0.992100  0.739800  0.642200  1.0  0.1161
  H  H117  1  0.989600  0.815500  0.740600  1.0  0.082
  H  H118  1  0.838700  0.714100  0.520400  1.0  0.0992
  H  H119  1  0.926500  0.723400  0.512400  1.0  0.1026
  H  H120  1  0.862700  0.612900  0.603300  1.0  0.0764
  H  H121  1  0.948500  0.618500  0.582400  1.0  0.0661
  H  H122  1  0.168300  0.421900  0.986900  1.0  0.1061
  H  H123  1  0.083900  0.411800  0.962900  1.0  0.0925
  H  H124  1  0.184800  0.530900  0.088700  1.0  0.1227
  H  H125  1  0.156600  0.655500  0.108700  1.0  0.0828
  H  H126  1  0.007500  0.520100  0.955600  1.0  0.1359
  H  H127  1  0.984500  0.645500  0.978700  1.0  0.0806
  H  H128  1  0.157800  0.800900  0.553200  1.0  0.112
  H  H129  1  0.238600  0.814800  0.520200  1.0  0.1092
  H  H130  1  0.224600  0.732300  0.444800  1.0  0.0988
  H  H131  1  0.074300  0.865100  0.345500  1.0  0.1085
  H  H132  1  0.040700  0.856000  0.469500  1.0  0.119
  H  H133  1  0.076200  0.908200  0.528500  1.0  0.1276
  H  H134  1  0.144800  0.673100  0.250500  1.0  0.1045
  H  H135  1  0.218200  0.127000  0.200800  1.0  0.0887
  H  H136  1  0.218900  0.201800  0.100200  1.0  0.1123
  H  H137  1  0.007900  0.260200  0.142200  1.0  0.1154
  H  H138  1  0.010400  0.184500  0.240600  1.0  0.0813
  H  H139  1  0.161300  0.285900  0.020400  1.0  0.1011
  H  H140  1  0.073500  0.276600  0.012400  1.0  0.1036
  H  H141  1  0.137300  0.387100  0.103300  1.0  0.076
  H  H142  1  0.051500  0.381500  0.082400  1.0  0.0665
  H  H143  1  0.078100  0.668300  0.736900  1.0  0.1102
  H  H144  1  0.088200  0.583900  0.712900  1.0  0.0924
  H  H145  1  0.969100  0.684800  0.838700  1.0  0.1222
  H  H146  1  0.844500  0.656600  0.858700  1.0  0.083
  H  H147  1  0.979900  0.507500  0.705600  1.0  0.1358
  H  H148  1  0.854500  0.484500  0.728700  1.0  0.0801
  H  H149  1  0.699100  0.657800  0.303200  1.0  0.1124
  H  H150  1  0.685200  0.738600  0.270200  1.0  0.1081
  H  H151  1  0.767700  0.724600  0.194800  1.0  0.0984
  H  H152  1  0.634900  0.574300  0.095500  1.0  0.1085
  H  H153  1  0.644000  0.540700  0.219500  1.0  0.1198
  H  H154  1  0.591800  0.576200  0.278500  1.0  0.1277
  H  H155  1  0.826900  0.644800  0.000500  1.0  0.1043
  H  H156  1  0.373000  0.718200  0.950800  1.0  0.0879
  H  H157  1  0.298200  0.718900  0.850200  1.0  0.1123
  H  H158  1  0.239800  0.507900  0.892200  1.0  0.1144
  H  H159  1  0.315500  0.510400  0.990600  1.0  0.081
  H  H160  1  0.214100  0.661300  0.770400  1.0  0.1012
  H  H161  1  0.223400  0.573500  0.762400  1.0  0.1029
  H  H162  1  0.112900  0.637300  0.853300  1.0  0.0758
  H  H163  1  0.118500  0.551500  0.832400  1.0  0.0655
  H  H164  1  0.921900  0.331700  0.236900  1.0  0.1093
  H  H165  1  0.911800  0.416100  0.212900  1.0  0.0931
  H  H166  1  0.030900  0.315200  0.338700  1.0  0.1225
  H  H167  1  0.155500  0.343400  0.358700  1.0  0.0835
  H  H168  1  0.020100  0.492500  0.205600  1.0  0.1365
  H  H169  1  0.145500  0.515500  0.228700  1.0  0.0799
  H  H170  1  0.300900  0.342200  0.803200  1.0  0.1125
  H  H171  1  0.314800  0.261400  0.770200  1.0  0.1086
  H  H172  1  0.232300  0.275400  0.694800  1.0  0.0988
  H  H173  1  0.365100  0.425700  0.595500  1.0  0.1084
  H  H174  1  0.356000  0.459300  0.719500  1.0  0.1194
  H  H175  1  0.408200  0.423800  0.778500  1.0  0.1268
  H  H176  1  0.173100  0.355200  0.500500  1.0  0.1046
  H  H177  1  0.627000  0.281800  0.450800  1.0  0.0873
  H  H178  1  0.701800  0.281100  0.350200  1.0  0.1117
  H  H179  1  0.760200  0.492100  0.392200  1.0  0.1152
  H  H180  1  0.684500  0.489600  0.490600  1.0  0.0812
  H  H181  1  0.785900  0.338700  0.270400  1.0  0.1007
  H  H182  1  0.776600  0.426500  0.262400  1.0  0.1029
  H  H183  1  0.887100  0.362700  0.353300  1.0  0.0765
  H  H184  1  0.881500  0.448500  0.332400  1.0  0.0668
  C  C185  1  0.616100  0.072900  0.247600  1.0  -0.1852
  C  C186  1  0.600900  0.990000  0.231000  1.0  0.1522
  C  C187  1  0.643900  0.947200  0.184900  1.0  -0.2285
  C  C188  1  0.626900  0.871900  0.173300  1.0  0.18
  C  C189  1  0.539200  0.953300  0.263500  1.0  -0.2448
  C  C190  1  0.525700  0.877800  0.249500  1.0  0.1781
  C  C191  1  0.700200  0.593800  0.671900  1.0  0.672
  C  C192  1  0.689900  0.661900  0.720100  1.0  -0.2358
  C  C193  1  0.693800  0.757200  0.844400  1.0  -0.1298
  C  C194  1  0.651500  0.691070  0.844920  1.0  0.1276
  C  C195  1  0.604900  0.677800  0.904000  1.0  -0.1242
  C  C196  1  0.578500  0.605200  0.771800  1.0  -0.2265
  C  C197  1  0.559800  0.535700  0.816800  1.0  0.7
  C  C198  1  0.691100  0.808300  0.901500  1.0  -0.1133
  C  C199  1  0.646100  0.793400  0.961100  1.0  -0.0351
  C  C200  1  0.602800  0.726900  0.962180  1.0  -0.1184
  C  C201  1  0.552800  0.706200  0.025800  1.0  0.6745
  C  C202  1  0.737400  0.878800  0.895200  1.0  0.67
  C  C203  1  0.674700  0.346100  0.061100  1.0  0.188
  C  C204  1  0.675400  0.300900  0.121800  1.0  -0.2349
  C  C205  1  0.612300  0.259700  0.141300  1.0  0.184
  C  C206  1  0.551800  0.266700  0.097500  1.0  -0.2188
  C  C207  1  0.553600  0.312500  0.037800  1.0  0.1896
  C  C208  1  0.613400  0.208400  0.204800  1.0  -0.1864
  C  C209  1  0.602600  0.125700  0.185200  1.0  -0.0774
  C  C210  1  0.383900  0.927100  0.747600  1.0  -0.185
  C  C211  1  0.399100  0.010000  0.731000  1.0  0.1518
  C  C212  1  0.356100  0.052800  0.684900  1.0  -0.2281
  C  C213  1  0.373100  0.128100  0.673300  1.0  0.1802
  C  C214  1  0.460800  0.046700  0.763500  1.0  -0.2449
  C  C215  1  0.474300  0.122200  0.749500  1.0  0.1787
  C  C216  1  0.299800  0.406200  0.171900  1.0  0.6711
  C  C217  1  0.310100  0.338100  0.220100  1.0  -0.2347
  C  C218  1  0.306200  0.242800  0.344400  1.0  -0.1281
  C  C219  1  0.348500  0.308930  0.344920  1.0  0.1275
  C  C220  1  0.395100  0.322200  0.404000  1.0  -0.124
  C  C221  1  0.421500  0.394800  0.271800  1.0  -0.2254
  C  C222  1  0.440200  0.464300  0.316800  1.0  0.6975
  C  C223  1  0.308900  0.191700  0.401500  1.0  -0.1153
  C  C224  1  0.353900  0.206600  0.461100  1.0  -0.0357
  C  C225  1  0.397200  0.273100  0.462180  1.0  -0.12
  C  C226  1  0.447200  0.293800  0.525800  1.0  0.674
  C  C227  1  0.262600  0.121200  0.395200  1.0  0.6697
  C  C228  1  0.325300  0.653900  0.561100  1.0  0.1875
  C  C229  1  0.324600  0.699100  0.621800  1.0  -0.2343
  C  C230  1  0.387700  0.740300  0.641300  1.0  0.1842
  C  C231  1  0.448200  0.733300  0.597500  1.0  -0.221
  C  C232  1  0.446400  0.687500  0.537800  1.0  0.1883
  C  C233  1  0.386600  0.791600  0.704800  1.0  -0.1855
  C  C234  1  0.397400  0.874300  0.685200  1.0  -0.0779
  C  C235  1  0.427100  0.116100  0.997600  1.0  -0.1852
  C  C236  1  0.510000  0.100900  0.981000  1.0  0.1507
  C  C237  1  0.552800  0.143900  0.934900  1.0  -0.2268
  C  C238  1  0.628100  0.126900  0.923300  1.0  0.1786
  C  C239  1  0.546700  0.039200  0.013500  1.0  -0.2456
  C  C240  1  0.622200  0.025700  0.999500  1.0  0.177
  C  C241  1  0.906200  0.200200  0.421900  1.0  0.6674
  C  C242  1  0.838100  0.189900  0.470100  1.0  -0.2361
  C  C243  1  0.742800  0.193800  0.594400  1.0  -0.1256
  C  C244  1  0.808930  0.151500  0.594920  1.0  0.1291
  C  C245  1  0.822200  0.104900  0.654000  1.0  -0.1256
  C  C246  1  0.894800  0.078500  0.521800  1.0  -0.2258
  C  C247  1  0.964300  0.059800  0.566800  1.0  0.6985
  C  C248  1  0.691700  0.191100  0.651500  1.0  -0.1133
  C  C249  1  0.706600  0.146100  0.711100  1.0  -0.0328
  C  C250  1  0.773100  0.102800  0.712180  1.0  -0.1205
  C  C251  1  0.793800  0.052800  0.775800  1.0  0.6739
  C  C252  1  0.621200  0.237400  0.645200  1.0  0.6665
  C  C253  1  0.153900  0.174700  0.811100  1.0  0.1885
  C  C254  1  0.199100  0.175400  0.871800  1.0  -0.2318
  C  C255  1  0.240300  0.112300  0.891300  1.0  0.1836
  C  C256  1  0.233300  0.051800  0.847500  1.0  -0.2242
  C  C257  1  0.187500  0.053600  0.787800  1.0  0.1869
  C  C258  1  0.291600  0.113400  0.954800  1.0  -0.1844
  C  C259  1  0.374300  0.102600  0.935200  1.0  -0.0761
  C  C260  1  0.572900  0.883900  0.497600  1.0  -0.1851
  C  C261  1  0.490000  0.899100  0.481000  1.0  0.1509
  C  C262  1  0.447200  0.856100  0.434900  1.0  -0.2256
  C  C263  1  0.371900  0.873100  0.423300  1.0  0.1789
  C  C264  1  0.453300  0.960800  0.513500  1.0  -0.2449
  C  C265  1  0.377800  0.974300  0.499500  1.0  0.1768
  C  C266  1  0.093800  0.799800  0.921900  1.0  0.6706
  C  C267  1  0.161900  0.810100  0.970100  1.0  -0.235
  C  C268  1  0.257200  0.806200  0.094400  1.0  -0.1279
  C  C269  1  0.191070  0.848500  0.094920  1.0  0.1293
  C  C270  1  0.177800  0.895100  0.154000  1.0  -0.1269
  C  C271  1  0.105200  0.921500  0.021800  1.0  -0.2247
  C  C272  1  0.035700  0.940200  0.066800  1.0  0.6977
  C  C273  1  0.308300  0.808900  0.151500  1.0  -0.1142
  C  C274  1  0.293400  0.853900  0.211100  1.0  -0.0336
  C  C275  1  0.226900  0.897200  0.212180  1.0  -0.1179
  C  C276  1  0.206200  0.947200  0.275800  1.0  0.673
  C  C277  1  0.378800  0.762600  0.145200  1.0  0.6685
  C  C278  1  0.846100  0.825300  0.311100  1.0  0.1899
  C  C279  1  0.800900  0.824600  0.371800  1.0  -0.2314
  C  C280  1  0.759700  0.887700  0.391300  1.0  0.1838
  C  C281  1  0.766700  0.948200  0.347500  1.0  -0.2238
  C  C282  1  0.812500  0.946400  0.287800  1.0  0.1889
  C  C283  1  0.708400  0.886600  0.454800  1.0  -0.1838
  C  C284  1  0.625700  0.897400  0.435200  1.0  -0.0753
  C  C285  1  0.883900  0.572900  0.502400  1.0  -0.1871
  C  C286  1  0.899100  0.490000  0.519000  1.0  0.1518
  C  C287  1  0.856100  0.447200  0.565100  1.0  -0.2287
  C  C288  1  0.873100  0.371900  0.576700  1.0  0.1805
  C  C289  1  0.960800  0.453300  0.486500  1.0  -0.2448
  C  C290  1  0.974300  0.377800  0.500500  1.0  0.1777
  C  C291  1  0.799800  0.093800  0.078100  1.0  0.6654
  C  C292  1  0.810100  0.161900  0.029900  1.0  -0.2349
  C  C293  1  0.806200  0.257200  0.905600  1.0  -0.1303
  C  C294  1  0.848500  0.191070  0.905080  1.0  0.1274
  C  C295  1  0.895100  0.177800  0.846000  1.0  -0.125
  C  C296  1  0.921500  0.105200  0.978200  1.0  -0.2267
  C  C297  1  0.940200  0.035700  0.933200  1.0  0.6979
  C  C298  1  0.808900  0.308300  0.848500  1.0  -0.1133
  C  C299  1  0.853900  0.293400  0.788900  1.0  -0.0349
  C  C300  1  0.897200  0.226900  0.787820  1.0  -0.1183
  C  C301  1  0.947200  0.206200  0.724200  1.0  0.6734
  C  C302  1  0.762600  0.378800  0.854800  1.0  0.6697
  C  C303  1  0.825300  0.846100  0.688900  1.0  0.1869
  C  C304  1  0.824600  0.800900  0.628200  1.0  -0.2358
  C  C305  1  0.887700  0.759700  0.608700  1.0  0.1843
  C  C306  1  0.948200  0.766700  0.652500  1.0  -0.2207
  C  C307  1  0.946400  0.812500  0.712200  1.0  0.1896
  C  C308  1  0.886600  0.708400  0.545200  1.0  -0.1859
  C  C309  1  0.897400  0.625700  0.564800  1.0  -0.0771
  C  C310  1  0.116100  0.427100  0.002400  1.0  -0.186
  C  C311  1  0.100900  0.510000  0.019000  1.0  0.1525
  C  C312  1  0.143900  0.552800  0.065100  1.0  -0.2289
  C  C313  1  0.126900  0.628100  0.076700  1.0  0.1806
  C  C314  1  0.039200  0.546700  0.986500  1.0  -0.2457
  C  C315  1  0.025700  0.622200  0.000500  1.0  0.1782
  C  C316  1  0.200200  0.906200  0.578100  1.0  0.6668
  C  C317  1  0.189900  0.838100  0.529900  1.0  -0.2336
  C  C318  1  0.193800  0.742800  0.405600  1.0  -0.1312
  C  C319  1  0.151500  0.808930  0.405080  1.0  0.1275
  C  C320  1  0.104900  0.822200  0.346000  1.0  -0.1232
  C  C321  1  0.078500  0.894800  0.478200  1.0  -0.2276
  C  C322  1  0.059800  0.964300  0.433200  1.0  0.6996
  C  C323  1  0.191100  0.691700  0.348500  1.0  -0.1154
  C  C324  1  0.146100  0.706600  0.288900  1.0  -0.0354
  C  C325  1  0.102800  0.773100  0.287820  1.0  -0.1204
  C  C326  1  0.052800  0.793800  0.224200  1.0  0.6744
  C  C327  1  0.237400  0.621200  0.354800  1.0  0.6704
  C  C328  1  0.174700  0.153900  0.188900  1.0  0.1877
  C  C329  1  0.175400  0.199100  0.128200  1.0  -0.2343
  C  C330  1  0.112300  0.240300  0.108700  1.0  0.1841
  C  C331  1  0.051800  0.233300  0.152500  1.0  -0.219
  C  C332  1  0.053600  0.187500  0.212200  1.0  0.1889
  C  C333  1  0.113400  0.291600  0.045200  1.0  -0.1856
  C  C334  1  0.102600  0.374300  0.064800  1.0  -0.0767
  C  C335  1  0.072900  0.616100  0.752400  1.0  -0.187
  C  C336  1  0.990000  0.600900  0.769000  1.0  0.1511
  C  C337  1  0.947200  0.643900  0.815100  1.0  -0.2265
  C  C338  1  0.871900  0.626900  0.826700  1.0  0.1792
  C  C339  1  0.953300  0.539200  0.736500  1.0  -0.2455
  C  C340  1  0.877800  0.525700  0.750500  1.0  0.1774
  C  C341  1  0.593800  0.700200  0.328100  1.0  0.6638
  C  C342  1  0.661900  0.689900  0.279900  1.0  -0.2347
  C  C343  1  0.757200  0.693800  0.155600  1.0  -0.1286
  C  C344  1  0.691070  0.651500  0.155080  1.0  0.129
  C  C345  1  0.677800  0.604900  0.096000  1.0  -0.1252
  C  C346  1  0.605200  0.578500  0.228200  1.0  -0.2254
  C  C347  1  0.535700  0.559800  0.183200  1.0  0.6976
  C  C348  1  0.808300  0.691100  0.098500  1.0  -0.1147
  C  C349  1  0.793400  0.646100  0.038900  1.0  -0.0339
  C  C350  1  0.726900  0.602800  0.037820  1.0  -0.1195
  C  C351  1  0.706200  0.552800  0.974200  1.0  0.6733
  C  C352  1  0.878800  0.737400  0.104800  1.0  0.6688
  C  C353  1  0.346100  0.674700  0.938900  1.0  0.1899
  C  C354  1  0.300900  0.675400  0.878200  1.0  -0.2328
  C  C355  1  0.259700  0.612300  0.858700  1.0  0.1846
  C  C356  1  0.266700  0.551800  0.902500  1.0  -0.223
  C  C357  1  0.312500  0.553600  0.962200  1.0  0.1882
  C  C358  1  0.208400  0.613400  0.795200  1.0  -0.1834
  C  C359  1  0.125700  0.602600  0.814800  1.0  -0.0748
  C  C360  1  0.927100  0.383900  0.252400  1.0  -0.1861
  C  C361  1  0.010000  0.399100  0.269000  1.0  0.1511
  C  C362  1  0.052800  0.356100  0.315100  1.0  -0.2277
  C  C363  1  0.128100  0.373100  0.326700  1.0  0.179
  C  C364  1  0.046700  0.460800  0.236500  1.0  -0.2455
  C  C365  1  0.122200  0.474300  0.250500  1.0  0.1765
  C  C366  1  0.406200  0.299800  0.828100  1.0  0.6639
  C  C367  1  0.338100  0.310100  0.779900  1.0  -0.2358
  C  C368  1  0.242800  0.306200  0.655600  1.0  -0.1267
  C  C369  1  0.308930  0.348500  0.655080  1.0  0.1293
  C  C370  1  0.322200  0.395100  0.596000  1.0  -0.126
  C  C371  1  0.394800  0.421500  0.728200  1.0  -0.2266
  C  C372  1  0.464300  0.440200  0.683200  1.0  0.697
  C  C373  1  0.191700  0.308900  0.598500  1.0  -0.1135
  C  C374  1  0.206600  0.353900  0.538900  1.0  -0.0333
  C  C375  1  0.273100  0.397200  0.537820  1.0  -0.1182
  C  C376  1  0.293800  0.447200  0.474200  1.0  0.6734
  C  C377  1  0.121200  0.262600  0.604800  1.0  0.667
  C  C378  1  0.653900  0.325300  0.438900  1.0  0.1886
  C  C379  1  0.699100  0.324600  0.378200  1.0  -0.2313
  C  C380  1  0.740300  0.387700  0.358700  1.0  0.1836
  C  C381  1  0.733300  0.448200  0.402500  1.0  -0.2236
  C  C382  1  0.687500  0.446400  0.462200  1.0  0.1876
  C  C383  1  0.791600  0.386600  0.295200  1.0  -0.1834
  C  C384  1  0.874300  0.397400  0.314800  1.0  -0.0758
  N  N385  1  0.569300  0.836700  0.206070  1.0  -0.3175
  N  N386  1  0.613900  0.352400  0.018950  1.0  -0.3632
  N  N387  1  0.654690  0.636590  0.787930  1.0  -0.0965
  N  N388  1  0.430700  0.163300  0.706070  1.0  -0.3175
  N  N389  1  0.386100  0.647600  0.518950  1.0  -0.3652
  N  N390  1  0.345310  0.363410  0.287930  1.0  -0.0968
  N  N391  1  0.663300  0.069300  0.956070  1.0  -0.318
  N  N392  1  0.147600  0.113900  0.768950  1.0  -0.3628
  N  N393  1  0.863410  0.154690  0.537930  1.0  -0.0963
  N  N394  1  0.336700  0.930700  0.456070  1.0  -0.3165
  N  N395  1  0.852400  0.886100  0.268950  1.0  -0.361
  N  N396  1  0.136590  0.845310  0.037930  1.0  -0.0964
  N  N397  1  0.930700  0.336700  0.543930  1.0  -0.3165
  N  N398  1  0.886100  0.852400  0.731050  1.0  -0.3601
  N  N399  1  0.845310  0.136590  0.962070  1.0  -0.0964
  N  N400  1  0.069300  0.663300  0.043930  1.0  -0.3177
  N  N401  1  0.113900  0.147600  0.231050  1.0  -0.363
  N  N402  1  0.154690  0.863410  0.462070  1.0  -0.0966
  N  N403  1  0.836700  0.569300  0.793930  1.0  -0.3164
  N  N404  1  0.352400  0.613900  0.981050  1.0  -0.3583
  N  N405  1  0.636590  0.654690  0.212070  1.0  -0.0964
  N  N406  1  0.163300  0.430700  0.293930  1.0  -0.3188
  N  N407  1  0.647600  0.386100  0.481050  1.0  -0.3598
  N  N408  1  0.363410  0.345310  0.712070  1.0  -0.0964
  O  O409  1  0.698500  0.601800  0.606710  1.0  -0.5974
  O  O410  1  0.710520  0.529650  0.703100  1.0  -0.5779
  O  O411  1  0.493430  0.523430  0.831250  1.0  -0.567
  O  O412  1  0.616110  0.494580  0.836300  1.0  -0.6307
  O  O413  1  0.737800  0.924830  0.946180  1.0  -0.5301
  O  O414  1  0.772630  0.887690  0.837540  1.0  -0.6009
  O  O415  1  0.509100  0.651160  0.015230  1.0  -0.562
  O  O416  1  0.560590  0.743500  0.082340  1.0  -0.5833
  O  O417  1  0.301500  0.398200  0.106710  1.0  -0.5971
  O  O418  1  0.289480  0.470350  0.203100  1.0  -0.579
  O  O419  1  0.506570  0.476570  0.331250  1.0  -0.5677
  O  O420  1  0.383890  0.505420  0.336300  1.0  -0.6326
  O  O421  1  0.262200  0.075170  0.446180  1.0  -0.5301
  O  O422  1  0.227370  0.112310  0.337540  1.0  -0.601
  O  O423  1  0.490900  0.348840  0.515230  1.0  -0.5631
  O  O424  1  0.439410  0.256500  0.582340  1.0  -0.5833
  O  O425  1  0.898200  0.198500  0.356710  1.0  -0.5944
  O  O426  1  0.970350  0.210520  0.453100  1.0  -0.577
  O  O427  1  0.976570  0.993430  0.581250  1.0  -0.5662
  O  O428  1  0.005420  0.116110  0.586300  1.0  -0.6291
  O  O429  1  0.575170  0.237800  0.696180  1.0  -0.5314
  O  O430  1  0.612310  0.272630  0.587540  1.0  -0.6011
  O  O431  1  0.848840  0.009100  0.765230  1.0  -0.5637
  O  O432  1  0.756500  0.060590  0.832340  1.0  -0.5824
  O  O433  1  0.101800  0.801500  0.856710  1.0  -0.5947
  O  O434  1  0.029650  0.789480  0.953100  1.0  -0.5781
  O  O435  1  0.023430  0.006570  0.081250  1.0  -0.5659
  O  O436  1  0.994580  0.883890  0.086300  1.0  -0.6315
  O  O437  1  0.424830  0.762200  0.196180  1.0  -0.5319
  O  O438  1  0.387690  0.727370  0.087540  1.0  -0.6008
  O  O439  1  0.151160  0.990900  0.265230  1.0  -0.5627
  O  O440  1  0.243500  0.939410  0.332340  1.0  -0.5823
  O  O441  1  0.801500  0.101800  0.143290  1.0  -0.5957
  O  O442  1  0.789480  0.029650  0.046900  1.0  -0.5789
  O  O443  1  0.006570  0.023430  0.918750  1.0  -0.5673
  O  O444  1  0.883890  0.994580  0.913700  1.0  -0.6309
  O  O445  1  0.762200  0.424830  0.803820  1.0  -0.5293
  O  O446  1  0.727370  0.387690  0.912460  1.0  -0.6007
  O  O447  1  0.990900  0.151160  0.734770  1.0  -0.5624
  O  O448  1  0.939410  0.243500  0.667660  1.0  -0.5818
  O  O449  1  0.198500  0.898200  0.643290  1.0  -0.5958
  O  O450  1  0.210520  0.970350  0.546900  1.0  -0.5802
  O  O451  1  0.993430  0.976570  0.418750  1.0  -0.5674
  O  O452  1  0.116110  0.005420  0.413700  1.0  -0.6327
  O  O453  1  0.237800  0.575170  0.303820  1.0  -0.5295
  O  O454  1  0.272630  0.612310  0.412460  1.0  -0.6002
  O  O455  1  0.009100  0.848840  0.234770  1.0  -0.5639
  O  O456  1  0.060590  0.756500  0.167660  1.0  -0.5825
  O  O457  1  0.601800  0.698500  0.393290  1.0  -0.5929
  O  O458  1  0.529650  0.710520  0.296900  1.0  -0.5786
  O  O459  1  0.523430  0.493430  0.168750  1.0  -0.5665
  O  O460  1  0.494580  0.616110  0.163700  1.0  -0.6319
  O  O461  1  0.924830  0.737800  0.053820  1.0  -0.5311
  O  O462  1  0.887690  0.772630  0.162460  1.0  -0.6003
  O  O463  1  0.651160  0.509100  0.984770  1.0  -0.5633
  O  O464  1  0.743500  0.560590  0.917660  1.0  -0.5812
  O  O465  1  0.398200  0.301500  0.893290  1.0  -0.5927
  O  O466  1  0.470350  0.289480  0.796900  1.0  -0.5782
  O  O467  1  0.476570  0.506570  0.668750  1.0  -0.5648
  O  O468  1  0.505420  0.383890  0.663700  1.0  -0.6291
  O  O469  1  0.075170  0.262200  0.553820  1.0  -0.5306
  O  O470  1  0.112310  0.227370  0.662460  1.0  -0.6005
  O  O471  1  0.348840  0.490900  0.484770  1.0  -0.5641
  O  O472  1  0.256500  0.439410  0.417660  1.0  -0.5808
