# generated using pymatgen
data_Ni4H20C29N3O17
_symmetry_space_group_name_H-M   'P 1'
_cell_length_a   12.42250000
_cell_length_b   12.99810000
_cell_length_c   14.77900000
_cell_angle_alpha   64.38400000
_cell_angle_beta   80.88500000
_cell_angle_gamma   79.56200000
_symmetry_Int_Tables_number   1
_chemical_formula_structural   Ni4H20C29N3O17
_chemical_formula_sum   'Ni8 H40 C58 N6 O34'
_cell_volume   2107.54188504
_cell_formula_units_Z   2
loop_
 _symmetry_equiv_pos_site_id
 _symmetry_equiv_pos_as_xyz
  1  'x, y, z'
loop_
 _atom_site_type_symbol
 _atom_site_label
 _atom_site_symmetry_multiplicity
 _atom_site_fract_x
 _atom_site_fract_y
 _atom_site_fract_z
 _atom_site_occupancy
 _atom_site_charge
  Ni  Ni1  1  0.228860  0.216340  0.212280  1.0  0.7277
  Ni  Ni2  1  0.449430  0.175560  0.795240  1.0  0.891
  Ni  Ni3  1  0.809750  0.154840  0.162900  1.0  0.7599
  Ni  Ni4  1  0.846870  0.782840  0.119790  1.0  0.755
  Ni  Ni5  1  0.771140  0.783660  0.787720  1.0  0.7286
  Ni  Ni6  1  0.550570  0.824440  0.204760  1.0  0.8916
  Ni  Ni7  1  0.190250  0.845160  0.837100  1.0  0.7626
  Ni  Ni8  1  0.153130  0.217160  0.880210  1.0  0.7679
  H  H9  1  0.259300  0.154900  0.774900  1.0  0.3379
  H  H10  1  0.290700  0.058500  0.858500  1.0  0.436
  H  H11  1  0.296300  0.937500  0.303400  1.0  0.1142
  H  H12  1  0.404400  0.933900  0.344300  1.0  0.1155
  H  H13  1  0.154400  0.071700  0.440800  1.0  0.2867
  H  H14  1  0.205200  0.944500  0.464600  1.0  0.1206
  H  H15  1  0.621700  0.315700  0.962000  1.0  0.1113
  H  H16  1  0.733000  0.327100  0.899500  1.0  0.1592
  H  H17  1  0.875100  0.394400  0.032000  1.0  0.2755
  H  H18  1  0.832400  0.418400  0.913700  1.0  0.1601
  H  H19  1  0.539200  0.300300  0.109300  1.0  0.1127
  H  H20  1  0.496700  0.104300  0.282200  1.0  0.1083
  H  H21  1  0.253100  0.110900  0.514100  1.0  0.1115
  H  H22  1  0.559500  0.200400  0.500500  1.0  0.1148
  H  H23  1  0.777500  0.490200  0.085100  1.0  0.1233
  H  H24  1  0.464200  0.546700  0.219200  1.0  0.1194
  H  H25  1  0.817400  0.512300  0.484400  1.0  0.1168
  H  H26  1  0.119600  0.621300  0.377600  1.0  0.1187
  H  H27  1  0.760400  0.634900  0.333400  1.0  0.0881
  H  H28  1  0.060100  0.723600  0.220800  1.0  0.1008
  H  H29  1  0.740700  0.845100  0.225100  1.0  0.3347
  H  H30  1  0.709300  0.941500  0.141500  1.0  0.4385
  H  H31  1  0.703700  0.062500  0.696600  1.0  0.113
  H  H32  1  0.595600  0.066100  0.655700  1.0  0.113
  H  H33  1  0.845600  0.928300  0.559200  1.0  0.2876
  H  H34  1  0.794800  0.055500  0.535400  1.0  0.1173
  H  H35  1  0.378300  0.684300  0.038000  1.0  0.1155
  H  H36  1  0.267000  0.672900  0.100500  1.0  0.1588
  H  H37  1  0.124900  0.605600  0.968000  1.0  0.2721
  H  H38  1  0.167600  0.581600  0.086300  1.0  0.1618
  H  H39  1  0.460800  0.699700  0.890700  1.0  0.1129
  H  H40  1  0.503300  0.895700  0.717800  1.0  0.1081
  H  H41  1  0.746900  0.889100  0.485900  1.0  0.1098
  H  H42  1  0.440500  0.799600  0.499500  1.0  0.113
  H  H43  1  0.222500  0.509800  0.914900  1.0  0.1221
  H  H44  1  0.535800  0.453300  0.780800  1.0  0.1179
  H  H45  1  0.182600  0.487700  0.515600  1.0  0.1173
  H  H46  1  0.880400  0.378700  0.622400  1.0  0.1178
  H  H47  1  0.239600  0.365100  0.666667  1.0  0.0856
  H  H48  1  0.939900  0.276400  0.779200  1.0  0.101
  C  C49  1  0.370720  0.177410  0.611390  1.0  0.6792
  C  C50  1  0.402900  0.166600  0.513100  1.0  -0.116
  C  C51  1  0.508100  0.183800  0.466200  1.0  -0.0892
  C  C52  1  0.541200  0.158000  0.383300  1.0  -0.1211
  C  C53  1  0.468800  0.119000  0.346100  1.0  -0.1179
  C  C54  1  0.361600  0.105300  0.390600  1.0  0.1067
  C  C55  1  0.329300  0.128600  0.475000  1.0  -0.1003
  C  C56  1  0.656400  0.167900  0.333200  1.0  0.6813
  C  C57  1  0.187400  0.027700  0.408300  1.0  -0.1277
  C  C58  1  0.100300  0.036200  0.341900  1.0  0.7474
  C  C59  1  0.346600  0.983500  0.306000  1.0  -0.1167
  C  C60  1  0.389500  0.038300  0.194900  1.0  0.7047
  C  C61  1  0.373900  0.388900  0.196600  1.0  0.6801
  C  C62  1  0.668400  0.628300  0.163800  1.0  0.736
  C  C63  1  0.522500  0.509400  0.177900  1.0  -0.0826
  C  C64  1  0.629800  0.535000  0.146900  1.0  -0.127
  C  C65  1  0.702300  0.474600  0.099500  1.0  -0.1518
  C  C66  1  0.670200  0.387400  0.084000  1.0  0.0859
  C  C67  1  0.562700  0.362300  0.114700  1.0  -0.1185
  C  C68  1  0.488800  0.422700  0.161800  1.0  -0.128
  C  C69  1  0.852000  0.366700  0.993600  1.0  -0.0029
  C  C70  1  0.944200  0.273300  0.991400  1.0  0.714
  C  C71  1  0.701700  0.285300  0.971800  1.0  -0.2256
  C  C72  1  0.712800  0.157000  0.001800  1.0  0.7392
  C  C73  1  0.978300  0.538700  0.450300  1.0  0.0509
  C  C74  1  0.834090  0.618060  0.340600  1.0  0.1868
  C  C75  1  0.871490  0.547250  0.433700  1.0  -0.1428
  C  C76  1  0.001690  0.677460  0.280000  1.0  0.1321
  C  C77  1  0.046090  0.608450  0.370500  1.0  -0.142
  C  C78  1  0.629280  0.822590  0.388610  1.0  0.6779
  C  C79  1  0.597100  0.833400  0.486900  1.0  -0.1167
  C  C80  1  0.491900  0.816200  0.533800  1.0  -0.0858
  C  C81  1  0.458800  0.842000  0.616700  1.0  -0.1217
  C  C82  1  0.531200  0.881000  0.653900  1.0  -0.1202
  C  C83  1  0.638400  0.894700  0.609400  1.0  0.1072
  C  C84  1  0.670700  0.871400  0.525000  1.0  -0.0969
  C  C85  1  0.343600  0.832100  0.666800  1.0  0.6812
  C  C86  1  0.812600  0.972300  0.591700  1.0  -0.1234
  C  C87  1  0.899700  0.963800  0.658100  1.0  0.7481
  C  C88  1  0.653400  0.016500  0.694000  1.0  -0.1156
  C  C89  1  0.610500  0.961700  0.805100  1.0  0.7054
  C  C90  1  0.626100  0.611100  0.803400  1.0  0.6794
  C  C91  1  0.331600  0.371700  0.836200  1.0  0.7354
  C  C92  1  0.477500  0.490600  0.822100  1.0  -0.0799
  C  C93  1  0.370200  0.465000  0.853100  1.0  -0.1277
  C  C94  1  0.297700  0.525400  0.900500  1.0  -0.1505
  C  C95  1  0.329800  0.612600  0.916000  1.0  0.0841
  C  C96  1  0.437300  0.637700  0.885300  1.0  -0.1191
  C  C97  1  0.511200  0.577300  0.838200  1.0  -0.1282
  C  C98  1  0.148000  0.633300  0.006400  1.0  -0.0031
  C  C99  1  0.055800  0.726700  0.008600  1.0  0.7155
  C  C100  1  0.298300  0.714700  0.028200  1.0  -0.2258
  C  C101  1  0.287200  0.843000  0.998200  1.0  0.7409
  C  C102  1  0.021700  0.461300  0.549700  1.0  0.0511
  C  C103  1  0.165910  0.381940  0.659400  1.0  0.1863
  C  C104  1  0.128510  0.452750  0.566300  1.0  -0.1425
  C  C105  1  0.998310  0.322540  0.720000  1.0  0.1355
  C  C106  1  0.953910  0.391550  0.629500  1.0  -0.1435
  N  N107  1  0.288290  0.070160  0.344830  1.0  -0.0995
  N  N108  1  0.748200  0.317000  0.041900  1.0  -0.0888
  N  N109  1  0.897300  0.681200  0.263200  1.0  -0.2947
  N  N110  1  0.711710  0.929840  0.655170  1.0  -0.0991
  N  N111  1  0.251800  0.683000  0.958100  1.0  -0.0889
  N  N112  1  0.102700  0.318800  0.736800  1.0  -0.294
  O  O113  1  0.439910  0.206500  0.646870  1.0  -0.5844
  O  O114  1  0.276090  0.153700  0.654670  1.0  -0.5929
  O  O115  1  0.723400  0.200800  0.366800  1.0  -0.5869
  O  O116  1  0.677480  0.139300  0.260690  1.0  -0.5862
  O  O117  1  0.474450  0.990930  0.163850  1.0  -0.6051
  O  O118  1  0.333990  0.128580  0.138840  1.0  -0.5841
  O  O119  1  0.028200  0.971000  0.379500  1.0  -0.5668
  O  O120  1  0.104030  0.114600  0.253060  1.0  -0.586
  O  O121  1  0.352280  0.312400  0.174600  1.0  -0.5837
  O  O122  1  0.308400  0.438300  0.243900  1.0  -0.5725
  O  O123  1  0.611820  0.659820  0.228450  1.0  -0.5998
  O  O124  1  0.754950  0.668840  0.112740  1.0  -0.6138
  O  O125  1  0.940720  0.172330  0.055950  1.0  -0.5561
  O  O126  1  0.022770  0.308180  0.925580  1.0  -0.5964
  O  O127  1  0.737400  0.088550  0.089430  1.0  -0.6185
  O  O128  1  0.694700  0.124900  0.938600  1.0  -0.5501
  O  O129  1  0.289450  0.129530  0.830370  1.0  -0.8429
  O  O130  1  0.560090  0.793500  0.353130  1.0  -0.5836
  O  O131  1  0.723910  0.846300  0.345330  1.0  -0.5934
  O  O132  1  0.276600  0.799200  0.633200  1.0  -0.5887
  O  O133  1  0.322520  0.860700  0.739310  1.0  -0.5855
  O  O134  1  0.525550  0.009070  0.836150  1.0  -0.6064
  O  O135  1  0.666010  0.871420  0.861160  1.0  -0.5814
  O  O136  1  0.971800  0.029000  0.620500  1.0  -0.5658
  O  O137  1  0.895970  0.885400  0.746940  1.0  -0.5852
  O  O138  1  0.647720  0.687600  0.825400  1.0  -0.584
  O  O139  1  0.691600  0.561700  0.756100  1.0  -0.5714
  O  O140  1  0.388180  0.340180  0.771550  1.0  -0.6003
  O  O141  1  0.245050  0.331160  0.887260  1.0  -0.6091
  O  O142  1  0.059280  0.827670  0.944050  1.0  -0.5552
  O  O143  1  0.977230  0.691820  0.074420  1.0  -0.5968
  O  O144  1  0.262600  0.911450  0.910570  1.0  -0.6195
  O  O145  1  0.305300  0.875100  0.061400  1.0  -0.5549
  O  O146  1  0.710550  0.870470  0.169630  1.0  -0.8431
