# generated using pymatgen
data_U3P4H8C12O12F
_symmetry_space_group_name_H-M   'P 1'
_cell_length_a   11.23700000
_cell_length_b   20.85240000
_cell_length_c   14.61890000
_cell_angle_alpha   90.00000000
_cell_angle_beta   104.99700000
_cell_angle_gamma   90.00000000
_symmetry_Int_Tables_number   1
_chemical_formula_structural   U3P4H8C12O12F
_chemical_formula_sum   'U12 P16 H32 C48 O48 F4'
_cell_volume   3308.80363273
_cell_formula_units_Z   4
loop_
 _symmetry_equiv_pos_site_id
 _symmetry_equiv_pos_as_xyz
  1  'x, y, z'
loop_
 _atom_site_type_symbol
 _atom_site_label
 _atom_site_symmetry_multiplicity
 _atom_site_fract_x
 _atom_site_fract_y
 _atom_site_fract_z
 _atom_site_occupancy
 _atom_site_charge
  U  U1  1  0.776420  0.224930  0.560400  1.0  1.644
  U  U2  1  0.923260  0.418850  0.537370  1.0  1.8572
  U  U3  1  0.373190  0.485730  0.873370  1.0  1.9962
  U  U4  1  0.723580  0.724930  0.939600  1.0  1.6415
  U  U5  1  0.576740  0.918850  0.962630  1.0  1.8567
  U  U6  1  0.126810  0.985730  0.626630  1.0  1.9958
  U  U7  1  0.223580  0.775070  0.439600  1.0  1.6428
  U  U8  1  0.076740  0.581150  0.462630  1.0  1.8544
  U  U9  1  0.626810  0.514270  0.126630  1.0  1.9962
  U  U10  1  0.276420  0.275070  0.060400  1.0  1.6456
  U  U11  1  0.423260  0.081150  0.037370  1.0  1.8554
  U  U12  1  0.873190  0.014270  0.373370  1.0  1.9962
  P  P13  1  0.203070  0.447790  0.629100  1.0  1.4847
  P  P14  1  0.601750  0.116000  0.386970  1.0  1.4847
  P  P15  1  0.616920  0.364360  0.426180  1.0  1.4455
  P  P16  1  0.124990  0.946420  0.375250  1.0  1.4225
  P  P17  1  0.296930  0.947790  0.870900  1.0  1.4851
  P  P18  1  0.898250  0.616000  0.113030  1.0  1.4849
  P  P19  1  0.883080  0.864360  0.073820  1.0  1.4457
  P  P20  1  0.375010  0.446420  0.124750  1.0  1.421
  P  P21  1  0.796930  0.552210  0.370900  1.0  1.4848
  P  P22  1  0.398250  0.884000  0.613030  1.0  1.4844
  P  P23  1  0.383080  0.635640  0.573820  1.0  1.4471
  P  P24  1  0.875010  0.053580  0.624750  1.0  1.4216
  P  P25  1  0.703070  0.052210  0.129100  1.0  1.4847
  P  P26  1  0.101750  0.384000  0.886970  1.0  1.4832
  P  P27  1  0.116920  0.135640  0.926180  1.0  1.447
  P  P28  1  0.624990  0.553580  0.875250  1.0  1.4225
  H  H29  1  0.465300  0.457200  0.673100  1.0  0.1125
  H  H30  1  0.615100  0.426300  0.598300  1.0  0.1049
  H  H31  1  0.349400  0.356000  0.378600  1.0  0.1132
  H  H32  1  0.200900  0.385500  0.454700  1.0  0.1156
  H  H33  1  0.348300  0.143900  0.381400  1.0  0.1093
  H  H34  1  0.172900  0.082400  0.374300  1.0  0.1165
  H  H35  1  0.370900  0.921400  0.369200  1.0  0.1102
  H  H36  1  0.545100  0.983100  0.373900  1.0  0.1061
  H  H37  1  0.034700  0.957200  0.826900  1.0  0.1118
  H  H38  1  0.884900  0.926300  0.901700  1.0  0.1053
  H  H39  1  0.150600  0.856000  0.121400  1.0  0.1128
  H  H40  1  0.299100  0.885500  0.045300  1.0  0.1142
  H  H41  1  0.151700  0.643900  0.118600  1.0  0.1094
  H  H42  1  0.327100  0.582400  0.125700  1.0  0.1166
  H  H43  1  0.129100  0.421400  0.130800  1.0  0.1097
  H  H44  1  0.954900  0.483100  0.126100  1.0  0.1063
  H  H45  1  0.534700  0.542800  0.326900  1.0  0.1119
  H  H46  1  0.384900  0.573700  0.401700  1.0  0.1052
  H  H47  1  0.650600  0.644000  0.621400  1.0  0.1124
  H  H48  1  0.799100  0.614500  0.545300  1.0  0.1139
  H  H49  1  0.651700  0.856100  0.618600  1.0  0.1091
  H  H50  1  0.827100  0.917600  0.625700  1.0  0.1163
  H  H51  1  0.629100  0.078600  0.630800  1.0  0.1099
  H  H52  1  0.454900  0.016900  0.626100  1.0  0.1061
  H  H53  1  0.965300  0.042800  0.173100  1.0  0.1121
  H  H54  1  0.115100  0.073700  0.098300  1.0  0.1046
  H  H55  1  0.849400  0.144000  0.878600  1.0  0.1126
  H  H56  1  0.700900  0.114500  0.954700  1.0  0.1153
  H  H57  1  0.848300  0.356100  0.881400  1.0  0.1093
  H  H58  1  0.672900  0.417600  0.874300  1.0  0.1168
  H  H59  1  0.870900  0.578600  0.869200  1.0  0.1102
  H  H60  1  0.045100  0.516900  0.873900  1.0  0.1063
  C  C61  1  0.318900  0.423500  0.572000  1.0  -0.2026
  C  C62  1  0.441900  0.436100  0.613500  1.0  -0.0462
  C  C63  1  0.530800  0.418100  0.568600  1.0  -0.0456
  C  C64  1  0.498700  0.388200  0.480700  1.0  -0.2796
  C  C65  1  0.373500  0.376300  0.438800  1.0  -0.0643
  C  C66  1  0.285300  0.393800  0.483900  1.0  -0.0563
  C  C67  1  0.464500  0.069900  0.377200  1.0  -0.2424
  C  C68  1  0.353000  0.098500  0.378200  1.0  -0.045
  C  C69  1  0.248600  0.062000  0.374600  1.0  -0.0641
  C  C70  1  0.255100  0.995400  0.371400  1.0  -0.2652
  C  C71  1  0.365700  0.966800  0.371200  1.0  -0.0579
  C  C72  1  0.469700  0.003700  0.374100  1.0  -0.0616
  C  C73  1  0.181100  0.923500  0.928000  1.0  -0.2029
  C  C74  1  0.058100  0.936100  0.886500  1.0  -0.0466
  C  C75  1  0.969200  0.918100  0.931400  1.0  -0.0452
  C  C76  1  0.001300  0.888200  0.019300  1.0  -0.2791
  C  C77  1  0.126500  0.876300  0.061200  1.0  -0.0631
  C  C78  1  0.214700  0.893800  0.016100  1.0  -0.053
  C  C79  1  0.035500  0.569900  0.122800  1.0  -0.2438
  C  C80  1  0.147000  0.598500  0.121800  1.0  -0.0454
  C  C81  1  0.251400  0.562000  0.125400  1.0  -0.0615
  C  C82  1  0.244900  0.495400  0.128600  1.0  -0.2629
  C  C83  1  0.134300  0.466800  0.128800  1.0  -0.057
  C  C84  1  0.030300  0.503700  0.125900  1.0  -0.0606
  C  C85  1  0.681100  0.576500  0.428000  1.0  -0.2026
  C  C86  1  0.558100  0.563900  0.386500  1.0  -0.0469
  C  C87  1  0.469200  0.581900  0.431400  1.0  -0.045
  C  C88  1  0.501300  0.611800  0.519300  1.0  -0.2788
  C  C89  1  0.626500  0.623700  0.561200  1.0  -0.0649
  C  C90  1  0.714700  0.606200  0.516100  1.0  -0.0532
  C  C91  1  0.535500  0.930100  0.622800  1.0  -0.2433
  C  C92  1  0.647000  0.901500  0.621800  1.0  -0.0488
  C  C93  1  0.751400  0.938000  0.625400  1.0  -0.0616
  C  C94  1  0.744900  0.004600  0.628600  1.0  -0.2634
  C  C95  1  0.634300  0.033200  0.628800  1.0  -0.0577
  C  C96  1  0.530300  0.996300  0.625900  1.0  -0.0608
  C  C97  1  0.818900  0.076500  0.072000  1.0  -0.2019
  C  C98  1  0.941900  0.063900  0.113500  1.0  -0.0467
  C  C99  1  0.030800  0.081900  0.068600  1.0  -0.0454
  C  C100  1  0.998700  0.111800  0.980700  1.0  -0.28
  C  C101  1  0.873500  0.123700  0.938800  1.0  -0.0644
  C  C102  1  0.785300  0.106200  0.983900  1.0  -0.0559
  C  C103  1  0.964500  0.430100  0.877200  1.0  -0.2432
  C  C104  1  0.853000  0.401500  0.878200  1.0  -0.0479
  C  C105  1  0.748600  0.438000  0.874600  1.0  -0.0623
  C  C106  1  0.755100  0.504600  0.871400  1.0  -0.2654
  C  C107  1  0.865700  0.533200  0.871200  1.0  -0.058
  C  C108  1  0.969700  0.496300  0.874100  1.0  -0.0613
  O  O109  1  0.107700  0.488250  0.557500  1.0  -0.9914
  O  O110  1  0.126200  0.389710  0.644800  1.0  -0.862
  O  O111  1  0.263800  0.483970  0.717800  1.0  -0.91
  O  O112  1  0.719700  0.412520  0.454300  1.0  -0.8984
  O  O113  1  0.654600  0.296140  0.450900  1.0  -0.909
  O  O114  1  0.559300  0.366190  0.315700  1.0  -0.5229
  O  O115  1  0.704500  0.069010  0.390700  1.0  -0.9429
  O  O116  1  0.619000  0.160910  0.470100  1.0  -0.8748
  O  O117  1  0.582500  0.158060  0.294400  1.0  -0.5257
  O  O118  1  0.013500  0.961150  0.290800  1.0  -0.8575
  O  O119  1  0.077000  0.969250  0.460400  1.0  -0.9662
  O  O120  1  0.165000  0.877490  0.378600  1.0  -0.9133
  O  O121  1  0.392300  0.988250  0.942500  1.0  -0.9908
  O  O122  1  0.373800  0.889710  0.855200  1.0  -0.8606
  O  O123  1  0.236200  0.983970  0.782200  1.0  -0.9102
  O  O124  1  0.780300  0.912520  0.045700  1.0  -0.8989
  O  O125  1  0.845400  0.796140  0.049100  1.0  -0.9102
  O  O126  1  0.940700  0.866190  0.184300  1.0  -0.5226
  O  O127  1  0.795500  0.569010  0.109300  1.0  -0.9408
  O  O128  1  0.881000  0.660910  0.029900  1.0  -0.8743
  O  O129  1  0.917500  0.658060  0.205600  1.0  -0.5287
  O  O130  1  0.486500  0.461150  0.209200  1.0  -0.8574
  O  O131  1  0.423000  0.469250  0.039600  1.0  -0.9661
  O  O132  1  0.335000  0.377490  0.121400  1.0  -0.9138
  O  O133  1  0.892300  0.511750  0.442500  1.0  -0.9908
  O  O134  1  0.873800  0.610290  0.355200  1.0  -0.8614
  O  O135  1  0.736200  0.516030  0.282200  1.0  -0.9098
  O  O136  1  0.280300  0.587480  0.545700  1.0  -0.8994
  O  O137  1  0.345400  0.703860  0.549100  1.0  -0.9122
  O  O138  1  0.440700  0.633810  0.684300  1.0  -0.5217
  O  O139  1  0.295500  0.930990  0.609300  1.0  -0.9412
  O  O140  1  0.381000  0.839090  0.529900  1.0  -0.874
  O  O141  1  0.417500  0.841940  0.705600  1.0  -0.5281
  O  O142  1  0.986500  0.038850  0.709200  1.0  -0.8575
  O  O143  1  0.923000  0.030750  0.539600  1.0  -0.9663
  O  O144  1  0.835000  0.122510  0.621400  1.0  -0.9125
  O  O145  1  0.607700  0.011750  0.057500  1.0  -0.9915
  O  O146  1  0.626200  0.110290  0.144800  1.0  -0.8629
  O  O147  1  0.763800  0.016030  0.217800  1.0  -0.9083
  O  O148  1  0.219700  0.087480  0.954300  1.0  -0.8986
  O  O149  1  0.154600  0.203860  0.950900  1.0  -0.9109
  O  O150  1  0.059300  0.133810  0.815700  1.0  -0.525
  O  O151  1  0.204500  0.430990  0.890700  1.0  -0.943
  O  O152  1  0.119000  0.339090  0.970100  1.0  -0.8746
  O  O153  1  0.082500  0.341940  0.794400  1.0  -0.5249
  O  O154  1  0.513500  0.538850  0.790800  1.0  -0.8578
  O  O155  1  0.577000  0.530750  0.960400  1.0  -0.9665
  O  O156  1  0.665000  0.622510  0.878600  1.0  -0.912
  F  F157  1  0.864300  0.327120  0.595400  1.0  -0.6173
  F  F158  1  0.635700  0.827120  0.904600  1.0  -0.6181
  F  F159  1  0.135700  0.672880  0.404600  1.0  -0.6163
  F  F160  1  0.364300  0.172880  0.095400  1.0  -0.6153
