# generated using pymatgen
data_U3P4H8C12O12F
_symmetry_space_group_name_H-M   'P 1'
_cell_length_a   8.54090000
_cell_length_b   19.16050000
_cell_length_c   11.30370000
_cell_angle_alpha   90.00000000
_cell_angle_beta   110.32700000
_cell_angle_gamma   90.00000000
_symmetry_Int_Tables_number   1
_chemical_formula_structural   U3P4H8C12O12F
_chemical_formula_sum   'U6 P8 H16 C24 O24 F2'
_cell_volume   1734.62958909
_cell_formula_units_Z   2
loop_
 _symmetry_equiv_pos_site_id
 _symmetry_equiv_pos_as_xyz
  1  'x, y, z'
loop_
 _atom_site_type_symbol
 _atom_site_label
 _atom_site_symmetry_multiplicity
 _atom_site_fract_x
 _atom_site_fract_y
 _atom_site_fract_z
 _atom_site_occupancy
 _atom_site_charge
  U  U1  1  0.772270  0.507910  0.016160  1.0  1.94
  U  U2  1  0.227730  0.007910  0.983840  1.0  1.9405
  U  U3  1  0.227730  0.492090  0.983840  1.0  1.9402
  U  U4  1  0.772270  0.992090  0.016160  1.0  1.9397
  U  U5  1  0.077050  0.750000  0.280240  1.0  1.6422
  U  U6  1  0.922950  0.250000  0.719760  1.0  1.6364
  P  P7  1  0.765970  0.615550  0.290460  1.0  1.4816
  P  P8  1  0.801050  0.436090  0.774880  1.0  1.4907
  P  P9  1  0.234030  0.115550  0.709540  1.0  1.4809
  P  P10  1  0.198950  0.936090  0.225120  1.0  1.4892
  P  P11  1  0.234030  0.384450  0.709540  1.0  1.481
  P  P12  1  0.198950  0.563910  0.225120  1.0  1.4887
  P  P13  1  0.765970  0.884450  0.290460  1.0  1.4809
  P  P14  1  0.801050  0.063910  0.774880  1.0  1.4894
  H  H15  1  0.821600  0.647900  0.550900  1.0  0.1081
  H  H16  1  0.831600  0.583200  0.727400  1.0  0.1151
  H  H17  1  0.754800  0.405800  0.519600  1.0  0.106
  H  H18  1  0.744300  0.470900  0.342000  1.0  0.111
  H  H19  1  0.178400  0.147900  0.449100  1.0  0.1088
  H  H20  1  0.168400  0.083200  0.272600  1.0  0.1149
  H  H21  1  0.245200  0.905800  0.480400  1.0  0.106
  H  H22  1  0.255700  0.970900  0.658000  1.0  0.1112
  H  H23  1  0.178400  0.352100  0.449100  1.0  0.1083
  H  H24  1  0.168400  0.416800  0.272600  1.0  0.1147
  H  H25  1  0.245200  0.594200  0.480400  1.0  0.1055
  H  H26  1  0.255700  0.529100  0.658000  1.0  0.111
  H  H27  1  0.821600  0.852100  0.550900  1.0  0.1083
  H  H28  1  0.831600  0.916800  0.727400  1.0  0.1145
  H  H29  1  0.754800  0.094200  0.519600  1.0  0.1055
  H  H30  1  0.744300  0.029100  0.342000  1.0  0.1108
  C  C31  1  0.779800  0.566030  0.428500  1.0  -0.3165
  C  C32  1  0.806900  0.598700  0.544200  1.0  -0.0535
  C  C33  1  0.812700  0.560400  0.649000  1.0  -0.069
  C  C34  1  0.790800  0.487840  0.640200  1.0  -0.2873
  C  C35  1  0.767100  0.455000  0.525800  1.0  -0.0353
  C  C36  1  0.761100  0.493800  0.420000  1.0  -0.0704
  C  C37  1  0.220200  0.066030  0.571500  1.0  -0.3155
  C  C38  1  0.193100  0.098700  0.455800  1.0  -0.0536
  C  C39  1  0.187300  0.060400  0.351000  1.0  -0.0702
  C  C40  1  0.209200  0.987840  0.359800  1.0  -0.2896
  C  C41  1  0.232900  0.955000  0.474200  1.0  -0.0364
  C  C42  1  0.238900  0.993800  0.580000  1.0  -0.0707
  C  C43  1  0.220200  0.433970  0.571500  1.0  -0.3148
  C  C44  1  0.193100  0.401300  0.455800  1.0  -0.0569
  C  C45  1  0.187300  0.439600  0.351000  1.0  -0.0687
  C  C46  1  0.209200  0.512160  0.359800  1.0  -0.2889
  C  C47  1  0.232900  0.545000  0.474200  1.0  -0.0369
  C  C48  1  0.238900  0.506200  0.580000  1.0  -0.0703
  C  C49  1  0.779800  0.933970  0.428500  1.0  -0.3167
  C  C50  1  0.806900  0.901300  0.544200  1.0  -0.0562
  C  C51  1  0.812700  0.939600  0.649000  1.0  -0.0683
  C  C52  1  0.790800  0.012160  0.640200  1.0  -0.2876
  C  C53  1  0.767100  0.045000  0.525800  1.0  -0.0357
  C  C54  1  0.761100  0.006200  0.420000  1.0  -0.07
  O  O55  1  0.884600  0.675960  0.324300  1.0  -0.8864
  O  O56  1  0.789500  0.564190  0.196500  1.0  -0.9292
  O  O57  1  0.581600  0.644630  0.236900  1.0  -0.5339
  O  O58  1  0.825900  0.361450  0.745400  1.0  -0.9218
  O  O59  1  0.940800  0.466880  0.891000  1.0  -0.9537
  O  O60  1  0.645700  0.448230  0.812500  1.0  -0.8582
  O  O61  1  0.115400  0.175960  0.675700  1.0  -0.8864
  O  O62  1  0.210500  0.064190  0.803500  1.0  -0.9306
  O  O63  1  0.418400  0.144630  0.763100  1.0  -0.5335
  O  O64  1  0.174100  0.861450  0.254600  1.0  -0.922
  O  O65  1  0.059200  0.966880  0.109000  1.0  -0.9553
  O  O66  1  0.354300  0.948230  0.187500  1.0  -0.8581
  O  O67  1  0.115400  0.324040  0.675700  1.0  -0.8845
  O  O68  1  0.210500  0.435810  0.803500  1.0  -0.9303
  O  O69  1  0.418400  0.355370  0.763100  1.0  -0.532
  O  O70  1  0.174100  0.638550  0.254600  1.0  -0.9219
  O  O71  1  0.059200  0.533120  0.109000  1.0  -0.9561
  O  O72  1  0.354300  0.551770  0.187500  1.0  -0.8584
  O  O73  1  0.884600  0.824040  0.324300  1.0  -0.8848
  O  O74  1  0.789500  0.935810  0.196500  1.0  -0.9293
  O  O75  1  0.581600  0.855370  0.236900  1.0  -0.5327
  O  O76  1  0.825900  0.138550  0.745400  1.0  -0.9208
  O  O77  1  0.940800  0.033120  0.891000  1.0  -0.9541
  O  O78  1  0.645700  0.051770  0.812500  1.0  -0.8584
  F  F79  1  0.500000  0.500000  0.000000  1.0  -0.5049
  F  F80  1  0.500000  0.000000  0.000000  1.0  -0.5049
