# generated using pymatgen
data_Zn2H10C16N3O8
_symmetry_space_group_name_H-M   'P 1'
_cell_length_a   14.63900000
_cell_length_b   19.37900000
_cell_length_c   19.48400000
_cell_angle_alpha   116.04600000
_cell_angle_beta   90.00000000
_cell_angle_gamma   90.00000000
_symmetry_Int_Tables_number   1
_chemical_formula_structural   Zn2H10C16N3O8
_chemical_formula_sum   'Zn12 H60 C96 N18 O48'
_cell_volume   4966.04726158
_cell_formula_units_Z   6
loop_
 _symmetry_equiv_pos_site_id
 _symmetry_equiv_pos_as_xyz
  1  'x, y, z'
loop_
 _atom_site_type_symbol
 _atom_site_label
 _atom_site_symmetry_multiplicity
 _atom_site_fract_x
 _atom_site_fract_y
 _atom_site_fract_z
 _atom_site_occupancy
 _atom_site_charge
  Zn  Zn1  1  0.231920  0.414060  0.751430  1.0  0.899
  Zn  Zn2  1  0.570770  0.510840  0.634250  1.0  0.9886
  Zn  Zn3  1  0.637290  0.474380  0.781020  1.0  0.9791
  Zn  Zn4  1  0.086950  0.967830  0.188550  1.0  0.994
  Zn  Zn5  1  0.201700  0.134560  0.820080  1.0  0.872
  Zn  Zn6  1  0.264200  0.068990  0.641120  1.0  0.8883
  Zn  Zn7  1  0.731920  0.585940  0.248570  1.0  0.8979
  Zn  Zn8  1  0.070770  0.489160  0.365750  1.0  0.9874
  Zn  Zn9  1  0.137290  0.525620  0.218980  1.0  0.9789
  Zn  Zn10  1  0.586950  0.032170  0.811450  1.0  0.9944
  Zn  Zn11  1  0.701700  0.865440  0.179920  1.0  0.8715
  Zn  Zn12  1  0.764200  0.931010  0.358880  1.0  0.8882
  H  H13  1  0.615400  0.923900  0.964100  1.0  0.1241
  H  H14  1  0.654800  0.709100  0.937200  1.0  0.1169
  H  H15  1  0.387400  0.443100  0.865000  1.0  0.1565
  H  H16  1  0.492600  0.426500  0.854900  1.0  0.1496
  H  H17  1  0.422600  0.359900  0.812800  1.0  0.1531
  H  H18  1  0.275300  0.466500  0.631900  1.0  0.1473
  H  H19  1  0.333200  0.404000  0.566300  1.0  0.1534
  H  H20  1  0.359100  0.491000  0.597500  1.0  0.1422
  H  H21  1  0.911200  0.944000  0.078900  1.0  0.152
  H  H22  1  0.827000  0.891700  0.073000  1.0  0.1466
  H  H23  1  0.926500  0.859700  0.067800  1.0  0.1484
  H  H24  1  0.031700  0.996800  0.362400  1.0  0.1544
  H  H25  1  0.940500  0.030000  0.407000  1.0  0.148
  H  H26  1  0.993800  0.075500  0.370100  1.0  0.1592
  H  H27  1  0.139700  0.370700  0.882300  1.0  0.1589
  H  H28  1  0.242400  0.369500  0.904500  1.0  0.1525
  H  H29  1  0.173400  0.310000  0.909600  1.0  0.1514
  H  H30  1  0.346400  0.229500  0.606000  1.0  0.1524
  H  H31  1  0.270100  0.289900  0.615500  1.0  0.1456
  H  H32  1  0.248200  0.201800  0.573500  1.0  0.1525
  H  H33  1  0.894000  0.420200  0.704300  1.0  0.1124
  H  H34  1  0.085100  0.424700  0.558000  1.0  0.117
  H  H35  1  0.820500  0.437200  0.513600  1.0  0.1085
  H  H36  1  0.201700  0.534400  0.001600  1.0  0.1
  H  H37  1  0.166900  0.703800  0.936200  1.0  0.1084
  H  H38  1  0.146500  0.745500  0.156200  1.0  0.121
  H  H39  1  0.592300  0.746100  0.758000  1.0  0.1192
  H  H40  1  0.427800  0.949100  0.229300  1.0  0.1108
  H  H41  1  0.506500  0.004400  0.442200  1.0  0.1022
  H  H42  1  0.246700  0.018800  0.396800  1.0  0.101
  H  H43  1  0.115400  0.076100  0.035900  1.0  0.1249
  H  H44  1  0.154800  0.290900  0.062800  1.0  0.1166
  H  H45  1  0.887400  0.556900  0.135000  1.0  0.1556
  H  H46  1  0.992600  0.573500  0.145100  1.0  0.1484
  H  H47  1  0.922600  0.640100  0.187200  1.0  0.1522
  H  H48  1  0.775300  0.533500  0.368100  1.0  0.1476
  H  H49  1  0.833200  0.596000  0.433700  1.0  0.1537
  H  H50  1  0.859100  0.509000  0.402500  1.0  0.141
  H  H51  1  0.411200  0.056000  0.921100  1.0  0.1531
  H  H52  1  0.327000  0.108300  0.927000  1.0  0.147
  H  H53  1  0.426500  0.140300  0.932200  1.0  0.1482
  H  H54  1  0.531700  0.003200  0.637600  1.0  0.1536
  H  H55  1  0.440500  0.970000  0.593000  1.0  0.148
  H  H56  1  0.493800  0.924500  0.629900  1.0  0.1588
  H  H57  1  0.639700  0.629300  0.117700  1.0  0.1587
  H  H58  1  0.742400  0.630500  0.095500  1.0  0.153
  H  H59  1  0.673400  0.690000  0.090400  1.0  0.1515
  H  H60  1  0.846400  0.770500  0.394000  1.0  0.1525
  H  H61  1  0.770100  0.710100  0.384500  1.0  0.1455
  H  H62  1  0.748200  0.798200  0.426500  1.0  0.1533
  H  H63  1  0.394000  0.579800  0.295700  1.0  0.1127
  H  H64  1  0.585100  0.575300  0.442000  1.0  0.1169
  H  H65  1  0.320500  0.562800  0.486400  1.0  0.1091
  H  H66  1  0.701700  0.465600  0.998400  1.0  0.0997
  H  H67  1  0.666900  0.296200  0.063800  1.0  0.1082
  H  H68  1  0.646500  0.254500  0.843800  1.0  0.1199
  H  H69  1  0.092300  0.253900  0.242000  1.0  0.1189
  H  H70  1  0.927800  0.050900  0.770700  1.0  0.1105
  H  H71  1  0.006500  0.995600  0.557800  1.0  0.1026
  H  H72  1  0.746700  0.981200  0.603200  1.0  0.1011
  C  C73  1  0.583200  0.899000  0.819800  1.0  0.6713
  C  C74  1  0.600600  0.841700  0.856000  1.0  -0.1407
  C  C75  1  0.617400  0.871400  0.932600  1.0  0.0204
  C  C76  1  0.637100  0.819300  0.959900  1.0  -0.1289
  C  C77  1  0.640600  0.742200  0.915700  1.0  -0.0132
  C  C78  1  0.623400  0.714300  0.840400  1.0  -0.1427
  C  C79  1  0.623100  0.631500  0.791900  1.0  0.7301
  C  C80  1  0.924400  0.984200  0.292100  1.0  0.4943
  C  C81  1  0.889900  0.933200  0.178600  1.0  0.4035
  C  C82  1  0.434300  0.413700  0.829900  1.0  -0.4661
  C  C83  1  0.434700  0.430700  0.766500  1.0  0.4842
  C  C84  1  0.395400  0.445700  0.667900  1.0  0.4811
  C  C85  1  0.335600  0.452000  0.611000  1.0  -0.4553
  C  C86  1  0.888500  0.904400  0.091400  1.0  -0.425
  C  C87  1  0.977300  0.025300  0.364300  1.0  -0.4436
  C  C88  1  0.189700  0.338400  0.881500  1.0  -0.4484
  C  C89  1  0.211400  0.282900  0.799800  1.0  0.4497
  C  C90  1  0.254900  0.241700  0.687900  1.0  0.4877
  C  C91  1  0.282300  0.240600  0.614300  1.0  -0.4544
  C  C92  1  0.749100  0.442900  0.644500  1.0  0.7307
  C  C93  1  0.842100  0.430000  0.614100  1.0  -0.1731
  C  C94  1  0.909600  0.421800  0.658800  1.0  0.0037
  C  C95  1  0.999400  0.416000  0.637500  1.0  -0.137
  C  C96  1  0.074300  0.412200  0.691300  1.0  0.6674
  C  C97  1  0.024100  0.423300  0.570800  1.0  -0.0064
  C  C98  1  0.953100  0.428400  0.524400  1.0  -0.0995
  C  C99  1  0.979200  0.435200  0.451800  1.0  0.6612
  C  C100  1  0.865900  0.432600  0.544800  1.0  0.0141
  C  C101  1  0.159900  0.608000  0.147100  1.0  0.6445
  C  C102  1  0.167700  0.634500  0.085500  1.0  -0.1489
  C  C103  1  0.186300  0.584700  0.012400  1.0  0.0208
  C  C104  1  0.183500  0.606400  0.950100  1.0  -0.1422
  C  C105  1  0.202400  0.552400  0.872300  1.0  0.7067
  C  C106  1  0.167100  0.685800  0.973300  1.0  0.0314
  C  C107  1  0.152000  0.736200  0.046100  1.0  -0.1508
  C  C108  1  0.154200  0.710600  0.105300  1.0  -0.0031
  C  C109  1  0.132300  0.819300  0.070700  1.0  0.6549
  C  C110  1  0.658800  0.852600  0.046700  1.0  0.6441
  C  C111  1  0.603600  0.764700  0.810000  1.0  -0.0014
  C  C112  1  0.253800  0.973600  0.250400  1.0  0.6925
  C  C113  1  0.324600  0.983800  0.303500  1.0  -0.1275
  C  C114  1  0.413500  0.966500  0.280700  1.0  0.0321
  C  C115  1  0.483500  0.974200  0.332400  1.0  -0.168
  C  C116  1  0.579000  0.950200  0.304800  1.0  0.7404
  C  C117  1  0.460900  0.999200  0.407100  1.0  0.0325
  C  C118  1  0.373500  0.017000  0.431700  1.0  -0.1127
  C  C119  1  0.354600  0.042700  0.514100  1.0  0.652
  C  C120  1  0.306800  0.008100  0.379900  1.0  0.0074
  C  C121  1  0.083200  0.101000  0.180200  1.0  0.6717
  C  C122  1  0.100600  0.158300  0.144000  1.0  -0.142
  C  C123  1  0.117400  0.128600  0.067400  1.0  0.0208
  C  C124  1  0.137100  0.180700  0.040100  1.0  -0.1288
  C  C125  1  0.140600  0.257800  0.084300  1.0  -0.015
  C  C126  1  0.123400  0.285700  0.159600  1.0  -0.1426
  C  C127  1  0.123100  0.368500  0.208100  1.0  0.7295
  C  C128  1  0.424400  0.015800  0.707900  1.0  0.4969
  C  C129  1  0.389900  0.066800  0.821400  1.0  0.4041
  C  C130  1  0.934300  0.586300  0.170100  1.0  -0.4677
  C  C131  1  0.934700  0.569300  0.233500  1.0  0.4835
  C  C132  1  0.895400  0.554300  0.332100  1.0  0.4824
  C  C133  1  0.835600  0.548000  0.389000  1.0  -0.4563
  C  C134  1  0.388500  0.095600  0.908600  1.0  -0.4271
  C  C135  1  0.477300  0.974700  0.635700  1.0  -0.4391
  C  C136  1  0.689700  0.661600  0.118500  1.0  -0.4471
  C  C137  1  0.711400  0.717100  0.200200  1.0  0.4501
  C  C138  1  0.754900  0.758300  0.312100  1.0  0.4879
  C  C139  1  0.782300  0.759400  0.385700  1.0  -0.4543
  C  C140  1  0.249100  0.557100  0.355500  1.0  0.7304
  C  C141  1  0.342100  0.570000  0.385900  1.0  -0.1724
  C  C142  1  0.409600  0.578200  0.341200  1.0  0.0044
  C  C143  1  0.499400  0.584000  0.362500  1.0  -0.1371
  C  C144  1  0.574300  0.587800  0.308700  1.0  0.6679
  C  C145  1  0.524100  0.576700  0.429200  1.0  -0.0054
  C  C146  1  0.453100  0.571600  0.475600  1.0  -0.0999
  C  C147  1  0.479200  0.564800  0.548200  1.0  0.6617
  C  C148  1  0.365900  0.567400  0.455200  1.0  0.0147
  C  C149  1  0.659900  0.392000  0.852900  1.0  0.6449
  C  C150  1  0.667700  0.365500  0.914500  1.0  -0.1488
  C  C151  1  0.686300  0.415300  0.987600  1.0  0.0197
  C  C152  1  0.683500  0.393600  0.049900  1.0  -0.1382
  C  C153  1  0.702400  0.447600  0.127700  1.0  0.7042
  C  C154  1  0.667100  0.314200  0.026700  1.0  0.031
  C  C155  1  0.652000  0.263800  0.953900  1.0  -0.1513
  C  C156  1  0.654200  0.289400  0.894700  1.0  -0.0028
  C  C157  1  0.632300  0.180700  0.929300  1.0  0.6555
  C  C158  1  0.158800  0.147400  0.953300  1.0  0.6451
  C  C159  1  0.103600  0.235300  0.190000  1.0  0.0018
  C  C160  1  0.753800  0.026400  0.749600  1.0  0.6951
  C  C161  1  0.824600  0.016200  0.696500  1.0  -0.1261
  C  C162  1  0.913500  0.033500  0.719300  1.0  0.0337
  C  C163  1  0.983500  0.025800  0.667600  1.0  -0.1682
  C  C164  1  0.079000  0.049800  0.695200  1.0  0.7405
  C  C165  1  0.960900  0.000800  0.592900  1.0  0.0328
  C  C166  1  0.873500  0.983000  0.568300  1.0  -0.1145
  C  C167  1  0.854600  0.957300  0.485900  1.0  0.6503
  C  C168  1  0.806800  0.991900  0.620100  1.0  0.0079
  N  N169  1  0.954500  0.971300  0.225900  1.0  -0.4927
  N  N170  1  0.813800  0.926800  0.216400  1.0  -0.3257
  N  N171  1  0.839300  0.957400  0.290600  1.0  -0.3491
  N  N172  1  0.484100  0.462600  0.678800  1.0  -0.3332
  N  N173  1  0.509500  0.455500  0.741900  1.0  -0.3365
  N  N174  1  0.363900  0.428300  0.722500  1.0  -0.5355
  N  N175  1  0.220200  0.209200  0.773600  1.0  -0.3133
  N  N176  1  0.246500  0.182700  0.701500  1.0  -0.3069
  N  N177  1  0.231700  0.307500  0.747800  1.0  -0.5114
  N  N178  1  0.454500  0.028700  0.774100  1.0  -0.4905
  N  N179  1  0.313800  0.073200  0.783600  1.0  -0.3259
  N  N180  1  0.339300  0.042600  0.709400  1.0  -0.349
  N  N181  1  0.984100  0.537400  0.321200  1.0  -0.3318
  N  N182  1  0.009500  0.544500  0.258100  1.0  -0.3363
  N  N183  1  0.863900  0.571700  0.277500  1.0  -0.5362
  N  N184  1  0.720200  0.790800  0.226400  1.0  -0.3128
  N  N185  1  0.746500  0.817300  0.298500  1.0  -0.3056
  N  N186  1  0.731700  0.692500  0.252200  1.0  -0.516
  O  O187  1  0.596400  0.967100  0.864200  1.0  -0.5659
  O  O188  1  0.603800  0.608100  0.718800  1.0  -0.6179
  O  O189  1  0.732700  0.439700  0.704700  1.0  -0.5737
  O  O190  1  0.687700  0.455200  0.603200  1.0  -0.6066
  O  O191  1  0.050100  0.408600  0.748600  1.0  -0.4904
  O  O192  1  0.154800  0.411800  0.667400  1.0  -0.5802
  O  O193  1  0.930300  0.403600  0.395900  1.0  -0.4496
  O  O194  1  0.047200  0.474700  0.455900  1.0  -0.5575
  O  O195  1  0.148600  0.652000  0.212700  1.0  -0.5253
  O  O196  1  0.167500  0.534700  0.124600  1.0  -0.5724
  O  O197  1  0.222300  0.486600  0.859400  1.0  -0.5686
  O  O198  1  0.194300  0.574500  0.823000  1.0  -0.46
  O  O199  1  0.092500  0.855600  0.131500  1.0  -0.5665
  O  O200  1  0.149100  0.842900  0.020600  1.0  -0.4196
  O  O201  1  0.562800  0.872300  0.753500  1.0  -0.4405
  O  O202  1  0.639400  0.587200  0.820100  1.0  -0.5802
  O  O203  1  0.676700  0.803800  0.071900  1.0  -0.5668
  O  O204  1  0.660200  0.921900  0.084300  1.0  -0.499
  O  O205  1  0.172800  0.985800  0.272600  1.0  -0.568
  O  O206  1  0.272000  0.953700  0.181100  1.0  -0.4836
  O  O207  1  0.275200  0.031900  0.532300  1.0  -0.5835
  O  O208  1  0.408300  0.078800  0.564000  1.0  -0.516
  O  O209  1  0.638500  0.966100  0.356500  1.0  -0.6141
  O  O210  1  0.591400  0.919700  0.236700  1.0  -0.5516
  O  O211  1  0.096400  0.032900  0.135800  1.0  -0.5651
  O  O212  1  0.103800  0.391900  0.281200  1.0  -0.6205
  O  O213  1  0.232700  0.560300  0.295300  1.0  -0.5719
  O  O214  1  0.187700  0.544800  0.396800  1.0  -0.6071
  O  O215  1  0.550100  0.591400  0.251400  1.0  -0.4914
  O  O216  1  0.654800  0.588200  0.332600  1.0  -0.5798
  O  O217  1  0.430300  0.596400  0.604100  1.0  -0.449
  O  O218  1  0.547200  0.525300  0.544100  1.0  -0.554
  O  O219  1  0.648600  0.348000  0.787300  1.0  -0.5248
  O  O220  1  0.667500  0.465300  0.875400  1.0  -0.5724
  O  O221  1  0.722300  0.513400  0.140600  1.0  -0.5689
  O  O222  1  0.694300  0.425500  0.177000  1.0  -0.458
  O  O223  1  0.592500  0.144400  0.868500  1.0  -0.5652
  O  O224  1  0.649100  0.157100  0.979400  1.0  -0.4235
  O  O225  1  0.062800  0.127700  0.246500  1.0  -0.4426
  O  O226  1  0.139400  0.412800  0.179900  1.0  -0.5832
  O  O227  1  0.176700  0.196200  0.928100  1.0  -0.5677
  O  O228  1  0.160200  0.078100  0.915700  1.0  -0.4959
  O  O229  1  0.672800  0.014200  0.727400  1.0  -0.5672
  O  O230  1  0.772000  0.046300  0.818900  1.0  -0.4844
  O  O231  1  0.775200  0.968100  0.467700  1.0  -0.5831
  O  O232  1  0.908300  0.921200  0.436000  1.0  -0.5126
  O  O233  1  0.138500  0.033900  0.643500  1.0  -0.615
  O  O234  1  0.091400  0.080300  0.763300  1.0  -0.5518
