# generated using pymatgen
data_Zn7H24C44(NO4)6
_symmetry_space_group_name_H-M   'P 1'
_cell_length_a   17.47900000
_cell_length_b   25.11700000
_cell_length_c   26.60700000
_cell_angle_alpha   90.00000000
_cell_angle_beta   90.00000000
_cell_angle_gamma   90.00000000
_symmetry_Int_Tables_number   1
_chemical_formula_structural   Zn7H24C44(NO4)6
_chemical_formula_sum   'Zn28 H96 C176 N24 O96'
_cell_volume   11681.00628410
_cell_formula_units_Z   4
loop_
 _symmetry_equiv_pos_site_id
 _symmetry_equiv_pos_as_xyz
  1  'x, y, z'
loop_
 _atom_site_type_symbol
 _atom_site_label
 _atom_site_symmetry_multiplicity
 _atom_site_fract_x
 _atom_site_fract_y
 _atom_site_fract_z
 _atom_site_occupancy
 _atom_site_charge
  Zn  Zn1  1  0.739110  0.920990  0.828980  1.0  0.8774
  Zn  Zn2  1  0.280330  0.279650  0.800420  1.0  0.9794
  Zn  Zn3  1  0.434850  0.210290  0.837190  1.0  1.0384
  Zn  Zn4  1  0.934140  0.278620  0.961670  1.0  0.9724
  Zn  Zn5  1  0.901310  0.954370  0.905620  1.0  1.1396
  Zn  Zn6  1  0.779200  0.348880  0.925370  1.0  1.0685
  Zn  Zn7  1  0.318200  0.603560  0.853370  1.0  0.7657
  Zn  Zn8  1  0.239110  0.079010  0.171020  1.0  0.871
  Zn  Zn9  1  0.780330  0.720350  0.199580  1.0  0.9805
  Zn  Zn10  1  0.934850  0.789710  0.162810  1.0  1.038
  Zn  Zn11  1  0.434140  0.721380  0.038330  1.0  0.9712
  Zn  Zn12  1  0.401310  0.045630  0.094380  1.0  1.1384
  Zn  Zn13  1  0.279200  0.651120  0.074630  1.0  1.0689
  Zn  Zn14  1  0.818200  0.396440  0.146630  1.0  0.7648
  Zn  Zn15  1  0.739110  0.420990  0.671020  1.0  0.8757
  Zn  Zn16  1  0.280330  0.779650  0.699580  1.0  0.9793
  Zn  Zn17  1  0.434850  0.710290  0.662810  1.0  1.0379
  Zn  Zn18  1  0.934140  0.778620  0.538330  1.0  0.9726
  Zn  Zn19  1  0.901310  0.454370  0.594380  1.0  1.1393
  Zn  Zn20  1  0.779200  0.848880  0.574630  1.0  1.0692
  Zn  Zn21  1  0.318200  0.103560  0.646630  1.0  0.7661
  Zn  Zn22  1  0.239110  0.579010  0.328980  1.0  0.8763
  Zn  Zn23  1  0.780330  0.220350  0.300420  1.0  0.9805
  Zn  Zn24  1  0.934850  0.289710  0.337190  1.0  1.0384
  Zn  Zn25  1  0.434140  0.221380  0.461670  1.0  0.9707
  Zn  Zn26  1  0.401310  0.545630  0.405620  1.0  1.1391
  Zn  Zn27  1  0.279200  0.151120  0.425370  1.0  1.068
  Zn  Zn28  1  0.818200  0.896440  0.353370  1.0  0.7652
  H  H29  1  0.378200  0.437200  0.836100  1.0  0.0973
  H  H30  1  0.568600  0.497600  0.892000  1.0  0.1078
  H  H31  1  0.555700  0.340900  0.871200  1.0  0.1004
  H  H32  1  0.161400  0.239400  0.924600  1.0  0.1145
  H  H33  1  0.145000  0.163900  0.058200  1.0  0.1182
  H  H34  1  0.338100  0.154700  0.975800  1.0  0.1072
  H  H35  1  0.055300  0.324700  0.839700  1.0  0.1091
  H  H36  1  0.871400  0.398000  0.782100  1.0  0.1103
  H  H37  1  0.061900  0.380600  0.700700  1.0  0.0976
  H  H38  1  0.843100  0.121200  0.913400  1.0  0.1049
  H  H39  1  0.646600  0.062300  0.862500  1.0  0.1103
  H  H40  1  0.664900  0.218100  0.889600  1.0  0.1039
  H  H41  1  0.248900  0.256600  0.669400  1.0  0.1374
  H  H42  1  0.227400  0.198600  0.653000  1.0  0.1283
  H  H43  1  0.188400  0.224100  0.700300  1.0  0.1449
  H  H44  1  0.476000  0.113700  0.774400  1.0  0.1336
  H  H45  1  0.423800  0.076500  0.741700  1.0  0.1252
  H  H46  1  0.484300  0.113400  0.715700  1.0  0.1257
  H  H47  1  0.680300  0.401600  0.027500  1.0  0.1375
  H  H48  1  0.723600  0.437900  0.066000  1.0  0.1386
  H  H49  1  0.737000  0.445300  0.008200  1.0  0.1413
  H  H50  1  0.980000  0.290600  0.073200  1.0  0.1385
  H  H51  1  0.958100  0.329300  0.117200  1.0  0.136
  H  H52  1  0.915300  0.274800  0.111100  1.0  0.1415
  H  H53  1  0.878200  0.562800  0.163900  1.0  0.0971
  H  H54  1  0.068600  0.502400  0.108000  1.0  0.1069
  H  H55  1  0.055700  0.659100  0.128800  1.0  0.0999
  H  H56  1  0.661400  0.760600  0.075400  1.0  0.1139
  H  H57  1  0.645000  0.836100  0.941800  1.0  0.1177
  H  H58  1  0.838100  0.845300  0.024200  1.0  0.1079
  H  H59  1  0.555300  0.675300  0.160300  1.0  0.1089
  H  H60  1  0.371400  0.602000  0.217900  1.0  0.1106
  H  H61  1  0.561900  0.619400  0.299300  1.0  0.097
  H  H62  1  0.343100  0.878800  0.086600  1.0  0.1057
  H  H63  1  0.146600  0.937700  0.137500  1.0  0.111
  H  H64  1  0.164900  0.781900  0.110400  1.0  0.1042
  H  H65  1  0.748900  0.743400  0.330600  1.0  0.1369
  H  H66  1  0.727400  0.801400  0.347000  1.0  0.1286
  H  H67  1  0.688400  0.775900  0.299700  1.0  0.1446
  H  H68  1  0.976000  0.886300  0.225600  1.0  0.1325
  H  H69  1  0.923800  0.923500  0.258300  1.0  0.1276
  H  H70  1  0.984300  0.886600  0.284300  1.0  0.1249
  H  H71  1  0.180300  0.598400  0.972500  1.0  0.1371
  H  H72  1  0.223600  0.562100  0.934000  1.0  0.138
  H  H73  1  0.237000  0.554700  0.991800  1.0  0.1411
  H  H74  1  0.480000  0.709400  0.926800  1.0  0.1389
  H  H75  1  0.458100  0.670700  0.882800  1.0  0.1361
  H  H76  1  0.415300  0.725200  0.888900  1.0  0.1423
  H  H77  1  0.378200  0.937200  0.663900  1.0  0.0976
  H  H78  1  0.568600  0.997600  0.608000  1.0  0.1075
  H  H79  1  0.555700  0.840900  0.628800  1.0  0.1003
  H  H80  1  0.161400  0.739400  0.575400  1.0  0.114
  H  H81  1  0.145000  0.663900  0.441800  1.0  0.1177
  H  H82  1  0.338100  0.654700  0.524200  1.0  0.1074
  H  H83  1  0.055300  0.824700  0.660300  1.0  0.1091
  H  H84  1  0.871400  0.898000  0.717900  1.0  0.1105
  H  H85  1  0.061900  0.880600  0.799300  1.0  0.0968
  H  H86  1  0.843100  0.621200  0.586600  1.0  0.1049
  H  H87  1  0.646600  0.562300  0.637500  1.0  0.1101
  H  H88  1  0.664900  0.718100  0.610400  1.0  0.104
  H  H89  1  0.248900  0.756600  0.830600  1.0  0.1364
  H  H90  1  0.227400  0.698600  0.847000  1.0  0.1288
  H  H91  1  0.188400  0.724100  0.799700  1.0  0.1446
  H  H92  1  0.476000  0.613700  0.725600  1.0  0.1331
  H  H93  1  0.423800  0.576500  0.758300  1.0  0.1268
  H  H94  1  0.484300  0.613400  0.784300  1.0  0.1247
  H  H95  1  0.680300  0.901600  0.472500  1.0  0.1374
  H  H96  1  0.723600  0.937900  0.434000  1.0  0.138
  H  H97  1  0.737000  0.945300  0.491800  1.0  0.1417
  H  H98  1  0.980000  0.790600  0.426800  1.0  0.1388
  H  H99  1  0.958100  0.829300  0.382800  1.0  0.1362
  H  H100  1  0.915300  0.774800  0.388900  1.0  0.1412
  H  H101  1  0.878200  0.062800  0.336100  1.0  0.0968
  H  H102  1  0.068600  0.002400  0.392000  1.0  0.1073
  H  H103  1  0.055700  0.159100  0.371200  1.0  0.0998
  H  H104  1  0.661400  0.260600  0.424600  1.0  0.1138
  H  H105  1  0.645000  0.336100  0.558200  1.0  0.1181
  H  H106  1  0.838100  0.345300  0.475800  1.0  0.108
  H  H107  1  0.555300  0.175300  0.339700  1.0  0.109
  H  H108  1  0.371400  0.102000  0.282100  1.0  0.1104
  H  H109  1  0.561900  0.119400  0.200700  1.0  0.0976
  H  H110  1  0.343100  0.378800  0.413400  1.0  0.1052
  H  H111  1  0.146600  0.437700  0.362500  1.0  0.1112
  H  H112  1  0.164900  0.281900  0.389600  1.0  0.1042
  H  H113  1  0.748900  0.243400  0.169400  1.0  0.1369
  H  H114  1  0.727400  0.301400  0.153000  1.0  0.1291
  H  H115  1  0.688400  0.275900  0.200300  1.0  0.1445
  H  H116  1  0.976000  0.386300  0.274400  1.0  0.1327
  H  H117  1  0.923800  0.423500  0.241700  1.0  0.1266
  H  H118  1  0.984300  0.386600  0.215700  1.0  0.1257
  H  H119  1  0.180300  0.098400  0.527500  1.0  0.1372
  H  H120  1  0.223600  0.062100  0.566000  1.0  0.1387
  H  H121  1  0.237000  0.054700  0.508200  1.0  0.1401
  H  H122  1  0.480000  0.209400  0.573200  1.0  0.1387
  H  H123  1  0.458100  0.170700  0.617200  1.0  0.136
  H  H124  1  0.415300  0.225200  0.611100  1.0  0.1415
  C  C125  1  0.415600  0.334400  0.833800  1.0  0.7051
  C  C126  1  0.457200  0.380600  0.848200  1.0  -0.1387
  C  C127  1  0.427700  0.432300  0.848100  1.0  -0.0061
  C  C128  1  0.466800  0.476200  0.864400  1.0  -0.1468
  C  C129  1  0.432400  0.529500  0.863900  1.0  0.6811
  C  C130  1  0.540200  0.468300  0.881600  1.0  -0.0105
  C  C131  1  0.573600  0.417700  0.883900  1.0  -0.1555
  C  C132  1  0.656300  0.411300  0.902800  1.0  0.7043
  C  C133  1  0.533900  0.374600  0.868600  1.0  0.0042
  C  C134  1  0.301600  0.213900  0.898000  1.0  0.7249
  C  C135  1  0.257500  0.199000  0.944500  1.0  -0.1542
  C  C136  1  0.183000  0.218000  0.949400  1.0  0.0098
  C  C137  1  0.141300  0.204400  0.992300  1.0  -0.1669
  C  C138  1  0.058400  0.223000  0.996200  1.0  0.7152
  C  C139  1  0.173400  0.173000  0.030000  1.0  0.0456
  C  C140  1  0.248100  0.155600  0.024800  1.0  -0.1691
  C  C141  1  0.282400  0.119200  0.065000  1.0  0.7247
  C  C142  1  0.289000  0.168100  0.980300  1.0  0.0243
  C  C143  1  0.151100  0.331000  0.765700  1.0  0.724
  C  C144  1  0.069900  0.350200  0.768500  1.0  -0.1188
  C  C145  1  0.030800  0.341800  0.813100  1.0  -0.0331
  C  C146  1  0.957000  0.358300  0.818500  1.0  -0.16
  C  C147  1  0.913900  0.350000  0.866700  1.0  0.7201
  C  C148  1  0.920800  0.385000  0.778300  1.0  0.0298
  C  C149  1  0.958800  0.391700  0.733200  1.0  -0.1967
  C  C150  1  0.919600  0.415600  0.689900  1.0  0.7145
  C  C151  1  0.034800  0.374700  0.730200  1.0  0.0172
  C  C152  1  0.805800  0.225700  0.923300  1.0  0.7359
  C  C153  1  0.761900  0.178000  0.905000  1.0  -0.1826
  C  C154  1  0.792900  0.126600  0.903000  1.0  0.0185
  C  C155  1  0.750800  0.083600  0.885800  1.0  -0.1935
  C  C156  1  0.784600  0.029000  0.883000  1.0  0.7318
  C  C157  1  0.675800  0.091200  0.872800  1.0  0.0233
  C  C158  1  0.642600  0.141600  0.874900  1.0  -0.1579
  C  C159  1  0.558000  0.150300  0.862100  1.0  0.7164
  C  C160  1  0.686300  0.184300  0.889700  1.0  0.037
  C  C161  1  0.234900  0.221800  0.681200  1.0  -0.4424
  C  C162  1  0.298300  0.200000  0.714200  1.0  0.3148
  C  C163  1  0.392900  0.152100  0.739600  1.0  0.3142
  C  C164  1  0.448900  0.110500  0.743100  1.0  -0.4381
  C  C165  1  0.727400  0.419900  0.034300  1.0  -0.4362
  C  C166  1  0.791400  0.380600  0.036200  1.0  0.4268
  C  C167  1  0.881400  0.329700  0.060900  1.0  0.4394
  C  C168  1  0.938700  0.303800  0.093400  1.0  -0.4469
  C  C169  1  0.915600  0.665600  0.166200  1.0  0.706
  C  C170  1  0.957200  0.619400  0.151800  1.0  -0.1376
  C  C171  1  0.927700  0.567700  0.151900  1.0  -0.0055
  C  C172  1  0.966800  0.523800  0.135600  1.0  -0.1468
  C  C173  1  0.932400  0.470500  0.136100  1.0  0.6828
  C  C174  1  0.040200  0.531700  0.118400  1.0  -0.0077
  C  C175  1  0.073600  0.582300  0.116100  1.0  -0.1555
  C  C176  1  0.156300  0.588700  0.097200  1.0  0.7051
  C  C177  1  0.033900  0.625400  0.131400  1.0  0.0023
  C  C178  1  0.801600  0.786100  0.102000  1.0  0.7238
  C  C179  1  0.757500  0.801000  0.055500  1.0  -0.1534
  C  C180  1  0.683000  0.782000  0.050600  1.0  0.0104
  C  C181  1  0.641300  0.795600  0.007700  1.0  -0.167
  C  C182  1  0.558400  0.777000  0.003800  1.0  0.7145
  C  C183  1  0.673400  0.827000  0.970000  1.0  0.0458
  C  C184  1  0.748100  0.844400  0.975200  1.0  -0.1684
  C  C185  1  0.782400  0.880800  0.935000  1.0  0.7251
  C  C186  1  0.789000  0.831900  0.019700  1.0  0.0244
  C  C187  1  0.651100  0.669000  0.234300  1.0  0.7237
  C  C188  1  0.569900  0.649800  0.231500  1.0  -0.1191
  C  C189  1  0.530800  0.658200  0.186900  1.0  -0.0323
  C  C190  1  0.457000  0.641700  0.181500  1.0  -0.1604
  C  C191  1  0.413900  0.650000  0.133300  1.0  0.7181
  C  C192  1  0.420800  0.615000  0.221700  1.0  0.0296
  C  C193  1  0.458800  0.608300  0.266800  1.0  -0.1982
  C  C194  1  0.419600  0.584400  0.310100  1.0  0.7159
  C  C195  1  0.534800  0.625300  0.269800  1.0  0.0188
  C  C196  1  0.305800  0.774300  0.076700  1.0  0.7363
  C  C197  1  0.261900  0.822000  0.095000  1.0  -0.1821
  C  C198  1  0.292900  0.873400  0.097000  1.0  0.0185
  C  C199  1  0.250800  0.916400  0.114200  1.0  -0.1935
  C  C200  1  0.284600  0.971000  0.117000  1.0  0.7338
  C  C201  1  0.175800  0.908800  0.127200  1.0  0.0236
  C  C202  1  0.142600  0.858400  0.125100  1.0  -0.1573
  C  C203  1  0.058000  0.849700  0.137900  1.0  0.7157
  C  C204  1  0.186300  0.815700  0.110300  1.0  0.0382
  C  C205  1  0.734900  0.778200  0.318800  1.0  -0.4422
  C  C206  1  0.798300  0.800000  0.285800  1.0  0.3148
  C  C207  1  0.892900  0.847900  0.260400  1.0  0.3128
  C  C208  1  0.948900  0.889500  0.256900  1.0  -0.4375
  C  C209  1  0.227400  0.580100  0.965700  1.0  -0.435
  C  C210  1  0.291400  0.619400  0.963800  1.0  0.4253
  C  C211  1  0.381400  0.670300  0.939100  1.0  0.4403
  C  C212  1  0.438700  0.696200  0.906600  1.0  -0.4462
  C  C213  1  0.415600  0.834400  0.666200  1.0  0.7053
  C  C214  1  0.457200  0.880600  0.651800  1.0  -0.1379
  C  C215  1  0.427700  0.932300  0.651900  1.0  -0.0053
  C  C216  1  0.466800  0.976200  0.635600  1.0  -0.1466
  C  C217  1  0.432400  0.029500  0.636100  1.0  0.6814
  C  C218  1  0.540200  0.968300  0.618400  1.0  -0.0102
  C  C219  1  0.573600  0.917700  0.616100  1.0  -0.1557
  C  C220  1  0.656300  0.911300  0.597200  1.0  0.7043
  C  C221  1  0.533900  0.874600  0.631400  1.0  0.0034
  C  C222  1  0.301600  0.713900  0.602000  1.0  0.7238
  C  C223  1  0.257500  0.699000  0.555500  1.0  -0.1531
  C  C224  1  0.183000  0.718000  0.550600  1.0  0.0102
  C  C225  1  0.141300  0.704400  0.507700  1.0  -0.167
  C  C226  1  0.058400  0.723000  0.503800  1.0  0.7151
  C  C227  1  0.173400  0.673000  0.470000  1.0  0.0455
  C  C228  1  0.248100  0.655600  0.475200  1.0  -0.1684
  C  C229  1  0.282400  0.619200  0.435000  1.0  0.7249
  C  C230  1  0.289000  0.668100  0.519700  1.0  0.025
  C  C231  1  0.151100  0.831000  0.734300  1.0  0.7249
  C  C232  1  0.069900  0.850200  0.731500  1.0  -0.1191
  C  C233  1  0.030800  0.841800  0.686900  1.0  -0.0332
  C  C234  1  0.957000  0.858300  0.681500  1.0  -0.1603
  C  C235  1  0.913900  0.850000  0.633300  1.0  0.7203
  C  C236  1  0.920800  0.885000  0.721700  1.0  0.0299
  C  C237  1  0.958800  0.891700  0.766800  1.0  -0.1981
  C  C238  1  0.919600  0.915600  0.810100  1.0  0.716
  C  C239  1  0.034800  0.874700  0.769800  1.0  0.0187
  C  C240  1  0.805800  0.725700  0.576700  1.0  0.7368
  C  C241  1  0.761900  0.678000  0.595000  1.0  -0.1823
  C  C242  1  0.792900  0.626600  0.597000  1.0  0.0181
  C  C243  1  0.750800  0.583600  0.614200  1.0  -0.1937
  C  C244  1  0.784600  0.529000  0.617000  1.0  0.7319
  C  C245  1  0.675800  0.591200  0.627200  1.0  0.0237
  C  C246  1  0.642600  0.641600  0.625100  1.0  -0.1573
  C  C247  1  0.558000  0.650300  0.637900  1.0  0.7163
  C  C248  1  0.686300  0.684300  0.610300  1.0  0.0373
  C  C249  1  0.234900  0.721800  0.818800  1.0  -0.4425
  C  C250  1  0.298300  0.700000  0.785800  1.0  0.3186
  C  C251  1  0.392900  0.652100  0.760400  1.0  0.3125
  C  C252  1  0.448900  0.610500  0.756900  1.0  -0.4383
  C  C253  1  0.727400  0.919900  0.465700  1.0  -0.4353
  C  C254  1  0.791400  0.880600  0.463800  1.0  0.4279
  C  C255  1  0.881400  0.829700  0.439100  1.0  0.4322
  C  C256  1  0.938700  0.803800  0.406600  1.0  -0.4477
  C  C257  1  0.915600  0.165600  0.333800  1.0  0.7059
  C  C258  1  0.957200  0.119400  0.348200  1.0  -0.1379
  C  C259  1  0.927700  0.067700  0.348100  1.0  -0.0062
  C  C260  1  0.966800  0.023800  0.364400  1.0  -0.147
  C  C261  1  0.932400  0.970500  0.363900  1.0  0.6824
  C  C262  1  0.040200  0.031700  0.381600  1.0  -0.0075
  C  C263  1  0.073600  0.082300  0.383900  1.0  -0.1553
  C  C264  1  0.156300  0.088700  0.402800  1.0  0.7052
  C  C265  1  0.033900  0.125400  0.368600  1.0  0.0029
  C  C266  1  0.801600  0.286100  0.398000  1.0  0.7243
  C  C267  1  0.757500  0.301000  0.444500  1.0  -0.1544
  C  C268  1  0.683000  0.282000  0.449400  1.0  0.0097
  C  C269  1  0.641300  0.295600  0.492300  1.0  -0.1668
  C  C270  1  0.558400  0.277000  0.496200  1.0  0.7146
  C  C271  1  0.673400  0.327000  0.530000  1.0  0.0455
  C  C272  1  0.748100  0.344400  0.524800  1.0  -0.1695
  C  C273  1  0.782400  0.380800  0.565000  1.0  0.7248
  C  C274  1  0.789000  0.331900  0.480300  1.0  0.024
  C  C275  1  0.651100  0.169000  0.265700  1.0  0.7238
  C  C276  1  0.569900  0.149800  0.268500  1.0  -0.1188
  C  C277  1  0.530800  0.158200  0.313100  1.0  -0.0322
  C  C278  1  0.457000  0.141700  0.318500  1.0  -0.1603
  C  C279  1  0.413900  0.150000  0.366700  1.0  0.7192
  C  C280  1  0.420800  0.115000  0.278300  1.0  0.0296
  C  C281  1  0.458800  0.108300  0.233200  1.0  -0.1972
  C  C282  1  0.419600  0.084400  0.189900  1.0  0.7148
  C  C283  1  0.534800  0.125300  0.230200  1.0  0.0171
  C  C284  1  0.305800  0.274300  0.423300  1.0  0.7355
  C  C285  1  0.261900  0.322000  0.405000  1.0  -0.1824
  C  C286  1  0.292900  0.373400  0.403000  1.0  0.0188
  C  C287  1  0.250800  0.416400  0.385800  1.0  -0.1932
  C  C288  1  0.284600  0.471000  0.383000  1.0  0.7339
  C  C289  1  0.175800  0.408800  0.372800  1.0  0.0237
  C  C290  1  0.142600  0.358400  0.374900  1.0  -0.1579
  C  C291  1  0.058000  0.349700  0.362100  1.0  0.7155
  C  C292  1  0.186300  0.315700  0.389700  1.0  0.038
  C  C293  1  0.734900  0.278200  0.181200  1.0  -0.4424
  C  C294  1  0.798300  0.300000  0.214200  1.0  0.3079
  C  C295  1  0.892900  0.347900  0.239600  1.0  0.3142
  C  C296  1  0.948900  0.389500  0.243100  1.0  -0.4376
  C  C297  1  0.227400  0.080100  0.534300  1.0  -0.4355
  C  C298  1  0.291400  0.119400  0.536200  1.0  0.4272
  C  C299  1  0.381400  0.170300  0.560900  1.0  0.4441
  C  C300  1  0.438700  0.196200  0.593400  1.0  -0.4457
  N  N301  1  0.320900  0.221200  0.756300  1.0  -0.3083
  N  N302  1  0.382300  0.190400  0.773200  1.0  -0.317
  N  N303  1  0.340600  0.156800  0.702100  1.0  -0.437
  N  N304  1  0.817600  0.355800  0.995600  1.0  -0.3442
  N  N305  1  0.876900  0.323200  0.012100  1.0  -0.3315
  N  N306  1  0.828000  0.364400  0.077400  1.0  -0.4259
  N  N307  1  0.820900  0.778800  0.243700  1.0  -0.3079
  N  N308  1  0.882300  0.809600  0.226800  1.0  -0.3157
  N  N309  1  0.840600  0.843200  0.297900  1.0  -0.4384
  N  N310  1  0.317600  0.644200  0.004400  1.0  -0.3452
  N  N311  1  0.376900  0.676800  0.987900  1.0  -0.3281
  N  N312  1  0.328000  0.635600  0.922600  1.0  -0.4261
  N  N313  1  0.320900  0.721200  0.743700  1.0  -0.308
  N  N314  1  0.382300  0.690400  0.726800  1.0  -0.3156
  N  N315  1  0.340600  0.656800  0.797900  1.0  -0.4335
  N  N316  1  0.817600  0.855800  0.504400  1.0  -0.346
  N  N317  1  0.876900  0.823200  0.487900  1.0  -0.3271
  N  N318  1  0.828000  0.864400  0.422600  1.0  -0.4258
  N  N319  1  0.820900  0.278800  0.256300  1.0  -0.3083
  N  N320  1  0.882300  0.309600  0.273200  1.0  -0.3165
  N  N321  1  0.840600  0.343200  0.202100  1.0  -0.4344
  N  N322  1  0.317600  0.144200  0.495600  1.0  -0.3437
  N  N323  1  0.376900  0.176800  0.512100  1.0  -0.3324
  N  N324  1  0.328000  0.135600  0.577400  1.0  -0.4257
  O  O325  1  0.347200  0.340000  0.815600  1.0  -0.5951
  O  O326  1  0.447500  0.289300  0.834500  1.0  -0.6982
  O  O327  1  0.362700  0.532900  0.850100  1.0  -0.6057
  O  O328  1  0.468900  0.569400  0.875600  1.0  -0.5402
  O  O329  1  0.674600  0.362700  0.910200  1.0  -0.5873
  O  O330  1  0.697600  0.448800  0.909500  1.0  -0.4368
  O  O331  1  0.268400  0.240300  0.866400  1.0  -0.6356
  O  O332  1  0.370100  0.196000  0.895900  1.0  -0.6111
  O  O333  1  0.039200  0.258800  0.966600  1.0  -0.5809
  O  O334  1  0.019400  0.203400  0.028900  1.0  -0.4845
  O  O335  1  0.345800  0.096600  0.053300  1.0  -0.6293
  O  O336  1  0.250800  0.117900  0.105800  1.0  -0.6381
  O  O337  1  0.175000  0.300600  0.797700  1.0  -0.5646
  O  O338  1  0.190700  0.344900  0.729600  1.0  -0.4099
  O  O339  1  0.947000  0.325200  0.901600  1.0  -0.683
  O  O340  1  0.848200  0.367600  0.871000  1.0  -0.5985
  O  O341  1  0.956000  0.423300  0.651100  1.0  -0.6083
  O  O342  1  0.851200  0.426700  0.693000  1.0  -0.6271
  O  O343  1  0.873100  0.217800  0.938000  1.0  -0.5822
  O  O344  1  0.773600  0.269500  0.918000  1.0  -0.6442
  O  O345  1  0.852100  0.023500  0.899300  1.0  -0.6359
  O  O346  1  0.745300  0.993200  0.865400  1.0  -0.6467
  O  O347  1  0.515400  0.110500  0.859500  1.0  -0.5118
  O  O348  1  0.539300  0.196600  0.850700  1.0  -0.5839
  O  O349  1  0.847200  0.660000  0.184400  1.0  -0.5954
  O  O350  1  0.947500  0.710700  0.165500  1.0  -0.6978
  O  O351  1  0.862700  0.467100  0.149900  1.0  -0.6049
  O  O352  1  0.968900  0.430600  0.124400  1.0  -0.5378
  O  O353  1  0.174600  0.637300  0.089800  1.0  -0.5888
  O  O354  1  0.197600  0.551200  0.090500  1.0  -0.4358
  O  O355  1  0.768400  0.759700  0.133600  1.0  -0.6375
  O  O356  1  0.870100  0.804000  0.104100  1.0  -0.6125
  O  O357  1  0.539200  0.741200  0.033400  1.0  -0.58
  O  O358  1  0.519400  0.796600  0.971100  1.0  -0.4856
  O  O359  1  0.845800  0.903400  0.946700  1.0  -0.6297
  O  O360  1  0.750800  0.882100  0.894200  1.0  -0.6411
  O  O361  1  0.675000  0.699400  0.202300  1.0  -0.5657
  O  O362  1  0.690700  0.655100  0.270400  1.0  -0.4084
  O  O363  1  0.447000  0.674800  0.098400  1.0  -0.6826
  O  O364  1  0.348200  0.632400  0.129000  1.0  -0.5994
  O  O365  1  0.456000  0.576700  0.348900  1.0  -0.6064
  O  O366  1  0.351200  0.573300  0.307000  1.0  -0.6269
  O  O367  1  0.373100  0.782200  0.062000  1.0  -0.5823
  O  O368  1  0.273600  0.730500  0.082000  1.0  -0.6445
  O  O369  1  0.352100  0.976500  0.100700  1.0  -0.6347
  O  O370  1  0.245300  0.006800  0.134600  1.0  -0.6498
  O  O371  1  0.015400  0.889500  0.140500  1.0  -0.5104
  O  O372  1  0.039300  0.803400  0.149300  1.0  -0.5827
  O  O373  1  0.347200  0.840000  0.684400  1.0  -0.596
  O  O374  1  0.447500  0.789300  0.665500  1.0  -0.6985
  O  O375  1  0.362700  0.032900  0.649900  1.0  -0.6052
  O  O376  1  0.468900  0.069400  0.624400  1.0  -0.5394
  O  O377  1  0.674600  0.862700  0.589800  1.0  -0.5873
  O  O378  1  0.697600  0.948800  0.590500  1.0  -0.4393
  O  O379  1  0.268400  0.740300  0.633600  1.0  -0.6367
  O  O380  1  0.370100  0.696000  0.604100  1.0  -0.6119
  O  O381  1  0.039200  0.758800  0.533400  1.0  -0.5812
  O  O382  1  0.019400  0.703400  0.471100  1.0  -0.4852
  O  O383  1  0.345800  0.596600  0.446700  1.0  -0.6298
  O  O384  1  0.250800  0.617900  0.394200  1.0  -0.6411
  O  O385  1  0.175000  0.800600  0.702300  1.0  -0.5652
  O  O386  1  0.190700  0.844900  0.770400  1.0  -0.4109
  O  O387  1  0.947000  0.825200  0.598400  1.0  -0.683
  O  O388  1  0.848200  0.867600  0.629000  1.0  -0.5991
  O  O389  1  0.956000  0.923300  0.848900  1.0  -0.6055
  O  O390  1  0.851200  0.926700  0.807000  1.0  -0.6271
  O  O391  1  0.873100  0.717800  0.562000  1.0  -0.5817
  O  O392  1  0.773600  0.769500  0.582000  1.0  -0.6441
  O  O393  1  0.852100  0.523500  0.600700  1.0  -0.6349
  O  O394  1  0.745300  0.493200  0.634600  1.0  -0.6477
  O  O395  1  0.515400  0.610500  0.640500  1.0  -0.509
  O  O396  1  0.539300  0.696600  0.649300  1.0  -0.5839
  O  O397  1  0.847200  0.160000  0.315600  1.0  -0.5951
  O  O398  1  0.947500  0.210700  0.334500  1.0  -0.6976
  O  O399  1  0.862700  0.967100  0.350100  1.0  -0.6054
  O  O400  1  0.968900  0.930600  0.375600  1.0  -0.5384
  O  O401  1  0.174600  0.137300  0.410200  1.0  -0.5884
  O  O402  1  0.197600  0.051200  0.409500  1.0  -0.439
  O  O403  1  0.768400  0.259700  0.366400  1.0  -0.6362
  O  O404  1  0.870100  0.304000  0.395900  1.0  -0.6116
  O  O405  1  0.539200  0.241200  0.466600  1.0  -0.5806
  O  O406  1  0.519400  0.296600  0.528900  1.0  -0.4845
  O  O407  1  0.845800  0.403400  0.553300  1.0  -0.6288
  O  O408  1  0.750800  0.382100  0.605800  1.0  -0.6378
  O  O409  1  0.675000  0.199400  0.297700  1.0  -0.5645
  O  O410  1  0.690700  0.155100  0.229600  1.0  -0.4078
  O  O411  1  0.447000  0.174800  0.401600  1.0  -0.6828
  O  O412  1  0.348200  0.132400  0.371000  1.0  -0.599
  O  O413  1  0.456000  0.076700  0.151100  1.0  -0.6092
  O  O414  1  0.351200  0.073300  0.193000  1.0  -0.6264
  O  O415  1  0.373100  0.282200  0.438000  1.0  -0.5826
  O  O416  1  0.273600  0.230500  0.418000  1.0  -0.6443
  O  O417  1  0.352100  0.476500  0.399300  1.0  -0.6355
  O  O418  1  0.245300  0.506800  0.365400  1.0  -0.6486
  O  O419  1  0.015400  0.389500  0.359500  1.0  -0.5107
  O  O420  1  0.039300  0.303400  0.350700  1.0  -0.5827
