# generated using pymatgen
data_Ag9P4H78W36C54(N2O9)10
_symmetry_space_group_name_H-M   'P 1'
_cell_length_a   15.61600000
_cell_length_b   17.36500000
_cell_length_c   19.96200000
_cell_angle_alpha   75.81300000
_cell_angle_beta   89.46800000
_cell_angle_gamma   76.03600000
_symmetry_Int_Tables_number   1
_chemical_formula_structural   Ag9P4H78W36C54(N2O9)10
_chemical_formula_sum   'Ag9 P4 H78 W36 C54 N20 O90'
_cell_volume   5085.78872438
_cell_formula_units_Z   1
loop_
 _symmetry_equiv_pos_site_id
 _symmetry_equiv_pos_as_xyz
  1  'x, y, z'
loop_
 _atom_site_type_symbol
 _atom_site_label
 _atom_site_symmetry_multiplicity
 _atom_site_fract_x
 _atom_site_fract_y
 _atom_site_fract_z
 _atom_site_occupancy
 _atom_site_charge
  Ag  Ag1  1  0.272000  0.948950  0.086820  1.0  0.1957
  Ag  Ag2  1  0.965920  0.571870  0.536320  1.0  0.2884
  Ag  Ag3  1  0.403650  0.060470  0.032560  1.0  0.1671
  Ag  Ag4  1  0.728000  0.051050  0.913180  1.0  0.1948
  Ag  Ag5  1  0.034080  0.428130  0.463680  1.0  0.2867
  Ag  Ag6  1  0.596350  0.939530  0.967440  1.0  0.1679
  Ag  Ag7  1  0.000000  0.500000  0.000000  1.0  0.2477
  Ag  Ag8  1  0.500000  0.500000  0.000000  1.0  0.3336
  Ag  Ag9  1  0.000000  0.000000  0.000000  1.0  0.1109
  P  P10  1  0.782100  0.858600  0.250870  1.0  1.6983
  P  P11  1  0.666667  0.684700  0.230690  1.0  1.643
  P  P12  1  0.217900  0.141400  0.749130  1.0  1.6991
  P  P13  1  0.333333  0.315300  0.769310  1.0  1.6428
  H  H14  1  0.149700  0.882000  0.932800  1.0  0.103
  H  H15  1  0.325000  0.684700  0.926500  1.0  0.0795
  H  H16  1  0.240700  0.755400  0.903700  1.0  0.0709
  H  H17  1  0.341100  0.811900  0.942400  1.0  0.0845
  H  H18  1  0.364300  0.741600  0.011200  1.0  0.0793
  H  H19  1  0.213500  0.240800  0.217900  1.0  0.1022
  H  H20  1  0.151800  0.246300  0.154600  1.0  0.0801
  H  H21  1  0.412600  0.995200  0.202000  1.0  0.0955
  H  H22  1  0.133200  0.857900  0.131000  1.0  0.1065
  H  H23  1  0.499100  0.588900  0.834100  1.0  0.0813
  H  H24  1  0.201000  0.139100  0.091400  1.0  0.075
  H  H25  1  0.528500  0.686000  0.981800  1.0  0.1114
  H  H26  1  0.659800  0.676300  0.698400  1.0  0.0838
  H  H27  1  0.638000  0.600600  0.749900  1.0  0.0703
  H  H28  1  0.761000  0.628400  0.552600  1.0  0.0674
  H  H29  1  0.055700  0.314800  0.969900  1.0  0.0948
  H  H30  1  0.342400  0.585700  0.028100  1.0  0.1052
  H  H31  1  0.289800  0.639800  0.076100  1.0  0.0805
  H  H32  1  0.933700  0.232500  0.208300  1.0  0.1134
  H  H33  1  0.934200  0.168600  0.164700  1.0  0.1051
  H  H34  1  0.343300  0.097600  0.261800  1.0  0.1177
  H  H35  1  0.092200  0.114100  0.189200  1.0  0.0565
  H  H36  1  0.043200  0.104600  0.258100  1.0  0.1025
  H  H37  1  0.079600  0.227400  0.260700  1.0  0.0866
  H  H38  1  0.146400  0.142000  0.287300  1.0  0.0959
  H  H39  1  0.599800  0.554200  0.661000  1.0  0.0855
  H  H40  1  0.612800  0.632500  0.607600  1.0  0.0701
  H  H41  1  0.528000  0.781800  0.869800  1.0  0.1126
  H  H42  1  0.164400  0.691700  0.994000  1.0  0.0772
  H  H43  1  0.206200  0.628700  0.949800  1.0  0.0883
  H  H44  1  0.512200  0.727300  0.663100  1.0  0.1012
  H  H45  1  0.489700  0.651200  0.712400  1.0  0.0607
  H  H46  1  0.440500  0.760700  0.747300  1.0  0.0716
  H  H47  1  0.535000  0.775400  0.749600  1.0  0.0778
  H  H48  1  0.783900  0.466600  0.735300  1.0  0.1079
  H  H49  1  0.961900  0.373900  0.137500  1.0  0.089
  H  H50  1  0.030000  0.190600  0.047600  1.0  0.1107
  H  H51  1  0.915800  0.445100  0.678600  1.0  0.1057
  H  H52  1  0.266000  0.769200  0.114400  1.0  0.1158
  H  H53  1  0.850300  0.118000  0.067200  1.0  0.1032
  H  H54  1  0.675000  0.315300  0.073500  1.0  0.08
  H  H55  1  0.759300  0.244600  0.096300  1.0  0.0704
  H  H56  1  0.658900  0.188100  0.057600  1.0  0.0879
  H  H57  1  0.635700  0.258400  0.988800  1.0  0.0789
  H  H58  1  0.786500  0.759200  0.782100  1.0  0.1032
  H  H59  1  0.848200  0.753700  0.845400  1.0  0.0852
  H  H60  1  0.587400  0.004800  0.798000  1.0  0.0947
  H  H61  1  0.866800  0.142100  0.869000  1.0  0.1063
  H  H62  1  0.500900  0.411100  0.165900  1.0  0.0824
  H  H63  1  0.799000  0.860900  0.908600  1.0  0.0753
  H  H64  1  0.471500  0.314000  0.018200  1.0  0.1118
  H  H65  1  0.340200  0.323700  0.301600  1.0  0.0745
  H  H66  1  0.362000  0.399400  0.250100  1.0  0.0685
  H  H67  1  0.239000  0.371600  0.447400  1.0  0.067
  H  H68  1  0.944300  0.685200  0.030100  1.0  0.0952
  H  H69  1  0.657600  0.414300  0.971900  1.0  0.106
  H  H70  1  0.710200  0.360200  0.923900  1.0  0.1094
  H  H71  1  0.066300  0.767500  0.791700  1.0  0.1102
  H  H72  1  0.065800  0.831400  0.835300  1.0  0.105
  H  H73  1  0.656700  0.902400  0.738200  1.0  0.1168
  H  H74  1  0.907800  0.885900  0.810800  1.0  0.0515
  H  H75  1  0.956800  0.895400  0.741900  1.0  0.1021
  H  H76  1  0.920400  0.772600  0.739300  1.0  0.0871
  H  H77  1  0.853600  0.858000  0.712700  1.0  0.097
  H  H78  1  0.400200  0.445800  0.339000  1.0  0.0844
  H  H79  1  0.387200  0.367500  0.392400  1.0  0.0714
  H  H80  1  0.472000  0.218200  0.130200  1.0  0.1125
  H  H81  1  0.835600  0.308300  0.006000  1.0  0.0855
  H  H82  1  0.793800  0.371300  0.050200  1.0  0.0957
  H  H83  1  0.487800  0.272700  0.336900  1.0  0.1009
  H  H84  1  0.510300  0.348800  0.287600  1.0  0.0593
  H  H85  1  0.559500  0.239300  0.252700  1.0  0.0727
  H  H86  1  0.465000  0.224600  0.250400  1.0  0.0784
  H  H87  1  0.216100  0.533400  0.264700  1.0  0.108
  H  H88  1  0.038100  0.626100  0.862500  1.0  0.0901
  H  H89  1  0.970000  0.809400  0.952400  1.0  0.1103
  H  H90  1  0.084200  0.554900  0.321400  1.0  0.1057
  H  H91  1  0.734000  0.230800  0.885600  1.0  0.1161
  W  W92  1  0.617130  0.497100  0.313050  1.0  1.2884
  W  W93  1  0.901800  0.929860  0.361950  1.0  1.3008
  W  W94  1  0.618630  0.656610  0.405760  1.0  1.3461
  W  W95  1  0.817390  0.895350  0.073570  1.0  1.3212
  W  W96  1  0.756270  0.068310  0.240750  1.0  1.2306
  W  W97  1  0.827410  0.544780  0.351260  1.0  1.4408
  W  W98  1  0.709660  0.730090  0.053100  1.0  1.2219
  W  W99  1  0.626680  0.997100  0.124640  1.0  1.2915
  W  W100  1  0.729540  0.819400  0.425470  1.0  1.277
  W  W101  1  0.584120  0.960600  0.309340  1.0  1.2335
  W  W102  1  0.654830  0.535990  0.142350  1.0  1.2815
  W  W103  1  0.936790  0.709850  0.368560  1.0  2.5764
  W  W104  1  0.518920  0.830420  0.105100  1.0  1.2694
  W  W105  1  0.867710  0.576390  0.182310  1.0  1.2842
  W  W106  1  0.947090  0.960570  0.193390  1.0  1.2486
  W  W107  1  0.475670  0.797140  0.288630  1.0  1.3086
  W  W108  1  0.466340  0.636410  0.196910  1.0  1.2666
  W  W109  1  0.979240  0.740360  0.199710  1.0  1.2724
  W  W110  1  0.382870  0.502900  0.686950  1.0  1.2873
  W  W111  1  0.098200  0.070140  0.638050  1.0  1.3014
  W  W112  1  0.381370  0.343390  0.594240  1.0  1.3393
  W  W113  1  0.182610  0.104650  0.926430  1.0  1.3224
  W  W114  1  0.243730  0.931690  0.759250  1.0  1.2278
  W  W115  1  0.172590  0.455220  0.648740  1.0  1.4418
  W  W116  1  0.290340  0.269910  0.946900  1.0  1.2214
  W  W117  1  0.373320  0.002900  0.875360  1.0  1.2895
  W  W118  1  0.270460  0.180600  0.574530  1.0  1.2785
  W  W119  1  0.415880  0.039400  0.690660  1.0  1.2294
  W  W120  1  0.345170  0.464010  0.857650  1.0  1.2829
  W  W121  1  0.063210  0.290150  0.631440  1.0  2.5782
  W  W122  1  0.481080  0.169580  0.894900  1.0  1.2666
  W  W123  1  0.132290  0.423610  0.817690  1.0  1.2938
  W  W124  1  0.052910  0.039430  0.806610  1.0  1.2452
  W  W125  1  0.524330  0.202860  0.711370  1.0  1.3109
  W  W126  1  0.533660  0.363590  0.803090  1.0  1.266
  W  W127  1  0.020760  0.259640  0.800290  1.0  1.2732
  C  C128  1  0.165600  0.871300  0.979500  1.0  0.1927
  C  C129  1  0.275900  0.719000  0.944100  1.0  -0.1338
  C  C130  1  0.317200  0.774500  0.977400  1.0  -0.0174
  C  C131  1  0.182800  0.209800  0.196700  1.0  -0.0184
  C  C132  1  0.362100  0.037000  0.185900  1.0  0.0459
  C  C133  1  0.164900  0.872000  0.088900  1.0  -0.0439
  C  C134  1  0.509200  0.626300  0.857400  1.0  0.1295
  C  C135  1  0.245600  0.116800  0.126200  1.0  0.1295
  C  C136  1  0.524300  0.674700  0.939000  1.0  0.0595
  C  C137  1  0.620900  0.639400  0.705400  1.0  -0.1353
  C  C138  1  0.780200  0.583100  0.589800  1.0  0.1137
  C  C139  1  0.031100  0.311800  0.012800  1.0  0.0208
  C  C140  1  0.284400  0.609400  0.042200  1.0  -0.2166
  C  C141  1  0.968500  0.202500  0.178200  1.0  -0.1127
  C  C142  1  0.324000  0.092600  0.219500  1.0  -0.1746
  C  C143  1  0.059300  0.144400  0.220100  1.0  -0.1557
  C  C144  1  0.114800  0.180600  0.246300  1.0  -0.1458
  C  C145  1  0.634800  0.594400  0.651700  1.0  0.018
  C  C146  1  0.523200  0.728000  0.876700  1.0  -0.2228
  C  C147  1  0.219000  0.661900  0.979200  1.0  -0.1406
  C  C148  1  0.527400  0.689000  0.708100  1.0  -0.149
  C  C149  1  0.502600  0.733100  0.756700  1.0  0.0098
  C  C150  1  0.791000  0.494500  0.690400  1.0  -0.1041
  C  C151  1  0.979900  0.344300  0.104600  1.0  0.1075
  C  C152  1  0.018900  0.242300  0.056200  1.0  -0.1396
  C  C153  1  0.864500  0.484800  0.660200  1.0  0.0451
  C  C154  1  0.241200  0.820000  0.079100  1.0  -0.0327
  C  C155  1  0.834400  0.128700  0.020500  1.0  0.1896
  C  C156  1  0.724100  0.281000  0.055900  1.0  -0.1343
  C  C157  1  0.682800  0.225500  0.022600  1.0  -0.018
  C  C158  1  0.817200  0.790200  0.803300  1.0  -0.0213
  C  C159  1  0.637900  0.963000  0.814100  1.0  0.0454
  C  C160  1  0.835100  0.128000  0.911100  1.0  -0.0427
  C  C161  1  0.490800  0.373700  0.142600  1.0  0.1304
  C  C162  1  0.754400  0.883200  0.873800  1.0  0.1307
  C  C163  1  0.475700  0.325300  0.061000  1.0  0.0581
  C  C164  1  0.379100  0.360600  0.294600  1.0  -0.1322
  C  C165  1  0.219800  0.416900  0.410200  1.0  0.1134
  C  C166  1  0.968900  0.688200  0.987200  1.0  0.0203
  C  C167  1  0.715600  0.390600  0.957800  1.0  -0.2167
  C  C168  1  0.031500  0.797500  0.821800  1.0  -0.0861
  C  C169  1  0.676000  0.907400  0.780500  1.0  -0.1764
  C  C170  1  0.940700  0.855600  0.779900  1.0  -0.1563
  C  C171  1  0.885200  0.819400  0.753700  1.0  -0.1451
  C  C172  1  0.365200  0.405600  0.348300  1.0  0.0191
  C  C173  1  0.476800  0.272000  0.123300  1.0  -0.2278
  C  C174  1  0.781000  0.338100  0.020800  1.0  -0.166
  C  C175  1  0.472600  0.311000  0.291900  1.0  -0.1479
  C  C176  1  0.497400  0.266900  0.243300  1.0  0.01
  C  C177  1  0.209000  0.505500  0.309600  1.0  -0.1013
  C  C178  1  0.020100  0.655700  0.895400  1.0  0.1087
  C  C179  1  0.981100  0.757700  0.943800  1.0  -0.1373
  C  C180  1  0.135500  0.515200  0.339800  1.0  0.0443
  C  C181  1  0.758800  0.180000  0.920900  1.0  -0.0358
  N  N182  1  0.118400  0.901000  0.024500  1.0  -0.2688
  N  N183  1  0.248400  0.142600  0.178400  1.0  0.0787
  N  N184  1  0.723200  0.553900  0.645800  1.0  -0.0787
  N  N185  1  0.514300  0.691100  0.827000  1.0  0.1521
  N  N186  1  0.987500  0.262500  0.114400  1.0  0.0319
  N  N187  1  0.518500  0.605700  0.928800  1.0  -0.3491
  N  N188  1  0.243500  0.821300  0.011800  1.0  0.0389
  N  N189  1  0.002100  0.375600  0.041100  1.0  -0.2818
  N  N190  1  0.857500  0.538500  0.599500  1.0  -0.2407
  N  N191  1  0.317100  0.049900  0.125200  1.0  -0.3017
  N  N192  1  0.881600  0.099000  0.975500  1.0  -0.2706
  N  N193  1  0.751600  0.857400  0.821600  1.0  0.0782
  N  N194  1  0.276800  0.446100  0.354200  1.0  -0.0651
  N  N195  1  0.485700  0.308900  0.173000  1.0  0.152
  N  N196  1  0.012500  0.737500  0.885600  1.0  0.0317
  N  N197  1  0.481500  0.394300  0.071200  1.0  -0.3487
  N  N198  1  0.756500  0.178700  0.988200  1.0  0.0403
  N  N199  1  0.997900  0.624400  0.958900  1.0  -0.2748
  N  N200  1  0.142500  0.461500  0.400500  1.0  -0.241
  N  N201  1  0.682900  0.950100  0.874800  1.0  -0.3027
  O  O202  1  0.496800  0.542100  0.271600  1.0  -0.6378
  O  O203  1  0.528400  0.570900  0.137900  1.0  -0.6479
  O  O204  1  0.861300  0.063600  0.192300  1.0  -0.6425
  O  O205  1  0.493500  0.844000  0.194700  1.0  -0.6204
  O  O206  1  0.588600  0.572400  0.368400  1.0  -0.6715
  O  O207  1  0.667500  0.026500  0.294000  1.0  -0.6296
  O  O208  1  0.828000  0.738000  0.410500  1.0  -0.7663
  O  O209  1  0.628300  0.912200  0.401800  1.0  -0.6041
  O  O210  1  0.696100  0.054100  0.163700  1.0  -0.65
  O  O211  1  0.889600  0.511700  0.275100  1.0  -0.6655
  O  O212  1  0.715800  0.984300  0.056200  1.0  -0.6728
  O  O213  1  0.738300  0.605100  0.396100  1.0  -0.6492
  O  O214  1  0.482300  0.732000  0.127800  1.0  -0.6536
  O  O215  1  0.646900  0.461600  0.230400  1.0  -0.6491
  O  O216  1  0.015700  0.699200  0.295800  1.0  -0.7714
  O  O217  1  0.897400  0.617500  0.353800  1.0  -0.8321
  O  O218  1  0.502000  0.726200  0.378300  1.0  -0.6295
  O  O219  1  0.935600  0.646200  0.202000  1.0  -0.6357
  O  O220  1  0.580200  0.916600  0.098800  1.0  -0.6218
  O  O221  1  0.810300  0.665300  0.106000  1.0  -0.6257
  O  O222  1  0.805500  0.892300  0.406100  1.0  -0.6666
  O  O223  1  0.774900  0.528100  0.171200  1.0  -0.6407
  O  O224  1  0.528700  0.872400  0.315100  1.0  -0.6098
  O  O225  1  0.747700  0.824300  0.054800  1.0  -0.6264
  O  O226  1  0.874600  0.954400  0.117600  1.0  -0.6475
  O  O227  1  0.976600  0.953900  0.286100  1.0  -0.6527
  O  O228  1  0.661600  0.634500  0.079900  1.0  -0.6441
  O  O229  1  0.826800  0.036900  0.325500  1.0  -0.6346
  O  O230  1  0.452900  0.706800  0.257500  1.0  -0.6381
  O  O231  1  0.008800  0.655600  0.438500  1.0  -0.7338
  O  O232  1  0.618300  0.615700  0.223700  1.0  -0.6981
  O  O233  1  0.655000  0.747800  0.415700  1.0  -0.6139
  O  O234  1  0.576400  0.974000  0.211300  1.0  -0.6066
  O  O235  1  0.851900  0.777400  0.265900  1.0  -0.83
  O  O236  1  0.623200  0.722600  0.287000  1.0  -0.6916
  O  O237  1  0.711700  0.856700  0.303900  1.0  -0.684
  O  O238  1  0.654400  0.748200  0.160600  1.0  -0.6901
  O  O239  1  0.743200  0.882000  0.177100  1.0  -0.7059
  O  O240  1  0.899400  0.799300  0.121800  1.0  -0.6345
  O  O241  1  0.761900  0.642800  0.249200  1.0  -0.7052
  O  O242  1  0.736300  0.493600  0.330900  1.0  -0.6667
  O  O243  1  0.949800  0.814400  0.366300  1.0  -0.804
  O  O244  1  0.826600  0.927100  0.257900  1.0  -0.7026
  O  O245  1  0.989900  0.846200  0.206500  1.0  -0.618
  O  O246  1  0.590400  0.798300  0.034500  1.0  -0.6501
  O  O247  1  0.503200  0.457900  0.728400  1.0  -0.6383
  O  O248  1  0.471600  0.429100  0.862100  1.0  -0.6476
  O  O249  1  0.138700  0.936400  0.807700  1.0  -0.6436
  O  O250  1  0.506500  0.156000  0.805300  1.0  -0.6181
  O  O251  1  0.411400  0.427600  0.631600  1.0  -0.6506
  O  O252  1  0.332500  0.973500  0.706000  1.0  -0.6288
  O  O253  1  0.172000  0.262000  0.589500  1.0  -0.7801
  O  O254  1  0.371700  0.087800  0.598200  1.0  -0.6048
  O  O255  1  0.303900  0.945900  0.836300  1.0  -0.65
  O  O256  1  0.110400  0.488300  0.724900  1.0  -0.6654
  O  O257  1  0.284200  0.015700  0.943800  1.0  -0.6727
  O  O258  1  0.261700  0.394900  0.603900  1.0  -0.6474
  O  O259  1  0.517700  0.268000  0.872200  1.0  -0.6535
  O  O260  1  0.353100  0.538400  0.769600  1.0  -0.6491
  O  O261  1  0.984300  0.300800  0.704200  1.0  -0.7694
  O  O262  1  0.102600  0.382500  0.646200  1.0  -0.8315
  O  O263  1  0.498000  0.273800  0.621700  1.0  -0.6289
  O  O264  1  0.064400  0.353800  0.798000  1.0  -0.634
  O  O265  1  0.419800  0.083400  0.901200  1.0  -0.6214
  O  O266  1  0.189700  0.334700  0.894000  1.0  -0.6258
  O  O267  1  0.194500  0.107700  0.593900  1.0  -0.646
  O  O268  1  0.225100  0.471900  0.828800  1.0  -0.6403
  O  O269  1  0.471300  0.127600  0.684900  1.0  -0.6112
  O  O270  1  0.252300  0.175700  0.945200  1.0  -0.6272
  O  O271  1  0.125400  0.045600  0.882400  1.0  -0.6487
  O  O272  1  0.023400  0.046100  0.713900  1.0  -0.6551
  O  O273  1  0.338400  0.365500  0.920100  1.0  -0.6452
  O  O274  1  0.173200  0.963100  0.674500  1.0  -0.6355
  O  O275  1  0.547100  0.293200  0.742500  1.0  -0.6378
  O  O276  1  0.991200  0.344400  0.561500  1.0  -0.7344
  O  O277  1  0.381700  0.384300  0.776300  1.0  -0.6975
  O  O278  1  0.345000  0.252200  0.584300  1.0  -0.6145
  O  O279  1  0.423600  0.026000  0.788700  1.0  -0.6054
  O  O280  1  0.148100  0.222600  0.734100  1.0  -0.8298
  O  O281  1  0.376800  0.277400  0.713000  1.0  -0.6904
  O  O282  1  0.288300  0.143300  0.696100  1.0  -0.6847
  O  O283  1  0.345600  0.251800  0.839400  1.0  -0.6884
  O  O284  1  0.256800  0.118000  0.822900  1.0  -0.7067
  O  O285  1  0.100600  0.200700  0.878200  1.0  -0.6357
  O  O286  1  0.238100  0.357200  0.750800  1.0  -0.7014
  O  O287  1  0.263700  0.506400  0.669100  1.0  -0.665
  O  O288  1  0.050200  0.185600  0.633700  1.0  -0.8035
  O  O289  1  0.173400  0.072900  0.742100  1.0  -0.7022
  O  O290  1  0.010100  0.153800  0.793500  1.0  -0.6189
  O  O291  1  0.409600  0.201700  0.965500  1.0  -0.6495
