# generated using pymatgen
data_InH4C8O5
_symmetry_space_group_name_H-M   'P 1'
_cell_length_a   15.43750000
_cell_length_b   15.43750000
_cell_length_c   12.28480000
_cell_angle_alpha   90.00000000
_cell_angle_beta   90.00000000
_cell_angle_gamma   90.00000000
_symmetry_Int_Tables_number   1
_chemical_formula_structural   InH4C8O5
_chemical_formula_sum   'In8 H32 C64 O40'
_cell_volume   2927.66938750
_cell_formula_units_Z   8
loop_
 _symmetry_equiv_pos_site_id
 _symmetry_equiv_pos_as_xyz
  1  'x, y, z'
loop_
 _atom_site_type_symbol
 _atom_site_label
 _atom_site_symmetry_multiplicity
 _atom_site_fract_x
 _atom_site_fract_y
 _atom_site_fract_z
 _atom_site_occupancy
 _atom_site_charge
  In  In1  1  0.683700  0.316300  0.500000  1.0  1.6772
  In  In2  1  0.183700  0.816300  0.000000  1.0  1.6772
  In  In3  1  0.816300  0.183700  0.000000  1.0  1.6744
  In  In4  1  0.316300  0.683700  0.500000  1.0  1.6744
  In  In5  1  0.683700  0.183700  0.750000  1.0  1.677
  In  In6  1  0.183700  0.683700  0.250000  1.0  1.677
  In  In7  1  0.816300  0.316300  0.250000  1.0  1.6753
  In  In8  1  0.316300  0.816300  0.750000  1.0  1.6753
  H  H9  1  0.565400  0.379200  0.923900  1.0  0.1036
  H  H10  1  0.065400  0.879200  0.423900  1.0  0.1036
  H  H11  1  0.934600  0.120800  0.423900  1.0  0.1036
  H  H12  1  0.434600  0.620800  0.923900  1.0  0.1036
  H  H13  1  0.620800  0.065400  0.173900  1.0  0.1032
  H  H14  1  0.120800  0.565400  0.673900  1.0  0.1032
  H  H15  1  0.879200  0.434600  0.673900  1.0  0.1029
  H  H16  1  0.379200  0.934600  0.173900  1.0  0.1029
  H  H17  1  0.934600  0.379200  0.826100  1.0  0.1042
  H  H18  1  0.434600  0.879200  0.326100  1.0  0.1042
  H  H19  1  0.565400  0.120800  0.326100  1.0  0.1039
  H  H20  1  0.065400  0.620800  0.826100  1.0  0.1039
  H  H21  1  0.879200  0.065400  0.576100  1.0  0.1033
  H  H22  1  0.379200  0.565400  0.076100  1.0  0.1033
  H  H23  1  0.620800  0.434600  0.076100  1.0  0.1038
  H  H24  1  0.120800  0.934600  0.576100  1.0  0.1038
  H  H25  1  0.816300  0.250000  0.625000  1.0  0.4021
  H  H26  1  0.316300  0.750000  0.125000  1.0  0.4021
  H  H27  1  0.683700  0.250000  0.125000  1.0  0.4038
  H  H28  1  0.183700  0.750000  0.625000  1.0  0.4038
  H  H29  1  0.750000  0.316300  0.875000  1.0  0.4088
  H  H30  1  0.250000  0.816300  0.375000  1.0  0.4088
  H  H31  1  0.750000  0.183700  0.375000  1.0  0.407
  H  H32  1  0.250000  0.683700  0.875000  1.0  0.407
  H  H33  1  0.500000  0.500000  0.624900  1.0  0.1124
  H  H34  1  0.000000  0.000000  0.124900  1.0  0.1125
  H  H35  1  0.500000  0.000000  0.874900  1.0  0.1124
  H  H36  1  0.000000  0.500000  0.374900  1.0  0.1124
  H  H37  1  0.000000  0.500000  0.125100  1.0  0.1129
  H  H38  1  0.500000  0.000000  0.625100  1.0  0.1129
  H  H39  1  0.000000  0.000000  0.875100  1.0  0.1128
  H  H40  1  0.500000  0.500000  0.375100  1.0  0.1129
  C  C41  1  0.583300  0.363700  0.708500  1.0  0.7364
  C  C42  1  0.537340  0.430960  0.767300  1.0  -0.0622
  C  C43  1  0.537340  0.430960  0.881200  1.0  -0.0674
  C  C44  1  0.083300  0.863700  0.208500  1.0  0.7364
  C  C45  1  0.037340  0.930960  0.267300  1.0  -0.0622
  C  C46  1  0.037340  0.930960  0.381200  1.0  -0.0674
  C  C47  1  0.916700  0.136300  0.208500  1.0  0.7369
  C  C48  1  0.962660  0.069040  0.267300  1.0  -0.0619
  C  C49  1  0.962660  0.069040  0.381200  1.0  -0.0682
  C  C50  1  0.416700  0.636300  0.708500  1.0  0.7369
  C  C51  1  0.462660  0.569040  0.767300  1.0  -0.0619
  C  C52  1  0.462660  0.569040  0.881200  1.0  -0.0682
  C  C53  1  0.636300  0.083300  0.958500  1.0  0.7362
  C  C54  1  0.569040  0.037340  0.017300  1.0  -0.0618
  C  C55  1  0.569040  0.037340  0.131200  1.0  -0.0669
  C  C56  1  0.136300  0.583300  0.458500  1.0  0.7362
  C  C57  1  0.069040  0.537340  0.517300  1.0  -0.0618
  C  C58  1  0.069040  0.537340  0.631200  1.0  -0.0669
  C  C59  1  0.863700  0.416700  0.458500  1.0  0.7361
  C  C60  1  0.930960  0.462660  0.517300  1.0  -0.0621
  C  C61  1  0.930960  0.462660  0.631200  1.0  -0.0672
  C  C62  1  0.363700  0.916700  0.958500  1.0  0.7361
  C  C63  1  0.430960  0.962660  0.017300  1.0  -0.0621
  C  C64  1  0.430960  0.962660  0.131200  1.0  -0.0672
  C  C65  1  0.916700  0.363700  0.041500  1.0  0.7366
  C  C66  1  0.962660  0.430960  0.982700  1.0  -0.0617
  C  C67  1  0.962660  0.430960  0.868800  1.0  -0.0687
  C  C68  1  0.416700  0.863700  0.541500  1.0  0.7366
  C  C69  1  0.462660  0.930960  0.482700  1.0  -0.0617
  C  C70  1  0.462660  0.930960  0.368800  1.0  -0.0687
  C  C71  1  0.583300  0.136300  0.541500  1.0  0.7373
  C  C72  1  0.537340  0.069040  0.482700  1.0  -0.0624
  C  C73  1  0.537340  0.069040  0.368800  1.0  -0.067
  C  C74  1  0.083300  0.636300  0.041500  1.0  0.7373
  C  C75  1  0.037340  0.569040  0.982700  1.0  -0.0624
  C  C76  1  0.037340  0.569040  0.868800  1.0  -0.0667
  C  C77  1  0.863700  0.083300  0.791500  1.0  0.7366
  C  C78  1  0.930960  0.037340  0.732700  1.0  -0.0623
  C  C79  1  0.930960  0.037340  0.618800  1.0  -0.0669
  C  C80  1  0.363700  0.583300  0.291500  1.0  0.7366
  C  C81  1  0.430960  0.537340  0.232700  1.0  -0.0623
  C  C82  1  0.430960  0.537340  0.118800  1.0  -0.0669
  C  C83  1  0.636300  0.416700  0.291500  1.0  0.7356
  C  C84  1  0.569040  0.462660  0.232700  1.0  -0.062
  C  C85  1  0.569040  0.462660  0.118800  1.0  -0.0672
  C  C86  1  0.136300  0.916700  0.791500  1.0  0.7356
  C  C87  1  0.069040  0.962660  0.732700  1.0  -0.062
  C  C88  1  0.069040  0.962660  0.618800  1.0  -0.0672
  C  C89  1  0.500000  0.500000  0.710400  1.0  -0.0598
  C  C90  1  0.500000  0.500000  0.938100  1.0  0.0253
  C  C91  1  0.000000  0.000000  0.210400  1.0  -0.0598
  C  C92  1  0.000000  0.000000  0.438100  1.0  0.0253
  C  C93  1  0.500000  0.000000  0.960400  1.0  -0.0598
  C  C94  1  0.500000  0.000000  0.188100  1.0  0.0253
  C  C95  1  0.000000  0.500000  0.460400  1.0  -0.0598
  C  C96  1  0.000000  0.500000  0.688100  1.0  0.0253
  C  C97  1  0.000000  0.500000  0.039600  1.0  -0.0604
  C  C98  1  0.000000  0.500000  0.811900  1.0  0.0254
  C  C99  1  0.500000  0.000000  0.539600  1.0  -0.0604
  C  C100  1  0.500000  0.000000  0.311900  1.0  0.0254
  C  C101  1  0.000000  0.000000  0.789600  1.0  -0.0604
  C  C102  1  0.000000  0.000000  0.561900  1.0  0.0254
  C  C103  1  0.500000  0.500000  0.289600  1.0  -0.0604
  C  C104  1  0.500000  0.500000  0.061900  1.0  0.0254
  O  O105  1  0.614000  0.380600  0.617300  1.0  -0.6275
  O  O106  1  0.591000  0.290900  0.750800  1.0  -0.6478
  O  O107  1  0.114000  0.880600  0.117300  1.0  -0.6275
  O  O108  1  0.091000  0.790900  0.250800  1.0  -0.6478
  O  O109  1  0.886000  0.119400  0.117300  1.0  -0.6256
  O  O110  1  0.909000  0.209100  0.250800  1.0  -0.6484
  O  O111  1  0.386000  0.619400  0.617300  1.0  -0.6256
  O  O112  1  0.409000  0.709100  0.750800  1.0  -0.6484
  O  O113  1  0.619400  0.114000  0.867300  1.0  -0.6248
  O  O114  1  0.709100  0.091000  0.000800  1.0  -0.6423
  O  O115  1  0.119400  0.614000  0.367300  1.0  -0.6248
  O  O116  1  0.209100  0.591000  0.500800  1.0  -0.6423
  O  O117  1  0.880600  0.386000  0.367300  1.0  -0.6247
  O  O118  1  0.790900  0.409000  0.500800  1.0  -0.6436
  O  O119  1  0.380600  0.886000  0.867300  1.0  -0.6247
  O  O120  1  0.290900  0.909000  0.000800  1.0  -0.6436
  O  O121  1  0.886000  0.380600  0.132700  1.0  -0.6266
  O  O122  1  0.909000  0.290900  0.999200  1.0  -0.6491
  O  O123  1  0.386000  0.880600  0.632700  1.0  -0.6266
  O  O124  1  0.409000  0.790900  0.499200  1.0  -0.6491
  O  O125  1  0.614000  0.119400  0.632700  1.0  -0.6273
  O  O126  1  0.591000  0.209100  0.499200  1.0  -0.6499
  O  O127  1  0.114000  0.619400  0.132700  1.0  -0.6273
  O  O128  1  0.091000  0.709100  0.999200  1.0  -0.6499
  O  O129  1  0.880600  0.114000  0.882700  1.0  -0.6251
  O  O130  1  0.790900  0.091000  0.749200  1.0  -0.643
  O  O131  1  0.380600  0.614000  0.382700  1.0  -0.6251
  O  O132  1  0.290900  0.591000  0.249200  1.0  -0.643
  O  O133  1  0.619400  0.386000  0.382700  1.0  -0.6259
  O  O134  1  0.709100  0.409000  0.249200  1.0  -0.6447
  O  O135  1  0.119400  0.886000  0.882700  1.0  -0.6259
  O  O136  1  0.209100  0.909000  0.749200  1.0  -0.6447
  O  O137  1  0.758000  0.250000  0.625000  1.0  -1.0363
  O  O138  1  0.258000  0.750000  0.125000  1.0  -1.0363
  O  O139  1  0.742000  0.250000  0.125000  1.0  -1.0354
  O  O140  1  0.242000  0.750000  0.625000  1.0  -1.0354
  O  O141  1  0.750000  0.258000  0.875000  1.0  -1.0357
  O  O142  1  0.250000  0.758000  0.375000  1.0  -1.0357
  O  O143  1  0.750000  0.242000  0.375000  1.0  -1.0378
  O  O144  1  0.250000  0.742000  0.875000  1.0  -1.0378
