# generated using pymatgen
data_InH4C8O5
_symmetry_space_group_name_H-M   'P 1'
_cell_length_a   15.46360000
_cell_length_b   15.46360000
_cell_length_c   12.29040000
_cell_angle_alpha   90.00000000
_cell_angle_beta   90.00000000
_cell_angle_gamma   90.00000000
_symmetry_Int_Tables_number   1
_chemical_formula_structural   InH4C8O5
_chemical_formula_sum   'In8 H32 C64 O40'
_cell_volume   2938.91639693
_cell_formula_units_Z   8
loop_
 _symmetry_equiv_pos_site_id
 _symmetry_equiv_pos_as_xyz
  1  'x, y, z'
loop_
 _atom_site_type_symbol
 _atom_site_label
 _atom_site_symmetry_multiplicity
 _atom_site_fract_x
 _atom_site_fract_y
 _atom_site_fract_z
 _atom_site_occupancy
 _atom_site_charge
  In  In1  1  0.687500  0.312500  0.500000  1.0  1.6839
  In  In2  1  0.187500  0.812500  0.000000  1.0  1.6839
  In  In3  1  0.812500  0.187500  0.000000  1.0  1.6791
  In  In4  1  0.312500  0.687500  0.500000  1.0  1.6791
  In  In5  1  0.687500  0.187500  0.750000  1.0  1.6835
  In  In6  1  0.187500  0.687500  0.250000  1.0  1.6835
  In  In7  1  0.812500  0.312500  0.250000  1.0  1.68
  In  In8  1  0.312500  0.812500  0.750000  1.0  1.68
  H  H9  1  0.564500  0.379000  0.924000  1.0  0.1108
  H  H10  1  0.064500  0.879000  0.424000  1.0  0.1108
  H  H11  1  0.935500  0.121000  0.424000  1.0  0.1109
  H  H12  1  0.435500  0.621000  0.924000  1.0  0.1109
  H  H13  1  0.621000  0.064500  0.174000  1.0  0.1108
  H  H14  1  0.121000  0.564500  0.674000  1.0  0.1108
  H  H15  1  0.879000  0.435500  0.674000  1.0  0.1102
  H  H16  1  0.379000  0.935500  0.174000  1.0  0.1102
  H  H17  1  0.935500  0.379000  0.826000  1.0  0.1119
  H  H18  1  0.435500  0.879000  0.326000  1.0  0.1119
  H  H19  1  0.564500  0.121000  0.326000  1.0  0.1115
  H  H20  1  0.064500  0.621000  0.826000  1.0  0.1115
  H  H21  1  0.879000  0.064500  0.576000  1.0  0.1109
  H  H22  1  0.379000  0.564500  0.076000  1.0  0.1109
  H  H23  1  0.621000  0.435500  0.076000  1.0  0.1116
  H  H24  1  0.121000  0.935500  0.576000  1.0  0.1116
  H  H25  1  0.819900  0.250000  0.625000  1.0  0.42
  H  H26  1  0.319900  0.750000  0.125000  1.0  0.42
  H  H27  1  0.680100  0.250000  0.125000  1.0  0.4219
  H  H28  1  0.180100  0.750000  0.625000  1.0  0.4219
  H  H29  1  0.750000  0.319900  0.875000  1.0  0.427
  H  H30  1  0.250000  0.819900  0.375000  1.0  0.427
  H  H31  1  0.750000  0.180100  0.375000  1.0  0.4257
  H  H32  1  0.250000  0.680100  0.875000  1.0  0.4257
  H  H33  1  0.500000  0.500000  0.625100  1.0  0.1237
  H  H34  1  0.000000  0.000000  0.125100  1.0  0.1248
  H  H35  1  0.500000  0.000000  0.875100  1.0  0.1237
  H  H36  1  0.000000  0.500000  0.375100  1.0  0.1237
  H  H37  1  0.000000  0.500000  0.124900  1.0  0.1246
  H  H38  1  0.500000  0.000000  0.624900  1.0  0.1246
  H  H39  1  0.000000  0.000000  0.874900  1.0  0.1259
  H  H40  1  0.500000  0.500000  0.374900  1.0  0.1246
  C  C41  1  0.583700  0.364400  0.708800  1.0  0.718
  C  C42  1  0.536850  0.430880  0.767400  1.0  -0.0688
  C  C43  1  0.536850  0.430880  0.881250  1.0  -0.0817
  C  C44  1  0.083700  0.864400  0.208800  1.0  0.718
  C  C45  1  0.036850  0.930880  0.267400  1.0  -0.0688
  C  C46  1  0.036850  0.930880  0.381250  1.0  -0.0817
  C  C47  1  0.916300  0.135600  0.208800  1.0  0.7185
  C  C48  1  0.963150  0.069120  0.267400  1.0  -0.0688
  C  C49  1  0.963150  0.069120  0.381250  1.0  -0.0826
  C  C50  1  0.416300  0.635600  0.708800  1.0  0.7185
  C  C51  1  0.463150  0.569120  0.767400  1.0  -0.0688
  C  C52  1  0.463150  0.569120  0.881250  1.0  -0.0826
  C  C53  1  0.635600  0.083700  0.958800  1.0  0.7175
  C  C54  1  0.569120  0.036850  0.017400  1.0  -0.0687
  C  C55  1  0.569120  0.036850  0.131250  1.0  -0.081
  C  C56  1  0.135600  0.583700  0.458800  1.0  0.7175
  C  C57  1  0.069120  0.536850  0.517400  1.0  -0.0687
  C  C58  1  0.069120  0.536850  0.631250  1.0  -0.081
  C  C59  1  0.864400  0.416300  0.458800  1.0  0.7184
  C  C60  1  0.930880  0.463150  0.517400  1.0  -0.0692
  C  C61  1  0.930880  0.463150  0.631250  1.0  -0.0807
  C  C62  1  0.364400  0.916300  0.958800  1.0  0.7184
  C  C63  1  0.430880  0.963150  0.017400  1.0  -0.0692
  C  C64  1  0.430880  0.963150  0.131250  1.0  -0.0807
  C  C65  1  0.916300  0.364400  0.041200  1.0  0.7182
  C  C66  1  0.963150  0.430880  0.982600  1.0  -0.0692
  C  C67  1  0.963150  0.430880  0.868750  1.0  -0.0827
  C  C68  1  0.416300  0.864400  0.541200  1.0  0.7182
  C  C69  1  0.463150  0.930880  0.482600  1.0  -0.0692
  C  C70  1  0.463150  0.930880  0.368750  1.0  -0.0827
  C  C71  1  0.583700  0.135600  0.541200  1.0  0.7185
  C  C72  1  0.536850  0.069120  0.482600  1.0  -0.069
  C  C73  1  0.536850  0.069120  0.368750  1.0  -0.0819
  C  C74  1  0.083700  0.635600  0.041200  1.0  0.7185
  C  C75  1  0.036850  0.569120  0.982600  1.0  -0.069
  C  C76  1  0.036850  0.569120  0.868750  1.0  -0.0816
  C  C77  1  0.864400  0.083700  0.791200  1.0  0.7182
  C  C78  1  0.930880  0.036850  0.732600  1.0  -0.0695
  C  C79  1  0.930880  0.036850  0.618750  1.0  -0.0805
  C  C80  1  0.364400  0.583700  0.291200  1.0  0.7182
  C  C81  1  0.430880  0.536850  0.232600  1.0  -0.0695
  C  C82  1  0.430880  0.536850  0.118750  1.0  -0.0805
  C  C83  1  0.635600  0.416300  0.291200  1.0  0.7173
  C  C84  1  0.569120  0.463150  0.232600  1.0  -0.0694
  C  C85  1  0.569120  0.463150  0.118750  1.0  -0.081
  C  C86  1  0.135600  0.916300  0.791200  1.0  0.7173
  C  C87  1  0.069120  0.963150  0.732600  1.0  -0.0694
  C  C88  1  0.069120  0.963150  0.618750  1.0  -0.081
  C  C89  1  0.500000  0.500000  0.710600  1.0  -0.0391
  C  C90  1  0.500000  0.500000  0.938140  1.0  0.0374
  C  C91  1  0.000000  0.000000  0.210600  1.0  -0.0391
  C  C92  1  0.000000  0.000000  0.438140  1.0  0.0374
  C  C93  1  0.500000  0.000000  0.960600  1.0  -0.0391
  C  C94  1  0.500000  0.000000  0.188140  1.0  0.0374
  C  C95  1  0.000000  0.500000  0.460600  1.0  -0.0391
  C  C96  1  0.000000  0.500000  0.688140  1.0  0.0374
  C  C97  1  0.000000  0.500000  0.039400  1.0  -0.0399
  C  C98  1  0.000000  0.500000  0.811860  1.0  0.0373
  C  C99  1  0.500000  0.000000  0.539400  1.0  -0.0399
  C  C100  1  0.500000  0.000000  0.311860  1.0  0.0373
  C  C101  1  0.000000  0.000000  0.789400  1.0  -0.0399
  C  C102  1  0.000000  0.000000  0.561860  1.0  0.0373
  C  C103  1  0.500000  0.500000  0.289400  1.0  -0.0399
  C  C104  1  0.500000  0.500000  0.061860  1.0  0.0373
  O  O105  1  0.613900  0.380600  0.616000  1.0  -0.6359
  O  O106  1  0.593800  0.291000  0.751200  1.0  -0.6482
  O  O107  1  0.113900  0.880600  0.116000  1.0  -0.6359
  O  O108  1  0.093800  0.791000  0.251200  1.0  -0.6482
  O  O109  1  0.886100  0.119400  0.116000  1.0  -0.6337
  O  O110  1  0.906200  0.209000  0.251200  1.0  -0.6489
  O  O111  1  0.386100  0.619400  0.616000  1.0  -0.6337
  O  O112  1  0.406200  0.709000  0.751200  1.0  -0.6489
  O  O113  1  0.619400  0.113900  0.866000  1.0  -0.634
  O  O114  1  0.709000  0.093800  0.001200  1.0  -0.6445
  O  O115  1  0.119400  0.613900  0.366000  1.0  -0.634
  O  O116  1  0.209000  0.593800  0.501200  1.0  -0.6445
  O  O117  1  0.880600  0.386100  0.366000  1.0  -0.6333
  O  O118  1  0.791000  0.406200  0.501200  1.0  -0.6453
  O  O119  1  0.380600  0.886100  0.866000  1.0  -0.6333
  O  O120  1  0.291000  0.906200  0.001200  1.0  -0.6453
  O  O121  1  0.886100  0.380600  0.134000  1.0  -0.6348
  O  O122  1  0.906200  0.291000  0.998800  1.0  -0.6494
  O  O123  1  0.386100  0.880600  0.634000  1.0  -0.6348
  O  O124  1  0.406200  0.791000  0.498800  1.0  -0.6494
  O  O125  1  0.613900  0.119400  0.634000  1.0  -0.6357
  O  O126  1  0.593800  0.209000  0.498800  1.0  -0.6499
  O  O127  1  0.113900  0.619400  0.134000  1.0  -0.6357
  O  O128  1  0.093800  0.709000  0.998800  1.0  -0.6499
  O  O129  1  0.880600  0.113900  0.884000  1.0  -0.6337
  O  O130  1  0.791000  0.093800  0.748800  1.0  -0.6453
  O  O131  1  0.380600  0.613900  0.384000  1.0  -0.6337
  O  O132  1  0.291000  0.593800  0.248800  1.0  -0.6453
  O  O133  1  0.619400  0.386100  0.384000  1.0  -0.6345
  O  O134  1  0.709000  0.406200  0.248800  1.0  -0.6455
  O  O135  1  0.119400  0.886100  0.884000  1.0  -0.6345
  O  O136  1  0.209000  0.906200  0.748800  1.0  -0.6455
  O  O137  1  0.761700  0.250000  0.625000  1.0  -1.0212
  O  O138  1  0.261700  0.750000  0.125000  1.0  -1.0212
  O  O139  1  0.738300  0.250000  0.125000  1.0  -1.0209
  O  O140  1  0.238300  0.750000  0.625000  1.0  -1.0209
  O  O141  1  0.750000  0.261700  0.875000  1.0  -1.0214
  O  O142  1  0.250000  0.761700  0.375000  1.0  -1.0214
  O  O143  1  0.750000  0.238300  0.375000  1.0  -1.0231
  O  O144  1  0.250000  0.738300  0.875000  1.0  -1.0231
