# generated using pymatgen
data_InH4C8O5
_symmetry_space_group_name_H-M   'P 1'
_cell_length_a   15.49390000
_cell_length_b   15.49390000
_cell_length_c   12.31210000
_cell_angle_alpha   90.00000000
_cell_angle_beta   90.00000000
_cell_angle_gamma   90.00000000
_symmetry_Int_Tables_number   1
_chemical_formula_structural   InH4C8O5
_chemical_formula_sum   'In8 H32 C64 O40'
_cell_volume   2955.65426502
_cell_formula_units_Z   8
loop_
 _symmetry_equiv_pos_site_id
 _symmetry_equiv_pos_as_xyz
  1  'x, y, z'
loop_
 _atom_site_type_symbol
 _atom_site_label
 _atom_site_symmetry_multiplicity
 _atom_site_fract_x
 _atom_site_fract_y
 _atom_site_fract_z
 _atom_site_occupancy
 _atom_site_charge
  In  In1  1  0.686700  0.313300  0.500000  1.0  1.6886
  In  In2  1  0.186700  0.813300  0.000000  1.0  1.6886
  In  In3  1  0.813300  0.186700  0.000000  1.0  1.6834
  In  In4  1  0.313300  0.686700  0.500000  1.0  1.6834
  In  In5  1  0.686700  0.186700  0.750000  1.0  1.6879
  In  In6  1  0.186700  0.686700  0.250000  1.0  1.6879
  In  In7  1  0.813300  0.313300  0.250000  1.0  1.6836
  In  In8  1  0.313300  0.813300  0.750000  1.0  1.6836
  H  H9  1  0.564900  0.379200  0.924400  1.0  0.1102
  H  H10  1  0.064900  0.879200  0.424400  1.0  0.1102
  H  H11  1  0.935100  0.120800  0.424400  1.0  0.1101
  H  H12  1  0.435100  0.620800  0.924400  1.0  0.1101
  H  H13  1  0.620800  0.064900  0.174400  1.0  0.1103
  H  H14  1  0.120800  0.564900  0.674400  1.0  0.1103
  H  H15  1  0.879200  0.435100  0.674400  1.0  0.1096
  H  H16  1  0.379200  0.935100  0.174400  1.0  0.1096
  H  H17  1  0.935100  0.379200  0.825600  1.0  0.1099
  H  H18  1  0.435100  0.879200  0.325600  1.0  0.1099
  H  H19  1  0.564900  0.120800  0.325600  1.0  0.1102
  H  H20  1  0.064900  0.620800  0.825600  1.0  0.1102
  H  H21  1  0.879200  0.064900  0.575600  1.0  0.1094
  H  H22  1  0.379200  0.564900  0.075600  1.0  0.1094
  H  H23  1  0.620800  0.435100  0.075600  1.0  0.1099
  H  H24  1  0.120800  0.935100  0.575600  1.0  0.1099
  H  H25  1  0.815700  0.250000  0.625000  1.0  0.4113
  H  H26  1  0.315700  0.750000  0.125000  1.0  0.4113
  H  H27  1  0.684300  0.250000  0.125000  1.0  0.4126
  H  H28  1  0.184300  0.750000  0.625000  1.0  0.4126
  H  H29  1  0.750000  0.315700  0.875000  1.0  0.418
  H  H30  1  0.250000  0.815700  0.375000  1.0  0.418
  H  H31  1  0.750000  0.184300  0.375000  1.0  0.4167
  H  H32  1  0.250000  0.684300  0.875000  1.0  0.4167
  H  H33  1  0.500000  0.500000  0.625500  1.0  0.122
  H  H34  1  0.000000  0.000000  0.125500  1.0  0.1232
  H  H35  1  0.500000  0.000000  0.875500  1.0  0.1205
  H  H36  1  0.000000  0.500000  0.375500  1.0  0.1216
  H  H37  1  0.000000  0.500000  0.124500  1.0  0.123
  H  H38  1  0.500000  0.000000  0.624500  1.0  0.123
  H  H39  1  0.000000  0.000000  0.874500  1.0  0.1243
  H  H40  1  0.500000  0.500000  0.374500  1.0  0.123
  C  C41  1  0.584000  0.363800  0.708700  1.0  0.7519
  C  C42  1  0.537130  0.430920  0.767790  1.0  -0.0781
  C  C43  1  0.537130  0.430920  0.881750  1.0  -0.0804
  C  C44  1  0.084000  0.863800  0.208700  1.0  0.7519
  C  C45  1  0.037130  0.930920  0.267790  1.0  -0.0781
  C  C46  1  0.037130  0.930920  0.381750  1.0  -0.0804
  C  C47  1  0.916000  0.136200  0.208700  1.0  0.7507
  C  C48  1  0.962870  0.069080  0.267790  1.0  -0.0786
  C  C49  1  0.962870  0.069080  0.381750  1.0  -0.0814
  C  C50  1  0.416000  0.636200  0.708700  1.0  0.7507
  C  C51  1  0.462870  0.569080  0.767790  1.0  -0.0786
  C  C52  1  0.462870  0.569080  0.881750  1.0  -0.0814
  C  C53  1  0.636200  0.084000  0.958700  1.0  0.7477
  C  C54  1  0.569080  0.037130  0.017790  1.0  -0.0774
  C  C55  1  0.569080  0.037130  0.131750  1.0  -0.0795
  C  C56  1  0.136200  0.584000  0.458700  1.0  0.7521
  C  C57  1  0.069080  0.537130  0.517790  1.0  -0.0774
  C  C58  1  0.069080  0.537130  0.631750  1.0  -0.0795
  C  C59  1  0.863800  0.416000  0.458700  1.0  0.7504
  C  C60  1  0.930920  0.462870  0.517790  1.0  -0.0773
  C  C61  1  0.930920  0.462870  0.631750  1.0  -0.0781
  C  C62  1  0.363800  0.916000  0.958700  1.0  0.7504
  C  C63  1  0.430920  0.962870  0.017790  1.0  -0.0773
  C  C64  1  0.430920  0.962870  0.131750  1.0  -0.0781
  C  C65  1  0.916000  0.363800  0.041300  1.0  0.7511
  C  C66  1  0.962870  0.430920  0.982210  1.0  -0.0784
  C  C67  1  0.962870  0.430920  0.868250  1.0  -0.0831
  C  C68  1  0.416000  0.863800  0.541300  1.0  0.7511
  C  C69  1  0.462870  0.930920  0.482210  1.0  -0.0784
  C  C70  1  0.462870  0.930920  0.368250  1.0  -0.0831
  C  C71  1  0.584000  0.136200  0.541300  1.0  0.7519
  C  C72  1  0.537130  0.069080  0.482210  1.0  -0.0783
  C  C73  1  0.537130  0.069080  0.368250  1.0  -0.08
  C  C74  1  0.084000  0.636200  0.041300  1.0  0.7519
  C  C75  1  0.037130  0.569080  0.982210  1.0  -0.0783
  C  C76  1  0.037130  0.569080  0.868250  1.0  -0.08
  C  C77  1  0.863800  0.084000  0.791300  1.0  0.7521
  C  C78  1  0.930920  0.037130  0.732210  1.0  -0.0772
  C  C79  1  0.930920  0.037130  0.618250  1.0  -0.0809
  C  C80  1  0.363800  0.584000  0.291300  1.0  0.7521
  C  C81  1  0.430920  0.537130  0.232210  1.0  -0.0772
  C  C82  1  0.430920  0.537130  0.118250  1.0  -0.0809
  C  C83  1  0.636200  0.416000  0.291300  1.0  0.7512
  C  C84  1  0.569080  0.462870  0.232210  1.0  -0.0781
  C  C85  1  0.569080  0.462870  0.118250  1.0  -0.0796
  C  C86  1  0.136200  0.916000  0.791300  1.0  0.7512
  C  C87  1  0.069080  0.962870  0.732210  1.0  -0.0781
  C  C88  1  0.069080  0.962870  0.618250  1.0  -0.0796
  C  C89  1  0.500000  0.500000  0.710800  1.0  -0.0727
  C  C90  1  0.500000  0.500000  0.938740  1.0  0.0284
  C  C91  1  0.000000  0.000000  0.210800  1.0  -0.0727
  C  C92  1  0.000000  0.000000  0.438740  1.0  0.0284
  C  C93  1  0.500000  0.000000  0.960800  1.0  -0.0727
  C  C94  1  0.500000  0.000000  0.188740  1.0  0.0284
  C  C95  1  0.000000  0.500000  0.460800  1.0  -0.0727
  C  C96  1  0.000000  0.500000  0.688740  1.0  0.0284
  C  C97  1  0.000000  0.500000  0.039200  1.0  -0.0734
  C  C98  1  0.000000  0.500000  0.811260  1.0  0.0284
  C  C99  1  0.500000  0.000000  0.539200  1.0  -0.0734
  C  C100  1  0.500000  0.000000  0.311260  1.0  0.0284
  C  C101  1  0.000000  0.000000  0.789200  1.0  -0.0734
  C  C102  1  0.000000  0.000000  0.561260  1.0  0.0284
  C  C103  1  0.500000  0.500000  0.289200  1.0  -0.0734
  C  C104  1  0.500000  0.500000  0.061260  1.0  0.0284
  O  O105  1  0.611900  0.381200  0.616500  1.0  -0.6236
  O  O106  1  0.593800  0.292400  0.753400  1.0  -0.6545
  O  O107  1  0.111900  0.881200  0.116500  1.0  -0.6236
  O  O108  1  0.093800  0.792400  0.253400  1.0  -0.6545
  O  O109  1  0.888100  0.118800  0.116500  1.0  -0.6218
  O  O110  1  0.906200  0.207600  0.253400  1.0  -0.6536
  O  O111  1  0.388100  0.618800  0.616500  1.0  -0.6218
  O  O112  1  0.406200  0.707600  0.753400  1.0  -0.6536
  O  O113  1  0.618800  0.111900  0.866500  1.0  -0.6217
  O  O114  1  0.707600  0.093800  0.003400  1.0  -0.6506
  O  O115  1  0.118800  0.611900  0.366500  1.0  -0.6215
  O  O116  1  0.207600  0.593800  0.503400  1.0  -0.6506
  O  O117  1  0.881200  0.388100  0.366500  1.0  -0.6216
  O  O118  1  0.792400  0.406200  0.503400  1.0  -0.6505
  O  O119  1  0.381200  0.888100  0.866500  1.0  -0.6216
  O  O120  1  0.292400  0.906200  0.003400  1.0  -0.6505
  O  O121  1  0.888100  0.381200  0.133500  1.0  -0.6234
  O  O122  1  0.906200  0.292400  0.996600  1.0  -0.6551
  O  O123  1  0.388100  0.881200  0.633500  1.0  -0.6236
  O  O124  1  0.406200  0.792400  0.496600  1.0  -0.6551
  O  O125  1  0.611900  0.118800  0.633500  1.0  -0.6234
  O  O126  1  0.593800  0.207600  0.496600  1.0  -0.6569
  O  O127  1  0.111900  0.618800  0.133500  1.0  -0.6239
  O  O128  1  0.093800  0.707600  0.996600  1.0  -0.6569
  O  O129  1  0.881200  0.111900  0.883500  1.0  -0.6217
  O  O130  1  0.792400  0.093800  0.746600  1.0  -0.6509
  O  O131  1  0.381200  0.611900  0.383500  1.0  -0.6217
  O  O132  1  0.292400  0.593800  0.246600  1.0  -0.6509
  O  O133  1  0.618800  0.388100  0.383500  1.0  -0.6223
  O  O134  1  0.707600  0.406200  0.246600  1.0  -0.6524
  O  O135  1  0.118800  0.888100  0.883500  1.0  -0.6223
  O  O136  1  0.207600  0.906200  0.746600  1.0  -0.6524
  O  O137  1  0.757600  0.250000  0.625000  1.0  -1.0333
  O  O138  1  0.257600  0.750000  0.125000  1.0  -1.0333
  O  O139  1  0.742400  0.250000  0.125000  1.0  -1.0319
  O  O140  1  0.242400  0.750000  0.625000  1.0  -1.0319
  O  O141  1  0.750000  0.257600  0.875000  1.0  -1.0331
  O  O142  1  0.250000  0.757600  0.375000  1.0  -1.0331
  O  O143  1  0.750000  0.242400  0.375000  1.0  -1.0336
  O  O144  1  0.250000  0.742400  0.875000  1.0  -1.0336
