# generated using pymatgen
data_InH4C8O5
_symmetry_space_group_name_H-M   'P 1'
_cell_length_a   15.50190000
_cell_length_b   15.50190000
_cell_length_c   12.30600000
_cell_angle_alpha   90.00000000
_cell_angle_beta   90.00000000
_cell_angle_gamma   90.00000000
_symmetry_Int_Tables_number   1
_chemical_formula_structural   InH4C8O5
_chemical_formula_sum   'In8 H32 C64 O40'
_cell_volume   2957.24136782
_cell_formula_units_Z   8
loop_
 _symmetry_equiv_pos_site_id
 _symmetry_equiv_pos_as_xyz
  1  'x, y, z'
loop_
 _atom_site_type_symbol
 _atom_site_label
 _atom_site_symmetry_multiplicity
 _atom_site_fract_x
 _atom_site_fract_y
 _atom_site_fract_z
 _atom_site_occupancy
 _atom_site_charge
  In  In1  1  0.671900  0.328100  0.500000  1.0  1.6285
  In  In2  1  0.171900  0.828100  0.000000  1.0  1.6285
  In  In3  1  0.828100  0.171900  0.000000  1.0  1.6292
  In  In4  1  0.328100  0.671900  0.500000  1.0  1.6292
  In  In5  1  0.671900  0.171900  0.750000  1.0  1.6282
  In  In6  1  0.171900  0.671900  0.250000  1.0  1.6282
  In  In7  1  0.828100  0.328100  0.250000  1.0  1.6297
  In  In8  1  0.328100  0.828100  0.750000  1.0  1.6297
  H  H9  1  0.568400  0.381700  0.925400  1.0  0.1229
  H  H10  1  0.068400  0.881700  0.425400  1.0  0.1229
  H  H11  1  0.931600  0.118300  0.425400  1.0  0.1229
  H  H12  1  0.431600  0.618300  0.925400  1.0  0.1229
  H  H13  1  0.618300  0.068400  0.175400  1.0  0.1223
  H  H14  1  0.118300  0.568400  0.675400  1.0  0.1223
  H  H15  1  0.881700  0.431600  0.675400  1.0  0.1219
  H  H16  1  0.381700  0.931600  0.175400  1.0  0.1219
  H  H17  1  0.931600  0.381700  0.824600  1.0  0.1225
  H  H18  1  0.431600  0.881700  0.324600  1.0  0.1225
  H  H19  1  0.568400  0.118300  0.324600  1.0  0.122
  H  H20  1  0.068400  0.618300  0.824600  1.0  0.122
  H  H21  1  0.881700  0.068400  0.574600  1.0  0.1214
  H  H22  1  0.381700  0.568400  0.074600  1.0  0.1214
  H  H23  1  0.618300  0.431600  0.074600  1.0  0.1216
  H  H24  1  0.118300  0.931600  0.574600  1.0  0.1216
  H  H25  1  0.815500  0.250000  0.625000  1.0  0.3916
  H  H26  1  0.315500  0.750000  0.125000  1.0  0.3916
  H  H27  1  0.684500  0.250000  0.125000  1.0  0.3942
  H  H28  1  0.184500  0.750000  0.625000  1.0  0.3942
  H  H29  1  0.750000  0.315500  0.875000  1.0  0.3974
  H  H30  1  0.250000  0.815500  0.375000  1.0  0.3974
  H  H31  1  0.750000  0.184500  0.375000  1.0  0.3971
  H  H32  1  0.250000  0.684500  0.875000  1.0  0.3971
  H  H33  1  0.500000  0.500000  0.627300  1.0  0.1266
  H  H34  1  0.000000  0.000000  0.127300  1.0  0.1266
  H  H35  1  0.500000  0.000000  0.877300  1.0  0.1266
  H  H36  1  0.000000  0.500000  0.377300  1.0  0.1266
  H  H37  1  0.000000  0.500000  0.122700  1.0  0.1257
  H  H38  1  0.500000  0.000000  0.622700  1.0  0.1257
  H  H39  1  0.000000  0.000000  0.872700  1.0  0.1257
  H  H40  1  0.500000  0.500000  0.372700  1.0  0.1257
  C  C41  1  0.582900  0.364300  0.710400  1.0  0.742
  C  C42  1  0.539100  0.432480  0.769300  1.0  -0.0562
  C  C43  1  0.539100  0.432480  0.882800  1.0  -0.0892
  C  C44  1  0.082900  0.864300  0.210400  1.0  0.742
  C  C45  1  0.039100  0.932480  0.269300  1.0  -0.0562
  C  C46  1  0.039100  0.932480  0.382800  1.0  -0.0879
  C  C47  1  0.917100  0.135700  0.210400  1.0  0.7436
  C  C48  1  0.960900  0.067520  0.269300  1.0  -0.056
  C  C49  1  0.960900  0.067520  0.382800  1.0  -0.0897
  C  C50  1  0.417100  0.635700  0.710400  1.0  0.7436
  C  C51  1  0.460900  0.567520  0.769300  1.0  -0.056
  C  C52  1  0.460900  0.567520  0.882800  1.0  -0.0906
  C  C53  1  0.635700  0.082900  0.960400  1.0  0.7427
  C  C54  1  0.567520  0.039100  0.019300  1.0  -0.0562
  C  C55  1  0.567520  0.039100  0.132800  1.0  -0.0906
  C  C56  1  0.135700  0.582900  0.460400  1.0  0.7427
  C  C57  1  0.067520  0.539100  0.519300  1.0  -0.0562
  C  C58  1  0.067520  0.539100  0.632800  1.0  -0.0906
  C  C59  1  0.864300  0.417100  0.460400  1.0  0.743
  C  C60  1  0.932480  0.460900  0.519300  1.0  -0.0566
  C  C61  1  0.932480  0.460900  0.632800  1.0  -0.09
  C  C62  1  0.364300  0.917100  0.960400  1.0  0.743
  C  C63  1  0.432480  0.960900  0.019300  1.0  -0.0566
  C  C64  1  0.432480  0.960900  0.132800  1.0  -0.0895
  C  C65  1  0.917100  0.364300  0.039600  1.0  0.743
  C  C66  1  0.960900  0.432480  0.980700  1.0  -0.0561
  C  C67  1  0.960900  0.432480  0.867200  1.0  -0.0903
  C  C68  1  0.417100  0.864300  0.539600  1.0  0.743
  C  C69  1  0.460900  0.932480  0.480700  1.0  -0.0561
  C  C70  1  0.460900  0.932480  0.367200  1.0  -0.091
  C  C71  1  0.582900  0.135700  0.539600  1.0  0.7424
  C  C72  1  0.539100  0.067520  0.480700  1.0  -0.0567
  C  C73  1  0.539100  0.067520  0.367200  1.0  -0.0889
  C  C74  1  0.082900  0.635700  0.039600  1.0  0.7424
  C  C75  1  0.039100  0.567520  0.980700  1.0  -0.0567
  C  C76  1  0.039100  0.567520  0.867200  1.0  -0.089
  C  C77  1  0.864300  0.082900  0.789600  1.0  0.7428
  C  C78  1  0.932480  0.039100  0.730700  1.0  -0.0566
  C  C79  1  0.932480  0.039100  0.617200  1.0  -0.0895
  C  C80  1  0.364300  0.582900  0.289600  1.0  0.7428
  C  C81  1  0.432480  0.539100  0.230700  1.0  -0.0566
  C  C82  1  0.432480  0.539100  0.117200  1.0  -0.0905
  C  C83  1  0.635700  0.417100  0.289600  1.0  0.7419
  C  C84  1  0.567520  0.460900  0.230700  1.0  -0.057
  C  C85  1  0.567520  0.460900  0.117200  1.0  -0.0906
  C  C86  1  0.135700  0.917100  0.789600  1.0  0.7419
  C  C87  1  0.067520  0.960900  0.730700  1.0  -0.057
  C  C88  1  0.067520  0.960900  0.617200  1.0  -0.0895
  C  C89  1  0.500000  0.500000  0.712600  1.0  -0.0441
  C  C90  1  0.500000  0.500000  0.939500  1.0  0.0336
  C  C91  1  0.000000  0.000000  0.212600  1.0  -0.0441
  C  C92  1  0.000000  0.000000  0.439500  1.0  0.0336
  C  C93  1  0.500000  0.000000  0.962600  1.0  -0.0441
  C  C94  1  0.500000  0.000000  0.189500  1.0  0.0336
  C  C95  1  0.000000  0.500000  0.462600  1.0  -0.0441
  C  C96  1  0.000000  0.500000  0.689500  1.0  0.0336
  C  C97  1  0.000000  0.500000  0.037400  1.0  -0.0452
  C  C98  1  0.000000  0.500000  0.810500  1.0  0.0332
  C  C99  1  0.500000  0.000000  0.537400  1.0  -0.0452
  C  C100  1  0.500000  0.000000  0.310500  1.0  0.0332
  C  C101  1  0.000000  0.000000  0.787400  1.0  -0.0452
  C  C102  1  0.000000  0.000000  0.560500  1.0  0.0332
  C  C103  1  0.500000  0.500000  0.287400  1.0  -0.0452
  C  C104  1  0.500000  0.500000  0.060500  1.0  0.0332
  O  O105  1  0.613500  0.381700  0.618200  1.0  -0.6151
  O  O106  1  0.588100  0.291200  0.754500  1.0  -0.6846
  O  O107  1  0.113500  0.881700  0.118200  1.0  -0.6151
  O  O108  1  0.088100  0.791200  0.254500  1.0  -0.6846
  O  O109  1  0.886500  0.118300  0.118200  1.0  -0.6126
  O  O110  1  0.911900  0.208800  0.254500  1.0  -0.6847
  O  O111  1  0.386500  0.618300  0.618200  1.0  -0.6126
  O  O112  1  0.411900  0.708800  0.754500  1.0  -0.6847
  O  O113  1  0.618300  0.113500  0.868200  1.0  -0.6122
  O  O114  1  0.708800  0.088100  0.004500  1.0  -0.6804
  O  O115  1  0.118300  0.613500  0.368200  1.0  -0.6122
  O  O116  1  0.208800  0.588100  0.504500  1.0  -0.6804
  O  O117  1  0.881700  0.386500  0.368200  1.0  -0.6112
  O  O118  1  0.791200  0.411900  0.504500  1.0  -0.6805
  O  O119  1  0.381700  0.886500  0.868200  1.0  -0.6112
  O  O120  1  0.291200  0.911900  0.004500  1.0  -0.6805
  O  O121  1  0.886500  0.381700  0.131800  1.0  -0.613
  O  O122  1  0.911900  0.291200  0.995500  1.0  -0.6844
  O  O123  1  0.386500  0.881700  0.631800  1.0  -0.613
  O  O124  1  0.411900  0.791200  0.495500  1.0  -0.6844
  O  O125  1  0.613500  0.118300  0.631800  1.0  -0.6132
  O  O126  1  0.588100  0.208800  0.495500  1.0  -0.6857
  O  O127  1  0.113500  0.618300  0.131800  1.0  -0.6132
  O  O128  1  0.088100  0.708800  0.995500  1.0  -0.6857
  O  O129  1  0.881700  0.113500  0.881800  1.0  -0.6104
  O  O130  1  0.791200  0.088100  0.745500  1.0  -0.6801
  O  O131  1  0.381700  0.613500  0.381800  1.0  -0.6104
  O  O132  1  0.291200  0.588100  0.245500  1.0  -0.6801
  O  O133  1  0.618300  0.386500  0.381800  1.0  -0.612
  O  O134  1  0.708800  0.411900  0.245500  1.0  -0.6809
  O  O135  1  0.118300  0.886500  0.881800  1.0  -0.612
  O  O136  1  0.208800  0.911900  0.745500  1.0  -0.6809
  O  O137  1  0.757500  0.250000  0.625000  1.0  -0.9856
  O  O138  1  0.257500  0.750000  0.125000  1.0  -0.9856
  O  O139  1  0.742500  0.250000  0.125000  1.0  -0.9863
  O  O140  1  0.242500  0.750000  0.625000  1.0  -0.9863
  O  O141  1  0.750000  0.257500  0.875000  1.0  -0.9856
  O  O142  1  0.250000  0.757500  0.375000  1.0  -0.9856
  O  O143  1  0.750000  0.242500  0.375000  1.0  -0.9862
  O  O144  1  0.250000  0.742500  0.875000  1.0  -0.9862
