# generated using pymatgen
data_InH4C8O5
_symmetry_space_group_name_H-M   'P 1'
_cell_length_a   15.49230000
_cell_length_b   15.49230000
_cell_length_c   12.31050000
_cell_angle_alpha   90.00000000
_cell_angle_beta   90.00000000
_cell_angle_gamma   90.00000000
_symmetry_Int_Tables_number   1
_chemical_formula_structural   InH4C8O5
_chemical_formula_sum   'In8 H32 C64 O40'
_cell_volume   2954.65983854
_cell_formula_units_Z   8
loop_
 _symmetry_equiv_pos_site_id
 _symmetry_equiv_pos_as_xyz
  1  'x, y, z'
loop_
 _atom_site_type_symbol
 _atom_site_label
 _atom_site_symmetry_multiplicity
 _atom_site_fract_x
 _atom_site_fract_y
 _atom_site_fract_z
 _atom_site_occupancy
 _atom_site_charge
  In  In1  1  0.684000  0.316000  0.500000  1.0  1.6925
  In  In2  1  0.184000  0.816000  0.000000  1.0  1.6925
  In  In3  1  0.816000  0.184000  0.000000  1.0  1.689
  In  In4  1  0.316000  0.684000  0.500000  1.0  1.689
  In  In5  1  0.684000  0.184000  0.750000  1.0  1.6921
  In  In6  1  0.184000  0.684000  0.250000  1.0  1.6921
  In  In7  1  0.816000  0.316000  0.250000  1.0  1.69
  In  In8  1  0.316000  0.816000  0.750000  1.0  1.69
  H  H9  1  0.565500  0.379700  0.924100  1.0  0.1128
  H  H10  1  0.065500  0.879700  0.424100  1.0  0.1128
  H  H11  1  0.934500  0.120300  0.424100  1.0  0.1126
  H  H12  1  0.434500  0.620300  0.924100  1.0  0.1126
  H  H13  1  0.620300  0.065500  0.174100  1.0  0.1121
  H  H14  1  0.120300  0.565500  0.674100  1.0  0.1121
  H  H15  1  0.879700  0.434500  0.674100  1.0  0.1117
  H  H16  1  0.379700  0.934500  0.174100  1.0  0.1117
  H  H17  1  0.934500  0.379700  0.825900  1.0  0.1133
  H  H18  1  0.434500  0.879700  0.325900  1.0  0.1133
  H  H19  1  0.565500  0.120300  0.325900  1.0  0.1126
  H  H20  1  0.065500  0.620300  0.825900  1.0  0.1126
  H  H21  1  0.879700  0.065500  0.575900  1.0  0.1119
  H  H22  1  0.379700  0.565500  0.075900  1.0  0.1119
  H  H23  1  0.620300  0.434500  0.075900  1.0  0.1124
  H  H24  1  0.120300  0.934500  0.575900  1.0  0.1124
  H  H25  1  0.818500  0.250000  0.625000  1.0  0.4215
  H  H26  1  0.318500  0.750000  0.125000  1.0  0.4215
  H  H27  1  0.681500  0.250000  0.125000  1.0  0.4229
  H  H28  1  0.181500  0.750000  0.625000  1.0  0.4229
  H  H29  1  0.750000  0.318500  0.875000  1.0  0.4273
  H  H30  1  0.250000  0.818500  0.375000  1.0  0.4273
  H  H31  1  0.750000  0.181500  0.375000  1.0  0.4263
  H  H32  1  0.250000  0.681500  0.875000  1.0  0.4263
  H  H33  1  0.500000  0.500000  0.625400  1.0  0.1277
  H  H34  1  0.000000  0.000000  0.125400  1.0  0.1283
  H  H35  1  0.500000  0.000000  0.875400  1.0  0.1277
  H  H36  1  0.000000  0.500000  0.375400  1.0  0.1277
  H  H37  1  0.000000  0.500000  0.124600  1.0  0.1281
  H  H38  1  0.500000  0.000000  0.624600  1.0  0.1281
  H  H39  1  0.000000  0.000000  0.874600  1.0  0.1288
  H  H40  1  0.500000  0.500000  0.374600  1.0  0.1281
  C  C41  1  0.583600  0.364400  0.709000  1.0  0.7287
  C  C42  1  0.537470  0.431220  0.767600  1.0  -0.0824
  C  C43  1  0.537470  0.431220  0.881420  1.0  -0.0813
  C  C44  1  0.083600  0.864400  0.209000  1.0  0.7287
  C  C45  1  0.037470  0.931220  0.267600  1.0  -0.0824
  C  C46  1  0.037470  0.931220  0.381420  1.0  -0.0813
  C  C47  1  0.916400  0.135600  0.209000  1.0  0.7297
  C  C48  1  0.962530  0.068780  0.267600  1.0  -0.0827
  C  C49  1  0.962530  0.068780  0.381420  1.0  -0.0815
  C  C50  1  0.416400  0.635600  0.709000  1.0  0.7297
  C  C51  1  0.462530  0.568780  0.767600  1.0  -0.0827
  C  C52  1  0.462530  0.568780  0.881420  1.0  -0.0815
  C  C53  1  0.635600  0.083600  0.959000  1.0  0.729
  C  C54  1  0.568780  0.037470  0.017600  1.0  -0.0816
  C  C55  1  0.568780  0.037470  0.131420  1.0  -0.0807
  C  C56  1  0.135600  0.583600  0.459000  1.0  0.729
  C  C57  1  0.068780  0.537470  0.517600  1.0  -0.0816
  C  C58  1  0.068780  0.537470  0.631420  1.0  -0.0807
  C  C59  1  0.864400  0.416400  0.459000  1.0  0.73
  C  C60  1  0.931220  0.462530  0.517600  1.0  -0.0818
  C  C61  1  0.931220  0.462530  0.631420  1.0  -0.0812
  C  C62  1  0.364400  0.916400  0.959000  1.0  0.73
  C  C63  1  0.431220  0.962530  0.017600  1.0  -0.0818
  C  C64  1  0.431220  0.962530  0.131420  1.0  -0.0812
  C  C65  1  0.916400  0.364400  0.041000  1.0  0.7297
  C  C66  1  0.962530  0.431220  0.982400  1.0  -0.0824
  C  C67  1  0.962530  0.431220  0.868580  1.0  -0.0822
  C  C68  1  0.416400  0.864400  0.541000  1.0  0.7297
  C  C69  1  0.462530  0.931220  0.482400  1.0  -0.0824
  C  C70  1  0.462530  0.931220  0.368580  1.0  -0.0822
  C  C71  1  0.583600  0.135600  0.541000  1.0  0.7287
  C  C72  1  0.537470  0.068780  0.482400  1.0  -0.0824
  C  C73  1  0.537470  0.068780  0.368580  1.0  -0.0819
  C  C74  1  0.083600  0.635600  0.041000  1.0  0.7287
  C  C75  1  0.037470  0.568780  0.982400  1.0  -0.0824
  C  C76  1  0.037470  0.568780  0.868580  1.0  -0.081
  C  C77  1  0.864400  0.083600  0.791000  1.0  0.7295
  C  C78  1  0.931220  0.037470  0.732400  1.0  -0.0815
  C  C79  1  0.931220  0.037470  0.618580  1.0  -0.0806
  C  C80  1  0.364400  0.583600  0.291000  1.0  0.7295
  C  C81  1  0.431220  0.537470  0.232400  1.0  -0.0815
  C  C82  1  0.431220  0.537470  0.118580  1.0  -0.0806
  C  C83  1  0.635600  0.416400  0.291000  1.0  0.7286
  C  C84  1  0.568780  0.462530  0.232400  1.0  -0.0822
  C  C85  1  0.568780  0.462530  0.118580  1.0  -0.081
  C  C86  1  0.135600  0.916400  0.791000  1.0  0.7286
  C  C87  1  0.068780  0.962530  0.732400  1.0  -0.0822
  C  C88  1  0.068780  0.962530  0.618580  1.0  -0.081
  C  C89  1  0.500000  0.500000  0.710700  1.0  -0.0626
  C  C90  1  0.500000  0.500000  0.938330  1.0  0.0388
  C  C91  1  0.000000  0.000000  0.210700  1.0  -0.0626
  C  C92  1  0.000000  0.000000  0.438330  1.0  0.0388
  C  C93  1  0.500000  0.000000  0.960700  1.0  -0.0626
  C  C94  1  0.500000  0.000000  0.188330  1.0  0.0388
  C  C95  1  0.000000  0.500000  0.460700  1.0  -0.0626
  C  C96  1  0.000000  0.500000  0.688330  1.0  0.0388
  C  C97  1  0.000000  0.500000  0.039300  1.0  -0.063
  C  C98  1  0.000000  0.500000  0.811670  1.0  0.0391
  C  C99  1  0.500000  0.000000  0.539300  1.0  -0.063
  C  C100  1  0.500000  0.000000  0.311670  1.0  0.0391
  C  C101  1  0.000000  0.000000  0.789300  1.0  -0.063
  C  C102  1  0.000000  0.000000  0.561670  1.0  0.0391
  C  C103  1  0.500000  0.500000  0.289300  1.0  -0.063
  C  C104  1  0.500000  0.500000  0.061670  1.0  0.0391
  O  O105  1  0.612500  0.382200  0.615800  1.0  -0.6219
  O  O106  1  0.592600  0.291800  0.754000  1.0  -0.6646
  O  O107  1  0.112500  0.882200  0.115800  1.0  -0.6219
  O  O108  1  0.092600  0.791800  0.254000  1.0  -0.6646
  O  O109  1  0.887500  0.117800  0.115800  1.0  -0.62
  O  O110  1  0.907400  0.208200  0.254000  1.0  -0.6654
  O  O111  1  0.387500  0.617800  0.615800  1.0  -0.62
  O  O112  1  0.407400  0.708200  0.754000  1.0  -0.6654
  O  O113  1  0.617800  0.112500  0.865800  1.0  -0.6196
  O  O114  1  0.708200  0.092600  0.004000  1.0  -0.6626
  O  O115  1  0.117800  0.612500  0.365800  1.0  -0.6196
  O  O116  1  0.208200  0.592600  0.504000  1.0  -0.6626
  O  O117  1  0.882200  0.387500  0.365800  1.0  -0.6191
  O  O118  1  0.791800  0.407400  0.504000  1.0  -0.6623
  O  O119  1  0.382200  0.887500  0.865800  1.0  -0.6191
  O  O120  1  0.291800  0.907400  0.004000  1.0  -0.6623
  O  O121  1  0.887500  0.382200  0.134200  1.0  -0.6206
  O  O122  1  0.907400  0.291800  0.996000  1.0  -0.6655
  O  O123  1  0.387500  0.882200  0.634200  1.0  -0.6206
  O  O124  1  0.407400  0.791800  0.496000  1.0  -0.6655
  O  O125  1  0.612500  0.117800  0.634200  1.0  -0.6214
  O  O126  1  0.592600  0.208200  0.496000  1.0  -0.6674
  O  O127  1  0.112500  0.617800  0.134200  1.0  -0.6214
  O  O128  1  0.092600  0.708200  0.996000  1.0  -0.6674
  O  O129  1  0.882200  0.112500  0.884200  1.0  -0.6187
  O  O130  1  0.791800  0.092600  0.746000  1.0  -0.663
  O  O131  1  0.382200  0.612500  0.384200  1.0  -0.6187
  O  O132  1  0.291800  0.592600  0.246000  1.0  -0.663
  O  O133  1  0.617800  0.387500  0.384200  1.0  -0.6199
  O  O134  1  0.708200  0.407400  0.246000  1.0  -0.6641
  O  O135  1  0.117800  0.887500  0.884200  1.0  -0.6199
  O  O136  1  0.208200  0.907400  0.746000  1.0  -0.6641
  O  O137  1  0.760400  0.250000  0.625000  1.0  -1.0071
  O  O138  1  0.260400  0.750000  0.125000  1.0  -1.0071
  O  O139  1  0.739600  0.250000  0.125000  1.0  -1.0067
  O  O140  1  0.239600  0.750000  0.625000  1.0  -1.0067
  O  O141  1  0.750000  0.260400  0.875000  1.0  -1.0068
  O  O142  1  0.250000  0.760400  0.375000  1.0  -1.0068
  O  O143  1  0.750000  0.239600  0.375000  1.0  -1.0085
  O  O144  1  0.250000  0.739600  0.875000  1.0  -1.0085
