# generated using pymatgen
data_InH4C8O5
_symmetry_space_group_name_H-M   'P 1'
_cell_length_a   15.49790000
_cell_length_b   15.49790000
_cell_length_c   12.30520000
_cell_angle_alpha   90.00000000
_cell_angle_beta   90.00000000
_cell_angle_gamma   90.00000000
_symmetry_Int_Tables_number   1
_chemical_formula_structural   InH4C8O5
_chemical_formula_sum   'In8 H32 C64 O40'
_cell_volume   2955.52328575
_cell_formula_units_Z   8
loop_
 _symmetry_equiv_pos_site_id
 _symmetry_equiv_pos_as_xyz
  1  'x, y, z'
loop_
 _atom_site_type_symbol
 _atom_site_label
 _atom_site_symmetry_multiplicity
 _atom_site_fract_x
 _atom_site_fract_y
 _atom_site_fract_z
 _atom_site_occupancy
 _atom_site_charge
  In  In1  1  0.680500  0.319500  0.500000  1.0  1.63
  In  In2  1  0.180500  0.819500  0.000000  1.0  1.63
  In  In3  1  0.819500  0.180500  0.000000  1.0  1.6261
  In  In4  1  0.319500  0.680500  0.500000  1.0  1.6261
  In  In5  1  0.680500  0.180500  0.750000  1.0  1.6294
  In  In6  1  0.180500  0.680500  0.250000  1.0  1.6294
  In  In7  1  0.819500  0.319500  0.250000  1.0  1.6265
  In  In8  1  0.319500  0.819500  0.750000  1.0  1.6265
  H  H9  1  0.568100  0.383300  0.924600  1.0  0.1106
  H  H10  1  0.068100  0.883300  0.424600  1.0  0.1106
  H  H11  1  0.931900  0.116700  0.424600  1.0  0.1108
  H  H12  1  0.431900  0.616700  0.924600  1.0  0.1108
  H  H13  1  0.616700  0.068100  0.174600  1.0  0.1103
  H  H14  1  0.116700  0.568100  0.674600  1.0  0.1103
  H  H15  1  0.883300  0.431900  0.674600  1.0  0.1103
  H  H16  1  0.383300  0.931900  0.174600  1.0  0.1103
  H  H17  1  0.931900  0.383300  0.825400  1.0  0.1108
  H  H18  1  0.431900  0.883300  0.325400  1.0  0.1108
  H  H19  1  0.568100  0.116700  0.325400  1.0  0.1106
  H  H20  1  0.068100  0.616700  0.825400  1.0  0.1106
  H  H21  1  0.883300  0.068100  0.575400  1.0  0.1106
  H  H22  1  0.383300  0.568100  0.075400  1.0  0.1106
  H  H23  1  0.616700  0.431900  0.075400  1.0  0.11
  H  H24  1  0.116700  0.931900  0.575400  1.0  0.11
  H  H25  1  0.813800  0.250000  0.625000  1.0  0.4082
  H  H26  1  0.313800  0.750000  0.125000  1.0  0.4082
  H  H27  1  0.686200  0.250000  0.125000  1.0  0.4103
  H  H28  1  0.186200  0.750000  0.625000  1.0  0.4103
  H  H29  1  0.750000  0.313800  0.875000  1.0  0.4141
  H  H30  1  0.250000  0.813800  0.375000  1.0  0.4141
  H  H31  1  0.750000  0.186200  0.375000  1.0  0.4136
  H  H32  1  0.250000  0.686200  0.875000  1.0  0.4136
  H  H33  1  0.500000  0.500000  0.629900  1.0  0.1233
  H  H34  1  0.000000  0.000000  0.129900  1.0  0.1222
  H  H35  1  0.500000  0.000000  0.879900  1.0  0.1233
  H  H36  1  0.000000  0.500000  0.379900  1.0  0.1233
  H  H37  1  0.000000  0.500000  0.120100  1.0  0.1209
  H  H38  1  0.500000  0.000000  0.620100  1.0  0.1209
  H  H39  1  0.000000  0.000000  0.870100  1.0  0.1203
  H  H40  1  0.500000  0.500000  0.370100  1.0  0.1209
  C  C41  1  0.582800  0.362600  0.709800  1.0  0.7692
  C  C42  1  0.540000  0.431490  0.768700  1.0  -0.0896
  C  C43  1  0.540000  0.431490  0.884100  1.0  -0.0605
  C  C44  1  0.082800  0.862600  0.209800  1.0  0.7692
  C  C45  1  0.040000  0.931490  0.268700  1.0  -0.0896
  C  C46  1  0.040000  0.931490  0.384100  1.0  -0.0605
  C  C47  1  0.917200  0.137400  0.209800  1.0  0.7704
  C  C48  1  0.960000  0.068510  0.268700  1.0  -0.089
  C  C49  1  0.960000  0.068510  0.384100  1.0  -0.0622
  C  C50  1  0.417200  0.637400  0.709800  1.0  0.7704
  C  C51  1  0.460000  0.568510  0.768700  1.0  -0.089
  C  C52  1  0.460000  0.568510  0.884100  1.0  -0.0622
  C  C53  1  0.637400  0.082800  0.959800  1.0  0.7699
  C  C54  1  0.568510  0.040000  0.018700  1.0  -0.0898
  C  C55  1  0.568510  0.040000  0.134100  1.0  -0.0626
  C  C56  1  0.137400  0.582800  0.459800  1.0  0.7699
  C  C57  1  0.068510  0.540000  0.518700  1.0  -0.0898
  C  C58  1  0.068510  0.540000  0.634100  1.0  -0.0626
  C  C59  1  0.862600  0.417200  0.459800  1.0  0.7694
  C  C60  1  0.931490  0.460000  0.518700  1.0  -0.0892
  C  C61  1  0.931490  0.460000  0.634100  1.0  -0.0635
  C  C62  1  0.362600  0.917200  0.959800  1.0  0.7694
  C  C63  1  0.431490  0.960000  0.018700  1.0  -0.0892
  C  C64  1  0.431490  0.960000  0.134100  1.0  -0.0635
  C  C65  1  0.917200  0.362600  0.040200  1.0  0.7704
  C  C66  1  0.960000  0.431490  0.981300  1.0  -0.0893
  C  C67  1  0.960000  0.431490  0.865900  1.0  -0.0615
  C  C68  1  0.417200  0.862600  0.540200  1.0  0.7704
  C  C69  1  0.460000  0.931490  0.481300  1.0  -0.0893
  C  C70  1  0.460000  0.931490  0.365900  1.0  -0.0615
  C  C71  1  0.582800  0.137400  0.540200  1.0  0.7694
  C  C72  1  0.540000  0.068510  0.481300  1.0  -0.0895
  C  C73  1  0.540000  0.068510  0.365900  1.0  -0.0614
  C  C74  1  0.082800  0.637400  0.040200  1.0  0.7694
  C  C75  1  0.040000  0.568510  0.981300  1.0  -0.0895
  C  C76  1  0.040000  0.568510  0.865900  1.0  -0.0611
  C  C77  1  0.862600  0.082800  0.790200  1.0  0.7694
  C  C78  1  0.931490  0.040000  0.731300  1.0  -0.0892
  C  C79  1  0.931490  0.040000  0.615900  1.0  -0.0627
  C  C80  1  0.362600  0.582800  0.290200  1.0  0.7694
  C  C81  1  0.431490  0.540000  0.231300  1.0  -0.0892
  C  C82  1  0.431490  0.540000  0.115900  1.0  -0.0627
  C  C83  1  0.637400  0.417200  0.290200  1.0  0.7692
  C  C84  1  0.568510  0.460000  0.231300  1.0  -0.09
  C  C85  1  0.568510  0.460000  0.115900  1.0  -0.0635
  C  C86  1  0.137400  0.917200  0.790200  1.0  0.7692
  C  C87  1  0.068510  0.960000  0.731300  1.0  -0.09
  C  C88  1  0.068510  0.960000  0.615900  1.0  -0.0635
  C  C89  1  0.500000  0.500000  0.711000  1.0  -0.0207
  C  C90  1  0.500000  0.500000  0.941800  1.0  0.0203
  C  C91  1  0.000000  0.000000  0.211000  1.0  -0.0207
  C  C92  1  0.000000  0.000000  0.441800  1.0  0.0203
  C  C93  1  0.500000  0.000000  0.961000  1.0  -0.0207
  C  C94  1  0.500000  0.000000  0.191800  1.0  0.0203
  C  C95  1  0.000000  0.500000  0.461000  1.0  -0.0207
  C  C96  1  0.000000  0.500000  0.691800  1.0  0.0203
  C  C97  1  0.000000  0.500000  0.039000  1.0  -0.0207
  C  C98  1  0.000000  0.500000  0.808200  1.0  0.0203
  C  C99  1  0.500000  0.000000  0.539000  1.0  -0.0207
  C  C100  1  0.500000  0.000000  0.308200  1.0  0.0203
  C  C101  1  0.000000  0.000000  0.789000  1.0  -0.0207
  C  C102  1  0.000000  0.000000  0.558200  1.0  0.0203
  C  C103  1  0.500000  0.500000  0.289000  1.0  -0.0207
  C  C104  1  0.500000  0.500000  0.058200  1.0  0.0203
  O  O105  1  0.608200  0.377300  0.616700  1.0  -0.6421
  O  O106  1  0.591800  0.292400  0.755300  1.0  -0.658
  O  O107  1  0.108200  0.877300  0.116700  1.0  -0.6421
  O  O108  1  0.091800  0.792400  0.255300  1.0  -0.658
  O  O109  1  0.891800  0.122700  0.116700  1.0  -0.6413
  O  O110  1  0.908200  0.207600  0.255300  1.0  -0.6608
  O  O111  1  0.391800  0.622700  0.616700  1.0  -0.6413
  O  O112  1  0.408200  0.707600  0.755300  1.0  -0.6608
  O  O113  1  0.622700  0.108200  0.866700  1.0  -0.6405
  O  O114  1  0.707600  0.091800  0.005300  1.0  -0.6541
  O  O115  1  0.122700  0.608200  0.366700  1.0  -0.6405
  O  O116  1  0.207600  0.591800  0.505300  1.0  -0.6541
  O  O117  1  0.877300  0.391800  0.366700  1.0  -0.6393
  O  O118  1  0.792400  0.408200  0.505300  1.0  -0.656
  O  O119  1  0.377300  0.891800  0.866700  1.0  -0.6393
  O  O120  1  0.292400  0.908200  0.005300  1.0  -0.656
  O  O121  1  0.891800  0.377300  0.133300  1.0  -0.6412
  O  O122  1  0.908200  0.292400  0.994700  1.0  -0.6578
  O  O123  1  0.391800  0.877300  0.633300  1.0  -0.6412
  O  O124  1  0.408200  0.792400  0.494700  1.0  -0.6578
  O  O125  1  0.608200  0.122700  0.633300  1.0  -0.6429
  O  O126  1  0.591800  0.207600  0.494700  1.0  -0.6622
  O  O127  1  0.108200  0.622700  0.133300  1.0  -0.6429
  O  O128  1  0.091800  0.707600  0.994700  1.0  -0.6622
  O  O129  1  0.877300  0.108200  0.883300  1.0  -0.6393
  O  O130  1  0.792400  0.091800  0.744700  1.0  -0.6553
  O  O131  1  0.377300  0.608200  0.383300  1.0  -0.6393
  O  O132  1  0.292400  0.591800  0.244700  1.0  -0.6553
  O  O133  1  0.622700  0.391800  0.383300  1.0  -0.6407
  O  O134  1  0.707600  0.408200  0.244700  1.0  -0.6545
  O  O135  1  0.122700  0.891800  0.883300  1.0  -0.6407
  O  O136  1  0.207600  0.908200  0.744700  1.0  -0.6545
  O  O137  1  0.755700  0.250000  0.625000  1.0  -1.0212
  O  O138  1  0.255700  0.750000  0.125000  1.0  -1.0212
  O  O139  1  0.744300  0.250000  0.125000  1.0  -1.0211
  O  O140  1  0.244300  0.750000  0.625000  1.0  -1.0211
  O  O141  1  0.750000  0.255700  0.875000  1.0  -1.0215
  O  O142  1  0.250000  0.755700  0.375000  1.0  -1.0215
  O  O143  1  0.750000  0.244300  0.375000  1.0  -1.0225
  O  O144  1  0.250000  0.744300  0.875000  1.0  -1.0225
