# generated using pymatgen
data_InH4C8O5
_symmetry_space_group_name_H-M   'P 1'
_cell_length_a   15.48890000
_cell_length_b   15.48890000
_cell_length_c   12.30830000
_cell_angle_alpha   90.00000000
_cell_angle_beta   90.00000000
_cell_angle_gamma   90.00000000
_symmetry_Int_Tables_number   1
_chemical_formula_structural   InH4C8O5
_chemical_formula_sum   'In8 H32 C64 O40'
_cell_volume   2952.83530548
_cell_formula_units_Z   8
loop_
 _symmetry_equiv_pos_site_id
 _symmetry_equiv_pos_as_xyz
  1  'x, y, z'
loop_
 _atom_site_type_symbol
 _atom_site_label
 _atom_site_symmetry_multiplicity
 _atom_site_fract_x
 _atom_site_fract_y
 _atom_site_fract_z
 _atom_site_occupancy
 _atom_site_charge
  In  In1  1  0.684200  0.315800  0.500000  1.0  1.6634
  In  In2  1  0.184200  0.815800  0.000000  1.0  1.6634
  In  In3  1  0.815800  0.184200  0.000000  1.0  1.6612
  In  In4  1  0.315800  0.684200  0.500000  1.0  1.6612
  In  In5  1  0.684200  0.184200  0.750000  1.0  1.6633
  In  In6  1  0.184200  0.684200  0.250000  1.0  1.6633
  In  In7  1  0.815800  0.315800  0.250000  1.0  1.6619
  In  In8  1  0.315800  0.815800  0.750000  1.0  1.6619
  H  H9  1  0.572100  0.382800  0.924900  1.0  0.1142
  H  H10  1  0.072100  0.882800  0.424900  1.0  0.1142
  H  H11  1  0.927900  0.117200  0.424900  1.0  0.1136
  H  H12  1  0.427900  0.617200  0.924900  1.0  0.1136
  H  H13  1  0.617200  0.072100  0.174900  1.0  0.1138
  H  H14  1  0.117200  0.572100  0.674900  1.0  0.1138
  H  H15  1  0.882800  0.427900  0.674900  1.0  0.1131
  H  H16  1  0.382800  0.927900  0.174900  1.0  0.1131
  H  H17  1  0.927900  0.382800  0.825100  1.0  0.1139
  H  H18  1  0.427900  0.882800  0.325100  1.0  0.1139
  H  H19  1  0.572100  0.117200  0.325100  1.0  0.1137
  H  H20  1  0.072100  0.617200  0.825100  1.0  0.1137
  H  H21  1  0.882800  0.072100  0.575100  1.0  0.1133
  H  H22  1  0.382800  0.572100  0.075100  1.0  0.1133
  H  H23  1  0.617200  0.427900  0.075100  1.0  0.1133
  H  H24  1  0.117200  0.927900  0.575100  1.0  0.1133
  H  H25  1  0.818900  0.250000  0.625000  1.0  0.4026
  H  H26  1  0.318900  0.750000  0.125000  1.0  0.4026
  H  H27  1  0.681100  0.250000  0.125000  1.0  0.4045
  H  H28  1  0.181100  0.750000  0.625000  1.0  0.4045
  H  H29  1  0.750000  0.318900  0.875000  1.0  0.408
  H  H30  1  0.250000  0.818900  0.375000  1.0  0.408
  H  H31  1  0.750000  0.181100  0.375000  1.0  0.4073
  H  H32  1  0.250000  0.681100  0.875000  1.0  0.4073
  H  H33  1  0.500000  0.500000  0.625000  1.0  0.1201
  H  H34  1  0.000000  0.000000  0.125000  1.0  0.119
  H  H35  1  0.500000  0.000000  0.875000  1.0  0.1201
  H  H36  1  0.000000  0.500000  0.375000  1.0  0.1201
  H  H37  1  0.000000  0.500000  0.125000  1.0  0.121
  H  H38  1  0.500000  0.000000  0.625000  1.0  0.121
  H  H39  1  0.000000  0.000000  0.875000  1.0  0.1197
  H  H40  1  0.500000  0.500000  0.375000  1.0  0.121
  C  C41  1  0.584600  0.364200  0.708700  1.0  0.7449
  C  C42  1  0.541330  0.432800  0.767600  1.0  -0.0727
  C  C43  1  0.541330  0.432800  0.882300  1.0  -0.0845
  C  C44  1  0.084600  0.864200  0.208700  1.0  0.7449
  C  C45  1  0.041330  0.932800  0.267600  1.0  -0.0727
  C  C46  1  0.041330  0.932800  0.382300  1.0  -0.0845
  C  C47  1  0.915400  0.135800  0.208700  1.0  0.7453
  C  C48  1  0.958670  0.067200  0.267600  1.0  -0.0728
  C  C49  1  0.958670  0.067200  0.382300  1.0  -0.0854
  C  C50  1  0.415400  0.635800  0.708700  1.0  0.7453
  C  C51  1  0.458670  0.567200  0.767600  1.0  -0.0728
  C  C52  1  0.458670  0.567200  0.882300  1.0  -0.0854
  C  C53  1  0.635800  0.084600  0.958700  1.0  0.7444
  C  C54  1  0.567200  0.041330  0.017600  1.0  -0.0717
  C  C55  1  0.567200  0.041330  0.132300  1.0  -0.0853
  C  C56  1  0.135800  0.584600  0.458700  1.0  0.7444
  C  C57  1  0.067200  0.541330  0.517600  1.0  -0.0717
  C  C58  1  0.067200  0.541330  0.632300  1.0  -0.0853
  C  C59  1  0.864200  0.415400  0.458700  1.0  0.7456
  C  C60  1  0.932800  0.458670  0.517600  1.0  -0.0723
  C  C61  1  0.932800  0.458670  0.632300  1.0  -0.0841
  C  C62  1  0.364200  0.915400  0.958700  1.0  0.7456
  C  C63  1  0.432800  0.958670  0.017600  1.0  -0.0723
  C  C64  1  0.432800  0.958670  0.132300  1.0  -0.0841
  C  C65  1  0.915400  0.364200  0.041300  1.0  0.7452
  C  C66  1  0.958670  0.432800  0.982400  1.0  -0.073
  C  C67  1  0.958670  0.432800  0.867700  1.0  -0.0859
  C  C68  1  0.415400  0.864200  0.541300  1.0  0.7452
  C  C69  1  0.458670  0.932800  0.482400  1.0  -0.073
  C  C70  1  0.458670  0.932800  0.367700  1.0  -0.0859
  C  C71  1  0.584600  0.135800  0.541300  1.0  0.7456
  C  C72  1  0.541330  0.067200  0.482400  1.0  -0.0727
  C  C73  1  0.541330  0.067200  0.367700  1.0  -0.0836
  C  C74  1  0.084600  0.635800  0.041300  1.0  0.7456
  C  C75  1  0.041330  0.567200  0.982400  1.0  -0.0727
  C  C76  1  0.041330  0.567200  0.867700  1.0  -0.084
  C  C77  1  0.864200  0.084600  0.791300  1.0  0.7454
  C  C78  1  0.932800  0.041330  0.732400  1.0  -0.072
  C  C79  1  0.932800  0.041330  0.617700  1.0  -0.0846
  C  C80  1  0.364200  0.584600  0.291300  1.0  0.7454
  C  C81  1  0.432800  0.541330  0.232400  1.0  -0.072
  C  C82  1  0.432800  0.541330  0.117700  1.0  -0.0846
  C  C83  1  0.635800  0.415400  0.291300  1.0  0.7436
  C  C84  1  0.567200  0.458670  0.232400  1.0  -0.0724
  C  C85  1  0.567200  0.458670  0.117700  1.0  -0.0858
  C  C86  1  0.135800  0.915400  0.791300  1.0  0.7436
  C  C87  1  0.067200  0.958670  0.732400  1.0  -0.0724
  C  C88  1  0.067200  0.958670  0.617700  1.0  -0.0858
  C  C89  1  0.500000  0.500000  0.710300  1.0  -0.0479
  C  C90  1  0.500000  0.500000  0.939580  1.0  0.0174
  C  C91  1  0.000000  0.000000  0.210300  1.0  -0.0479
  C  C92  1  0.000000  0.000000  0.439580  1.0  0.0174
  C  C93  1  0.500000  0.000000  0.960300  1.0  -0.0479
  C  C94  1  0.500000  0.000000  0.189580  1.0  0.0174
  C  C95  1  0.000000  0.500000  0.460300  1.0  -0.0479
  C  C96  1  0.000000  0.500000  0.689580  1.0  0.0174
  C  C97  1  0.000000  0.500000  0.039700  1.0  -0.048
  C  C98  1  0.000000  0.500000  0.810420  1.0  0.017
  C  C99  1  0.500000  0.000000  0.539700  1.0  -0.048
  C  C100  1  0.500000  0.000000  0.310420  1.0  0.017
  C  C101  1  0.000000  0.000000  0.789700  1.0  -0.048
  C  C102  1  0.000000  0.000000  0.560420  1.0  0.017
  C  C103  1  0.500000  0.500000  0.289700  1.0  -0.048
  C  C104  1  0.500000  0.500000  0.060420  1.0  0.017
  O  O105  1  0.611800  0.379700  0.616600  1.0  -0.6304
  O  O106  1  0.592400  0.293400  0.753100  1.0  -0.6408
  O  O107  1  0.111800  0.879700  0.116600  1.0  -0.6304
  O  O108  1  0.092400  0.793400  0.253100  1.0  -0.6408
  O  O109  1  0.888200  0.120300  0.116600  1.0  -0.6289
  O  O110  1  0.907600  0.206600  0.253100  1.0  -0.641
  O  O111  1  0.388200  0.620300  0.616600  1.0  -0.6289
  O  O112  1  0.407600  0.706600  0.753100  1.0  -0.641
  O  O113  1  0.620300  0.111800  0.866600  1.0  -0.6283
  O  O114  1  0.706600  0.092400  0.003100  1.0  -0.6364
  O  O115  1  0.120300  0.611800  0.366600  1.0  -0.6283
  O  O116  1  0.206600  0.592400  0.503100  1.0  -0.6364
  O  O117  1  0.879700  0.388200  0.366600  1.0  -0.6283
  O  O118  1  0.793400  0.407600  0.503100  1.0  -0.6372
  O  O119  1  0.379700  0.888200  0.866600  1.0  -0.6283
  O  O120  1  0.293400  0.907600  0.003100  1.0  -0.6372
  O  O121  1  0.888200  0.379700  0.133400  1.0  -0.6302
  O  O122  1  0.907600  0.293400  0.996900  1.0  -0.6414
  O  O123  1  0.388200  0.879700  0.633400  1.0  -0.6302
  O  O124  1  0.407600  0.793400  0.496900  1.0  -0.6414
  O  O125  1  0.611800  0.120300  0.633400  1.0  -0.6309
  O  O126  1  0.592400  0.206600  0.496900  1.0  -0.6422
  O  O127  1  0.111800  0.620300  0.133400  1.0  -0.6309
  O  O128  1  0.092400  0.706600  0.996900  1.0  -0.6422
  O  O129  1  0.879700  0.111800  0.883400  1.0  -0.629
  O  O130  1  0.793400  0.092400  0.746900  1.0  -0.6365
  O  O131  1  0.379700  0.611800  0.383400  1.0  -0.629
  O  O132  1  0.293400  0.592400  0.246900  1.0  -0.6365
  O  O133  1  0.620300  0.388200  0.383400  1.0  -0.6293
  O  O134  1  0.706600  0.407600  0.246900  1.0  -0.6377
  O  O135  1  0.120300  0.888200  0.883400  1.0  -0.6293
  O  O136  1  0.206600  0.907600  0.746900  1.0  -0.6377
  O  O137  1  0.760800  0.250000  0.625000  1.0  -1.0223
  O  O138  1  0.260800  0.750000  0.125000  1.0  -1.0223
  O  O139  1  0.739200  0.250000  0.125000  1.0  -1.0218
  O  O140  1  0.239200  0.750000  0.625000  1.0  -1.0218
  O  O141  1  0.750000  0.260800  0.875000  1.0  -1.0227
  O  O142  1  0.250000  0.760800  0.375000  1.0  -1.0227
  O  O143  1  0.750000  0.239200  0.375000  1.0  -1.0243
  O  O144  1  0.250000  0.739200  0.875000  1.0  -1.0243
