# generated using pymatgen
data_InH4C8O5
_symmetry_space_group_name_H-M   'P 1'
_cell_length_a   15.48280000
_cell_length_b   15.48280000
_cell_length_c   12.30090000
_cell_angle_alpha   90.00000000
_cell_angle_beta   90.00000000
_cell_angle_gamma   90.00000000
_symmetry_Int_Tables_number   1
_chemical_formula_structural   InH4C8O5
_chemical_formula_sum   'In8 H32 C64 O40'
_cell_volume   2948.73602422
_cell_formula_units_Z   8
loop_
 _symmetry_equiv_pos_site_id
 _symmetry_equiv_pos_as_xyz
  1  'x, y, z'
loop_
 _atom_site_type_symbol
 _atom_site_label
 _atom_site_symmetry_multiplicity
 _atom_site_fract_x
 _atom_site_fract_y
 _atom_site_fract_z
 _atom_site_occupancy
 _atom_site_charge
  In  In1  1  0.683300  0.316700  0.500000  1.0  1.7144
  In  In2  1  0.183300  0.816700  0.000000  1.0  1.7144
  In  In3  1  0.816700  0.183300  0.000000  1.0  1.711
  In  In4  1  0.316700  0.683300  0.500000  1.0  1.711
  In  In5  1  0.683300  0.183300  0.750000  1.0  1.7141
  In  In6  1  0.183300  0.683300  0.250000  1.0  1.7141
  In  In7  1  0.816700  0.316700  0.250000  1.0  1.7116
  In  In8  1  0.316700  0.816700  0.750000  1.0  1.7116
  H  H9  1  0.571600  0.383700  0.925000  1.0  0.111
  H  H10  1  0.071600  0.883700  0.425000  1.0  0.111
  H  H11  1  0.928400  0.116300  0.425000  1.0  0.111
  H  H12  1  0.428400  0.616300  0.925000  1.0  0.111
  H  H13  1  0.616300  0.071600  0.175000  1.0  0.1114
  H  H14  1  0.116300  0.571600  0.675000  1.0  0.1114
  H  H15  1  0.883700  0.428400  0.675000  1.0  0.1107
  H  H16  1  0.383700  0.928400  0.175000  1.0  0.1107
  H  H17  1  0.928400  0.383700  0.825000  1.0  0.1114
  H  H18  1  0.428400  0.883700  0.325000  1.0  0.1114
  H  H19  1  0.571600  0.116300  0.325000  1.0  0.111
  H  H20  1  0.071600  0.616300  0.825000  1.0  0.111
  H  H21  1  0.883700  0.071600  0.575000  1.0  0.1114
  H  H22  1  0.383700  0.571600  0.075000  1.0  0.1114
  H  H23  1  0.616300  0.428400  0.075000  1.0  0.1112
  H  H24  1  0.116300  0.928400  0.575000  1.0  0.1112
  H  H25  1  0.813000  0.250000  0.625000  1.0  0.4065
  H  H26  1  0.313000  0.750000  0.125000  1.0  0.4065
  H  H27  1  0.687000  0.250000  0.125000  1.0  0.408
  H  H28  1  0.187000  0.750000  0.625000  1.0  0.408
  H  H29  1  0.750000  0.313000  0.875000  1.0  0.4127
  H  H30  1  0.250000  0.813000  0.375000  1.0  0.4127
  H  H31  1  0.750000  0.187000  0.375000  1.0  0.4123
  H  H32  1  0.250000  0.687000  0.875000  1.0  0.4123
  H  H33  1  0.500000  0.500000  0.627300  1.0  0.1242
  H  H34  1  0.000000  0.000000  0.127300  1.0  0.122
  H  H35  1  0.500000  0.000000  0.877300  1.0  0.1242
  H  H36  1  0.000000  0.500000  0.377300  1.0  0.1242
  H  H37  1  0.000000  0.500000  0.122700  1.0  0.1245
  H  H38  1  0.500000  0.000000  0.622700  1.0  0.1245
  H  H39  1  0.000000  0.000000  0.872700  1.0  0.1223
  H  H40  1  0.500000  0.500000  0.372700  1.0  0.1245
  C  C41  1  0.584800  0.363700  0.709200  1.0  0.7495
  C  C42  1  0.541610  0.432400  0.768100  1.0  -0.0739
  C  C43  1  0.541610  0.432400  0.883500  1.0  -0.0951
  C  C44  1  0.084800  0.863700  0.209200  1.0  0.7495
  C  C45  1  0.041610  0.932400  0.268100  1.0  -0.0739
  C  C46  1  0.041610  0.932400  0.383500  1.0  -0.0951
  C  C47  1  0.915200  0.136300  0.209200  1.0  0.7509
  C  C48  1  0.958390  0.067600  0.268100  1.0  -0.0736
  C  C49  1  0.958390  0.067600  0.383500  1.0  -0.0956
  C  C50  1  0.415200  0.636300  0.709200  1.0  0.7509
  C  C51  1  0.458390  0.567600  0.768100  1.0  -0.0736
  C  C52  1  0.458390  0.567600  0.883500  1.0  -0.0956
  C  C53  1  0.636300  0.084800  0.959200  1.0  0.7499
  C  C54  1  0.567600  0.041610  0.018100  1.0  -0.0735
  C  C55  1  0.567600  0.041610  0.133500  1.0  -0.0946
  C  C56  1  0.136300  0.584800  0.459200  1.0  0.7499
  C  C57  1  0.067600  0.541610  0.518100  1.0  -0.0735
  C  C58  1  0.067600  0.541610  0.633500  1.0  -0.0946
  C  C59  1  0.863700  0.415200  0.459200  1.0  0.75
  C  C60  1  0.932400  0.458390  0.518100  1.0  -0.0731
  C  C61  1  0.932400  0.458390  0.633500  1.0  -0.0958
  C  C62  1  0.363700  0.915200  0.959200  1.0  0.75
  C  C63  1  0.432400  0.958390  0.018100  1.0  -0.0731
  C  C64  1  0.432400  0.958390  0.133500  1.0  -0.0958
  C  C65  1  0.915200  0.363700  0.040800  1.0  0.7504
  C  C66  1  0.958390  0.432400  0.981900  1.0  -0.0737
  C  C67  1  0.958390  0.432400  0.866500  1.0  -0.0955
  C  C68  1  0.415200  0.863700  0.540800  1.0  0.7504
  C  C69  1  0.458390  0.932400  0.481900  1.0  -0.0737
  C  C70  1  0.458390  0.932400  0.366500  1.0  -0.0955
  C  C71  1  0.584800  0.136300  0.540800  1.0  0.7495
  C  C72  1  0.541610  0.067600  0.481900  1.0  -0.0738
  C  C73  1  0.541610  0.067600  0.366500  1.0  -0.0948
  C  C74  1  0.084800  0.636300  0.040800  1.0  0.7495
  C  C75  1  0.041610  0.567600  0.981900  1.0  -0.0738
  C  C76  1  0.041610  0.567600  0.866500  1.0  -0.0948
  C  C77  1  0.863700  0.084800  0.790800  1.0  0.75
  C  C78  1  0.932400  0.041610  0.731900  1.0  -0.073
  C  C79  1  0.932400  0.041610  0.616500  1.0  -0.095
  C  C80  1  0.363700  0.584800  0.290800  1.0  0.75
  C  C81  1  0.432400  0.541610  0.231900  1.0  -0.073
  C  C82  1  0.432400  0.541610  0.116500  1.0  -0.095
  C  C83  1  0.636300  0.415200  0.290800  1.0  0.7495
  C  C84  1  0.567600  0.458390  0.231900  1.0  -0.0739
  C  C85  1  0.567600  0.458390  0.116500  1.0  -0.0947
  C  C86  1  0.136300  0.915200  0.790800  1.0  0.7495
  C  C87  1  0.067600  0.958390  0.731900  1.0  -0.0739
  C  C88  1  0.067600  0.958390  0.616500  1.0  -0.0947
  C  C89  1  0.500000  0.500000  0.710400  1.0  -0.0584
  C  C90  1  0.500000  0.500000  0.941200  1.0  0.0317
  C  C91  1  0.000000  0.000000  0.210400  1.0  -0.0584
  C  C92  1  0.000000  0.000000  0.441200  1.0  0.0317
  C  C93  1  0.500000  0.000000  0.960400  1.0  -0.0584
  C  C94  1  0.500000  0.000000  0.191200  1.0  0.0317
  C  C95  1  0.000000  0.500000  0.460400  1.0  -0.0584
  C  C96  1  0.000000  0.500000  0.691200  1.0  0.0317
  C  C97  1  0.000000  0.500000  0.039600  1.0  -0.0576
  C  C98  1  0.000000  0.500000  0.808800  1.0  0.0319
  C  C99  1  0.500000  0.000000  0.539600  1.0  -0.0576
  C  C100  1  0.500000  0.000000  0.308800  1.0  0.0319
  C  C101  1  0.000000  0.000000  0.789600  1.0  -0.0576
  C  C102  1  0.000000  0.000000  0.558800  1.0  0.0319
  C  C103  1  0.500000  0.500000  0.289600  1.0  -0.0576
  C  C104  1  0.500000  0.500000  0.058800  1.0  0.0319
  O  O105  1  0.611500  0.379300  0.615300  1.0  -0.6232
  O  O106  1  0.593300  0.292200  0.755000  1.0  -0.6627
  O  O107  1  0.111500  0.879300  0.115300  1.0  -0.6232
  O  O108  1  0.093300  0.792200  0.255000  1.0  -0.6627
  O  O109  1  0.888500  0.120700  0.115300  1.0  -0.621
  O  O110  1  0.906700  0.207800  0.255000  1.0  -0.6626
  O  O111  1  0.388500  0.620700  0.615300  1.0  -0.621
  O  O112  1  0.406700  0.707800  0.755000  1.0  -0.6626
  O  O113  1  0.620700  0.111500  0.865300  1.0  -0.6204
  O  O114  1  0.707800  0.093300  0.005000  1.0  -0.6583
  O  O115  1  0.120700  0.611500  0.365300  1.0  -0.6204
  O  O116  1  0.207800  0.593300  0.505000  1.0  -0.6583
  O  O117  1  0.879300  0.388500  0.365300  1.0  -0.6204
  O  O118  1  0.792200  0.406700  0.505000  1.0  -0.6596
  O  O119  1  0.379300  0.888500  0.865300  1.0  -0.6204
  O  O120  1  0.292200  0.906700  0.005000  1.0  -0.6596
  O  O121  1  0.888500  0.379300  0.134700  1.0  -0.6206
  O  O122  1  0.906700  0.292200  0.995000  1.0  -0.661
  O  O123  1  0.388500  0.879300  0.634700  1.0  -0.6206
  O  O124  1  0.406700  0.792200  0.495000  1.0  -0.661
  O  O125  1  0.611500  0.120700  0.634700  1.0  -0.6222
  O  O126  1  0.593300  0.207800  0.495000  1.0  -0.6644
  O  O127  1  0.111500  0.620700  0.134700  1.0  -0.6222
  O  O128  1  0.093300  0.707800  0.995000  1.0  -0.6644
  O  O129  1  0.879300  0.111500  0.884700  1.0  -0.6194
  O  O130  1  0.792200  0.093300  0.745000  1.0  -0.6592
  O  O131  1  0.379300  0.611500  0.384700  1.0  -0.6194
  O  O132  1  0.292200  0.593300  0.245000  1.0  -0.6592
  O  O133  1  0.620700  0.388500  0.384700  1.0  -0.6205
  O  O134  1  0.707800  0.406700  0.245000  1.0  -0.6596
  O  O135  1  0.120700  0.888500  0.884700  1.0  -0.6205
  O  O136  1  0.207800  0.906700  0.745000  1.0  -0.6596
  O  O137  1  0.754900  0.250000  0.625000  1.0  -1.0412
  O  O138  1  0.254900  0.750000  0.125000  1.0  -1.0412
  O  O139  1  0.745100  0.250000  0.125000  1.0  -1.0405
  O  O140  1  0.245100  0.750000  0.625000  1.0  -1.0405
  O  O141  1  0.750000  0.254900  0.875000  1.0  -1.0413
  O  O142  1  0.250000  0.754900  0.375000  1.0  -1.0413
  O  O143  1  0.750000  0.245100  0.375000  1.0  -1.0426
  O  O144  1  0.250000  0.745100  0.875000  1.0  -1.0426
