# generated using pymatgen
data_NbNiH16C16N4(OF2)2
_symmetry_space_group_name_H-M   'P 1'
_cell_length_a   9.90300000
_cell_length_b   9.90300000
_cell_length_c   15.72000000
_cell_angle_alpha   90.00000000
_cell_angle_beta   90.00000000
_cell_angle_gamma   90.00000000
_symmetry_Int_Tables_number   1
_chemical_formula_structural   NbNiH16C16N4(OF2)2
_chemical_formula_sum   'Nb4 Ni4 H64 C64 N16 O8 F16'
_cell_volume   1541.65110948
_cell_formula_units_Z   4
loop_
 _symmetry_equiv_pos_site_id
 _symmetry_equiv_pos_as_xyz
  1  'x, y, z'
loop_
 _atom_site_type_symbol
 _atom_site_label
 _atom_site_symmetry_multiplicity
 _atom_site_fract_x
 _atom_site_fract_y
 _atom_site_fract_z
 _atom_site_occupancy
 _atom_site_charge
  Nb  Nb1  1  0.500000  0.000000  0.000000  1.0  0.8648
  Nb  Nb2  1  0.000000  0.500000  0.500000  1.0  0.8648
  Nb  Nb3  1  0.000000  0.500000  0.000000  1.0  0.8648
  Nb  Nb4  1  0.500000  0.000000  0.500000  1.0  0.8648
  Ni  Ni5  1  0.500000  0.000000  0.250000  1.0  0.6472
  Ni  Ni6  1  0.000000  0.500000  0.250000  1.0  0.6472
  Ni  Ni7  1  0.500000  0.000000  0.750000  1.0  0.6472
  Ni  Ni8  1  0.000000  0.500000  0.750000  1.0  0.6472
  H  H9  1  0.736900  0.100100  0.142600  1.0  0.1147
  H  H10  1  0.598300  0.236100  0.358300  1.0  0.1126
  H  H11  1  0.236900  0.600100  0.642600  1.0  0.1147
  H  H12  1  0.098300  0.736100  0.858300  1.0  0.1126
  H  H13  1  0.263100  0.899900  0.142600  1.0  0.1163
  H  H14  1  0.401700  0.763900  0.358300  1.0  0.1143
  H  H15  1  0.763100  0.399900  0.642600  1.0  0.1163
  H  H16  1  0.901700  0.263900  0.858300  1.0  0.1143
  H  H17  1  0.899900  0.736900  0.142600  1.0  0.1137
  H  H18  1  0.763900  0.598300  0.358300  1.0  0.1146
  H  H19  1  0.399900  0.236900  0.642600  1.0  0.1137
  H  H20  1  0.263900  0.098300  0.858300  1.0  0.1146
  H  H21  1  0.100100  0.263100  0.142600  1.0  0.1122
  H  H22  1  0.236100  0.401700  0.358300  1.0  0.1154
  H  H23  1  0.600100  0.763100  0.642600  1.0  0.1122
  H  H24  1  0.736100  0.901700  0.858300  1.0  0.1154
  H  H25  1  0.263100  0.100100  0.357400  1.0  0.1177
  H  H26  1  0.401700  0.236100  0.141700  1.0  0.113
  H  H27  1  0.763100  0.600100  0.857400  1.0  0.1177
  H  H28  1  0.901700  0.736100  0.641700  1.0  0.113
  H  H29  1  0.736900  0.899900  0.357400  1.0  0.1166
  H  H30  1  0.598300  0.763900  0.141700  1.0  0.1116
  H  H31  1  0.236900  0.399900  0.857400  1.0  0.1166
  H  H32  1  0.098300  0.263900  0.641700  1.0  0.1116
  H  H33  1  0.100100  0.736900  0.357400  1.0  0.1145
  H  H34  1  0.236100  0.598300  0.141700  1.0  0.1124
  H  H35  1  0.600100  0.236900  0.857400  1.0  0.1145
  H  H36  1  0.736100  0.098300  0.641700  1.0  0.1124
  H  H37  1  0.899900  0.263100  0.357400  1.0  0.1149
  H  H38  1  0.763900  0.401700  0.141700  1.0  0.1147
  H  H39  1  0.399900  0.763100  0.857400  1.0  0.1149
  H  H40  1  0.263900  0.901700  0.641700  1.0  0.1147
  H  H41  1  0.263100  0.899900  0.857400  1.0  0.1168
  H  H42  1  0.401700  0.763900  0.641700  1.0  0.1121
  H  H43  1  0.763100  0.399900  0.357400  1.0  0.1168
  H  H44  1  0.901700  0.263900  0.141700  1.0  0.1121
  H  H45  1  0.736900  0.100100  0.857400  1.0  0.1181
  H  H46  1  0.598300  0.236100  0.641700  1.0  0.1126
  H  H47  1  0.236900  0.600100  0.357400  1.0  0.1181
  H  H48  1  0.098300  0.736100  0.141700  1.0  0.1126
  H  H49  1  0.100100  0.263100  0.857400  1.0  0.1145
  H  H50  1  0.236100  0.401700  0.641700  1.0  0.1147
  H  H51  1  0.600100  0.763100  0.357400  1.0  0.1145
  H  H52  1  0.736100  0.901700  0.141700  1.0  0.1147
  H  H53  1  0.899900  0.736900  0.857400  1.0  0.115
  H  H54  1  0.763900  0.598300  0.641700  1.0  0.1128
  H  H55  1  0.399900  0.236900  0.357400  1.0  0.115
  H  H56  1  0.263900  0.098300  0.141700  1.0  0.1128
  H  H57  1  0.736900  0.899900  0.642600  1.0  0.1158
  H  H58  1  0.598300  0.763900  0.858300  1.0  0.1127
  H  H59  1  0.236900  0.399900  0.142600  1.0  0.1158
  H  H60  1  0.098300  0.263900  0.358300  1.0  0.1127
  H  H61  1  0.263100  0.100100  0.642600  1.0  0.1149
  H  H62  1  0.401700  0.236100  0.858300  1.0  0.1143
  H  H63  1  0.763100  0.600100  0.142600  1.0  0.1149
  H  H64  1  0.901700  0.736100  0.358300  1.0  0.1143
  H  H65  1  0.899900  0.263100  0.642600  1.0  0.1125
  H  H66  1  0.763900  0.401700  0.858300  1.0  0.1147
  H  H67  1  0.399900  0.763100  0.142600  1.0  0.1125
  H  H68  1  0.263900  0.901700  0.358300  1.0  0.1147
  H  H69  1  0.100100  0.736900  0.642600  1.0  0.1136
  H  H70  1  0.236100  0.598300  0.858300  1.0  0.1151
  H  H71  1  0.600100  0.236900  0.142600  1.0  0.1136
  H  H72  1  0.736100  0.098300  0.358300  1.0  0.1151
  C  C73  1  0.740900  0.161200  0.187500  1.0  0.0105
  C  C74  1  0.659300  0.239900  0.313400  1.0  0.0159
  C  C75  1  0.240900  0.661200  0.687500  1.0  0.0105
  C  C76  1  0.159300  0.739900  0.813400  1.0  0.0159
  C  C77  1  0.259100  0.838800  0.187500  1.0  0.0085
  C  C78  1  0.340700  0.760100  0.313400  1.0  0.0179
  C  C79  1  0.759100  0.338800  0.687500  1.0  0.0085
  C  C80  1  0.840700  0.260100  0.813400  1.0  0.0179
  C  C81  1  0.838800  0.740900  0.187500  1.0  0.0118
  C  C82  1  0.760100  0.659300  0.313400  1.0  0.0167
  C  C83  1  0.338800  0.240900  0.687500  1.0  0.0118
  C  C84  1  0.260100  0.159300  0.813400  1.0  0.0167
  C  C85  1  0.161200  0.259100  0.187500  1.0  0.0077
  C  C86  1  0.239900  0.340700  0.313400  1.0  0.0175
  C  C87  1  0.661200  0.759100  0.687500  1.0  0.0077
  C  C88  1  0.739900  0.840700  0.813400  1.0  0.0175
  C  C89  1  0.259100  0.161200  0.312500  1.0  0.0076
  C  C90  1  0.340700  0.239900  0.186600  1.0  0.0174
  C  C91  1  0.759100  0.661200  0.812500  1.0  0.0076
  C  C92  1  0.840700  0.739900  0.686600  1.0  0.0174
  C  C93  1  0.740900  0.838800  0.312500  1.0  0.0084
  C  C94  1  0.659300  0.760100  0.186600  1.0  0.0175
  C  C95  1  0.240900  0.338800  0.812500  1.0  0.0084
  C  C96  1  0.159300  0.260100  0.686600  1.0  0.0175
  C  C97  1  0.161200  0.740900  0.312500  1.0  0.0086
  C  C98  1  0.239900  0.659300  0.186600  1.0  0.0187
  C  C99  1  0.661200  0.240900  0.812500  1.0  0.0086
  C  C100  1  0.739900  0.159300  0.686600  1.0  0.0187
  C  C101  1  0.838800  0.259100  0.312500  1.0  0.0115
  C  C102  1  0.760100  0.340700  0.186600  1.0  0.0176
  C  C103  1  0.338800  0.759100  0.812500  1.0  0.0115
  C  C104  1  0.260100  0.840700  0.686600  1.0  0.0176
  C  C105  1  0.259100  0.838800  0.812500  1.0  0.0082
  C  C106  1  0.340700  0.760100  0.686600  1.0  0.0186
  C  C107  1  0.759100  0.338800  0.312500  1.0  0.0082
  C  C108  1  0.840700  0.260100  0.186600  1.0  0.0186
  C  C109  1  0.740900  0.161200  0.812500  1.0  0.0081
  C  C110  1  0.659300  0.239900  0.686600  1.0  0.016
  C  C111  1  0.240900  0.661200  0.312500  1.0  0.0081
  C  C112  1  0.159300  0.739900  0.186600  1.0  0.016
  C  C113  1  0.161200  0.259100  0.812500  1.0  0.0078
  C  C114  1  0.239900  0.340700  0.686600  1.0  0.0193
  C  C115  1  0.661200  0.759100  0.312500  1.0  0.0078
  C  C116  1  0.739900  0.840700  0.186600  1.0  0.0193
  C  C117  1  0.838800  0.740900  0.812500  1.0  0.009
  C  C118  1  0.760100  0.659300  0.686600  1.0  0.0167
  C  C119  1  0.338800  0.240900  0.312500  1.0  0.009
  C  C120  1  0.260100  0.159300  0.186600  1.0  0.0167
  C  C121  1  0.740900  0.838800  0.687500  1.0  0.009
  C  C122  1  0.659300  0.760100  0.813400  1.0  0.0171
  C  C123  1  0.240900  0.338800  0.187500  1.0  0.009
  C  C124  1  0.159300  0.260100  0.313400  1.0  0.0171
  C  C125  1  0.259100  0.161200  0.687500  1.0  0.0066
  C  C126  1  0.340700  0.239900  0.813400  1.0  0.0151
  C  C127  1  0.759100  0.661200  0.187500  1.0  0.0066
  C  C128  1  0.840700  0.739900  0.313400  1.0  0.0151
  C  C129  1  0.838800  0.259100  0.687500  1.0  0.0114
  C  C130  1  0.760100  0.340700  0.813400  1.0  0.0181
  C  C131  1  0.338800  0.759100  0.187500  1.0  0.0114
  C  C132  1  0.260100  0.840700  0.313400  1.0  0.0181
  C  C133  1  0.161200  0.740900  0.687500  1.0  0.0071
  C  C134  1  0.239900  0.659300  0.813400  1.0  0.0169
  C  C135  1  0.661200  0.240900  0.187500  1.0  0.0071
  C  C136  1  0.739900  0.159300  0.313400  1.0  0.0169
  N  N137  1  0.650600  0.150600  0.250100  1.0  -0.0335
  N  N138  1  0.349400  0.849400  0.250100  1.0  -0.0322
  N  N139  1  0.849400  0.650600  0.250100  1.0  -0.0328
  N  N140  1  0.150600  0.349400  0.250100  1.0  -0.0324
  N  N141  1  0.650600  0.849400  0.750100  1.0  -0.0324
  N  N142  1  0.349400  0.150600  0.249900  1.0  -0.0328
  N  N143  1  0.650600  0.849400  0.249900  1.0  -0.0324
  N  N144  1  0.150600  0.650600  0.249900  1.0  -0.0336
  N  N145  1  0.849400  0.349400  0.249900  1.0  -0.0323
  N  N146  1  0.349400  0.849400  0.749900  1.0  -0.0323
  N  N147  1  0.650600  0.150600  0.749900  1.0  -0.0336
  N  N148  1  0.150600  0.349400  0.749900  1.0  -0.0324
  N  N149  1  0.849400  0.650600  0.749900  1.0  -0.0328
  N  N150  1  0.349400  0.150600  0.750100  1.0  -0.0328
  N  N151  1  0.849400  0.349400  0.750100  1.0  -0.0322
  N  N152  1  0.150600  0.650600  0.750100  1.0  -0.0335
  O  O153  1  0.500000  0.000000  0.122800  1.0  -0.7793
  O  O154  1  0.000000  0.500000  0.122800  1.0  -0.7793
  O  O155  1  0.500000  0.000000  0.622800  1.0  -0.7793
  O  O156  1  0.500000  0.000000  0.377200  1.0  -0.778
  O  O157  1  0.000000  0.500000  0.377200  1.0  -0.778
  O  O158  1  0.500000  0.000000  0.877200  1.0  -0.778
  O  O159  1  0.000000  0.500000  0.877200  1.0  -0.778
  O  O160  1  0.000000  0.500000  0.622800  1.0  -0.7793
  F  F161  1  0.692200  0.009600  0.000000  1.0  -0.4634
  F  F162  1  0.192200  0.509600  0.500000  1.0  -0.4634
  F  F163  1  0.307800  0.990400  0.000000  1.0  -0.466
  F  F164  1  0.807800  0.490400  0.500000  1.0  -0.466
  F  F165  1  0.990400  0.692200  0.000000  1.0  -0.4667
  F  F166  1  0.490400  0.192200  0.500000  1.0  -0.4667
  F  F167  1  0.009600  0.307800  0.000000  1.0  -0.4665
  F  F168  1  0.509600  0.807800  0.500000  1.0  -0.4665
  F  F169  1  0.307800  0.009600  0.500000  1.0  -0.4659
  F  F170  1  0.807800  0.509600  0.000000  1.0  -0.4659
  F  F171  1  0.692200  0.990400  0.500000  1.0  -0.4635
  F  F172  1  0.192200  0.490400  0.000000  1.0  -0.4635
  F  F173  1  0.009600  0.692200  0.500000  1.0  -0.4669
  F  F174  1  0.509600  0.192200  0.000000  1.0  -0.4669
  F  F175  1  0.990400  0.307800  0.500000  1.0  -0.4663
  F  F176  1  0.490400  0.807800  0.000000  1.0  -0.4663
