# generated using pymatgen
data_Zr3P2H64Rh2C92(ClO8)2
_symmetry_space_group_name_H-M   'P 1'
_cell_length_a   18.12600000
_cell_length_b   20.01500000
_cell_length_c   21.79000000
_cell_angle_alpha   109.15500000
_cell_angle_beta   103.79400000
_cell_angle_gamma   99.70000000
_symmetry_Int_Tables_number   1
_chemical_formula_structural   Zr3P2H64Rh2C92(ClO8)2
_chemical_formula_sum   'Zr6 P4 H128 Rh4 C184 Cl4 O32'
_cell_volume   6984.99028216
_cell_formula_units_Z   2
loop_
 _symmetry_equiv_pos_site_id
 _symmetry_equiv_pos_as_xyz
  1  'x, y, z'
loop_
 _atom_site_type_symbol
 _atom_site_label
 _atom_site_symmetry_multiplicity
 _atom_site_fract_x
 _atom_site_fract_y
 _atom_site_fract_z
 _atom_site_occupancy
 _atom_site_charge
  Zr  Zr1  1  0.925590  0.367120  0.942610  1.0  1.9722
  Zr  Zr2  1  0.999250  0.496450  0.111320  1.0  2.0472
  Zr  Zr3  1  0.128120  0.467690  0.014230  1.0  2.0435
  Zr  Zr4  1  0.074410  0.632880  0.057390  1.0  1.9729
  Zr  Zr5  1  0.000750  0.503550  0.888680  1.0  2.0468
  Zr  Zr6  1  0.871880  0.532310  0.985770  1.0  2.041
  P  P7  1  0.425900  0.246100  0.508500  1.0  0.7556
  P  P8  1  0.829600  0.960000  0.307700  1.0  0.7713
  P  P9  1  0.574100  0.753900  0.491500  1.0  0.7809
  P  P10  1  0.170400  0.040000  0.692300  1.0  0.7728
  H  H11  1  0.975900  0.329500  0.197700  1.0  0.1039
  H  H12  1  0.957900  0.237700  0.241400  1.0  0.1149
  H  H13  1  0.800000  0.099000  0.058300  1.0  0.1149
  H  H14  1  0.817900  0.190800  0.014600  1.0  0.1087
  H  H15  1  0.264800  0.930100  0.246300  1.0  0.1093
  H  H16  1  0.175600  0.825800  0.156600  1.0  0.1031
  H  H17  1  0.999800  0.869400  0.235400  1.0  0.1067
  H  H18  1  0.089000  0.973800  0.325100  1.0  0.1235
  H  H19  1  0.717900  0.391300  0.593000  1.0  0.1467
  H  H20  1  0.977900  0.114100  0.232900  1.0  0.1011
  H  H21  1  0.749800  0.060900  0.143500  1.0  0.1239
  H  H22  1  0.720800  0.986000  0.200500  1.0  0.1021
  H  H23  1  0.952500  0.033500  0.283200  1.0  0.0922
  H  H24  1  0.271800  0.165000  0.496900  1.0  0.1029
  H  H25  1  0.177500  0.061500  0.410300  1.0  0.1127
  H  H26  1  0.342100  0.014000  0.317900  1.0  0.1145
  H  H27  1  0.436400  0.117600  0.404400  1.0  0.1078
  H  H28  1  0.836400  0.967600  0.438000  1.0  0.1096
  H  H29  1  0.831800  0.050800  0.540700  1.0  0.1114
  H  H30  1  0.803900  0.199000  0.453400  1.0  0.1131
  H  H31  1  0.808500  0.115900  0.350700  1.0  0.0965
  H  H32  1  0.813300  0.203600  0.724000  1.0  0.0998
  H  H33  1  0.927100  0.362400  0.676200  1.0  0.116
  H  H34  1  0.892300  0.279600  0.562600  1.0  0.1165
  H  H35  1  0.778500  0.120900  0.610500  1.0  0.1148
  H  H36  1  0.745700  0.838100  0.179900  1.0  0.1237
  H  H37  1  0.617000  0.753800  0.130000  1.0  0.1211
  H  H38  1  0.548200  0.876100  0.292700  1.0  0.1108
  H  H39  1  0.680200  0.950000  0.345400  1.0  0.0879
  H  H40  1  0.441500  0.844900  0.206900  1.0  0.1203
  H  H41  1  0.311700  0.770400  0.160300  1.0  0.1085
  H  H42  1  0.391900  0.590200  0.099200  1.0  0.1114
  H  H43  1  0.521700  0.664700  0.145800  1.0  0.1106
  H  H44  1  0.862400  0.785900  0.434500  1.0  0.1727
  H  H45  1  0.143700  0.453500  0.281600  1.0  0.1085
  H  H46  1  0.210700  0.410600  0.360300  1.0  0.115
  H  H47  1  0.356100  0.358500  0.247500  1.0  0.1169
  H  H48  1  0.289200  0.401400  0.168700  1.0  0.1126
  H  H49  1  0.491800  0.329700  0.437100  1.0  0.108
  H  H50  1  0.438900  0.379400  0.358700  1.0  0.1171
  H  H51  1  0.221200  0.310000  0.370300  1.0  0.1169
  H  H52  1  0.274000  0.260300  0.448600  1.0  0.105
  H  H53  1  0.407700  0.218600  0.625400  1.0  0.1158
  H  H54  1  0.360400  0.273400  0.715200  1.0  0.1139
  H  H55  1  0.318000  0.427400  0.638600  1.0  0.1207
  H  H56  1  0.365300  0.372600  0.548800  1.0  0.1061
  H  H57  1  0.332600  0.341800  0.801700  1.0  0.0923
  H  H58  1  0.267600  0.383800  0.878100  1.0  0.116
  H  H59  1  0.165800  0.488600  0.763000  1.0  0.1248
  H  H60  1  0.236800  0.441200  0.689200  1.0  0.1127
  H  H61  1  0.008700  0.885000  0.472100  1.0  0.1979
  H  H62  1  0.057300  0.858600  0.357500  1.0  0.1757
  H  H63  1  0.778900  0.802100  0.317700  1.0  0.1065
  H  H64  1  0.957900  0.740000  0.272900  1.0  0.099
  H  H65  1  0.836200  0.774200  0.227000  1.0  0.1108
  H  H66  1  0.885500  0.685000  0.336700  1.0  0.1124
  H  H67  1  0.973000  0.731500  0.389300  1.0  0.1057
  H  H68  1  0.654600  0.459700  0.680200  1.0  0.1113
  H  H69  1  0.514300  0.381300  0.646400  1.0  0.1467
  H  H70  1  0.530900  0.258700  0.671300  1.0  0.2207
  H  H71  1  0.670400  0.381600  0.756400  1.0  0.1125
  H  H72  1  0.744800  0.387300  0.727800  1.0  0.1094
  H  H73  1  0.670500  0.250000  0.686200  1.0  0.1123
  H  H74  1  0.709400  0.252200  0.581500  1.0  0.2351
  H  H75  1  0.024100  0.670500  0.802300  1.0  0.1041
  H  H76  1  0.042100  0.762300  0.758600  1.0  0.1146
  H  H77  1  0.200000  0.901000  0.941700  1.0  0.1159
  H  H78  1  0.182100  0.809200  0.985400  1.0  0.1084
  H  H79  1  0.735200  0.069900  0.753700  1.0  0.1085
  H  H80  1  0.824400  0.174200  0.843400  1.0  0.1025
  H  H81  1  0.000200  0.130600  0.764600  1.0  0.1055
  H  H82  1  0.911000  0.026200  0.674900  1.0  0.1232
  H  H83  1  0.282100  0.608700  0.407000  1.0  0.1463
  H  H84  1  0.022100  0.885900  0.767100  1.0  0.1017
  H  H85  1  0.250200  0.939100  0.856500  1.0  0.1224
  H  H86  1  0.279200  0.014000  0.799500  1.0  0.1012
  H  H87  1  0.047500  0.966500  0.716800  1.0  0.0919
  H  H88  1  0.728200  0.835000  0.503100  1.0  0.1028
  H  H89  1  0.822500  0.938500  0.589700  1.0  0.1138
  H  H90  1  0.657900  0.986000  0.682100  1.0  0.1147
  H  H91  1  0.563600  0.882400  0.595600  1.0  0.1074
  H  H92  1  0.163600  0.032400  0.562000  1.0  0.1089
  H  H93  1  0.168200  0.949200  0.459300  1.0  0.1108
  H  H94  1  0.196100  0.801000  0.546600  1.0  0.1129
  H  H95  1  0.191500  0.884100  0.649300  1.0  0.0965
  H  H96  1  0.186700  0.796400  0.276000  1.0  0.0999
  H  H97  1  0.072900  0.637600  0.323800  1.0  0.117
  H  H98  1  0.107700  0.720400  0.437400  1.0  0.1158
  H  H99  1  0.221500  0.879100  0.389500  1.0  0.1157
  H  H100  1  0.254300  0.161900  0.820100  1.0  0.1229
  H  H101  1  0.383000  0.246200  0.870000  1.0  0.1225
  H  H102  1  0.451800  0.123900  0.707300  1.0  0.1102
  H  H103  1  0.319800  0.050000  0.654600  1.0  0.0881
  H  H104  1  0.558500  0.155100  0.793100  1.0  0.1206
  H  H105  1  0.688300  0.229600  0.839700  1.0  0.1085
  H  H106  1  0.608100  0.409800  0.900800  1.0  0.1112
  H  H107  1  0.478300  0.335300  0.854200  1.0  0.1113
  H  H108  1  0.137600  0.214100  0.565500  1.0  0.1718
  H  H109  1  0.856300  0.546500  0.718400  1.0  0.1083
  H  H110  1  0.789300  0.589400  0.639700  1.0  0.1139
  H  H111  1  0.643900  0.641500  0.752500  1.0  0.1178
  H  H112  1  0.710800  0.598600  0.831300  1.0  0.1121
  H  H113  1  0.508200  0.670300  0.562900  1.0  0.1093
  H  H114  1  0.561100  0.620600  0.641300  1.0  0.1171
  H  H115  1  0.778800  0.690000  0.629700  1.0  0.1176
  H  H116  1  0.726000  0.739700  0.551400  1.0  0.1056
  H  H117  1  0.592300  0.781400  0.374600  1.0  0.1151
  H  H118  1  0.639600  0.726600  0.284800  1.0  0.1133
  H  H119  1  0.682000  0.572600  0.361400  1.0  0.1195
  H  H120  1  0.634700  0.627400  0.451200  1.0  0.1064
  H  H121  1  0.667400  0.658200  0.198300  1.0  0.0918
  H  H122  1  0.732400  0.616200  0.121900  1.0  0.1172
  H  H123  1  0.834200  0.511400  0.237000  1.0  0.1247
  H  H124  1  0.763200  0.558800  0.310800  1.0  0.1119
  H  H125  1  0.991300  0.115000  0.527900  1.0  0.1989
  H  H126  1  0.942700  0.141400  0.642500  1.0  0.1757
  H  H127  1  0.221100  0.197900  0.682300  1.0  0.1062
  H  H128  1  0.042100  0.260000  0.727100  1.0  0.098
  H  H129  1  0.163800  0.225800  0.773000  1.0  0.1128
  H  H130  1  0.114500  0.315000  0.663300  1.0  0.1113
  H  H131  1  0.027000  0.268500  0.610700  1.0  0.1057
  H  H132  1  0.345400  0.540300  0.319800  1.0  0.1115
  H  H133  1  0.485700  0.618700  0.353600  1.0  0.1463
  H  H134  1  0.469100  0.741300  0.328700  1.0  0.2197
  H  H135  1  0.329600  0.618400  0.243600  1.0  0.1131
  H  H136  1  0.255200  0.612700  0.272200  1.0  0.1124
  H  H137  1  0.329500  0.750000  0.313800  1.0  0.1126
  H  H138  1  0.290600  0.747800  0.418500  1.0  0.2353
  Rh  Rh139  1  0.920700  0.907100  0.347400  1.0  0.4938
  Rh  Rh140  1  0.558600  0.270100  0.547700  1.0  0.522
  Rh  Rh141  1  0.079300  0.092900  0.652600  1.0  0.4932
  Rh  Rh142  1  0.441400  0.729900  0.452300  1.0  0.5225
  C  C143  1  0.026900  0.762000  0.135600  1.0  0.499
  C  C144  1  0.910700  0.331500  0.070000  1.0  0.6631
  C  C145  1  0.161000  0.462100  0.882000  1.0  0.5907
  C  C146  1  0.898600  0.268800  0.102100  1.0  -0.1525
  C  C147  1  0.940200  0.282700  0.169400  1.0  -0.0527
  C  C148  1  0.929500  0.228200  0.195300  1.0  -0.1721
  C  C149  1  0.877300  0.159800  0.153900  1.0  0.0912
  C  C150  1  0.835700  0.145800  0.086600  1.0  -0.1647
  C  C151  1  0.846300  0.200300  0.060700  1.0  -0.05
  C  C152  1  0.185000  0.961800  0.294200  1.0  0.0117
  C  C153  1  0.211000  0.918000  0.244000  1.0  -0.112
  C  C154  1  0.158000  0.855800  0.190800  1.0  -0.0383
  C  C155  1  0.079300  0.837800  0.187500  1.0  -0.1349
  C  C156  1  0.053600  0.881800  0.237600  1.0  -0.1307
  C  C157  1  0.107000  0.943700  0.290900  1.0  -0.1068
  C  C158  1  0.686000  0.365000  0.615000  1.0  -0.13
  C  C159  1  0.867000  0.105000  0.181000  1.0  -0.0012
  C  C160  1  0.924000  0.090000  0.224000  1.0  -0.162
  C  C161  1  0.794000  0.059000  0.176000  1.0  -0.1143
  C  C162  1  0.773000  0.012000  0.208000  1.0  -0.0964
  C  C163  1  0.909000  0.043000  0.256000  1.0  -0.079
  C  C164  1  0.834000  0.008000  0.249000  1.0  0.1055
  C  C165  1  0.363000  0.151000  0.458800  1.0  -0.2539
  C  C166  1  0.286100  0.134400  0.460500  1.0  -0.0657
  C  C167  1  0.230100  0.072900  0.409100  1.0  -0.0851
  C  C168  1  0.251000  0.028000  0.356000  1.0  -0.0376
  C  C169  1  0.328000  0.044700  0.354200  1.0  -0.1373
  C  C170  1  0.383800  0.106200  0.405600  1.0  -0.0583
  C  C171  1  0.829800  0.014600  0.441100  1.0  -0.0436
  C  C172  1  0.827100  0.064000  0.502100  1.0  -0.1484
  C  C173  1  0.817400  0.132700  0.506700  1.0  0.0474
  C  C174  1  0.810500  0.152100  0.450300  1.0  -0.1535
  C  C175  1  0.813300  0.102700  0.389300  1.0  -0.0443
  C  C176  1  0.822900  0.033900  0.384700  1.0  -0.2092
  C  C177  1  0.829400  0.219100  0.691200  1.0  -0.0749
  C  C178  1  0.873500  0.290800  0.710700  1.0  -0.1324
  C  C179  1  0.896900  0.313400  0.662800  1.0  -0.0994
  C  C180  1  0.876200  0.264200  0.595400  1.0  -0.128
  C  C181  1  0.832100  0.192500  0.575900  1.0  0.0404
  C  C182  1  0.808700  0.169900  0.623800  1.0  -0.1405
  C  C183  1  0.905000  0.340000  0.785000  1.0  0.627
  C  C184  1  0.722800  0.902000  0.268100  1.0  -0.1769
  C  C185  1  0.707000  0.843000  0.202000  1.0  -0.055
  C  C186  1  0.631000  0.793700  0.172800  1.0  -0.1142
  C  C187  1  0.576000  0.805200  0.208900  1.0  0.04
  C  C188  1  0.589000  0.867000  0.273000  1.0  -0.1555
  C  C189  1  0.666000  0.912000  0.302000  1.0  -0.0382
  C  C190  1  0.431400  0.793200  0.185000  1.0  -0.1458
  C  C191  1  0.354300  0.748900  0.157400  1.0  -0.0503
  C  C192  1  0.339600  0.673300  0.125400  1.0  -0.1656
  C  C193  1  0.402000  0.641900  0.121100  1.0  -0.0509
  C  C194  1  0.479100  0.686200  0.148800  1.0  -0.2017
  C  C195  1  0.493800  0.761800  0.180700  1.0  0.0363
  C  C196  1  0.888000  0.793000  0.400000  1.0  -0.0502
  C  C197  1  0.251000  0.624400  0.088900  1.0  0.6204
  C  C198  1  0.162000  0.449700  0.160800  1.0  0.6422
  C  C199  1  0.210100  0.431400  0.217800  1.0  -0.1243
  C  C200  1  0.186800  0.434200  0.274700  1.0  -0.0517
  C  C201  1  0.226600  0.408700  0.321500  1.0  -0.2418
  C  C202  1  0.289700  0.380500  0.311300  1.0  0.0672
  C  C203  1  0.313000  0.377800  0.254400  1.0  -0.1227
  C  C204  1  0.273200  0.403200  0.207600  1.0  -0.0867
  C  C205  1  0.387900  0.290400  0.450200  1.0  -0.2852
  C  C206  1  0.436800  0.325700  0.423500  1.0  -0.0333
  C  C207  1  0.405400  0.355200  0.377000  1.0  -0.1399
  C  C208  1  0.325000  0.349300  0.357100  1.0  0.0879
  C  C209  1  0.276100  0.314000  0.383800  1.0  -0.2164
  C  C210  1  0.307500  0.284500  0.430400  1.0  -0.0845
  C  C211  1  0.391000  0.290500  0.578700  1.0  -0.1695
  C  C212  1  0.389500  0.261000  0.628100  1.0  -0.0792
  C  C213  1  0.361400  0.293500  0.681400  1.0  -0.1523
  C  C214  1  0.334700  0.355500  0.685400  1.0  0.0486
  C  C215  1  0.336200  0.385000  0.636000  1.0  -0.2125
  C  C216  1  0.364300  0.352400  0.582600  1.0  -0.0948
  C  C217  1  0.292000  0.386000  0.730000  1.0  0.0133
  C  C218  1  0.298600  0.371100  0.792500  1.0  -0.1132
  C  C219  1  0.259500  0.395700  0.838600  1.0  -0.1205
  C  C220  1  0.207400  0.438500  0.827500  1.0  -0.1231
  C  C221  1  0.198000  0.458200  0.772000  1.0  -0.1331
  C  C222  1  0.244000  0.428000  0.728000  1.0  -0.0932
  C  C223  1  0.974000  0.856000  0.424000  1.0  -0.0093
  C  C224  1  0.002000  0.845000  0.357000  1.0  -0.0551
  C  C225  1  0.836000  0.805000  0.327000  1.0  -0.047
  C  C226  1  0.938000  0.771000  0.308000  1.0  -0.0924
  C  C227  1  0.866000  0.792100  0.277000  1.0  -0.1061
  C  C228  1  0.923000  0.734000  0.360000  1.0  -0.2505
  C  C229  1  0.644000  0.405000  0.664000  1.0  -0.1044
  C  C230  1  0.560000  0.360000  0.642000  1.0  -0.0057
  C  C231  1  0.569000  0.287000  0.657000  1.0  -0.0624
  C  C232  1  0.687000  0.370000  0.715000  1.0  -0.2075
  C  C233  1  0.653000  0.285000  0.666000  1.0  -0.0882
  C  C234  1  0.675000  0.282000  0.600000  1.0  -0.0613
  C  C235  1  0.973100  0.238000  0.864400  1.0  0.5029
  C  C236  1  0.089300  0.668500  0.930000  1.0  0.6645
  C  C237  1  0.839000  0.537900  0.118000  1.0  0.5909
  C  C238  1  0.101400  0.731200  0.897900  1.0  -0.1521
  C  C239  1  0.059800  0.717300  0.830600  1.0  -0.0531
  C  C240  1  0.070500  0.771800  0.804700  1.0  -0.1713
  C  C241  1  0.122700  0.840200  0.846100  1.0  0.0913
  C  C242  1  0.164300  0.854200  0.913400  1.0  -0.1637
  C  C243  1  0.153700  0.799700  0.939300  1.0  -0.0489
  C  C244  1  0.815000  0.038200  0.705800  1.0  0.0139
  C  C245  1  0.789000  0.082000  0.756000  1.0  -0.1094
  C  C246  1  0.842000  0.144200  0.809200  1.0  -0.0389
  C  C247  1  0.920700  0.162200  0.812500  1.0  -0.1376
  C  C248  1  0.946400  0.118200  0.762400  1.0  -0.1328
  C  C249  1  0.893000  0.056300  0.709100  1.0  -0.109
  C  C250  1  0.314000  0.635000  0.385000  1.0  -0.1297
  C  C251  1  0.133000  0.895000  0.819000  1.0  -0.002
  C  C252  1  0.076000  0.910000  0.776000  1.0  -0.1629
  C  C253  1  0.206000  0.941000  0.824000  1.0  -0.1159
  C  C254  1  0.227000  0.988000  0.792000  1.0  -0.0971
  C  C255  1  0.091000  0.957000  0.744000  1.0  -0.0803
  C  C256  1  0.166000  0.992000  0.751000  1.0  0.1036
  C  C257  1  0.637000  0.849000  0.541200  1.0  -0.2597
  C  C258  1  0.713900  0.865600  0.539500  1.0  -0.0679
  C  C259  1  0.769900  0.927100  0.590900  1.0  -0.0847
  C  C260  1  0.749000  0.972000  0.644000  1.0  -0.0373
  C  C261  1  0.672000  0.955300  0.645800  1.0  -0.1387
  C  C262  1  0.616200  0.893800  0.594400  1.0  -0.06
  C  C263  1  0.170200  0.985400  0.558900  1.0  -0.0437
  C  C264  1  0.172900  0.936000  0.497900  1.0  -0.1497
  C  C265  1  0.182600  0.867300  0.493300  1.0  0.0463
  C  C266  1  0.189500  0.847900  0.549700  1.0  -0.1538
  C  C267  1  0.186700  0.897300  0.610700  1.0  -0.0445
  C  C268  1  0.177100  0.966100  0.615300  1.0  -0.2078
  C  C269  1  0.170600  0.780900  0.308800  1.0  -0.0745
  C  C270  1  0.126500  0.709200  0.289300  1.0  -0.134
  C  C271  1  0.103100  0.686600  0.337200  1.0  -0.0992
  C  C272  1  0.123800  0.735800  0.404600  1.0  -0.1289
  C  C273  1  0.167900  0.807500  0.424100  1.0  0.0407
  C  C274  1  0.191300  0.830100  0.376200  1.0  -0.1387
  C  C275  1  0.095000  0.660000  0.215000  1.0  0.6287
  C  C276  1  0.277200  0.098000  0.731900  1.0  -0.1808
  C  C277  1  0.293000  0.157000  0.798000  1.0  -0.0533
  C  C278  1  0.369000  0.206300  0.827200  1.0  -0.1142
  C  C279  1  0.424000  0.194800  0.791100  1.0  0.0394
  C  C280  1  0.411000  0.133000  0.727000  1.0  -0.1507
  C  C281  1  0.334000  0.088000  0.698000  1.0  -0.0383
  C  C282  1  0.568600  0.206800  0.815000  1.0  -0.1473
  C  C283  1  0.645700  0.251100  0.842600  1.0  -0.0512
  C  C284  1  0.660400  0.326700  0.874600  1.0  -0.1633
  C  C285  1  0.598000  0.358100  0.878900  1.0  -0.0501
  C  C286  1  0.520900  0.313800  0.851200  1.0  -0.2024
  C  C287  1  0.506200  0.238200  0.819300  1.0  0.0357
  C  C288  1  0.112000  0.207000  0.600000  1.0  -0.0456
  C  C289  1  0.749000  0.375600  0.911100  1.0  0.6215
  C  C290  1  0.838000  0.550300  0.839200  1.0  0.6426
  C  C291  1  0.789900  0.568600  0.782200  1.0  -0.1263
  C  C292  1  0.813200  0.565800  0.725300  1.0  -0.0521
  C  C293  1  0.773400  0.591300  0.678500  1.0  -0.2376
  C  C294  1  0.710300  0.619500  0.688700  1.0  0.0686
  C  C295  1  0.687000  0.622200  0.745600  1.0  -0.1226
  C  C296  1  0.726800  0.596800  0.792400  1.0  -0.0854
  C  C297  1  0.612100  0.709600  0.549800  1.0  -0.2872
  C  C298  1  0.563200  0.674300  0.576500  1.0  -0.0349
  C  C299  1  0.594600  0.644800  0.623000  1.0  -0.1389
  C  C300  1  0.675000  0.650700  0.642900  1.0  0.088
  C  C301  1  0.723900  0.686000  0.616200  1.0  -0.2151
  C  C302  1  0.692500  0.715500  0.569600  1.0  -0.0822
  C  C303  1  0.609000  0.709500  0.421300  1.0  -0.1695
  C  C304  1  0.610500  0.739000  0.371900  1.0  -0.0793
  C  C305  1  0.638600  0.706500  0.318600  1.0  -0.1531
  C  C306  1  0.665300  0.644500  0.314600  1.0  0.0505
  C  C307  1  0.663800  0.615000  0.364000  1.0  -0.2119
  C  C308  1  0.635700  0.647600  0.417400  1.0  -0.0918
  C  C309  1  0.708000  0.614000  0.270000  1.0  0.0135
  C  C310  1  0.701400  0.628900  0.207500  1.0  -0.1116
  C  C311  1  0.740500  0.604300  0.161400  1.0  -0.1221
  C  C312  1  0.792600  0.561500  0.172500  1.0  -0.1238
  C  C313  1  0.802000  0.541800  0.228000  1.0  -0.1322
  C  C314  1  0.756000  0.572000  0.272000  1.0  -0.0948
  C  C315  1  0.026000  0.144000  0.576000  1.0  -0.0091
  C  C316  1  0.998000  0.155000  0.643000  1.0  -0.0565
  C  C317  1  0.164000  0.195000  0.673000  1.0  -0.0473
  C  C318  1  0.062000  0.229000  0.692000  1.0  -0.0926
  C  C319  1  0.134000  0.207900  0.723000  1.0  -0.1072
  C  C320  1  0.077000  0.266000  0.640000  1.0  -0.2519
  C  C321  1  0.356000  0.595000  0.336000  1.0  -0.1063
  C  C322  1  0.440000  0.640000  0.358000  1.0  -0.0066
  C  C323  1  0.431000  0.713000  0.343000  1.0  -0.0617
  C  C324  1  0.313000  0.630000  0.285000  1.0  -0.2064
  C  C325  1  0.347000  0.715000  0.334000  1.0  -0.089
  C  C326  1  0.325000  0.718000  0.400000  1.0  -0.0608
  Cl  Cl327  1  0.583200  0.229100  0.443300  1.0  -0.4816
  Cl  Cl328  1  0.017300  0.021600  0.413000  1.0  -0.5826
  Cl  Cl329  1  0.416800  0.770900  0.556700  1.0  -0.4799
  Cl  Cl330  1  0.982700  0.978400  0.587000  1.0  -0.5818
  O  O331  1  0.043800  0.732000  0.080300  1.0  -0.631
  O  O332  1  0.949900  0.747800  0.126300  1.0  -0.518
  O  O333  1  0.027300  0.416800  0.922500  1.0  -0.9355
  O  O334  1  0.901200  0.447200  0.021600  1.0  -0.8809
  O  O335  1  0.027700  0.412200  0.035900  1.0  -0.8101
  O  O336  1  0.100600  0.544200  0.090800  1.0  -0.8307
  O  O337  1  0.243100  0.554300  0.063900  1.0  -0.6219
  O  O338  1  0.204000  0.664800  0.094000  1.0  -0.5922
  O  O339  1  0.180100  0.449800  0.107400  1.0  -0.6545
  O  O340  1  0.098500  0.467500  0.171800  1.0  -0.6175
  O  O341  1  0.182500  0.452200  0.929700  1.0  -0.6267
  O  O342  1  0.101800  0.475600  0.848800  1.0  -0.6855
  O  O343  1  0.888000  0.314600  0.824300  1.0  -0.6013
  O  O344  1  0.942700  0.402600  0.790200  1.0  -0.6966
  O  O345  1  0.943400  0.392900  0.122200  1.0  -0.599
  O  O346  1  0.890700  0.310000  0.010400  1.0  -0.595
  O  O347  1  0.956200  0.268000  0.919700  1.0  -0.6289
  O  O348  1  0.050100  0.252200  0.873700  1.0  -0.5177
  O  O349  1  0.972700  0.583200  0.077500  1.0  -0.9339
  O  O350  1  0.098800  0.552800  0.978400  1.0  -0.8789
  O  O351  1  0.972300  0.587800  0.964100  1.0  -0.8103
  O  O352  1  0.899400  0.455800  0.909200  1.0  -0.8302
  O  O353  1  0.756900  0.445700  0.936100  1.0  -0.6227
  O  O354  1  0.796000  0.335200  0.906000  1.0  -0.5919
  O  O355  1  0.819900  0.550200  0.892600  1.0  -0.6564
  O  O356  1  0.901500  0.532500  0.828200  1.0  -0.6171
  O  O357  1  0.817500  0.547800  0.070300  1.0  -0.6267
  O  O358  1  0.898200  0.524400  0.151200  1.0  -0.6876
  O  O359  1  0.112000  0.685400  0.175700  1.0  -0.6017
  O  O360  1  0.057300  0.597400  0.209800  1.0  -0.6967
  O  O361  1  0.056600  0.607100  0.877800  1.0  -0.6004
  O  O362  1  0.109300  0.690000  0.989600  1.0  -0.595
