# generated using pymatgen
data_Cu2H32C61O8
_symmetry_space_group_name_H-M   'P 1'
_cell_length_a   19.94820000
_cell_length_b   19.94820000
_cell_length_c   45.44800000
_cell_angle_alpha   93.42030000
_cell_angle_beta   93.42030000
_cell_angle_gamma   96.61250000
_symmetry_Int_Tables_number   1
_chemical_formula_structural   Cu2H32C61O8
_chemical_formula_sum   'Cu8 H128 C244 O32'
_cell_volume   17892.43513561
_cell_formula_units_Z   4
loop_
 _symmetry_equiv_pos_site_id
 _symmetry_equiv_pos_as_xyz
  1  'x, y, z'
loop_
 _atom_site_type_symbol
 _atom_site_label
 _atom_site_symmetry_multiplicity
 _atom_site_fract_x
 _atom_site_fract_y
 _atom_site_fract_z
 _atom_site_occupancy
 _atom_site_charge
  Cu  Cu1  1  0.473720  0.907420  0.314500  1.0  0.9501
  Cu  Cu2  1  0.338300  0.884940  0.305430  1.0  0.9302
  Cu  Cu3  1  0.907420  0.473720  0.814500  1.0  0.9494
  Cu  Cu4  1  0.884940  0.338300  0.805430  1.0  0.9336
  Cu  Cu5  1  0.092580  0.526280  0.185500  1.0  0.9542
  Cu  Cu6  1  0.115060  0.661700  0.194570  1.0  0.9312
  Cu  Cu7  1  0.526280  0.092580  0.685500  1.0  0.9504
  Cu  Cu8  1  0.661700  0.115060  0.694570  1.0  0.9302
  H  H9  1  0.485200  0.062600  0.383900  1.0  0.1175
  H  H10  1  0.474700  0.138500  0.423600  1.0  0.1219
  H  H11  1  0.272400  0.097800  0.413100  1.0  0.1192
  H  H12  1  0.282900  0.021900  0.373400  1.0  0.1176
  H  H13  1  0.463500  0.361900  0.538300  1.0  0.1119
  H  H14  1  0.462000  0.276600  0.501200  1.0  0.1176
  H  H15  1  0.259100  0.262900  0.492300  1.0  0.1201
  H  H16  1  0.260600  0.348200  0.529400  1.0  0.1142
  H  H17  1  0.311100  0.725700  0.364500  1.0  0.1111
  H  H18  1  0.304700  0.661100  0.405300  1.0  0.1235
  H  H19  1  0.486600  0.752200  0.437600  1.0  0.1206
  H  H20  1  0.492900  0.816900  0.396800  1.0  0.1147
  H  H21  1  0.266000  0.479400  0.529800  1.0  0.1177
  H  H22  1  0.271100  0.556700  0.493600  1.0  0.1151
  H  H23  1  0.473900  0.582700  0.505400  1.0  0.1126
  H  H24  1  0.468800  0.505400  0.541600  1.0  0.1161
  H  H25  1  0.749300  0.522900  0.751700  1.0  0.1179
  H  H26  1  0.671100  0.532900  0.712800  1.0  0.1237
  H  H27  1  0.660400  0.333200  0.691700  1.0  0.1117
  H  H28  1  0.738600  0.323200  0.730600  1.0  0.1148
  H  H29  1  0.036700  0.312100  0.741700  1.0  0.1149
  H  H30  1  0.095900  0.312900  0.699300  1.0  0.1245
  H  H31  1  0.073700  0.509300  0.692800  1.0  0.1265
  H  H32  1  0.014500  0.508500  0.735200  1.0  0.1167
  H  H33  1  0.292000  0.320400  0.582400  1.0  0.1143
  H  H34  1  0.212000  0.316000  0.617500  1.0  0.123
  H  H35  1  0.215400  0.518000  0.619000  1.0  0.1244
  H  H36  1  0.295400  0.522400  0.583900  1.0  0.1075
  H  H37  1  0.423700  0.330700  0.585400  1.0  0.1047
  H  H38  1  0.505400  0.336600  0.624300  1.0  0.1156
  H  H39  1  0.514900  0.539300  0.629900  1.0  0.1257
  H  H40  1  0.433300  0.533500  0.591000  1.0  0.1132
  H  H41  1  0.062600  0.485200  0.883900  1.0  0.1173
  H  H42  1  0.138500  0.474700  0.923600  1.0  0.1247
  H  H43  1  0.097800  0.272400  0.913100  1.0  0.1203
  H  H44  1  0.021900  0.282900  0.873400  1.0  0.1173
  H  H45  1  0.361900  0.463500  0.038300  1.0  0.1132
  H  H46  1  0.276600  0.462000  0.001200  1.0  0.1177
  H  H47  1  0.262900  0.259100  0.992300  1.0  0.1201
  H  H48  1  0.348200  0.260600  0.029400  1.0  0.1131
  H  H49  1  0.725700  0.311100  0.864500  1.0  0.1108
  H  H50  1  0.661100  0.304700  0.905300  1.0  0.1241
  H  H51  1  0.752200  0.486600  0.937600  1.0  0.1187
  H  H52  1  0.816900  0.492900  0.896800  1.0  0.1148
  H  H53  1  0.479400  0.266000  0.029800  1.0  0.1143
  H  H54  1  0.556700  0.271100  0.993600  1.0  0.1153
  H  H55  1  0.582700  0.473900  0.005400  1.0  0.1125
  H  H56  1  0.505400  0.468800  0.041600  1.0  0.1153
  H  H57  1  0.522900  0.749300  0.251700  1.0  0.117
  H  H58  1  0.532900  0.671100  0.212800  1.0  0.1234
  H  H59  1  0.333200  0.660400  0.191700  1.0  0.1113
  H  H60  1  0.323200  0.738600  0.230600  1.0  0.1156
  H  H61  1  0.312100  0.036700  0.241700  1.0  0.1153
  H  H62  1  0.312900  0.095900  0.199300  1.0  0.1239
  H  H63  1  0.509300  0.073700  0.192800  1.0  0.1253
  H  H64  1  0.508500  0.014500  0.235200  1.0  0.1165
  H  H65  1  0.320400  0.292000  0.082400  1.0  0.1167
  H  H66  1  0.316000  0.212000  0.117500  1.0  0.1224
  H  H67  1  0.518000  0.215400  0.119000  1.0  0.123
  H  H68  1  0.522400  0.295400  0.083900  1.0  0.1091
  H  H69  1  0.330700  0.423700  0.085400  1.0  0.1055
  H  H70  1  0.336600  0.505400  0.124300  1.0  0.1151
  H  H71  1  0.539300  0.514900  0.129900  1.0  0.1244
  H  H72  1  0.533500  0.433300  0.091000  1.0  0.1115
  H  H73  1  0.937400  0.514800  0.116100  1.0  0.117
  H  H74  1  0.861500  0.525300  0.076400  1.0  0.1249
  H  H75  1  0.902200  0.727600  0.086900  1.0  0.1205
  H  H76  1  0.978100  0.717100  0.126600  1.0  0.1177
  H  H77  1  0.638100  0.536500  0.961700  1.0  0.1128
  H  H78  1  0.723400  0.538000  0.998800  1.0  0.1176
  H  H79  1  0.737100  0.740900  0.007700  1.0  0.1203
  H  H80  1  0.651800  0.739400  0.970600  1.0  0.1132
  H  H81  1  0.274300  0.688900  0.135500  1.0  0.1107
  H  H82  1  0.338900  0.695300  0.094700  1.0  0.1253
  H  H83  1  0.247800  0.513400  0.062400  1.0  0.1175
  H  H84  1  0.183100  0.507100  0.103200  1.0  0.1139
  H  H85  1  0.520600  0.734000  0.970200  1.0  0.114
  H  H86  1  0.443300  0.728900  0.006400  1.0  0.1146
  H  H87  1  0.417300  0.526100  0.994600  1.0  0.1123
  H  H88  1  0.494600  0.531200  0.958400  1.0  0.114
  H  H89  1  0.477100  0.250700  0.748300  1.0  0.1168
  H  H90  1  0.467100  0.328900  0.787200  1.0  0.1255
  H  H91  1  0.666800  0.339600  0.808300  1.0  0.1114
  H  H92  1  0.676800  0.261400  0.769400  1.0  0.1161
  H  H93  1  0.687900  0.963300  0.758300  1.0  0.1154
  H  H94  1  0.687100  0.904100  0.800700  1.0  0.124
  H  H95  1  0.490700  0.926300  0.807200  1.0  0.1255
  H  H96  1  0.491500  0.985500  0.764800  1.0  0.117
  H  H97  1  0.679600  0.708000  0.917600  1.0  0.1158
  H  H98  1  0.684000  0.788000  0.882500  1.0  0.122
  H  H99  1  0.482000  0.784600  0.881000  1.0  0.1239
  H  H100  1  0.477600  0.704600  0.916100  1.0  0.1085
  H  H101  1  0.669300  0.576300  0.914600  1.0  0.106
  H  H102  1  0.663400  0.494600  0.875700  1.0  0.1144
  H  H103  1  0.460700  0.485100  0.870100  1.0  0.1247
  H  H104  1  0.466500  0.566700  0.909000  1.0  0.1115
  H  H105  1  0.514800  0.937400  0.616100  1.0  0.1176
  H  H106  1  0.525300  0.861500  0.576400  1.0  0.1216
  H  H107  1  0.727600  0.902200  0.586900  1.0  0.1186
  H  H108  1  0.717100  0.978100  0.626600  1.0  0.1178
  H  H109  1  0.536500  0.638100  0.461700  1.0  0.1115
  H  H110  1  0.538000  0.723400  0.498800  1.0  0.1183
  H  H111  1  0.740900  0.737100  0.507700  1.0  0.1197
  H  H112  1  0.739400  0.651800  0.470600  1.0  0.1142
  H  H113  1  0.688900  0.274300  0.635500  1.0  0.1112
  H  H114  1  0.695300  0.338900  0.594700  1.0  0.124
  H  H115  1  0.513400  0.247800  0.562400  1.0  0.1205
  H  H116  1  0.507100  0.183100  0.603200  1.0  0.1139
  H  H117  1  0.734000  0.520600  0.470200  1.0  0.1165
  H  H118  1  0.728900  0.443300  0.506400  1.0  0.1144
  H  H119  1  0.526100  0.417300  0.494600  1.0  0.1122
  H  H120  1  0.531200  0.494600  0.458400  1.0  0.1165
  H  H121  1  0.250700  0.477100  0.248300  1.0  0.1172
  H  H122  1  0.328900  0.467100  0.287200  1.0  0.1237
  H  H123  1  0.339600  0.666800  0.308300  1.0  0.1113
  H  H124  1  0.261400  0.676800  0.269400  1.0  0.1159
  H  H125  1  0.963300  0.687900  0.258300  1.0  0.1153
  H  H126  1  0.904100  0.687100  0.300700  1.0  0.1247
  H  H127  1  0.926300  0.490700  0.307200  1.0  0.1262
  H  H128  1  0.985500  0.491500  0.264800  1.0  0.1165
  H  H129  1  0.708000  0.679600  0.417600  1.0  0.1154
  H  H130  1  0.788000  0.684000  0.382500  1.0  0.123
  H  H131  1  0.784600  0.482000  0.381000  1.0  0.1237
  H  H132  1  0.704600  0.477600  0.416100  1.0  0.1081
  H  H133  1  0.576300  0.669300  0.414600  1.0  0.1043
  H  H134  1  0.494600  0.663400  0.375700  1.0  0.1146
  H  H135  1  0.485100  0.460700  0.370100  1.0  0.1253
  H  H136  1  0.566700  0.466500  0.409000  1.0  0.1124
  C  C137  1  0.385100  0.034700  0.374720  1.0  -0.1625
  C  C138  1  0.442600  0.069600  0.389800  1.0  -0.0588
  C  C139  1  0.436300  0.115100  0.413600  1.0  -0.13
  C  C140  1  0.372500  0.125700  0.422300  1.0  0.0128
  C  C141  1  0.315000  0.090800  0.407200  1.0  -0.1035
  C  C142  1  0.321300  0.045300  0.383500  1.0  -0.0621
  C  C143  1  0.362200  0.363600  0.537540  1.0  -0.0063
  C  C144  1  0.422500  0.342100  0.529100  1.0  -0.095
  C  C145  1  0.421600  0.291000  0.506900  1.0  -0.2337
  C  C146  1  0.360400  0.261400  0.493070  1.0  0.1034
  C  C147  1  0.300100  0.282700  0.501500  1.0  -0.0674
  C  C148  1  0.301000  0.333800  0.523800  1.0  -0.1277
  C  C149  1  0.402600  0.777800  0.376640  1.0  -0.1308
  C  C150  1  0.346300  0.731100  0.379200  1.0  -0.0529
  C  C151  1  0.342500  0.692300  0.403600  1.0  -0.1207
  C  C152  1  0.395000  0.700200  0.425400  1.0  -0.0053
  C  C153  1  0.451400  0.747000  0.422900  1.0  -0.0751
  C  C154  1  0.455100  0.785700  0.398500  1.0  -0.0727
  C  C155  1  0.366900  0.484700  0.539280  1.0  0.0023
  C  C156  1  0.307700  0.500100  0.524900  1.0  -0.1166
  C  C157  1  0.310700  0.546500  0.503200  1.0  -0.077
  C  C158  1  0.373000  0.577400  0.495900  1.0  0.0224
  C  C159  1  0.432200  0.562000  0.510300  1.0  -0.2064
  C  C160  1  0.429100  0.515700  0.532000  1.0  -0.1308
  C  C161  1  0.751700  0.422100  0.745030  1.0  -0.1007
  C  C162  1  0.731500  0.484900  0.739700  1.0  -0.0531
  C  C163  1  0.684600  0.490800  0.716400  1.0  -0.1334
  C  C164  1  0.658000  0.434000  0.698430  1.0  0.0398
  C  C165  1  0.678200  0.371200  0.703800  1.0  -0.0973
  C  C166  1  0.725100  0.365300  0.727100  1.0  -0.0357
  C  C167  1  0.019800  0.410200  0.742690  1.0  -0.1342
  C  C168  1  0.044100  0.351700  0.731900  1.0  -0.0544
  C  C169  1  0.079600  0.352200  0.706500  1.0  -0.1371
  C  C170  1  0.090700  0.411300  0.691870  1.0  0.1542
  C  C171  1  0.066400  0.469800  0.702600  1.0  -0.1295
  C  C172  1  0.030900  0.469300  0.728000  1.0  -0.053
  C  C173  1  0.301600  0.421800  0.579690  1.0  0.0107
  C  C174  1  0.276600  0.360000  0.589700  1.0  -0.1294
  C  C175  1  0.228700  0.357300  0.610800  1.0  -0.1217
  C  C176  1  0.205800  0.416600  0.621700  1.0  0.1012
  C  C177  1  0.230800  0.478400  0.611700  1.0  -0.1173
  C  C178  1  0.278800  0.481000  0.590600  1.0  -0.1241
  C  C179  1  0.420400  0.431600  0.584330  1.0  -0.0122
  C  C180  1  0.442000  0.372600  0.594300  1.0  -0.14
  C  C181  1  0.490900  0.376100  0.617600  1.0  -0.0827
  C  C182  1  0.518200  0.438600  0.630990  1.0  0.0073
  C  C183  1  0.496600  0.497600  0.621000  1.0  -0.1032
  C  C184  1  0.447800  0.494000  0.597700  1.0  -0.1353
  C  C185  1  0.363600  0.426400  0.560300  1.0  -0.0324
  C  C186  1  0.393900  0.985700  0.350000  1.0  0.6624
  C  C187  1  0.409500  0.819300  0.350000  1.0  0.5652
  C  C188  1  0.804100  0.418700  0.770600  1.0  0.6678
  C  C189  1  0.977100  0.409100  0.768900  1.0  0.6774
  C  C190  1  0.367400  0.213000  0.469200  1.0  -0.0075
  C  C191  1  0.369000  0.175000  0.447900  1.0  -0.0875
  C  C192  1  0.385700  0.622300  0.472200  1.0  0.0205
  C  C193  1  0.389500  0.657300  0.450800  1.0  0.0904
  C  C194  1  0.122300  0.412700  0.664400  1.0  0.0498
  C  C195  1  0.166300  0.415700  0.646900  1.0  -0.053
  C  C196  1  0.569600  0.445200  0.655500  1.0  -0.0167
  C  C197  1  0.611600  0.441200  0.675400  1.0  -0.0666
  C  C198  1  0.034700  0.385100  0.874720  1.0  -0.1642
  C  C199  1  0.069600  0.442600  0.889800  1.0  -0.0621
  C  C200  1  0.115100  0.436300  0.913600  1.0  -0.1311
  C  C201  1  0.125700  0.372500  0.922300  1.0  0.0149
  C  C202  1  0.090800  0.315000  0.907200  1.0  -0.1073
  C  C203  1  0.045300  0.321300  0.883500  1.0  -0.0639
  C  C204  1  0.363600  0.362200  0.037540  1.0  -0.0065
  C  C205  1  0.342100  0.422500  0.029100  1.0  -0.0907
  C  C206  1  0.291000  0.421600  0.006900  1.0  -0.2305
  C  C207  1  0.261400  0.360400  0.993070  1.0  0.103
  C  C208  1  0.282700  0.300100  0.001500  1.0  -0.0676
  C  C209  1  0.333800  0.301000  0.023800  1.0  -0.1281
  C  C210  1  0.777800  0.402600  0.876640  1.0  -0.1309
  C  C211  1  0.731100  0.346300  0.879200  1.0  -0.0533
  C  C212  1  0.692300  0.342500  0.903600  1.0  -0.1207
  C  C213  1  0.700200  0.395000  0.925400  1.0  -0.0069
  C  C214  1  0.747000  0.451400  0.922900  1.0  -0.0718
  C  C215  1  0.785700  0.455100  0.898500  1.0  -0.072
  C  C216  1  0.484700  0.366900  0.039280  1.0  0.0037
  C  C217  1  0.500100  0.307700  0.024900  1.0  -0.1166
  C  C218  1  0.546500  0.310700  0.003200  1.0  -0.0792
  C  C219  1  0.577400  0.373000  0.995900  1.0  0.0207
  C  C220  1  0.562000  0.432200  0.010300  1.0  -0.2085
  C  C221  1  0.515700  0.429100  0.032000  1.0  -0.1247
  C  C222  1  0.422100  0.751700  0.245030  1.0  -0.1002
  C  C223  1  0.484900  0.731500  0.239700  1.0  -0.0513
  C  C224  1  0.490800  0.684600  0.216400  1.0  -0.1301
  C  C225  1  0.434000  0.658000  0.198430  1.0  0.0362
  C  C226  1  0.371200  0.678200  0.203800  1.0  -0.0957
  C  C227  1  0.365300  0.725100  0.227100  1.0  -0.0357
  C  C228  1  0.410200  0.019800  0.242690  1.0  -0.1336
  C  C229  1  0.351700  0.044100  0.231900  1.0  -0.0544
  C  C230  1  0.352200  0.079600  0.206500  1.0  -0.1368
  C  C231  1  0.411300  0.090700  0.191870  1.0  0.1529
  C  C232  1  0.469800  0.066400  0.202600  1.0  -0.1299
  C  C233  1  0.469300  0.030900  0.228000  1.0  -0.0541
  C  C234  1  0.421800  0.301600  0.079690  1.0  0.0148
  C  C235  1  0.360000  0.276600  0.089700  1.0  -0.1291
  C  C236  1  0.357300  0.228700  0.110800  1.0  -0.1202
  C  C237  1  0.416600  0.205800  0.121700  1.0  0.1017
  C  C238  1  0.478400  0.230800  0.111700  1.0  -0.1193
  C  C239  1  0.481000  0.278800  0.090600  1.0  -0.1222
  C  C240  1  0.431600  0.420400  0.084330  1.0  -0.0121
  C  C241  1  0.372600  0.442000  0.094300  1.0  -0.1366
  C  C242  1  0.376100  0.490900  0.117600  1.0  -0.0832
  C  C243  1  0.438600  0.518200  0.130990  1.0  0.0047
  C  C244  1  0.497600  0.496600  0.121000  1.0  -0.1049
  C  C245  1  0.494000  0.447800  0.097700  1.0  -0.1298
  C  C246  1  0.426400  0.363600  0.060300  1.0  -0.0345
  C  C247  1  0.985700  0.393900  0.850000  1.0  0.663
  C  C248  1  0.819300  0.409500  0.850000  1.0  0.564
  C  C249  1  0.418700  0.804100  0.270600  1.0  0.6682
  C  C250  1  0.409100  0.977100  0.268900  1.0  0.6773
  C  C251  1  0.213000  0.367400  0.969200  1.0  -0.0092
  C  C252  1  0.175000  0.369000  0.947900  1.0  -0.0882
  C  C253  1  0.622300  0.385700  0.972200  1.0  0.0207
  C  C254  1  0.657300  0.389500  0.950800  1.0  0.0897
  C  C255  1  0.412700  0.122300  0.164400  1.0  0.0491
  C  C256  1  0.415700  0.166300  0.146900  1.0  -0.0509
  C  C257  1  0.445200  0.569600  0.155500  1.0  -0.0144
  C  C258  1  0.441200  0.611600  0.175400  1.0  -0.0619
  C  C259  1  0.965300  0.614900  0.125280  1.0  -0.1639
  C  C260  1  0.930400  0.557400  0.110200  1.0  -0.0617
  C  C261  1  0.884900  0.563700  0.086400  1.0  -0.1329
  C  C262  1  0.874300  0.627500  0.077700  1.0  0.0157
  C  C263  1  0.909200  0.685000  0.092800  1.0  -0.1054
  C  C264  1  0.954700  0.678700  0.116500  1.0  -0.0634
  C  C265  1  0.636400  0.637800  0.962460  1.0  -0.0055
  C  C266  1  0.657900  0.577500  0.970900  1.0  -0.09
  C  C267  1  0.709000  0.578400  0.993100  1.0  -0.2309
  C  C268  1  0.738600  0.639600  0.006930  1.0  0.0987
  C  C269  1  0.717300  0.699900  0.998500  1.0  -0.0659
  C  C270  1  0.666200  0.699000  0.976200  1.0  -0.1287
  C  C271  1  0.222200  0.597400  0.123360  1.0  -0.1305
  C  C272  1  0.268900  0.653700  0.120800  1.0  -0.0549
  C  C273  1  0.307700  0.657500  0.096400  1.0  -0.1203
  C  C274  1  0.299800  0.605000  0.074600  1.0  -0.0058
  C  C275  1  0.253000  0.548600  0.077100  1.0  -0.0714
  C  C276  1  0.214300  0.544900  0.101500  1.0  -0.0716
  C  C277  1  0.515300  0.633100  0.960720  1.0  0.0033
  C  C278  1  0.499900  0.692300  0.975100  1.0  -0.1189
  C  C279  1  0.453500  0.689300  0.996800  1.0  -0.0779
  C  C280  1  0.422600  0.627000  0.004100  1.0  0.0208
  C  C281  1  0.438000  0.567800  0.989700  1.0  -0.2071
  C  C282  1  0.484300  0.570900  0.968000  1.0  -0.1244
  C  C283  1  0.577900  0.248300  0.754970  1.0  -0.101
  C  C284  1  0.515100  0.268500  0.760300  1.0  -0.0516
  C  C285  1  0.509200  0.315400  0.783600  1.0  -0.1312
  C  C286  1  0.566000  0.342000  0.801570  1.0  0.0376
  C  C287  1  0.628800  0.321800  0.796200  1.0  -0.0954
  C  C288  1  0.634700  0.274900  0.772900  1.0  -0.0347
  C  C289  1  0.589800  0.980200  0.757310  1.0  -0.1337
  C  C290  1  0.648300  0.955900  0.768100  1.0  -0.0554
  C  C291  1  0.647800  0.920400  0.793500  1.0  -0.1341
  C  C292  1  0.588700  0.909300  0.808130  1.0  0.1526
  C  C293  1  0.530200  0.933600  0.797400  1.0  -0.1273
  C  C294  1  0.530700  0.969100  0.772000  1.0  -0.0544
  C  C295  1  0.578200  0.698400  0.920310  1.0  0.0157
  C  C296  1  0.640000  0.723400  0.910300  1.0  -0.1282
  C  C297  1  0.642700  0.771300  0.889200  1.0  -0.1191
  C  C298  1  0.583400  0.794200  0.878300  1.0  0.1021
  C  C299  1  0.521600  0.769200  0.888300  1.0  -0.1195
  C  C300  1  0.519000  0.721200  0.909400  1.0  -0.1221
  C  C301  1  0.568400  0.579600  0.915670  1.0  -0.0134
  C  C302  1  0.627400  0.558000  0.905700  1.0  -0.1396
  C  C303  1  0.623900  0.509100  0.882400  1.0  -0.0815
  C  C304  1  0.561400  0.481800  0.869010  1.0  0.0048
  C  C305  1  0.502400  0.503400  0.879000  1.0  -0.1051
  C  C306  1  0.506000  0.552200  0.902300  1.0  -0.128
  C  C307  1  0.573600  0.636400  0.939700  1.0  -0.0333
  C  C308  1  0.014300  0.606100  0.150000  1.0  0.6624
  C  C309  1  0.180700  0.590500  0.150000  1.0  0.5645
  C  C310  1  0.581300  0.195900  0.729400  1.0  0.668
  C  C311  1  0.590900  0.022900  0.731100  1.0  0.6766
  C  C312  1  0.787000  0.632600  0.030800  1.0  -0.0091
  C  C313  1  0.825000  0.631000  0.052100  1.0  -0.0892
  C  C314  1  0.377700  0.614300  0.027800  1.0  0.0207
  C  C315  1  0.342700  0.610500  0.049200  1.0  0.0899
  C  C316  1  0.587300  0.877700  0.835600  1.0  0.0496
  C  C317  1  0.584300  0.833700  0.853100  1.0  -0.0531
  C  C318  1  0.554800  0.430400  0.844500  1.0  -0.0177
  C  C319  1  0.558800  0.388400  0.824600  1.0  -0.0621
  C  C320  1  0.614900  0.965300  0.625280  1.0  -0.1624
  C  C321  1  0.557400  0.930400  0.610200  1.0  -0.0609
  C  C322  1  0.563700  0.884900  0.586400  1.0  -0.1301
  C  C323  1  0.627500  0.874300  0.577700  1.0  0.0148
  C  C324  1  0.685000  0.909200  0.592800  1.0  -0.1043
  C  C325  1  0.678700  0.954700  0.616500  1.0  -0.0605
  C  C326  1  0.637800  0.636400  0.462460  1.0  -0.0043
  C  C327  1  0.577500  0.657900  0.470900  1.0  -0.0951
  C  C328  1  0.578400  0.709000  0.493100  1.0  -0.2321
  C  C329  1  0.639600  0.738600  0.506930  1.0  0.1018
  C  C330  1  0.699900  0.717300  0.498500  1.0  -0.0657
  C  C331  1  0.699000  0.666200  0.476200  1.0  -0.1276
  C  C332  1  0.597400  0.222200  0.623360  1.0  -0.1324
  C  C333  1  0.653700  0.268900  0.620800  1.0  -0.0519
  C  C334  1  0.657500  0.307700  0.596400  1.0  -0.1209
  C  C335  1  0.605000  0.299800  0.574600  1.0  -0.0066
  C  C336  1  0.548600  0.253000  0.577100  1.0  -0.0744
  C  C337  1  0.544900  0.214300  0.601500  1.0  -0.074
  C  C338  1  0.633100  0.515300  0.460720  1.0  0.0042
  C  C339  1  0.692300  0.499900  0.475100  1.0  -0.1165
  C  C340  1  0.689300  0.453500  0.496800  1.0  -0.0744
  C  C341  1  0.627000  0.422600  0.504100  1.0  0.0208
  C  C342  1  0.567800  0.438000  0.489700  1.0  -0.2078
  C  C343  1  0.570900  0.484300  0.468000  1.0  -0.1296
  C  C344  1  0.248300  0.577900  0.254970  1.0  -0.1016
  C  C345  1  0.268500  0.515100  0.260300  1.0  -0.054
  C  C346  1  0.315400  0.509200  0.283600  1.0  -0.1363
  C  C347  1  0.342000  0.566000  0.301570  1.0  0.0376
  C  C348  1  0.321800  0.628800  0.296200  1.0  -0.0974
  C  C349  1  0.274900  0.634700  0.272900  1.0  -0.0362
  C  C350  1  0.980200  0.589800  0.257310  1.0  -0.1353
  C  C351  1  0.955900  0.648300  0.268100  1.0  -0.055
  C  C352  1  0.920400  0.647800  0.293500  1.0  -0.1352
  C  C353  1  0.909300  0.588700  0.308130  1.0  0.1529
  C  C354  1  0.933600  0.530200  0.297400  1.0  -0.127
  C  C355  1  0.969100  0.530700  0.272000  1.0  -0.0535
  C  C356  1  0.698400  0.578200  0.420310  1.0  0.0098
  C  C357  1  0.723400  0.640000  0.410300  1.0  -0.1268
  C  C358  1  0.771300  0.642700  0.389200  1.0  -0.1202
  C  C359  1  0.794200  0.583400  0.378300  1.0  0.1025
  C  C360  1  0.769200  0.521600  0.388300  1.0  -0.1191
  C  C361  1  0.721200  0.519000  0.409400  1.0  -0.1252
  C  C362  1  0.579600  0.568400  0.415670  1.0  -0.0129
  C  C363  1  0.558000  0.627400  0.405700  1.0  -0.1411
  C  C364  1  0.509100  0.623900  0.382400  1.0  -0.0817
  C  C365  1  0.481800  0.561400  0.369010  1.0  0.0067
  C  C366  1  0.503400  0.502400  0.379000  1.0  -0.1039
  C  C367  1  0.552200  0.506000  0.402300  1.0  -0.1354
  C  C368  1  0.636400  0.573600  0.439700  1.0  -0.0344
  C  C369  1  0.606100  0.014300  0.650000  1.0  0.6631
  C  C370  1  0.590500  0.180700  0.650000  1.0  0.5659
  C  C371  1  0.195900  0.581300  0.229400  1.0  0.6673
  C  C372  1  0.022900  0.590900  0.231100  1.0  0.6778
  C  C373  1  0.632600  0.787000  0.530800  1.0  -0.0093
  C  C374  1  0.631000  0.825000  0.552100  1.0  -0.0879
  C  C375  1  0.614300  0.377700  0.527800  1.0  0.0234
  C  C376  1  0.610500  0.342700  0.549200  1.0  0.0901
  C  C377  1  0.877700  0.587300  0.335600  1.0  0.0487
  C  C378  1  0.833700  0.584300  0.353100  1.0  -0.0539
  C  C379  1  0.430400  0.554800  0.344500  1.0  -0.0208
  C  C380  1  0.388400  0.558800  0.324600  1.0  -0.0638
  O  O381  1  0.452700  0.981300  0.342000  1.0  -0.5604
  O  O382  1  0.335900  0.952700  0.339100  1.0  -0.5806
  O  O383  1  0.351200  0.815800  0.335100  1.0  -0.607
  O  O384  1  0.469300  0.851300  0.347300  1.0  -0.5739
  O  O385  1  0.829700  0.473500  0.787100  1.0  -0.5865
  O  O386  1  0.821600  0.360400  0.774700  1.0  -0.5771
  O  O387  1  0.962800  0.466200  0.780800  1.0  -0.5758
  O  O388  1  0.957000  0.350800  0.777900  1.0  -0.5742
  O  O389  1  0.981300  0.452700  0.842000  1.0  -0.5609
  O  O390  1  0.952700  0.335900  0.839100  1.0  -0.5828
  O  O391  1  0.815800  0.351200  0.835100  1.0  -0.6082
  O  O392  1  0.851300  0.469300  0.847300  1.0  -0.5723
  O  O393  1  0.473500  0.829700  0.287100  1.0  -0.5818
  O  O394  1  0.360400  0.821600  0.274700  1.0  -0.5751
  O  O395  1  0.466200  0.962800  0.280800  1.0  -0.5697
  O  O396  1  0.350800  0.957000  0.277900  1.0  -0.5709
  O  O397  1  0.018700  0.547300  0.158000  1.0  -0.5609
  O  O398  1  0.047300  0.664100  0.160900  1.0  -0.581
  O  O399  1  0.184200  0.648800  0.164900  1.0  -0.6065
  O  O400  1  0.148700  0.530700  0.152700  1.0  -0.574
  O  O401  1  0.526500  0.170300  0.712900  1.0  -0.5868
  O  O402  1  0.639600  0.178400  0.725300  1.0  -0.5762
  O  O403  1  0.533800  0.037200  0.719200  1.0  -0.5707
  O  O404  1  0.649200  0.043000  0.722100  1.0  -0.5724
  O  O405  1  0.547300  0.018700  0.658000  1.0  -0.5621
  O  O406  1  0.664100  0.047300  0.660900  1.0  -0.5805
  O  O407  1  0.648800  0.184200  0.664900  1.0  -0.6058
  O  O408  1  0.530700  0.148700  0.652700  1.0  -0.5736
  O  O409  1  0.170300  0.526500  0.212900  1.0  -0.5889
  O  O410  1  0.178400  0.639600  0.225300  1.0  -0.5767
  O  O411  1  0.037200  0.533800  0.219200  1.0  -0.5739
  O  O412  1  0.043000  0.649200  0.222100  1.0  -0.5733
