# generated using pymatgen
data_ZnH12C18NO4
_symmetry_space_group_name_H-M   'P 1'
_cell_length_a   10.93100000
_cell_length_b   16.20990000
_cell_length_c   43.60200000
_cell_angle_alpha   90.00000000
_cell_angle_beta   92.75400000
_cell_angle_gamma   90.00000000
_symmetry_Int_Tables_number   1
_chemical_formula_structural   ZnH12C18NO4
_chemical_formula_sum   'Zn16 H192 C288 N16 O64'
_cell_volume   7716.93346024
_cell_formula_units_Z   16
loop_
 _symmetry_equiv_pos_site_id
 _symmetry_equiv_pos_as_xyz
  1  'x, y, z'
loop_
 _atom_site_type_symbol
 _atom_site_label
 _atom_site_symmetry_multiplicity
 _atom_site_fract_x
 _atom_site_fract_y
 _atom_site_fract_z
 _atom_site_occupancy
 _atom_site_charge
  Zn  Zn1  1  0.318860  0.860310  0.198900  1.0  0.9311
  Zn  Zn2  1  0.311720  0.679430  0.198500  1.0  0.9007
  Zn  Zn3  1  0.320040  0.655740  0.951680  1.0  0.9432
  Zn  Zn4  1  0.315400  0.837300  0.947870  1.0  0.9027
  Zn  Zn5  1  0.318860  0.639690  0.698900  1.0  0.931
  Zn  Zn6  1  0.311720  0.820570  0.698500  1.0  0.9007
  Zn  Zn7  1  0.320040  0.844260  0.451680  1.0  0.9437
  Zn  Zn8  1  0.315400  0.662700  0.447870  1.0  0.9022
  Zn  Zn9  1  0.681140  0.360310  0.301100  1.0  0.9319
  Zn  Zn10  1  0.688280  0.179430  0.301500  1.0  0.9016
  Zn  Zn11  1  0.679960  0.155740  0.548320  1.0  0.9435
  Zn  Zn12  1  0.684600  0.337300  0.552130  1.0  0.9036
  Zn  Zn13  1  0.681140  0.139690  0.801100  1.0  0.9321
  Zn  Zn14  1  0.688280  0.320570  0.801500  1.0  0.9015
  Zn  Zn15  1  0.679960  0.344260  0.048320  1.0  0.9442
  Zn  Zn16  1  0.684600  0.162700  0.052130  1.0  0.9033
  H  H17  1  0.389700  0.656400  0.298700  1.0  0.0984
  H  H18  1  0.384800  0.656000  0.352000  1.0  0.1105
  H  H19  1  0.193300  0.902300  0.375500  1.0  0.1062
  H  H20  1  0.106500  0.008500  0.347700  1.0  0.1069
  H  H21  1  0.104800  0.006500  0.293900  1.0  0.1043
  H  H22  1  0.194000  0.899600  0.268900  1.0  0.101
  H  H23  1  0.710100  0.656600  0.186400  1.0  0.1025
  H  H24  1  0.921300  0.659200  0.187600  1.0  0.101
  H  H25  1  0.022500  0.923200  0.224600  1.0  0.1017
  H  H26  1  0.912900  0.033900  0.240400  1.0  0.1129
  H  H27  1  0.700900  0.027000  0.241500  1.0  0.1022
  H  H28  1  0.598700  0.910100  0.225900  1.0  0.1006
  H  H29  1  0.350000  0.664100  0.105200  1.0  0.1053
  H  H30  1  0.350200  0.648000  0.052400  1.0  0.101
  H  H31  1  0.185600  0.891500  0.012900  1.0  0.1034
  H  H32  1  0.100900  0.005600  0.033200  1.0  0.0963
  H  H33  1  0.089100  0.020900  0.085900  1.0  0.1209
  H  H34  1  0.161000  0.919000  0.118400  1.0  0.1024
  H  H35  1  0.721700  0.858400  0.965700  1.0  0.1043
  H  H36  1  0.933600  0.848800  0.966800  1.0  0.0952
  H  H37  1  0.007900  0.611000  0.910200  1.0  0.0982
  H  H38  1  0.887000  0.514900  0.885500  1.0  0.1069
  H  H39  1  0.675000  0.521800  0.886800  1.0  0.1165
  H  H40  1  0.585000  0.624600  0.913600  1.0  0.1053
  H  H41  1  0.494700  0.544900  0.194700  1.0  0.0874
  H  H42  1  0.504000  0.405800  0.186200  1.0  0.1083
  H  H43  1  0.138900  0.399400  0.180300  1.0  0.1128
  H  H44  1  0.137200  0.539500  0.189100  1.0  0.0828
  H  H45  1  0.393800  0.281500  0.164200  1.0  0.0936
  H  H46  1  0.250800  0.277500  0.166000  1.0  0.0885
  H  H47  1  0.418300  0.266100  0.217800  1.0  0.1127
  H  H48  1  0.276200  0.267300  0.220700  1.0  0.1297
  H  H49  1  0.304700  0.145500  0.159300  1.0  0.1265
  H  H50  1  0.293600  0.004600  0.158800  1.0  0.0834
  H  H51  1  0.369700  0.992800  0.246700  1.0  0.08
  H  H52  1  0.379800  0.133300  0.250300  1.0  0.1127
  H  H53  1  0.338900  0.526700  0.998700  1.0  0.0853
  H  H54  1  0.368200  0.388100  0.004100  1.0  0.1198
  H  H55  1  0.362300  0.370000  0.912700  1.0  0.1317
  H  H56  1  0.339400  0.509900  0.909800  1.0  0.0805
  H  H57  1  0.437800  0.251100  0.946100  1.0  0.0813
  H  H58  1  0.429800  0.258700  0.981800  1.0  0.0831
  H  H59  1  0.221100  0.244100  0.942700  1.0  0.102
  H  H60  1  0.224500  0.238100  0.978600  1.0  0.115
  H  H61  1  0.113500  0.110200  0.943000  1.0  0.1082
  H  H62  1  0.131000  0.971500  0.938400  1.0  0.0787
  H  H63  1  0.473000  0.978700  0.966400  1.0  0.0802
  H  H64  1  0.462500  0.119600  0.973100  1.0  0.1148
  H  H65  1  0.389700  0.843600  0.798700  1.0  0.0983
  H  H66  1  0.384800  0.844000  0.852000  1.0  0.1104
  H  H67  1  0.193300  0.597700  0.875500  1.0  0.1063
  H  H68  1  0.106500  0.491500  0.847700  1.0  0.1067
  H  H69  1  0.104800  0.493500  0.793900  1.0  0.1045
  H  H70  1  0.194000  0.600400  0.768900  1.0  0.101
  H  H71  1  0.710100  0.843400  0.686400  1.0  0.1026
  H  H72  1  0.921300  0.840800  0.687600  1.0  0.1013
  H  H73  1  0.022500  0.576800  0.724600  1.0  0.1005
  H  H74  1  0.912900  0.466100  0.740400  1.0  0.1129
  H  H75  1  0.700900  0.473000  0.741500  1.0  0.1018
  H  H76  1  0.598700  0.589900  0.725900  1.0  0.0998
  H  H77  1  0.350000  0.835900  0.605200  1.0  0.1054
  H  H78  1  0.350200  0.852000  0.552400  1.0  0.1015
  H  H79  1  0.185600  0.608500  0.512900  1.0  0.1039
  H  H80  1  0.100900  0.494400  0.533200  1.0  0.0957
  H  H81  1  0.089100  0.479100  0.585900  1.0  0.121
  H  H82  1  0.161000  0.581000  0.618400  1.0  0.1031
  H  H83  1  0.721700  0.641600  0.465700  1.0  0.1043
  H  H84  1  0.933600  0.651200  0.466800  1.0  0.0958
  H  H85  1  0.007900  0.889000  0.410200  1.0  0.0998
  H  H86  1  0.887000  0.985100  0.385500  1.0  0.1067
  H  H87  1  0.675000  0.978200  0.386800  1.0  0.1163
  H  H88  1  0.585000  0.875400  0.413600  1.0  0.1056
  H  H89  1  0.494700  0.955100  0.694700  1.0  0.0874
  H  H90  1  0.504000  0.094200  0.686200  1.0  0.1084
  H  H91  1  0.138900  0.100600  0.680300  1.0  0.1132
  H  H92  1  0.137200  0.960500  0.689100  1.0  0.0828
  H  H93  1  0.393800  0.218500  0.664200  1.0  0.094
  H  H94  1  0.250800  0.222500  0.666000  1.0  0.0863
  H  H95  1  0.418300  0.233900  0.717800  1.0  0.1126
  H  H96  1  0.276200  0.232700  0.720700  1.0  0.1295
  H  H97  1  0.304700  0.354500  0.659300  1.0  0.1268
  H  H98  1  0.293600  0.495400  0.658800  1.0  0.0823
  H  H99  1  0.369700  0.507200  0.746700  1.0  0.0802
  H  H100  1  0.379800  0.366700  0.750300  1.0  0.1128
  H  H101  1  0.338900  0.973300  0.498700  1.0  0.0848
  H  H102  1  0.368200  0.111900  0.504100  1.0  0.1202
  H  H103  1  0.362300  0.130000  0.412700  1.0  0.1321
  H  H104  1  0.339400  0.990100  0.409800  1.0  0.0805
  H  H105  1  0.437800  0.248900  0.446100  1.0  0.082
  H  H106  1  0.429800  0.241300  0.481800  1.0  0.0837
  H  H107  1  0.221100  0.255900  0.442700  1.0  0.1022
  H  H108  1  0.224500  0.261900  0.478600  1.0  0.1153
  H  H109  1  0.113500  0.389800  0.443000  1.0  0.1084
  H  H110  1  0.131000  0.528500  0.438400  1.0  0.0788
  H  H111  1  0.473000  0.521300  0.466400  1.0  0.0773
  H  H112  1  0.462500  0.380400  0.473100  1.0  0.1148
  H  H113  1  0.610300  0.156400  0.201300  1.0  0.0985
  H  H114  1  0.615200  0.156000  0.148000  1.0  0.11
  H  H115  1  0.806700  0.402300  0.124500  1.0  0.1057
  H  H116  1  0.893500  0.508500  0.152300  1.0  0.1063
  H  H117  1  0.895200  0.506500  0.206100  1.0  0.1038
  H  H118  1  0.806000  0.399600  0.231100  1.0  0.0995
  H  H119  1  0.289900  0.156600  0.313600  1.0  0.1028
  H  H120  1  0.078700  0.159200  0.312400  1.0  0.101
  H  H121  1  0.977500  0.423200  0.275400  1.0  0.1012
  H  H122  1  0.087100  0.533900  0.259600  1.0  0.1127
  H  H123  1  0.299100  0.527000  0.258500  1.0  0.1024
  H  H124  1  0.401300  0.410100  0.274100  1.0  0.1008
  H  H125  1  0.650000  0.164100  0.394800  1.0  0.1054
  H  H126  1  0.649800  0.148000  0.447600  1.0  0.1013
  H  H127  1  0.814400  0.391500  0.487100  1.0  0.1036
  H  H128  1  0.899100  0.505600  0.466800  1.0  0.0948
  H  H129  1  0.910900  0.520900  0.414100  1.0  0.1204
  H  H130  1  0.839000  0.419000  0.381600  1.0  0.1038
  H  H131  1  0.278300  0.358400  0.534300  1.0  0.1038
  H  H132  1  0.066400  0.348800  0.533200  1.0  0.0955
  H  H133  1  0.992100  0.111000  0.589800  1.0  0.0972
  H  H134  1  0.113000  0.014900  0.614500  1.0  0.107
  H  H135  1  0.325000  0.021800  0.613200  1.0  0.1163
  H  H136  1  0.415000  0.124600  0.586400  1.0  0.1054
  H  H137  1  0.505300  0.044900  0.305300  1.0  0.0843
  H  H138  1  0.496000  0.905800  0.313800  1.0  0.1086
  H  H139  1  0.861100  0.899400  0.319700  1.0  0.1137
  H  H140  1  0.862800  0.039500  0.310900  1.0  0.0829
  H  H141  1  0.606200  0.781500  0.335800  1.0  0.0942
  H  H142  1  0.749200  0.777500  0.334000  1.0  0.0862
  H  H143  1  0.581700  0.766100  0.282200  1.0  0.1113
  H  H144  1  0.723800  0.767300  0.279300  1.0  0.1295
  H  H145  1  0.695300  0.645500  0.340700  1.0  0.1264
  H  H146  1  0.706400  0.504600  0.341200  1.0  0.0826
  H  H147  1  0.630300  0.492800  0.253300  1.0  0.0807
  H  H148  1  0.620200  0.633300  0.249700  1.0  0.1124
  H  H149  1  0.661100  0.026700  0.501300  1.0  0.084
  H  H150  1  0.631800  0.888100  0.495900  1.0  0.1211
  H  H151  1  0.637700  0.870000  0.587300  1.0  0.1311
  H  H152  1  0.660600  0.009900  0.590200  1.0  0.0804
  H  H153  1  0.562200  0.751100  0.553900  1.0  0.0813
  H  H154  1  0.570200  0.758700  0.518200  1.0  0.0843
  H  H155  1  0.778900  0.744100  0.557300  1.0  0.1002
  H  H156  1  0.775500  0.738100  0.521400  1.0  0.1143
  H  H157  1  0.886500  0.610200  0.557000  1.0  0.1091
  H  H158  1  0.869000  0.471500  0.561600  1.0  0.0793
  H  H159  1  0.527000  0.478700  0.533600  1.0  0.0805
  H  H160  1  0.537500  0.619600  0.526900  1.0  0.1153
  H  H161  1  0.610300  0.343600  0.701300  1.0  0.0987
  H  H162  1  0.615200  0.344000  0.648000  1.0  0.1098
  H  H163  1  0.806700  0.097700  0.624500  1.0  0.1055
  H  H164  1  0.893500  0.991500  0.652300  1.0  0.1064
  H  H165  1  0.895200  0.993500  0.706100  1.0  0.1045
  H  H166  1  0.806000  0.100400  0.731100  1.0  0.0995
  H  H167  1  0.289900  0.343400  0.813600  1.0  0.1027
  H  H168  1  0.078700  0.340800  0.812400  1.0  0.1012
  H  H169  1  0.977500  0.076800  0.775400  1.0  0.0988
  H  H170  1  0.087100  0.966100  0.759600  1.0  0.1124
  H  H171  1  0.299100  0.973000  0.758500  1.0  0.1018
  H  H172  1  0.401300  0.089900  0.774100  1.0  0.101
  H  H173  1  0.650000  0.335900  0.894800  1.0  0.1062
  H  H174  1  0.649800  0.352000  0.947600  1.0  0.1013
  H  H175  1  0.814400  0.108500  0.987100  1.0  0.1036
  H  H176  1  0.899100  0.994400  0.966800  1.0  0.0947
  H  H177  1  0.910900  0.979100  0.914100  1.0  0.1205
  H  H178  1  0.839000  0.081000  0.881600  1.0  0.1042
  H  H179  1  0.278300  0.141600  0.034300  1.0  0.1042
  H  H180  1  0.066400  0.151200  0.033200  1.0  0.0957
  H  H181  1  0.992100  0.389000  0.089800  1.0  0.0983
  H  H182  1  0.113000  0.485100  0.114500  1.0  0.1073
  H  H183  1  0.325000  0.478200  0.113200  1.0  0.1158
  H  H184  1  0.415000  0.375400  0.086400  1.0  0.1053
  H  H185  1  0.505300  0.455100  0.805300  1.0  0.0844
  H  H186  1  0.496000  0.594200  0.813800  1.0  0.1089
  H  H187  1  0.861100  0.600600  0.819700  1.0  0.1142
  H  H188  1  0.862800  0.460500  0.810900  1.0  0.0827
  H  H189  1  0.606200  0.718500  0.835800  1.0  0.0943
  H  H190  1  0.749200  0.722500  0.834000  1.0  0.0851
  H  H191  1  0.581700  0.733900  0.782200  1.0  0.1121
  H  H192  1  0.723800  0.732700  0.779300  1.0  0.13
  H  H193  1  0.695300  0.854500  0.840700  1.0  0.1264
  H  H194  1  0.706400  0.995400  0.841200  1.0  0.0819
  H  H195  1  0.630300  0.007200  0.753300  1.0  0.0807
  H  H196  1  0.620200  0.866700  0.749700  1.0  0.1127
  H  H197  1  0.661100  0.473300  0.001300  1.0  0.0827
  H  H198  1  0.631800  0.611900  0.995900  1.0  0.1208
  H  H199  1  0.637700  0.630000  0.087300  1.0  0.1311
  H  H200  1  0.660600  0.490100  0.090200  1.0  0.0799
  H  H201  1  0.562200  0.748900  0.053900  1.0  0.081
  H  H202  1  0.570200  0.741300  0.018200  1.0  0.0837
  H  H203  1  0.778900  0.755900  0.057300  1.0  0.1
  H  H204  1  0.775500  0.761900  0.021400  1.0  0.1142
  H  H205  1  0.886500  0.889800  0.057000  1.0  0.1093
  H  H206  1  0.869000  0.028500  0.061600  1.0  0.0793
  H  H207  1  0.527000  0.021300  0.033600  1.0  0.0798
  H  H208  1  0.537500  0.880400  0.026900  1.0  0.1153
  C  C209  1  0.323600  0.765200  0.257630  1.0  0.6997
  C  C210  1  0.310800  0.766800  0.291780  1.0  -0.0997
  C  C211  1  0.356500  0.701300  0.308670  1.0  -0.0898
  C  C212  1  0.353800  0.701100  0.340930  1.0  -0.0712
  C  C213  1  0.306200  0.766400  0.356220  1.0  -0.1414
  C  C214  1  0.195200  0.901600  0.354230  1.0  -0.0924
  C  C215  1  0.142300  0.964700  0.337660  1.0  -0.1421
  C  C216  1  0.141900  0.963700  0.305150  1.0  -0.0999
  C  C217  1  0.195900  0.900200  0.290270  1.0  -0.1274
  C  C218  1  0.254900  0.834900  0.307040  1.0  0.0263
  C  C219  1  0.253500  0.834400  0.339510  1.0  0.0583
  C  C220  1  0.312100  0.762400  0.390660  1.0  0.7064
  C  C221  1  0.548000  0.766200  0.198860  1.0  0.6992
  C  C222  1  0.685900  0.770500  0.202510  1.0  -0.142
  C  C223  1  0.751300  0.703800  0.193230  1.0  -0.0735
  C  C224  1  0.879000  0.705600  0.193810  1.0  -0.0699
  C  C225  1  0.943800  0.774400  0.203360  1.0  -0.1624
  C  C226  1  0.937500  0.919900  0.224340  1.0  -0.0979
  C  C227  1  0.872200  0.986000  0.234050  1.0  -0.1268
  C  C228  1  0.744500  0.982000  0.234570  1.0  -0.0644
  C  C229  1  0.683500  0.912500  0.224970  1.0  -0.1329
  C  C230  1  0.748600  0.843100  0.213480  1.0  0.0582
  C  C231  1  0.879100  0.846200  0.213840  1.0  0.0496
  C  C232  1  0.081600  0.769100  0.202080  1.0  0.7229
  C  C233  1  0.289200  0.781600  0.140030  1.0  0.7186
  C  C234  1  0.278500  0.777300  0.105440  1.0  -0.1665
  C  C235  1  0.321500  0.706800  0.092560  1.0  -0.0637
  C  C236  1  0.323600  0.697400  0.060620  1.0  -0.1355
  C  C237  1  0.286800  0.760500  0.041400  1.0  -0.1353
  C  C238  1  0.183400  0.896900  0.034090  1.0  -0.1485
  C  C239  1  0.132000  0.964400  0.046220  1.0  -0.0698
  C  C240  1  0.124500  0.973800  0.078020  1.0  -0.1188
  C  C241  1  0.169300  0.913300  0.097420  1.0  -0.1187
  C  C242  1  0.228200  0.842200  0.086140  1.0  0.0559
  C  C243  1  0.234800  0.833500  0.053760  1.0  0.0527
  C  C244  1  0.307600  0.750600  0.007690  1.0  0.6988
  C  C245  1  0.551000  0.755100  0.947920  1.0  0.6942
  C  C246  1  0.687100  0.751000  0.944270  1.0  -0.1056
  C  C247  1  0.758500  0.812800  0.957020  1.0  -0.1176
  C  C248  1  0.886700  0.807800  0.957110  1.0  -0.0904
  C  C249  1  0.944100  0.743800  0.943170  1.0  -0.153
  C  C250  1  0.923300  0.614900  0.911100  1.0  -0.1029
  C  C251  1  0.851000  0.557200  0.896280  1.0  -0.1277
  C  C252  1  0.723300  0.561100  0.897090  1.0  -0.1306
  C  C253  1  0.669900  0.622600  0.913030  1.0  -0.1164
  C  C254  1  0.742100  0.684100  0.928820  1.0  0.0577
  C  C255  1  0.872700  0.680300  0.927880  1.0  0.0493
  C  C256  1  0.083100  0.743600  0.945910  1.0  0.7132
  C  C257  1  0.422300  0.515400  0.191690  1.0  0.1849
  C  C258  1  0.428300  0.431800  0.186590  1.0  -0.1568
  C  C259  1  0.322400  0.386300  0.182050  1.0  0.1192
  C  C260  1  0.212500  0.427900  0.183110  1.0  -0.193
  C  C261  1  0.211900  0.512300  0.188380  1.0  0.1681
  C  C262  1  0.326000  0.295100  0.176830  1.0  -0.1858
  C  C263  1  0.341000  0.249700  0.207740  1.0  -0.2466
  C  C264  1  0.338300  0.157000  0.205460  1.0  0.1612
  C  C265  1  0.315900  0.115900  0.177520  1.0  -0.2388
  C  C266  1  0.310700  0.031100  0.177370  1.0  0.1807
  C  C267  1  0.354900  0.024000  0.228970  1.0  0.1847
  C  C268  1  0.360800  0.108700  0.231380  1.0  -0.1824
  C  C269  1  0.344900  0.494700  0.981190  1.0  0.186
  C  C270  1  0.361200  0.411300  0.984580  1.0  -0.2215
  C  C271  1  0.367300  0.362000  0.959100  1.0  0.1553
  C  C272  1  0.358500  0.400900  0.930610  1.0  -0.179
  C  C273  1  0.344200  0.484900  0.928990  1.0  0.1826
  C  C274  1  0.387000  0.270200  0.962300  1.0  -0.1588
  C  C275  1  0.269400  0.225000  0.960550  1.0  -0.2282
  C  C276  1  0.283400  0.132400  0.958520  1.0  0.1349
  C  C277  1  0.188400  0.085300  0.948090  1.0  -0.1868
  C  C278  1  0.199800  0.001800  0.944870  1.0  0.1817
  C  C279  1  0.399800  0.005900  0.961420  1.0  0.1837
  C  C280  1  0.393900  0.090600  0.965630  1.0  -0.2572
  C  C281  1  0.323600  0.734800  0.757630  1.0  0.6992
  C  C282  1  0.310800  0.733200  0.791780  1.0  -0.0994
  C  C283  1  0.356500  0.798700  0.808670  1.0  -0.0883
  C  C284  1  0.353800  0.798900  0.840930  1.0  -0.072
  C  C285  1  0.306200  0.733600  0.856220  1.0  -0.1421
  C  C286  1  0.195200  0.598400  0.854230  1.0  -0.0937
  C  C287  1  0.142300  0.535300  0.837660  1.0  -0.1424
  C  C288  1  0.141900  0.536300  0.805150  1.0  -0.0995
  C  C289  1  0.195900  0.599800  0.790270  1.0  -0.127
  C  C290  1  0.254900  0.665100  0.807040  1.0  0.0269
  C  C291  1  0.253500  0.665600  0.839510  1.0  0.0592
  C  C292  1  0.312100  0.737600  0.890660  1.0  0.7055
  C  C293  1  0.548000  0.733800  0.698860  1.0  0.6993
  C  C294  1  0.685900  0.729500  0.702510  1.0  -0.1425
  C  C295  1  0.751300  0.796200  0.693230  1.0  -0.0734
  C  C296  1  0.879000  0.794400  0.693810  1.0  -0.0713
  C  C297  1  0.943800  0.725600  0.703360  1.0  -0.1627
  C  C298  1  0.937500  0.580100  0.724340  1.0  -0.0966
  C  C299  1  0.872200  0.514000  0.734050  1.0  -0.1281
  C  C300  1  0.744500  0.518000  0.734570  1.0  -0.0686
  C  C301  1  0.683500  0.587500  0.724970  1.0  -0.1307
  C  C302  1  0.748600  0.656900  0.713480  1.0  0.0577
  C  C303  1  0.879100  0.653800  0.713840  1.0  0.0493
  C  C304  1  0.081600  0.730900  0.702080  1.0  0.7268
  C  C305  1  0.289200  0.718400  0.640030  1.0  0.7201
  C  C306  1  0.278500  0.722700  0.605440  1.0  -0.1657
  C  C307  1  0.321500  0.793200  0.592560  1.0  -0.0629
  C  C308  1  0.323600  0.802600  0.560620  1.0  -0.1347
  C  C309  1  0.286800  0.739500  0.541400  1.0  -0.1349
  C  C310  1  0.183400  0.603100  0.534090  1.0  -0.1468
  C  C311  1  0.132000  0.535600  0.546220  1.0  -0.0723
  C  C312  1  0.124500  0.526200  0.578020  1.0  -0.1188
  C  C313  1  0.169300  0.586700  0.597420  1.0  -0.1188
  C  C314  1  0.228200  0.657800  0.586140  1.0  0.0557
  C  C315  1  0.234800  0.666500  0.553760  1.0  0.0526
  C  C316  1  0.307600  0.749400  0.507690  1.0  0.6988
  C  C317  1  0.551000  0.744900  0.447920  1.0  0.6944
  C  C318  1  0.687100  0.749000  0.444270  1.0  -0.1063
  C  C319  1  0.758500  0.687200  0.457020  1.0  -0.1182
  C  C320  1  0.886700  0.692200  0.457110  1.0  -0.0904
  C  C321  1  0.944100  0.756200  0.443170  1.0  -0.1531
  C  C322  1  0.923300  0.885100  0.411100  1.0  -0.1041
  C  C323  1  0.851000  0.942800  0.396280  1.0  -0.1281
  C  C324  1  0.723300  0.938900  0.397090  1.0  -0.1307
  C  C325  1  0.669900  0.877400  0.413030  1.0  -0.1136
  C  C326  1  0.742100  0.815900  0.428820  1.0  0.0586
  C  C327  1  0.872700  0.819700  0.427880  1.0  0.049
  C  C328  1  0.083100  0.756400  0.445910  1.0  0.7127
  C  C329  1  0.422300  0.984600  0.691690  1.0  0.1842
  C  C330  1  0.428300  0.068200  0.686590  1.0  -0.1577
  C  C331  1  0.322400  0.113700  0.682050  1.0  0.1194
  C  C332  1  0.212500  0.072100  0.683110  1.0  -0.1929
  C  C333  1  0.211900  0.987700  0.688380  1.0  0.1678
  C  C334  1  0.326000  0.204900  0.676830  1.0  -0.1865
  C  C335  1  0.341000  0.250300  0.707740  1.0  -0.2475
  C  C336  1  0.338300  0.343000  0.705460  1.0  0.1609
  C  C337  1  0.315900  0.384100  0.677520  1.0  -0.2429
  C  C338  1  0.310700  0.468900  0.677370  1.0  0.1865
  C  C339  1  0.354900  0.476000  0.728970  1.0  0.185
  C  C340  1  0.360800  0.391300  0.731380  1.0  -0.1827
  C  C341  1  0.344900  0.005300  0.481190  1.0  0.186
  C  C342  1  0.361200  0.088700  0.484580  1.0  -0.2216
  C  C343  1  0.367300  0.138000  0.459100  1.0  0.1555
  C  C344  1  0.358500  0.099100  0.430610  1.0  -0.1787
  C  C345  1  0.344200  0.015100  0.428990  1.0  0.1837
  C  C346  1  0.387000  0.229800  0.462300  1.0  -0.1586
  C  C347  1  0.269400  0.275000  0.460550  1.0  -0.2277
  C  C348  1  0.283400  0.367600  0.458520  1.0  0.1349
  C  C349  1  0.188400  0.414700  0.448090  1.0  -0.1877
  C  C350  1  0.199800  0.498200  0.444870  1.0  0.1812
  C  C351  1  0.399800  0.494100  0.461420  1.0  0.1888
  C  C352  1  0.393900  0.409400  0.465630  1.0  -0.2554
  C  C353  1  0.676400  0.265200  0.242370  1.0  0.7011
  C  C354  1  0.689200  0.266800  0.208220  1.0  -0.0982
  C  C355  1  0.643500  0.201300  0.191330  1.0  -0.0898
  C  C356  1  0.646200  0.201100  0.159070  1.0  -0.0706
  C  C357  1  0.693800  0.266400  0.143780  1.0  -0.1414
  C  C358  1  0.804800  0.401600  0.145770  1.0  -0.0914
  C  C359  1  0.857700  0.464700  0.162340  1.0  -0.1391
  C  C360  1  0.858100  0.463700  0.194850  1.0  -0.099
  C  C361  1  0.804100  0.400200  0.209730  1.0  -0.1279
  C  C362  1  0.745100  0.334900  0.192960  1.0  0.0256
  C  C363  1  0.746500  0.334400  0.160490  1.0  0.0588
  C  C364  1  0.687900  0.262400  0.109340  1.0  0.7075
  C  C365  1  0.452000  0.266200  0.301140  1.0  0.7036
  C  C366  1  0.314100  0.270500  0.297490  1.0  -0.1383
  C  C367  1  0.248700  0.203800  0.306770  1.0  -0.0746
  C  C368  1  0.121000  0.205600  0.306190  1.0  -0.0716
  C  C369  1  0.056200  0.274400  0.296640  1.0  -0.1626
  C  C370  1  0.062500  0.419900  0.275660  1.0  -0.0991
  C  C371  1  0.127800  0.486000  0.265950  1.0  -0.1297
  C  C372  1  0.255500  0.482000  0.265430  1.0  -0.0695
  C  C373  1  0.316500  0.412500  0.275030  1.0  -0.1333
  C  C374  1  0.251400  0.343100  0.286520  1.0  0.0601
  C  C375  1  0.120900  0.346200  0.286160  1.0  0.0509
  C  C376  1  0.918400  0.269100  0.297920  1.0  0.7226
  C  C377  1  0.710800  0.281600  0.359970  1.0  0.7157
  C  C378  1  0.721500  0.277300  0.394560  1.0  -0.1658
  C  C379  1  0.678500  0.206800  0.407440  1.0  -0.0651
  C  C380  1  0.676400  0.197400  0.439380  1.0  -0.1415
  C  C381  1  0.713200  0.260500  0.458600  1.0  -0.1324
  C  C382  1  0.816600  0.396900  0.465910  1.0  -0.1468
  C  C383  1  0.868000  0.464400  0.453780  1.0  -0.0652
  C  C384  1  0.875500  0.473800  0.421980  1.0  -0.12
  C  C385  1  0.830700  0.413300  0.402580  1.0  -0.1169
  C  C386  1  0.771800  0.342200  0.413860  1.0  0.0548
  C  C387  1  0.765200  0.333500  0.446240  1.0  0.0526
  C  C388  1  0.692400  0.250600  0.492310  1.0  0.6993
  C  C389  1  0.449000  0.255100  0.552080  1.0  0.6945
  C  C390  1  0.312900  0.251000  0.555730  1.0  -0.1046
  C  C391  1  0.241500  0.312800  0.542980  1.0  -0.117
  C  C392  1  0.113300  0.307800  0.542890  1.0  -0.0881
  C  C393  1  0.055900  0.243800  0.556830  1.0  -0.1522
  C  C394  1  0.076700  0.114900  0.588900  1.0  -0.1071
  C  C395  1  0.149000  0.057200  0.603720  1.0  -0.1287
  C  C396  1  0.276700  0.061100  0.602910  1.0  -0.1342
  C  C397  1  0.330100  0.122600  0.586970  1.0  -0.1133
  C  C398  1  0.257900  0.184100  0.571180  1.0  0.0574
  C  C399  1  0.127300  0.180300  0.572120  1.0  0.0505
  C  C400  1  0.916900  0.243600  0.554090  1.0  0.7136
  C  C401  1  0.577700  0.015400  0.308310  1.0  0.1853
  C  C402  1  0.571700  0.931800  0.313410  1.0  -0.1557
  C  C403  1  0.677600  0.886300  0.317950  1.0  0.1193
  C  C404  1  0.787500  0.927900  0.316890  1.0  -0.1938
  C  C405  1  0.788100  0.012300  0.311620  1.0  0.1654
  C  C406  1  0.674000  0.795100  0.323170  1.0  -0.1871
  C  C407  1  0.659000  0.749700  0.292260  1.0  -0.2449
  C  C408  1  0.661700  0.657000  0.294540  1.0  0.1617
  C  C409  1  0.684100  0.615900  0.322480  1.0  -0.2401
  C  C410  1  0.689300  0.531100  0.322630  1.0  0.1798
  C  C411  1  0.645100  0.524000  0.271030  1.0  0.1842
  C  C412  1  0.639200  0.608700  0.268620  1.0  -0.1846
  C  C413  1  0.655100  0.994700  0.518810  1.0  0.189
  C  C414  1  0.638800  0.911300  0.515420  1.0  -0.2207
  C  C415  1  0.632700  0.862000  0.540900  1.0  0.156
  C  C416  1  0.641500  0.900900  0.569390  1.0  -0.1813
  C  C417  1  0.655800  0.984900  0.571010  1.0  0.183
  C  C418  1  0.613000  0.770200  0.537700  1.0  -0.1581
  C  C419  1  0.730600  0.725000  0.539450  1.0  -0.2347
  C  C420  1  0.716600  0.632400  0.541480  1.0  0.138
  C  C421  1  0.811600  0.585300  0.551910  1.0  -0.1872
  C  C422  1  0.800200  0.501800  0.555130  1.0  0.1799
  C  C423  1  0.600200  0.505900  0.538580  1.0  0.1862
  C  C424  1  0.606100  0.590600  0.534370  1.0  -0.2546
  C  C425  1  0.676400  0.234800  0.742370  1.0  0.7004
  C  C426  1  0.689200  0.233200  0.708220  1.0  -0.098
  C  C427  1  0.643500  0.298700  0.691330  1.0  -0.0894
  C  C428  1  0.646200  0.298900  0.659070  1.0  -0.0721
  C  C429  1  0.693800  0.233600  0.643780  1.0  -0.1424
  C  C430  1  0.804800  0.098400  0.645770  1.0  -0.0915
  C  C431  1  0.857700  0.035300  0.662340  1.0  -0.1406
  C  C432  1  0.858100  0.036300  0.694850  1.0  -0.1024
  C  C433  1  0.804100  0.099800  0.709730  1.0  -0.1281
  C  C434  1  0.745100  0.165100  0.692960  1.0  0.0263
  C  C435  1  0.746500  0.165600  0.660490  1.0  0.0603
  C  C436  1  0.687900  0.237600  0.609340  1.0  0.7068
  C  C437  1  0.452000  0.233800  0.801140  1.0  0.7037
  C  C438  1  0.314100  0.229500  0.797490  1.0  -0.1378
  C  C439  1  0.248700  0.296200  0.806770  1.0  -0.0744
  C  C440  1  0.121000  0.294400  0.806190  1.0  -0.0705
  C  C441  1  0.056200  0.225600  0.796640  1.0  -0.1629
  C  C442  1  0.062500  0.080100  0.775660  1.0  -0.0986
  C  C443  1  0.127800  0.014000  0.765950  1.0  -0.1275
  C  C444  1  0.255500  0.018000  0.765430  1.0  -0.0657
  C  C445  1  0.316500  0.087500  0.775030  1.0  -0.1319
  C  C446  1  0.251400  0.156900  0.786520  1.0  0.062
  C  C447  1  0.120900  0.153800  0.786160  1.0  0.0503
  C  C448  1  0.918400  0.230900  0.797920  1.0  0.7229
  C  C449  1  0.710800  0.218400  0.859970  1.0  0.7157
  C  C450  1  0.721500  0.222700  0.894560  1.0  -0.1661
  C  C451  1  0.678500  0.293200  0.907440  1.0  -0.0638
  C  C452  1  0.676400  0.302600  0.939380  1.0  -0.1421
  C  C453  1  0.713200  0.239500  0.958600  1.0  -0.1324
  C  C454  1  0.816600  0.103100  0.965910  1.0  -0.1468
  C  C455  1  0.868000  0.035600  0.953780  1.0  -0.0651
  C  C456  1  0.875500  0.026200  0.921980  1.0  -0.1199
  C  C457  1  0.830700  0.086700  0.902580  1.0  -0.1155
  C  C458  1  0.771800  0.157800  0.913860  1.0  0.0548
  C  C459  1  0.765200  0.166500  0.946240  1.0  0.053
  C  C460  1  0.692400  0.249400  0.992310  1.0  0.6989
  C  C461  1  0.449000  0.244900  0.052080  1.0  0.6949
  C  C462  1  0.312900  0.249000  0.055730  1.0  -0.105
  C  C463  1  0.241500  0.187200  0.042980  1.0  -0.1177
  C  C464  1  0.113300  0.192200  0.042890  1.0  -0.0912
  C  C465  1  0.055900  0.256200  0.056830  1.0  -0.1524
  C  C466  1  0.076700  0.385100  0.088900  1.0  -0.1065
  C  C467  1  0.149000  0.442800  0.103720  1.0  -0.1286
  C  C468  1  0.276700  0.438900  0.102910  1.0  -0.1336
  C  C469  1  0.330100  0.377400  0.086970  1.0  -0.1133
  C  C470  1  0.257900  0.315900  0.071180  1.0  0.0578
  C  C471  1  0.127300  0.319700  0.072120  1.0  0.0503
  C  C472  1  0.916900  0.256400  0.054090  1.0  0.7132
  C  C473  1  0.577700  0.484600  0.808310  1.0  0.1858
  C  C474  1  0.571700  0.568200  0.813410  1.0  -0.156
  C  C475  1  0.677600  0.613700  0.817950  1.0  0.1192
  C  C476  1  0.787500  0.572100  0.816890  1.0  -0.192
  C  C477  1  0.788100  0.487700  0.811620  1.0  0.1648
  C  C478  1  0.674000  0.704900  0.823170  1.0  -0.187
  C  C479  1  0.659000  0.750300  0.792260  1.0  -0.2444
  C  C480  1  0.661700  0.843000  0.794540  1.0  0.1613
  C  C481  1  0.684100  0.884100  0.822480  1.0  -0.2379
  C  C482  1  0.689300  0.968900  0.822630  1.0  0.1855
  C  C483  1  0.645100  0.976000  0.771030  1.0  0.1874
  C  C484  1  0.639200  0.891300  0.768620  1.0  -0.1847
  C  C485  1  0.655100  0.505300  0.018810  1.0  0.1879
  C  C486  1  0.638800  0.588700  0.015420  1.0  -0.221
  C  C487  1  0.632700  0.638000  0.040900  1.0  0.1566
  C  C488  1  0.641500  0.599100  0.069390  1.0  -0.1806
  C  C489  1  0.655800  0.515100  0.071010  1.0  0.1797
  C  C490  1  0.613000  0.729800  0.037700  1.0  -0.1573
  C  C491  1  0.730600  0.775000  0.039450  1.0  -0.2325
  C  C492  1  0.716600  0.867600  0.041480  1.0  0.1374
  C  C493  1  0.811600  0.914700  0.051910  1.0  -0.1881
  C  C494  1  0.800200  0.998200  0.055130  1.0  0.1807
  C  C495  1  0.600200  0.994100  0.038580  1.0  0.1875
  C  C496  1  0.606100  0.909400  0.034370  1.0  -0.2557
  N  N497  1  0.329200  0.984500  0.202720  1.0  -0.3236
  N  N498  1  0.315100  0.555700  0.192390  1.0  -0.3208
  N  N499  1  0.337000  0.532100  0.953910  1.0  -0.3116
  N  N500  1  0.303800  0.962100  0.950490  1.0  -0.3205
  N  N501  1  0.329200  0.515500  0.702720  1.0  -0.3214
  N  N502  1  0.315100  0.944300  0.692390  1.0  -0.3196
  N  N503  1  0.337000  0.967900  0.453910  1.0  -0.3121
  N  N504  1  0.303800  0.537900  0.450490  1.0  -0.3206
  N  N505  1  0.670800  0.484500  0.297280  1.0  -0.323
  N  N506  1  0.684900  0.055700  0.307610  1.0  -0.3193
  N  N507  1  0.663000  0.032100  0.546090  1.0  -0.3141
  N  N508  1  0.696200  0.462100  0.549510  1.0  -0.3212
  N  N509  1  0.670800  0.015500  0.797280  1.0  -0.3215
  N  N510  1  0.684900  0.444300  0.807610  1.0  -0.3194
  N  N511  1  0.663000  0.467900  0.046090  1.0  -0.3137
  N  N512  1  0.696200  0.037900  0.049510  1.0  -0.3234
  O  O513  1  0.492300  0.830700  0.190730  1.0  -0.5958
  O  O514  1  0.498500  0.697300  0.203570  1.0  -0.5769
  O  O515  1  0.355900  0.830800  0.244610  1.0  -0.5963
  O  O516  1  0.305400  0.697100  0.244700  1.0  -0.572
  O  O517  1  0.126100  0.699300  0.197160  1.0  -0.5831
  O  O518  1  0.144000  0.833400  0.206040  1.0  -0.5976
  O  O519  1  0.280200  0.851200  0.152950  1.0  -0.5773
  O  O520  1  0.309600  0.715500  0.154010  1.0  -0.5949
  O  O521  1  0.499100  0.691300  0.957290  1.0  -0.5726
  O  O522  1  0.498400  0.823500  0.941800  1.0  -0.5645
  O  O523  1  0.290800  0.679700  0.996390  1.0  -0.5811
  O  O524  1  0.344700  0.812800  0.993410  1.0  -0.5765
  O  O525  1  0.139700  0.677500  0.941850  1.0  -0.58
  O  O526  1  0.134300  0.811900  0.952650  1.0  -0.6047
  O  O527  1  0.343300  0.826300  0.405440  1.0  -0.5722
  O  O528  1  0.285800  0.692800  0.402510  1.0  -0.5755
  O  O529  1  0.492300  0.669300  0.690730  1.0  -0.5958
  O  O530  1  0.498500  0.802700  0.703570  1.0  -0.5773
  O  O531  1  0.355900  0.669200  0.744610  1.0  -0.5963
  O  O532  1  0.305400  0.802900  0.744700  1.0  -0.5718
  O  O533  1  0.126100  0.800700  0.697160  1.0  -0.5824
  O  O534  1  0.144000  0.666667  0.706040  1.0  -0.5974
  O  O535  1  0.280200  0.648800  0.652950  1.0  -0.5769
  O  O536  1  0.309600  0.784500  0.654010  1.0  -0.596
  O  O537  1  0.499100  0.808700  0.457290  1.0  -0.5727
  O  O538  1  0.498400  0.676500  0.441800  1.0  -0.5639
  O  O539  1  0.290800  0.820300  0.496390  1.0  -0.581
  O  O540  1  0.344700  0.687200  0.493410  1.0  -0.5766
  O  O541  1  0.139700  0.822500  0.441850  1.0  -0.5805
  O  O542  1  0.134300  0.688100  0.452650  1.0  -0.6046
  O  O543  1  0.343300  0.673700  0.905440  1.0  -0.5724
  O  O544  1  0.285800  0.807200  0.902510  1.0  -0.5753
  O  O545  1  0.507700  0.330700  0.309270  1.0  -0.5952
  O  O546  1  0.501500  0.197300  0.296430  1.0  -0.577
  O  O547  1  0.644100  0.330800  0.255390  1.0  -0.5946
  O  O548  1  0.694600  0.197100  0.255300  1.0  -0.5722
  O  O549  1  0.873900  0.199300  0.302840  1.0  -0.5826
  O  O550  1  0.856000  0.333400  0.293960  1.0  -0.5976
  O  O551  1  0.719800  0.351200  0.347050  1.0  -0.5776
  O  O552  1  0.690400  0.215500  0.345990  1.0  -0.5967
  O  O553  1  0.500900  0.191300  0.542710  1.0  -0.5727
  O  O554  1  0.501600  0.323500  0.558200  1.0  -0.5658
  O  O555  1  0.709200  0.179700  0.503610  1.0  -0.5829
  O  O556  1  0.655300  0.312800  0.506590  1.0  -0.5762
  O  O557  1  0.860300  0.177500  0.558150  1.0  -0.5809
  O  O558  1  0.865700  0.311900  0.547350  1.0  -0.6047
  O  O559  1  0.656700  0.326300  0.094560  1.0  -0.5722
  O  O560  1  0.714200  0.192800  0.097490  1.0  -0.5755
  O  O561  1  0.507700  0.169300  0.809270  1.0  -0.5947
  O  O562  1  0.501500  0.302700  0.796430  1.0  -0.5772
  O  O563  1  0.644100  0.169200  0.755390  1.0  -0.5944
  O  O564  1  0.694600  0.302900  0.755300  1.0  -0.5726
  O  O565  1  0.873900  0.300700  0.802840  1.0  -0.582
  O  O566  1  0.856000  0.166600  0.793960  1.0  -0.5972
  O  O567  1  0.719800  0.148800  0.847050  1.0  -0.577
  O  O568  1  0.690400  0.284500  0.845990  1.0  -0.5979
  O  O569  1  0.500900  0.308700  0.042710  1.0  -0.5731
  O  O570  1  0.501600  0.176500  0.058200  1.0  -0.5647
  O  O571  1  0.709200  0.320300  0.003610  1.0  -0.5821
  O  O572  1  0.655300  0.187200  0.006590  1.0  -0.5763
  O  O573  1  0.860300  0.322500  0.058150  1.0  -0.5793
  O  O574  1  0.865700  0.188100  0.047350  1.0  -0.605
  O  O575  1  0.656700  0.173700  0.594560  1.0  -0.5723
  O  O576  1  0.714200  0.307200  0.597490  1.0  -0.5744
