# generated using pymatgen
data_NaZnFeH38C42(NO6)2
_symmetry_space_group_name_H-M   'P 1'
_cell_length_a   24.05000000
_cell_length_b   12.45800000
_cell_length_c   18.14000000
_cell_angle_alpha   90.00000000
_cell_angle_beta   104.46600000
_cell_angle_gamma   90.00000000
_symmetry_Int_Tables_number   1
_chemical_formula_structural   NaZnFeH38C42(NO6)2
_chemical_formula_sum   'Na4 Zn4 Fe4 H152 C168 N8 O48'
_cell_volume   5262.70285610
_cell_formula_units_Z   4
loop_
 _symmetry_equiv_pos_site_id
 _symmetry_equiv_pos_as_xyz
  1  'x, y, z'
loop_
 _atom_site_type_symbol
 _atom_site_label
 _atom_site_symmetry_multiplicity
 _atom_site_fract_x
 _atom_site_fract_y
 _atom_site_fract_z
 _atom_site_occupancy
 _atom_site_charge
  Na  Na1  1  0.081980  0.024700  0.106700  1.0  0.9596
  Na  Na2  1  0.918020  0.524700  0.393300  1.0  0.9309
  Na  Na3  1  0.918020  0.975300  0.893300  1.0  0.9315
  Na  Na4  1  0.081980  0.475300  0.606700  1.0  0.9603
  Zn  Zn5  1  0.144020  0.168860  0.234420  1.0  1.0801
  Zn  Zn6  1  0.855980  0.668860  0.265580  1.0  1.0815
  Zn  Zn7  1  0.855980  0.831140  0.765580  1.0  1.081
  Zn  Zn8  1  0.144020  0.331140  0.734420  1.0  1.0803
  Fe  Fe9  1  0.642190  0.230090  0.584400  1.0  0.9272
  Fe  Fe10  1  0.357810  0.730090  0.915600  1.0  0.9256
  Fe  Fe11  1  0.357810  0.769910  0.415600  1.0  0.9259
  Fe  Fe12  1  0.642190  0.269910  0.084400  1.0  0.927
  H  H13  1  0.237600  0.939800  0.037400  1.0  0.119
  H  H14  1  0.404000  0.899500  0.142100  1.0  0.1113
  H  H15  1  0.305800  0.090200  0.233400  1.0  0.0956
  H  H16  1  0.425000  0.941800  0.290300  1.0  0.0883
  H  H17  1  0.445700  0.038700  0.248500  1.0  0.0828
  H  H18  1  0.508000  0.021400  0.360600  1.0  0.1175
  H  H19  1  0.390400  0.196900  0.427100  1.0  0.1041
  H  H20  1  0.518500  0.383100  0.567800  1.0  0.1079
  H  H21  1  0.467400  0.439900  0.591300  1.0  0.1085
  H  H22  1  0.465000  0.422200  0.505000  1.0  0.1067
  H  H23  1  0.365400  0.235400  0.539300  1.0  0.1058
  H  H24  1  0.372800  0.333700  0.488600  1.0  0.0977
  H  H25  1  0.375800  0.350400  0.575200  1.0  0.1054
  H  H26  1  0.447900  0.168100  0.643000  1.0  0.1143
  H  H27  1  0.453800  0.285200  0.675800  1.0  0.1111
  H  H28  1  0.507000  0.227900  0.658000  1.0  0.1029
  H  H29  1  0.601100  0.995300  0.443600  1.0  0.0992
  H  H30  1  0.723900  0.079400  0.511500  1.0  0.0929
  H  H31  1  0.691400  0.968600  0.506300  1.0  0.081
  H  H32  1  0.693700  0.971200  0.633800  1.0  0.0961
  H  H33  1  0.755900  0.007700  0.631800  1.0  0.0881
  H  H34  1  0.769600  0.108500  0.736700  1.0  0.0829
  H  H35  1  0.805700  0.206300  0.847300  1.0  0.1053
  H  H36  1  0.744500  0.496300  0.874400  1.0  0.105
  H  H37  1  0.697700  0.580200  0.670000  1.0  0.1088
  H  H38  1  0.633000  0.614300  0.652400  1.0  0.1116
  H  H39  1  0.649400  0.496900  0.635000  1.0  0.1044
  H  H40  1  0.570100  0.540500  0.731500  1.0  0.1065
  H  H41  1  0.595500  0.460200  0.798000  1.0  0.1119
  H  H42  1  0.587200  0.423900  0.713200  1.0  0.1091
  H  H43  1  0.709400  0.645900  0.802600  1.0  0.1115
  H  H44  1  0.669200  0.603000  0.852000  1.0  0.108
  H  H45  1  0.644200  0.677300  0.781800  1.0  0.1115
  H  H46  1  0.875000  0.256900  0.939700  1.0  0.0666
  H  H47  1  0.826800  0.224600  0.980100  1.0  0.0963
  H  H48  1  0.955700  0.218700  0.035900  1.0  0.1003
  H  H49  1  0.989900  0.361500  0.235100  1.0  0.0979
  H  H50  1  0.840500  0.415200  0.089300  1.0  0.1102
  H  H51  1  0.762400  0.439800  0.462600  1.0  0.1192
  H  H52  1  0.596000  0.399500  0.357900  1.0  0.1122
  H  H53  1  0.694200  0.590200  0.266600  1.0  0.097
  H  H54  1  0.575000  0.441800  0.209700  1.0  0.0888
  H  H55  1  0.554300  0.538700  0.251500  1.0  0.0817
  H  H56  1  0.492000  0.521400  0.139400  1.0  0.1175
  H  H57  1  0.609600  0.696900  0.072900  1.0  0.1041
  H  H58  1  0.481500  0.883100  0.932200  1.0  0.1084
  H  H59  1  0.532600  0.939900  0.908700  1.0  0.1101
  H  H60  1  0.535000  0.922200  0.995000  1.0  0.1063
  H  H61  1  0.634600  0.735400  0.960700  1.0  0.1065
  H  H62  1  0.627200  0.833700  0.011400  1.0  0.0988
  H  H63  1  0.624200  0.850400  0.924800  1.0  0.1055
  H  H64  1  0.552100  0.668100  0.857000  1.0  0.1137
  H  H65  1  0.546200  0.785200  0.824200  1.0  0.1114
  H  H66  1  0.493000  0.727900  0.842000  1.0  0.1035
  H  H67  1  0.398900  0.495300  0.056400  1.0  0.1001
  H  H68  1  0.276100  0.579400  0.988500  1.0  0.0936
  H  H69  1  0.308600  0.468600  0.993700  1.0  0.0811
  H  H70  1  0.306300  0.471200  0.866200  1.0  0.0965
  H  H71  1  0.244100  0.507700  0.868200  1.0  0.0863
  H  H72  1  0.230400  0.608500  0.763300  1.0  0.0825
  H  H73  1  0.194300  0.706300  0.652700  1.0  0.1057
  H  H74  1  0.255500  0.996300  0.625600  1.0  0.1053
  H  H75  1  0.302300  0.080200  0.830000  1.0  0.1091
  H  H76  1  0.367000  0.114300  0.847600  1.0  0.1103
  H  H77  1  0.350600  0.996900  0.865000  1.0  0.1045
  H  H78  1  0.429900  0.040500  0.768500  1.0  0.1077
  H  H79  1  0.404500  0.960200  0.702000  1.0  0.1104
  H  H80  1  0.412800  0.923900  0.786800  1.0  0.1086
  H  H81  1  0.290600  0.145900  0.697400  1.0  0.1102
  H  H82  1  0.330800  0.103000  0.648000  1.0  0.1081
  H  H83  1  0.355800  0.177300  0.718200  1.0  0.1111
  H  H84  1  0.125000  0.756900  0.560300  1.0  0.0682
  H  H85  1  0.173200  0.724600  0.519900  1.0  0.0953
  H  H86  1  0.044300  0.718700  0.464100  1.0  0.101
  H  H87  1  0.010100  0.861500  0.264900  1.0  0.0983
  H  H88  1  0.159500  0.915200  0.410700  1.0  0.1095
  H  H89  1  0.762400  0.060200  0.962600  1.0  0.1194
  H  H90  1  0.596000  0.100500  0.857900  1.0  0.112
  H  H91  1  0.694200  0.909800  0.766600  1.0  0.0969
  H  H92  1  0.575000  0.058200  0.709700  1.0  0.0884
  H  H93  1  0.554300  0.961300  0.751500  1.0  0.0819
  H  H94  1  0.492000  0.978600  0.639400  1.0  0.1177
  H  H95  1  0.609600  0.803100  0.572900  1.0  0.1046
  H  H96  1  0.481500  0.616900  0.432200  1.0  0.1081
  H  H97  1  0.532600  0.560100  0.408700  1.0  0.1092
  H  H98  1  0.535000  0.577800  0.495000  1.0  0.1059
  H  H99  1  0.634600  0.764600  0.460700  1.0  0.106
  H  H100  1  0.627200  0.666300  0.511400  1.0  0.0985
  H  H101  1  0.624200  0.649600  0.424800  1.0  0.1055
  H  H102  1  0.552100  0.831900  0.357000  1.0  0.1139
  H  H103  1  0.546200  0.714800  0.324200  1.0  0.1114
  H  H104  1  0.493000  0.772100  0.342000  1.0  0.1037
  H  H105  1  0.398900  0.004700  0.556400  1.0  0.1007
  H  H106  1  0.276100  0.920600  0.488500  1.0  0.0939
  H  H107  1  0.308600  0.031400  0.493700  1.0  0.0809
  H  H108  1  0.306300  0.028800  0.366200  1.0  0.0955
  H  H109  1  0.244100  0.992300  0.368200  1.0  0.086
  H  H110  1  0.230400  0.891500  0.263300  1.0  0.0826
  H  H111  1  0.194300  0.793700  0.152700  1.0  0.1061
  H  H112  1  0.255500  0.503700  0.125600  1.0  0.1047
  H  H113  1  0.302300  0.419800  0.330000  1.0  0.1091
  H  H114  1  0.367000  0.385700  0.347600  1.0  0.1102
  H  H115  1  0.350600  0.503100  0.365000  1.0  0.1045
  H  H116  1  0.429900  0.459500  0.268500  1.0  0.1079
  H  H117  1  0.404500  0.539800  0.202000  1.0  0.1109
  H  H118  1  0.412800  0.576100  0.286800  1.0  0.1077
  H  H119  1  0.290600  0.354100  0.197400  1.0  0.1098
  H  H120  1  0.330800  0.397000  0.148000  1.0  0.108
  H  H121  1  0.355800  0.322700  0.218200  1.0  0.11
  H  H122  1  0.125000  0.743100  0.060300  1.0  0.0677
  H  H123  1  0.173200  0.775400  0.019900  1.0  0.0948
  H  H124  1  0.044300  0.781300  0.964100  1.0  0.1011
  H  H125  1  0.010100  0.638500  0.764900  1.0  0.0982
  H  H126  1  0.159500  0.584800  0.910700  1.0  0.11
  H  H127  1  0.237600  0.560200  0.537400  1.0  0.1189
  H  H128  1  0.404000  0.600500  0.642100  1.0  0.1115
  H  H129  1  0.305800  0.409800  0.733400  1.0  0.0961
  H  H130  1  0.425000  0.558200  0.790300  1.0  0.0879
  H  H131  1  0.445700  0.461300  0.748500  1.0  0.0824
  H  H132  1  0.508000  0.478600  0.860600  1.0  0.1177
  H  H133  1  0.390400  0.303100  0.927100  1.0  0.1042
  H  H134  1  0.518500  0.116900  0.067800  1.0  0.1079
  H  H135  1  0.467400  0.060100  0.091300  1.0  0.1095
  H  H136  1  0.465000  0.077800  0.005000  1.0  0.1063
  H  H137  1  0.365400  0.264600  0.039300  1.0  0.1064
  H  H138  1  0.372800  0.166300  0.988600  1.0  0.0976
  H  H139  1  0.375800  0.149600  0.075200  1.0  0.1054
  H  H140  1  0.447900  0.331900  0.143000  1.0  0.1146
  H  H141  1  0.453800  0.214800  0.175800  1.0  0.1119
  H  H142  1  0.507000  0.272100  0.158000  1.0  0.1029
  H  H143  1  0.601100  0.504700  0.943600  1.0  0.0997
  H  H144  1  0.723900  0.420600  0.011500  1.0  0.0933
  H  H145  1  0.691400  0.531400  0.006300  1.0  0.0816
  H  H146  1  0.693700  0.528800  0.133800  1.0  0.0953
  H  H147  1  0.755900  0.492300  0.131800  1.0  0.0884
  H  H148  1  0.769600  0.391500  0.236700  1.0  0.0824
  H  H149  1  0.805700  0.293700  0.347300  1.0  0.1057
  H  H150  1  0.744500  0.003700  0.374400  1.0  0.1049
  H  H151  1  0.697700  0.919800  0.170000  1.0  0.1077
  H  H152  1  0.633000  0.885700  0.152400  1.0  0.1105
  H  H153  1  0.649400  0.003100  0.135000  1.0  0.1048
  H  H154  1  0.570100  0.959500  0.231500  1.0  0.1058
  H  H155  1  0.595500  0.039800  0.298000  1.0  0.1116
  H  H156  1  0.587200  0.076100  0.213200  1.0  0.1086
  H  H157  1  0.709400  0.854100  0.302600  1.0  0.1114
  H  H158  1  0.669200  0.897000  0.352000  1.0  0.1087
  H  H159  1  0.644200  0.822700  0.281800  1.0  0.1114
  H  H160  1  0.875000  0.243100  0.439700  1.0  0.0666
  H  H161  1  0.826800  0.275400  0.480100  1.0  0.0955
  H  H162  1  0.955700  0.281300  0.535900  1.0  0.1002
  H  H163  1  0.989900  0.138500  0.735100  1.0  0.0978
  H  H164  1  0.840500  0.084800  0.589300  1.0  0.1104
  C  C165  1  0.206600  0.068200  0.137800  1.0  0.7333
  C  C166  1  0.263000  0.022600  0.136300  1.0  -0.1718
  C  C167  1  0.269200  0.955400  0.077300  1.0  -0.0384
  C  C168  1  0.322000  0.912500  0.078300  1.0  -0.1437
  C  C169  1  0.368700  0.931200  0.140800  1.0  -0.1561
  C  C170  1  0.363400  0.996200  0.200700  1.0  0.0789
  C  C171  1  0.309900  0.043100  0.195400  1.0  -0.0489
  C  C172  1  0.332200  0.844300  0.014900  1.0  0.6601
  C  C173  1  0.413700  0.010500  0.266000  1.0  0.031
  C  C174  1  0.444200  0.105700  0.383800  1.0  0.2727
  C  C175  1  0.498200  0.067900  0.395400  1.0  -0.208
  C  C176  1  0.539500  0.100200  0.461300  1.0  -0.0782
  C  C177  1  0.524900  0.171100  0.515600  1.0  0.276
  C  C178  1  0.467600  0.206000  0.502700  1.0  -0.0495
  C  C179  1  0.428200  0.173200  0.436500  1.0  -0.1659
  C  C180  1  0.448800  0.283500  0.557600  1.0  0.1208
  C  C181  1  0.477600  0.392300  0.555200  1.0  -0.3777
  C  C182  1  0.384900  0.302500  0.538400  1.0  -0.3401
  C  C183  1  0.466100  0.236500  0.642000  1.0  -0.3875
  C  C184  1  0.597000  0.055900  0.471600  1.0  0.1068
  C  C185  1  0.696100  0.038500  0.530600  1.0  0.0554
  C  C186  1  0.715600  0.027100  0.616700  1.0  -0.0732
  C  C187  1  0.740300  0.156600  0.715800  1.0  0.139
  C  C188  1  0.737300  0.251300  0.757900  1.0  -0.103
  C  C189  1  0.779700  0.261400  0.829700  1.0  -0.2282
  C  C190  1  0.781000  0.352700  0.870900  1.0  0.2897
  C  C191  1  0.742500  0.434600  0.845000  1.0  -0.1343
  C  C192  1  0.700400  0.428600  0.776200  1.0  0.0149
  C  C193  1  0.697200  0.332800  0.733200  1.0  0.2302
  C  C194  1  0.657300  0.521800  0.749800  1.0  0.1369
  C  C195  1  0.659500  0.556600  0.669200  1.0  -0.3742
  C  C196  1  0.597000  0.483000  0.748000  1.0  -0.3603
  C  C197  1  0.671300  0.621400  0.801400  1.0  -0.3806
  C  C198  1  0.852000  0.282400  0.973100  1.0  0.0124
  C  C199  1  0.890800  0.313400  0.049000  1.0  0.13
  C  C200  1  0.944700  0.264600  0.070200  1.0  -0.1016
  C  C201  1  0.981600  0.281500  0.138900  1.0  -0.1791
  C  C202  1  0.965200  0.349600  0.187500  1.0  0.0094
  C  C203  1  0.914800  0.400300  0.169200  1.0  -0.1477
  C  C204  1  0.876200  0.381800  0.100700  1.0  -0.0739
  C  C205  1  0.896700  0.475600  0.224400  1.0  0.7156
  C  C206  1  0.041900  0.230100  0.157500  1.0  0.6497
  C  C207  1  0.793400  0.568200  0.362200  1.0  0.7314
  C  C208  1  0.737000  0.522600  0.363700  1.0  -0.1735
  C  C209  1  0.730800  0.455400  0.422700  1.0  -0.038
  C  C210  1  0.678000  0.412500  0.421700  1.0  -0.143
  C  C211  1  0.631300  0.431200  0.359200  1.0  -0.1555
  C  C212  1  0.636600  0.496200  0.299300  1.0  0.079
  C  C213  1  0.690100  0.543100  0.304600  1.0  -0.0486
  C  C214  1  0.667800  0.344300  0.485100  1.0  0.6613
  C  C215  1  0.586300  0.510500  0.234000  1.0  0.0307
  C  C216  1  0.555800  0.605700  0.116200  1.0  0.2727
  C  C217  1  0.501800  0.567900  0.104600  1.0  -0.2082
  C  C218  1  0.460500  0.600200  0.038700  1.0  -0.0775
  C  C219  1  0.475100  0.671100  0.984400  1.0  0.2776
  C  C220  1  0.532400  0.706000  0.997300  1.0  -0.0504
  C  C221  1  0.571800  0.673200  0.063500  1.0  -0.1637
  C  C222  1  0.551200  0.783500  0.942400  1.0  0.1209
  C  C223  1  0.522400  0.892300  0.944800  1.0  -0.3781
  C  C224  1  0.615100  0.802500  0.961600  1.0  -0.3391
  C  C225  1  0.533900  0.736500  0.858000  1.0  -0.3846
  C  C226  1  0.403000  0.555900  0.028400  1.0  0.1066
  C  C227  1  0.303900  0.538500  0.969400  1.0  0.0522
  C  C228  1  0.284400  0.527100  0.883300  1.0  -0.0745
  C  C229  1  0.259700  0.656600  0.784200  1.0  0.1411
  C  C230  1  0.262700  0.751300  0.742100  1.0  -0.1042
  C  C231  1  0.220300  0.761400  0.670300  1.0  -0.2279
  C  C232  1  0.219000  0.852700  0.629100  1.0  0.2895
  C  C233  1  0.257500  0.934600  0.655000  1.0  -0.1343
  C  C234  1  0.299600  0.928600  0.723800  1.0  0.01
  C  C235  1  0.302800  0.832800  0.766800  1.0  0.2305
  C  C236  1  0.342700  0.021800  0.750200  1.0  0.1367
  C  C237  1  0.340500  0.056600  0.830800  1.0  -0.373
  C  C238  1  0.403000  0.983000  0.752000  1.0  -0.3605
  C  C239  1  0.328700  0.121400  0.698600  1.0  -0.3788
  C  C240  1  0.148000  0.782400  0.526900  1.0  0.0137
  C  C241  1  0.109200  0.813400  0.451000  1.0  0.1296
  C  C242  1  0.055300  0.764600  0.429800  1.0  -0.1041
  C  C243  1  0.018400  0.781500  0.361100  1.0  -0.1791
  C  C244  1  0.034800  0.849600  0.312500  1.0  0.0099
  C  C245  1  0.085200  0.900300  0.330800  1.0  -0.1469
  C  C246  1  0.123800  0.881800  0.399300  1.0  -0.0733
  C  C247  1  0.103300  0.975600  0.275600  1.0  0.7182
  C  C248  1  0.958100  0.730100  0.342500  1.0  0.6487
  C  C249  1  0.793400  0.931800  0.862200  1.0  0.7305
  C  C250  1  0.737000  0.977400  0.863700  1.0  -0.174
  C  C251  1  0.730800  0.044600  0.922700  1.0  -0.0383
  C  C252  1  0.678000  0.087500  0.921700  1.0  -0.1434
  C  C253  1  0.631300  0.068800  0.859200  1.0  -0.1566
  C  C254  1  0.636600  0.003800  0.799300  1.0  0.0786
  C  C255  1  0.690100  0.956900  0.804600  1.0  -0.0479
  C  C256  1  0.667800  0.155700  0.985100  1.0  0.6612
  C  C257  1  0.586300  0.989500  0.734000  1.0  0.0312
  C  C258  1  0.555800  0.894300  0.616200  1.0  0.273
  C  C259  1  0.501800  0.932100  0.604600  1.0  -0.2087
  C  C260  1  0.460500  0.899800  0.538700  1.0  -0.0789
  C  C261  1  0.475100  0.828900  0.484400  1.0  0.2772
  C  C262  1  0.532400  0.794000  0.497300  1.0  -0.0499
  C  C263  1  0.571800  0.826800  0.563500  1.0  -0.164
  C  C264  1  0.551200  0.716500  0.442400  1.0  0.1208
  C  C265  1  0.522400  0.607700  0.444800  1.0  -0.3778
  C  C266  1  0.615100  0.697500  0.461600  1.0  -0.339
  C  C267  1  0.533900  0.763500  0.358000  1.0  -0.3852
  C  C268  1  0.403000  0.944100  0.528400  1.0  0.1067
  C  C269  1  0.303900  0.961500  0.469400  1.0  0.0524
  C  C270  1  0.284400  0.972900  0.383300  1.0  -0.0738
  C  C271  1  0.259700  0.843400  0.284200  1.0  0.1394
  C  C272  1  0.262700  0.748700  0.242100  1.0  -0.1041
  C  C273  1  0.220300  0.738600  0.170300  1.0  -0.2278
  C  C274  1  0.219000  0.647300  0.129100  1.0  0.2897
  C  C275  1  0.257500  0.565400  0.155000  1.0  -0.1346
  C  C276  1  0.299600  0.571400  0.223800  1.0  0.0109
  C  C277  1  0.302800  0.667200  0.266800  1.0  0.2315
  C  C278  1  0.342700  0.478200  0.250200  1.0  0.1368
  C  C279  1  0.340500  0.443400  0.330800  1.0  -0.3737
  C  C280  1  0.403000  0.517000  0.252000  1.0  -0.3602
  C  C281  1  0.328700  0.378600  0.198600  1.0  -0.3792
  C  C282  1  0.148000  0.717600  0.026900  1.0  0.0155
  C  C283  1  0.109200  0.686600  0.951000  1.0  0.1294
  C  C284  1  0.055300  0.735400  0.929800  1.0  -0.1037
  C  C285  1  0.018400  0.718500  0.861100  1.0  -0.1783
  C  C286  1  0.034800  0.650400  0.812500  1.0  0.0096
  C  C287  1  0.085200  0.599700  0.830800  1.0  -0.147
  C  C288  1  0.123800  0.618200  0.899300  1.0  -0.0735
  C  C289  1  0.103300  0.524400  0.775600  1.0  0.7171
  C  C290  1  0.958100  0.769900  0.842500  1.0  0.6491
  C  C291  1  0.206600  0.431800  0.637800  1.0  0.73
  C  C292  1  0.263000  0.477400  0.636300  1.0  -0.1734
  C  C293  1  0.269200  0.544600  0.577300  1.0  -0.0382
  C  C294  1  0.322000  0.587500  0.578300  1.0  -0.1432
  C  C295  1  0.368700  0.568800  0.640800  1.0  -0.1555
  C  C296  1  0.363400  0.503800  0.700700  1.0  0.0785
  C  C297  1  0.309900  0.456900  0.695400  1.0  -0.0482
  C  C298  1  0.332200  0.655700  0.514900  1.0  0.6599
  C  C299  1  0.413700  0.489500  0.766000  1.0  0.0316
  C  C300  1  0.444200  0.394300  0.883800  1.0  0.2723
  C  C301  1  0.498200  0.432100  0.895400  1.0  -0.2091
  C  C302  1  0.539500  0.399800  0.961300  1.0  -0.0794
  C  C303  1  0.524900  0.328900  0.015600  1.0  0.2759
  C  C304  1  0.467600  0.294000  0.002700  1.0  -0.0486
  C  C305  1  0.428200  0.326800  0.936500  1.0  -0.1663
  C  C306  1  0.448800  0.216500  0.057600  1.0  0.1206
  C  C307  1  0.477600  0.107700  0.055200  1.0  -0.3786
  C  C308  1  0.384900  0.197500  0.038400  1.0  -0.3403
  C  C309  1  0.466100  0.263500  0.142000  1.0  -0.3876
  C  C310  1  0.597000  0.444100  0.971600  1.0  0.1061
  C  C311  1  0.696100  0.461500  0.030600  1.0  0.0549
  C  C312  1  0.715600  0.472900  0.116700  1.0  -0.0734
  C  C313  1  0.740300  0.343400  0.215800  1.0  0.1376
  C  C314  1  0.737300  0.248700  0.257900  1.0  -0.1035
  C  C315  1  0.779700  0.238600  0.329700  1.0  -0.2285
  C  C316  1  0.781000  0.147300  0.370900  1.0  0.2899
  C  C317  1  0.742500  0.065400  0.345000  1.0  -0.1347
  C  C318  1  0.700400  0.071400  0.276200  1.0  0.0148
  C  C319  1  0.697200  0.167200  0.233200  1.0  0.2307
  C  C320  1  0.657300  0.978200  0.249800  1.0  0.1373
  C  C321  1  0.659500  0.943400  0.169200  1.0  -0.3742
  C  C322  1  0.597000  0.017000  0.248000  1.0  -0.3607
  C  C323  1  0.671300  0.878600  0.301400  1.0  -0.3799
  C  C324  1  0.852000  0.217600  0.473100  1.0  0.0141
  C  C325  1  0.890800  0.186600  0.549000  1.0  0.1299
  C  C326  1  0.944700  0.235400  0.570200  1.0  -0.1016
  C  C327  1  0.981600  0.218500  0.638900  1.0  -0.1794
  C  C328  1  0.965200  0.150400  0.687500  1.0  0.0094
  C  C329  1  0.914800  0.099700  0.669200  1.0  -0.1471
  C  C330  1  0.876200  0.118200  0.600700  1.0  -0.074
  C  C331  1  0.896700  0.024400  0.724400  1.0  0.7154
  C  C332  1  0.041900  0.269900  0.657500  1.0  0.65
  N  N333  1  0.706600  0.130600  0.651400  1.0  -0.3607
  N  N334  1  0.642100  0.094400  0.516500  1.0  -0.2924
  N  N335  1  0.293400  0.630600  0.848600  1.0  -0.3611
  N  N336  1  0.357900  0.594400  0.983500  1.0  -0.2921
  N  N337  1  0.293400  0.869400  0.348600  1.0  -0.3621
  N  N338  1  0.357900  0.905600  0.483500  1.0  -0.2923
  N  N339  1  0.706600  0.369400  0.151400  1.0  -0.362
  N  N340  1  0.642100  0.405600  0.016500  1.0  -0.2939
  O  O341  1  0.203500  0.136800  0.185900  1.0  -0.6034
  O  O342  1  0.163700  0.026400  0.093100  1.0  -0.6108
  O  O343  1  0.289800  0.801500  0.967900  1.0  -0.5868
  O  O344  1  0.382000  0.831900  0.007900  1.0  -0.5646
  O  O345  1  0.052300  0.172500  0.105500  1.0  -0.6407
  O  O346  1  0.069200  0.234700  0.217100  1.0  -0.559
  O  O347  1  0.928500  0.475600  0.289100  1.0  -0.6103
  O  O348  1  0.860800  0.541600  0.199100  1.0  -0.5699
  O  O349  1  0.399640  0.082900  0.319600  1.0  -0.2807
  O  O350  1  0.819300  0.370100  0.939800  1.0  -0.2869
  O  O351  1  0.564060  0.196800  0.578300  1.0  -0.5949
  O  O352  1  0.656120  0.321300  0.668800  1.0  -0.6157
  O  O353  1  0.796500  0.636800  0.314100  1.0  -0.6011
  O  O354  1  0.836300  0.526400  0.406900  1.0  -0.6088
  O  O355  1  0.710200  0.301500  0.532100  1.0  -0.5879
  O  O356  1  0.618000  0.331900  0.492100  1.0  -0.5641
  O  O357  1  0.947700  0.672500  0.394500  1.0  -0.6409
  O  O358  1  0.930800  0.734700  0.282900  1.0  -0.5581
  O  O359  1  0.071500  0.975600  0.210900  1.0  -0.6122
  O  O360  1  0.139200  0.041600  0.300900  1.0  -0.5703
  O  O361  1  0.600360  0.582900  0.180400  1.0  -0.2809
  O  O362  1  0.180700  0.870100  0.560200  1.0  -0.2861
  O  O363  1  0.435940  0.696800  0.921700  1.0  -0.5959
  O  O364  1  0.343880  0.821300  0.831200  1.0  -0.6165
  O  O365  1  0.796500  0.863200  0.814100  1.0  -0.6021
  O  O366  1  0.836300  0.973600  0.906900  1.0  -0.6096
  O  O367  1  0.710200  0.198500  0.032100  1.0  -0.5878
  O  O368  1  0.618000  0.168100  0.992100  1.0  -0.5645
  O  O369  1  0.947700  0.827500  0.894500  1.0  -0.6409
  O  O370  1  0.930800  0.765300  0.782900  1.0  -0.5573
  O  O371  1  0.071500  0.524400  0.710900  1.0  -0.6128
  O  O372  1  0.139200  0.458400  0.800900  1.0  -0.5685
  O  O373  1  0.600360  0.917100  0.680400  1.0  -0.2815
  O  O374  1  0.180700  0.629900  0.060200  1.0  -0.2842
  O  O375  1  0.435940  0.803200  0.421700  1.0  -0.5959
  O  O376  1  0.343880  0.678700  0.331200  1.0  -0.6164
  O  O377  1  0.203500  0.363200  0.685900  1.0  -0.6044
  O  O378  1  0.163700  0.473600  0.593100  1.0  -0.6107
  O  O379  1  0.289800  0.698500  0.467900  1.0  -0.5865
  O  O380  1  0.382000  0.668100  0.507900  1.0  -0.565
  O  O381  1  0.052300  0.327500  0.605500  1.0  -0.6403
  O  O382  1  0.069200  0.265300  0.717100  1.0  -0.5581
  O  O383  1  0.928500  0.024400  0.789100  1.0  -0.6104
  O  O384  1  0.860800  0.958400  0.699100  1.0  -0.5698
  O  O385  1  0.399640  0.417100  0.819600  1.0  -0.2818
  O  O386  1  0.819300  0.129900  0.439800  1.0  -0.2866
  O  O387  1  0.564060  0.303200  0.078300  1.0  -0.5946
  O  O388  1  0.656120  0.178700  0.168800  1.0  -0.6157
