# generated using pymatgen
data_CdFeH38C42(NO6)2
_symmetry_space_group_name_H-M   'P 1'
_cell_length_a   24.57600000
_cell_length_b   12.41600000
_cell_length_c   18.09400000
_cell_angle_alpha   90.00000000
_cell_angle_beta   102.53400000
_cell_angle_gamma   90.00000000
_symmetry_Int_Tables_number   1
_chemical_formula_structural   CdFeH38C42(NO6)2
_chemical_formula_sum   'Cd4 Fe4 H152 C168 N8 O48'
_cell_volume   5389.54108551
_cell_formula_units_Z   4
loop_
 _symmetry_equiv_pos_site_id
 _symmetry_equiv_pos_as_xyz
  1  'x, y, z'
loop_
 _atom_site_type_symbol
 _atom_site_label
 _atom_site_symmetry_multiplicity
 _atom_site_fract_x
 _atom_site_fract_y
 _atom_site_fract_z
 _atom_site_occupancy
 _atom_site_charge
  Cd  Cd1  1  0.630760  0.327100  0.710560  1.0  1.0
  Cd  Cd2  1  0.369240  0.827100  0.789440  1.0  1.0007
  Cd  Cd3  1  0.369240  0.672900  0.289440  1.0  1.0023
  Cd  Cd4  1  0.630760  0.172900  0.210560  1.0  1.0016
  Fe  Fe5  1  0.139490  0.269310  0.078770  1.0  0.9396
  Fe  Fe6  1  0.860510  0.769310  0.421230  1.0  0.938
  Fe  Fe7  1  0.860510  0.730690  0.921230  1.0  0.9374
  Fe  Fe8  1  0.139490  0.230690  0.578770  1.0  0.939
  H  H9  1  0.744600  0.552400  0.549400  1.0  0.1226
  H  H10  1  0.814000  0.404900  0.745800  1.0  0.1147
  H  H11  1  0.904800  0.601600  0.644600  1.0  0.1243
  H  H12  1  0.948000  0.463400  0.752700  1.0  0.0821
  H  H13  1  0.926600  0.559800  0.795000  1.0  0.0925
  H  H14  1  0.895300  0.300800  0.932800  1.0  0.1146
  H  H15  1  0.009800  0.479300  0.860900  1.0  0.1259
  H  H16  1  0.879600  0.150900  0.082200  1.0  0.1209
  H  H17  1  0.877300  0.168000  0.995700  1.0  0.1054
  H  H18  1  0.870200  0.266500  0.047000  1.0  0.1172
  H  H19  1  0.969200  0.059200  0.093200  1.0  0.1196
  H  H20  1  0.019800  0.117100  0.070200  1.0  0.1218
  H  H21  1  0.968600  0.080200  0.007600  1.0  0.1157
  H  H22  1  0.957000  0.212500  0.178400  1.0  0.1217
  H  H23  1  0.951200  0.330400  0.146700  1.0  0.1224
  H  H24  1  0.008500  0.270300  0.158000  1.0  0.1146
  H  H25  1  0.099100  0.503900  0.938900  1.0  0.1043
  H  H26  1  0.186600  0.531200  0.997100  1.0  0.0886
  H  H27  1  0.218400  0.420300  0.002200  1.0  0.1065
  H  H28  1  0.249500  0.495200  0.120600  1.0  0.101
  H  H29  1  0.188900  0.531600  0.125200  1.0  0.1071
  H  H30  1  0.261600  0.395100  0.227400  1.0  0.0924
  H  H31  1  0.238600  0.003400  0.363600  1.0  0.1139
  H  H32  1  0.296700  0.297400  0.334200  1.0  0.1317
  H  H33  1  0.134200  0.881600  0.146100  1.0  0.1171
  H  H34  1  0.197000  0.916400  0.164400  1.0  0.1254
  H  H35  1  0.150700  0.999100  0.128000  1.0  0.1146
  H  H36  1  0.070600  0.957300  0.227700  1.0  0.1194
  H  H37  1  0.087400  0.074600  0.209700  1.0  0.1198
  H  H38  1  0.095000  0.036700  0.293900  1.0  0.1179
  H  H39  1  0.141100  0.824100  0.279500  1.0  0.1293
  H  H40  1  0.164200  0.902900  0.346700  1.0  0.1154
  H  H41  1  0.204300  0.856200  0.298100  1.0  0.1198
  H  H42  1  0.317600  0.277200  0.470300  1.0  0.0933
  H  H43  1  0.363500  0.248300  0.424800  1.0  0.0694
  H  H44  1  0.330800  0.077000  0.566900  1.0  0.0986
  H  H45  1  0.475200  0.114200  0.715300  1.0  0.1267
  H  H46  1  0.443500  0.284300  0.523400  1.0  0.1265
  H  H47  1  0.255400  0.052400  0.950600  1.0  0.1228
  H  H48  1  0.186000  0.904900  0.754200  1.0  0.1152
  H  H49  1  0.095200  0.101600  0.855400  1.0  0.1247
  H  H50  1  0.052000  0.963400  0.747300  1.0  0.0815
  H  H51  1  0.073400  0.059800  0.705000  1.0  0.0928
  H  H52  1  0.104700  0.800800  0.567200  1.0  0.1152
  H  H53  1  0.990200  0.979300  0.639100  1.0  0.1257
  H  H54  1  0.120400  0.650900  0.417800  1.0  0.1199
  H  H55  1  0.122700  0.668000  0.504300  1.0  0.1069
  H  H56  1  0.129800  0.766500  0.453000  1.0  0.1175
  H  H57  1  0.030800  0.559200  0.406800  1.0  0.1194
  H  H58  1  0.980200  0.617100  0.429800  1.0  0.1203
  H  H59  1  0.031400  0.580200  0.492400  1.0  0.1159
  H  H60  1  0.043000  0.712500  0.321600  1.0  0.1199
  H  H61  1  0.048800  0.830400  0.353300  1.0  0.1222
  H  H62  1  0.991500  0.770300  0.342000  1.0  0.1151
  H  H63  1  0.900900  0.003900  0.561100  1.0  0.1051
  H  H64  1  0.813400  0.031200  0.502900  1.0  0.089
  H  H65  1  0.781600  0.920300  0.497800  1.0  0.107
  H  H66  1  0.750500  0.995200  0.379400  1.0  0.1001
  H  H67  1  0.811100  0.031600  0.374800  1.0  0.1071
  H  H68  1  0.738400  0.895100  0.272600  1.0  0.094
  H  H69  1  0.761400  0.503400  0.136400  1.0  0.1131
  H  H70  1  0.703300  0.797400  0.165800  1.0  0.1314
  H  H71  1  0.865800  0.381600  0.353900  1.0  0.1169
  H  H72  1  0.803000  0.416400  0.335600  1.0  0.1273
  H  H73  1  0.849300  0.499100  0.372000  1.0  0.1144
  H  H74  1  0.929400  0.457300  0.272300  1.0  0.1208
  H  H75  1  0.912600  0.574600  0.290300  1.0  0.1187
  H  H76  1  0.905000  0.536700  0.206100  1.0  0.1189
  H  H77  1  0.858900  0.324100  0.220500  1.0  0.1278
  H  H78  1  0.835800  0.402900  0.153300  1.0  0.1172
  H  H79  1  0.795700  0.356200  0.201900  1.0  0.1195
  H  H80  1  0.682400  0.777200  0.029700  1.0  0.0929
  H  H81  1  0.636500  0.748300  0.075200  1.0  0.0711
  H  H82  1  0.669200  0.577000  0.933100  1.0  0.0988
  H  H83  1  0.524800  0.614200  0.784700  1.0  0.1273
  H  H84  1  0.556500  0.784300  0.976600  1.0  0.1265
  H  H85  1  0.255400  0.447600  0.450600  1.0  0.1231
  H  H86  1  0.186000  0.595100  0.254200  1.0  0.1152
  H  H87  1  0.095200  0.398400  0.355400  1.0  0.1249
  H  H88  1  0.052000  0.536600  0.247300  1.0  0.081
  H  H89  1  0.073400  0.440200  0.205000  1.0  0.0925
  H  H90  1  0.104700  0.699200  0.067200  1.0  0.1151
  H  H91  1  0.990200  0.520700  0.139100  1.0  0.1259
  H  H92  1  0.120400  0.849100  0.917800  1.0  0.1205
  H  H93  1  0.122700  0.832000  0.004300  1.0  0.1068
  H  H94  1  0.129800  0.733500  0.953000  1.0  0.1174
  H  H95  1  0.030800  0.940800  0.906800  1.0  0.1207
  H  H96  1  0.980200  0.882900  0.929800  1.0  0.1199
  H  H97  1  0.031400  0.919800  0.992400  1.0  0.1149
  H  H98  1  0.043000  0.787500  0.821600  1.0  0.1198
  H  H99  1  0.048800  0.669600  0.853300  1.0  0.1217
  H  H100  1  0.991500  0.729700  0.842000  1.0  0.115
  H  H101  1  0.900900  0.496100  0.061100  1.0  0.1048
  H  H102  1  0.813400  0.468800  0.002900  1.0  0.0889
  H  H103  1  0.781600  0.579700  0.997800  1.0  0.1066
  H  H104  1  0.750500  0.504800  0.879400  1.0  0.1001
  H  H105  1  0.811100  0.468400  0.874800  1.0  0.107
  H  H106  1  0.738400  0.604900  0.772600  1.0  0.0938
  H  H107  1  0.761400  0.996600  0.636400  1.0  0.1142
  H  H108  1  0.703300  0.702600  0.665800  1.0  0.1312
  H  H109  1  0.865800  0.118400  0.853900  1.0  0.1165
  H  H110  1  0.803000  0.083600  0.835600  1.0  0.1277
  H  H111  1  0.849300  0.000900  0.872000  1.0  0.1143
  H  H112  1  0.929400  0.042700  0.772300  1.0  0.1209
  H  H113  1  0.912600  0.925400  0.790300  1.0  0.1197
  H  H114  1  0.905000  0.963300  0.706100  1.0  0.1185
  H  H115  1  0.858900  0.175900  0.720500  1.0  0.129
  H  H116  1  0.835800  0.097100  0.653300  1.0  0.1183
  H  H117  1  0.795700  0.143800  0.701900  1.0  0.1195
  H  H118  1  0.682400  0.722800  0.529700  1.0  0.0937
  H  H119  1  0.636500  0.751700  0.575200  1.0  0.0717
  H  H120  1  0.669200  0.923000  0.433100  1.0  0.0986
  H  H121  1  0.524800  0.885800  0.284700  1.0  0.127
  H  H122  1  0.556500  0.715700  0.476600  1.0  0.126
  H  H123  1  0.744600  0.947600  0.049400  1.0  0.1228
  H  H124  1  0.814000  0.095100  0.245800  1.0  0.1143
  H  H125  1  0.904800  0.898400  0.144600  1.0  0.1242
  H  H126  1  0.948000  0.036600  0.252700  1.0  0.0819
  H  H127  1  0.926600  0.940200  0.295000  1.0  0.092
  H  H128  1  0.895300  0.199200  0.432800  1.0  0.115
  H  H129  1  0.009800  0.020700  0.360900  1.0  0.1259
  H  H130  1  0.879600  0.349100  0.582200  1.0  0.1206
  H  H131  1  0.877300  0.332000  0.495700  1.0  0.1052
  H  H132  1  0.870200  0.233500  0.547000  1.0  0.1163
  H  H133  1  0.969200  0.440800  0.593200  1.0  0.1189
  H  H134  1  0.019800  0.382900  0.570200  1.0  0.1215
  H  H135  1  0.968600  0.419800  0.507600  1.0  0.1148
  H  H136  1  0.957000  0.287500  0.678400  1.0  0.1205
  H  H137  1  0.951200  0.169600  0.646700  1.0  0.1217
  H  H138  1  0.008500  0.229700  0.658000  1.0  0.1147
  H  H139  1  0.099100  0.996100  0.438900  1.0  0.104
  H  H140  1  0.186600  0.968800  0.497100  1.0  0.0879
  H  H141  1  0.218400  0.079700  0.502200  1.0  0.1058
  H  H142  1  0.249500  0.004800  0.620600  1.0  0.1004
  H  H143  1  0.188900  0.968400  0.625200  1.0  0.1068
  H  H144  1  0.261600  0.104900  0.727400  1.0  0.0927
  H  H145  1  0.238600  0.496600  0.863600  1.0  0.114
  H  H146  1  0.296700  0.202600  0.834200  1.0  0.1314
  H  H147  1  0.134200  0.618400  0.646100  1.0  0.1179
  H  H148  1  0.197000  0.583600  0.664400  1.0  0.1261
  H  H149  1  0.150700  0.500900  0.628000  1.0  0.1143
  H  H150  1  0.070600  0.542700  0.727700  1.0  0.1205
  H  H151  1  0.087400  0.425400  0.709700  1.0  0.1202
  H  H152  1  0.095000  0.463300  0.793900  1.0  0.1179
  H  H153  1  0.141100  0.675900  0.779500  1.0  0.1293
  H  H154  1  0.164200  0.597100  0.846700  1.0  0.1149
  H  H155  1  0.204300  0.643800  0.798100  1.0  0.1192
  H  H156  1  0.317600  0.222800  0.970300  1.0  0.0943
  H  H157  1  0.363500  0.251700  0.924800  1.0  0.0697
  H  H158  1  0.330800  0.423000  0.066900  1.0  0.0986
  H  H159  1  0.475200  0.385800  0.215300  1.0  0.1266
  H  H160  1  0.443500  0.215700  0.023400  1.0  0.1265
  C  C161  1  0.833700  0.654000  0.521300  1.0  0.6803
  C  C162  1  0.825800  0.583000  0.586800  1.0  -0.1232
  C  C163  1  0.775600  0.537600  0.587800  1.0  -0.0367
  C  C164  1  0.770900  0.467700  0.647600  1.0  -0.1311
  C  C165  1  0.816800  0.451200  0.706400  1.0  -0.082
  C  C166  1  0.867200  0.503300  0.707000  1.0  0.0766
  C  C167  1  0.871200  0.568000  0.645800  1.0  -0.0858
  C  C168  1  0.718200  0.418400  0.654500  1.0  0.594
  C  C169  1  0.916500  0.490400  0.771500  1.0  0.0447
  C  C170  1  0.946200  0.395100  0.886700  1.0  0.2715
  C  C171  1  0.931700  0.326300  0.940600  1.0  -0.1587
  C  C172  1  0.969900  0.294700  0.005300  1.0  0.0047
  C  C173  1  0.025700  0.329400  0.014500  1.0  0.2466
  C  C174  1  0.039800  0.399700  0.959400  1.0  -0.0514
  C  C175  1  0.000100  0.432700  0.896200  1.0  -0.2515
  C  C176  1  0.952100  0.217600  0.062700  1.0  0.1911
  C  C177  1  0.888900  0.199000  0.045300  1.0  -0.3811
  C  C178  1  0.980000  0.108300  0.058000  1.0  -0.365
  C  C179  1  0.968800  0.261900  0.144100  1.0  -0.3753
  C  C180  1  0.095100  0.443100  0.967300  1.0  0.1236
  C  C181  1  0.191300  0.461600  0.022000  1.0  0.0323
  C  C182  1  0.210400  0.475400  0.107500  1.0  -0.0475
  C  C183  1  0.234000  0.345700  0.207000  1.0  0.1014
  C  C184  1  0.231500  0.249600  0.249700  1.0  -0.0763
  C  C185  1  0.192800  0.165900  0.225800  1.0  0.2953
  C  C186  1  0.195700  0.070500  0.268700  1.0  0.0442
  C  C187  1  0.236200  0.065600  0.334400  1.0  -0.1889
  C  C188  1  0.273400  0.148100  0.359500  1.0  0.2825
  C  C189  1  0.271800  0.241400  0.317800  1.0  -0.2406
  C  C190  1  0.154200  0.976600  0.243000  1.0  0.2236
  C  C191  1  0.159500  0.939900  0.162700  1.0  -0.3628
  C  C192  1  0.096700  0.014700  0.243600  1.0  -0.3617
  C  C193  1  0.167200  0.881100  0.296800  1.0  -0.3368
  C  C194  1  0.342000  0.220600  0.459700  1.0  0.0486
  C  C195  1  0.380500  0.183100  0.532400  1.0  0.1594
  C  C196  1  0.365800  0.108800  0.580100  1.0  -0.0656
  C  C197  1  0.401200  0.079200  0.647200  1.0  -0.1481
  C  C198  1  0.451700  0.131100  0.669200  1.0  -0.0227
  C  C199  1  0.467400  0.207300  0.623500  1.0  -0.1571
  C  C200  1  0.432400  0.233300  0.554700  1.0  -0.0343
  C  C201  1  0.385400  0.991900  0.694700  1.0  0.715
  C  C202  1  0.523500  0.256800  0.647900  1.0  0.7357
  C  C203  1  0.166300  0.154000  0.978700  1.0  0.6801
  C  C204  1  0.174200  0.083000  0.913200  1.0  -0.1229
  C  C205  1  0.224400  0.037600  0.912200  1.0  -0.0383
  C  C206  1  0.229100  0.967700  0.852400  1.0  -0.131
  C  C207  1  0.183200  0.951200  0.793600  1.0  -0.0824
  C  C208  1  0.132800  0.003300  0.793000  1.0  0.077
  C  C209  1  0.128800  0.068000  0.854200  1.0  -0.0862
  C  C210  1  0.281800  0.918400  0.845500  1.0  0.5978
  C  C211  1  0.083500  0.990400  0.728500  1.0  0.0438
  C  C212  1  0.053800  0.895100  0.613300  1.0  0.2734
  C  C213  1  0.068300  0.826300  0.559400  1.0  -0.157
  C  C214  1  0.030100  0.794700  0.494700  1.0  0.0029
  C  C215  1  0.974300  0.829400  0.485500  1.0  0.246
  C  C216  1  0.960200  0.899700  0.540600  1.0  -0.0514
  C  C217  1  0.999900  0.932700  0.603800  1.0  -0.2521
  C  C218  1  0.047900  0.717600  0.437300  1.0  0.1907
  C  C219  1  0.111100  0.699000  0.454700  1.0  -0.3773
  C  C220  1  0.020000  0.608300  0.442000  1.0  -0.3644
  C  C221  1  0.031200  0.761900  0.355900  1.0  -0.3753
  C  C222  1  0.904900  0.943100  0.532700  1.0  0.1231
  C  C223  1  0.808700  0.961600  0.478000  1.0  0.03
  C  C224  1  0.789600  0.975400  0.392500  1.0  -0.0482
  C  C225  1  0.766000  0.845700  0.293000  1.0  0.1018
  C  C226  1  0.768500  0.749600  0.250300  1.0  -0.0745
  C  C227  1  0.807200  0.665900  0.274200  1.0  0.2948
  C  C228  1  0.804300  0.570500  0.231300  1.0  0.0418
  C  C229  1  0.763800  0.565600  0.165600  1.0  -0.1878
  C  C230  1  0.726600  0.648100  0.140500  1.0  0.2823
  C  C231  1  0.728200  0.741400  0.182200  1.0  -0.2417
  C  C232  1  0.845800  0.476600  0.257000  1.0  0.2237
  C  C233  1  0.840500  0.439900  0.337300  1.0  -0.3631
  C  C234  1  0.903300  0.514700  0.256400  1.0  -0.3616
  C  C235  1  0.832800  0.381100  0.203200  1.0  -0.3357
  C  C236  1  0.658000  0.720600  0.040300  1.0  0.0497
  C  C237  1  0.619500  0.683100  0.967600  1.0  0.1593
  C  C238  1  0.634200  0.608800  0.919900  1.0  -0.0656
  C  C239  1  0.598800  0.579200  0.852800  1.0  -0.1483
  C  C240  1  0.548300  0.631100  0.830800  1.0  -0.023
  C  C241  1  0.532600  0.707300  0.876500  1.0  -0.1562
  C  C242  1  0.567600  0.733300  0.945300  1.0  -0.0355
  C  C243  1  0.614600  0.491900  0.805300  1.0  0.7143
  C  C244  1  0.476500  0.756800  0.852100  1.0  0.7365
  C  C245  1  0.166300  0.346000  0.478700  1.0  0.68
  C  C246  1  0.174200  0.417000  0.413200  1.0  -0.1224
  C  C247  1  0.224400  0.462400  0.412200  1.0  -0.0376
  C  C248  1  0.229100  0.532300  0.352400  1.0  -0.1306
  C  C249  1  0.183200  0.548800  0.293600  1.0  -0.0827
  C  C250  1  0.132800  0.496700  0.293000  1.0  0.0772
  C  C251  1  0.128800  0.432000  0.354200  1.0  -0.0849
  C  C252  1  0.281800  0.581600  0.345500  1.0  0.5986
  C  C253  1  0.083500  0.509600  0.228500  1.0  0.0438
  C  C254  1  0.053800  0.604900  0.113300  1.0  0.2728
  C  C255  1  0.068300  0.673700  0.059400  1.0  -0.1568
  C  C256  1  0.030100  0.705300  0.994700  1.0  0.003
  C  C257  1  0.974300  0.670600  0.985500  1.0  0.2459
  C  C258  1  0.960200  0.600300  0.040600  1.0  -0.0501
  C  C259  1  0.999900  0.567300  0.103800  1.0  -0.2524
  C  C260  1  0.047900  0.782400  0.937300  1.0  0.1893
  C  C261  1  0.111100  0.801000  0.954700  1.0  -0.3772
  C  C262  1  0.020000  0.891700  0.942000  1.0  -0.3653
  C  C263  1  0.031200  0.738100  0.855900  1.0  -0.375
  C  C264  1  0.904900  0.556900  0.032700  1.0  0.1234
  C  C265  1  0.808700  0.538400  0.978000  1.0  0.0309
  C  C266  1  0.789600  0.524600  0.892500  1.0  -0.0476
  C  C267  1  0.766000  0.654300  0.793000  1.0  0.1028
  C  C268  1  0.768500  0.750400  0.750300  1.0  -0.0746
  C  C269  1  0.807200  0.834100  0.774200  1.0  0.2945
  C  C270  1  0.804300  0.929500  0.731300  1.0  0.0422
  C  C271  1  0.763800  0.934400  0.665600  1.0  -0.1887
  C  C272  1  0.726600  0.851900  0.640500  1.0  0.2826
  C  C273  1  0.728200  0.758600  0.682200  1.0  -0.2421
  C  C274  1  0.845800  0.023400  0.757000  1.0  0.2237
  C  C275  1  0.840500  0.060100  0.837300  1.0  -0.3626
  C  C276  1  0.903300  0.985300  0.756400  1.0  -0.3616
  C  C277  1  0.832800  0.118900  0.703200  1.0  -0.3353
  C  C278  1  0.658000  0.779400  0.540300  1.0  0.0467
  C  C279  1  0.619500  0.816900  0.467600  1.0  0.1592
  C  C280  1  0.634200  0.891200  0.419900  1.0  -0.065
  C  C281  1  0.598800  0.920800  0.352800  1.0  -0.1475
  C  C282  1  0.548300  0.868900  0.330800  1.0  -0.0233
  C  C283  1  0.532600  0.792700  0.376500  1.0  -0.1564
  C  C284  1  0.567600  0.766700  0.445300  1.0  -0.0332
  C  C285  1  0.614600  0.008100  0.305300  1.0  0.7129
  C  C286  1  0.476500  0.743200  0.352100  1.0  0.7364
  C  C287  1  0.833700  0.846000  0.021300  1.0  0.6799
  C  C288  1  0.825800  0.917000  0.086800  1.0  -0.1239
  C  C289  1  0.775600  0.962400  0.087800  1.0  -0.0367
  C  C290  1  0.770900  0.032300  0.147600  1.0  -0.1291
  C  C291  1  0.816800  0.048800  0.206400  1.0  -0.0821
  C  C292  1  0.867200  0.996700  0.207000  1.0  0.0769
  C  C293  1  0.871200  0.932000  0.145800  1.0  -0.0849
  C  C294  1  0.718200  0.081600  0.154500  1.0  0.5958
  C  C295  1  0.916500  0.009600  0.271500  1.0  0.0444
  C  C296  1  0.946200  0.104900  0.386700  1.0  0.2713
  C  C297  1  0.931700  0.173700  0.440600  1.0  -0.1585
  C  C298  1  0.969900  0.205300  0.505300  1.0  0.0041
  C  C299  1  0.025700  0.170600  0.514500  1.0  0.2465
  C  C300  1  0.039800  0.100300  0.459400  1.0  -0.0502
  C  C301  1  0.000100  0.067300  0.396200  1.0  -0.2515
  C  C302  1  0.952100  0.282400  0.562700  1.0  0.19
  C  C303  1  0.888900  0.301000  0.545300  1.0  -0.3812
  C  C304  1  0.980000  0.391700  0.558000  1.0  -0.3645
  C  C305  1  0.968800  0.238100  0.644100  1.0  -0.3755
  C  C306  1  0.095100  0.056900  0.467300  1.0  0.1247
  C  C307  1  0.191300  0.038400  0.522000  1.0  0.0338
  C  C308  1  0.210400  0.024600  0.607500  1.0  -0.0464
  C  C309  1  0.234000  0.154300  0.707000  1.0  0.1024
  C  C310  1  0.231500  0.250400  0.749700  1.0  -0.0753
  C  C311  1  0.192800  0.334100  0.725800  1.0  0.2949
  C  C312  1  0.195700  0.429500  0.768700  1.0  0.045
  C  C313  1  0.236200  0.434400  0.834400  1.0  -0.189
  C  C314  1  0.273400  0.351900  0.859500  1.0  0.282
  C  C315  1  0.271800  0.258600  0.817800  1.0  -0.2397
  C  C316  1  0.154200  0.523400  0.743000  1.0  0.2232
  C  C317  1  0.159500  0.560100  0.662700  1.0  -0.363
  C  C318  1  0.096700  0.485300  0.743600  1.0  -0.3613
  C  C319  1  0.167200  0.618900  0.796800  1.0  -0.3374
  C  C320  1  0.342000  0.279400  0.959700  1.0  0.0468
  C  C321  1  0.380500  0.316900  0.032400  1.0  0.1595
  C  C322  1  0.365800  0.391200  0.080100  1.0  -0.0652
  C  C323  1  0.401200  0.420800  0.147200  1.0  -0.1478
  C  C324  1  0.451700  0.368900  0.169200  1.0  -0.0233
  C  C325  1  0.467400  0.292700  0.123500  1.0  -0.1569
  C  C326  1  0.432400  0.266700  0.054700  1.0  -0.034
  C  C327  1  0.385400  0.508100  0.194700  1.0  0.7134
  C  C328  1  0.523500  0.243200  0.147900  1.0  0.7355
  N  N329  1  0.138900  0.405300  0.009800  1.0  -0.2926
  N  N330  1  0.201500  0.370800  0.142800  1.0  -0.3569
  N  N331  1  0.861100  0.905300  0.490200  1.0  -0.2907
  N  N332  1  0.798500  0.870800  0.357200  1.0  -0.357
  N  N333  1  0.861100  0.594700  0.990200  1.0  -0.2896
  N  N334  1  0.798500  0.629200  0.857200  1.0  -0.3566
  N  N335  1  0.138900  0.094700  0.509800  1.0  -0.2906
  N  N336  1  0.201500  0.129200  0.642800  1.0  -0.356
  O  O337  1  0.716900  0.350100  0.705100  1.0  -0.6074
  O  O338  1  0.793700  0.694800  0.477500  1.0  -0.5667
  O  O339  1  0.882500  0.667300  0.510300  1.0  -0.572
  O  O340  1  0.904030  0.418500  0.825300  1.0  -0.2443
  O  O341  1  0.063690  0.300100  0.075800  1.0  -0.5875
  O  O342  1  0.153810  0.177600  0.163000  1.0  -0.6158
  O  O343  1  0.310600  0.130400  0.428300  1.0  -0.2877
  O  O344  1  0.351800  0.920300  0.668000  1.0  -0.6042
  O  O345  1  0.551300  0.239100  0.711700  1.0  -0.5658
  O  O346  1  0.538500  0.316100  0.603700  1.0  -0.5906
  O  O347  1  0.677800  0.442600  0.613000  1.0  -0.5576
  O  O348  1  0.407800  0.981700  0.757500  1.0  -0.565
  O  O349  1  0.283100  0.850100  0.794900  1.0  -0.6072
  O  O350  1  0.206300  0.194800  0.022500  1.0  -0.5664
  O  O351  1  0.117500  0.167300  0.989700  1.0  -0.5703
  O  O352  1  0.095970  0.918500  0.674700  1.0  -0.2413
  O  O353  1  0.936310  0.800100  0.424200  1.0  -0.5877
  O  O354  1  0.846190  0.677600  0.337000  1.0  -0.6169
  O  O355  1  0.689400  0.630400  0.071700  1.0  -0.2856
  O  O356  1  0.648200  0.420300  0.832000  1.0  -0.6052
  O  O357  1  0.448700  0.739100  0.788300  1.0  -0.5664
  O  O358  1  0.461500  0.816100  0.896300  1.0  -0.5882
  O  O359  1  0.322200  0.942600  0.887000  1.0  -0.5564
  O  O360  1  0.592200  0.481700  0.742500  1.0  -0.5631
  O  O361  1  0.283100  0.649900  0.294900  1.0  -0.607
  O  O362  1  0.206300  0.305200  0.522500  1.0  -0.5665
  O  O363  1  0.117500  0.332700  0.489700  1.0  -0.5702
  O  O364  1  0.095970  0.581500  0.174700  1.0  -0.2401
  O  O365  1  0.936310  0.699900  0.924200  1.0  -0.5876
  O  O366  1  0.846190  0.822400  0.837000  1.0  -0.6167
  O  O367  1  0.689400  0.869600  0.571700  1.0  -0.2848
  O  O368  1  0.648200  0.079700  0.332000  1.0  -0.6065
  O  O369  1  0.448700  0.760900  0.288300  1.0  -0.5658
  O  O370  1  0.461500  0.683900  0.396300  1.0  -0.5884
  O  O371  1  0.322200  0.557400  0.387000  1.0  -0.5561
  O  O372  1  0.592200  0.018300  0.242500  1.0  -0.5627
  O  O373  1  0.716900  0.149900  0.205100  1.0  -0.6096
  O  O374  1  0.793700  0.805200  0.977500  1.0  -0.567
  O  O375  1  0.882500  0.832700  0.010300  1.0  -0.5719
  O  O376  1  0.904030  0.081500  0.325300  1.0  -0.2422
  O  O377  1  0.063690  0.199900  0.575800  1.0  -0.5876
  O  O378  1  0.153810  0.322400  0.663000  1.0  -0.6158
  O  O379  1  0.310600  0.369600  0.928300  1.0  -0.2871
  O  O380  1  0.351800  0.579700  0.168000  1.0  -0.6041
  O  O381  1  0.551300  0.260900  0.211700  1.0  -0.5652
  O  O382  1  0.538500  0.183900  0.103700  1.0  -0.5902
  O  O383  1  0.677800  0.057400  0.113000  1.0  -0.5594
  O  O384  1  0.407800  0.518300  0.257500  1.0  -0.5646
