# generated using pymatgen
data_Cd3H58C68(NO12)2
_symmetry_space_group_name_H-M   'P 1'
_cell_length_a   11.97000000
_cell_length_b   16.34100000
_cell_length_c   16.43600000
_cell_angle_alpha   107.91300000
_cell_angle_beta   103.40000000
_cell_angle_gamma   100.53300000
_symmetry_Int_Tables_number   1
_chemical_formula_structural   Cd3H58C68(NO12)2
_chemical_formula_sum   'Cd3 H58 C68 N2 O24'
_cell_volume   2861.47927424
_cell_formula_units_Z   1
loop_
 _symmetry_equiv_pos_site_id
 _symmetry_equiv_pos_as_xyz
  1  'x, y, z'
loop_
 _atom_site_type_symbol
 _atom_site_label
 _atom_site_symmetry_multiplicity
 _atom_site_fract_x
 _atom_site_fract_y
 _atom_site_fract_z
 _atom_site_occupancy
 _atom_site_charge
  Cd  Cd1  1  0.194410  0.888050  0.392550  1.0  1.1609
  Cd  Cd2  1  0.805940  0.111090  0.609240  1.0  1.1536
  Cd  Cd3  1  0.500220  0.999570  0.500540  1.0  1.1035
  H  H4  1  0.319220  0.408890  0.087630  1.0  0.1177
  H  H5  1  0.233880  0.664320  0.224700  1.0  0.1209
  H  H6  1  0.265650  0.526190  0.139400  1.0  0.1204
  H  H7  1  0.612440  0.331710  0.002620  1.0  0.1303
  H  H8  1  0.581620  0.437590  0.025510  1.0  0.1295
  H  H9  1  0.756800  0.533070  0.059930  1.0  0.1151
  H  H10  1  0.893570  0.683270  0.142240  1.0  0.1253
  H  H11  1  0.925430  0.640190  0.391570  1.0  0.1214
  H  H12  1  0.785300  0.490960  0.309080  1.0  0.1236
  H  H13  1  0.373460  0.327160  0.919380  1.0  0.1095
  H  H14  1  0.283160  0.261310  0.963420  1.0  0.1181
  H  H15  1  0.524750  0.105660  0.840040  1.0  0.1209
  H  H16  1  0.459760  0.011130  0.682280  1.0  0.1107
  H  H17  1  0.141610  0.098400  0.638760  1.0  0.1221
  H  H18  1  0.205330  0.193150  0.799300  1.0  0.1171
  H  H19  1  0.517800  0.232670  0.090980  1.0  0.1082
  H  H20  1  0.525120  0.326890  0.187010  1.0  0.1074
  H  H21  1  0.157490  0.146030  0.127710  1.0  0.1371
  H  H22  1  0.138790  0.056740  0.223030  1.0  0.1213
  H  H23  1  0.523080  0.126290  0.326700  1.0  0.1203
  H  H24  1  0.541840  0.207970  0.229770  1.0  0.119
  H  H25  1  0.611540  0.770480  0.367170  1.0  0.1174
  H  H26  1  0.643560  0.630800  0.281910  1.0  0.1101
  H  H27  1  0.680610  0.590530  0.912380  1.0  0.1172
  H  H28  1  0.764720  0.334250  0.774950  1.0  0.1206
  H  H29  1  0.733930  0.473110  0.859780  1.0  0.1233
  H  H30  1  0.387790  0.668380  0.997680  1.0  0.1306
  H  H31  1  0.418530  0.562400  0.975110  1.0  0.1294
  H  H32  1  0.243700  0.466960  0.940830  1.0  0.113
  H  H33  1  0.105590  0.317150  0.858770  1.0  0.1229
  H  H34  1  0.072180  0.360170  0.609360  1.0  0.123
  H  H35  1  0.214250  0.508850  0.691460  1.0  0.1189
  H  H36  1  0.716990  0.738880  0.036790  1.0  0.1145
  H  H37  1  0.627410  0.672890  0.081080  1.0  0.1077
  H  H38  1  0.476870  0.895040  0.161560  1.0  0.1207
  H  H39  1  0.543020  0.989120  0.319350  1.0  0.1041
  H  H40  1  0.861610  0.902570  0.361200  1.0  0.1123
  H  H41  1  0.796440  0.807430  0.200680  1.0  0.1153
  H  H42  1  0.474420  0.672670  0.813420  1.0  0.1051
  H  H43  1  0.482300  0.767060  0.909520  1.0  0.1042
  H  H44  1  0.841600  0.854440  0.873840  1.0  0.1363
  H  H45  1  0.861060  0.947920  0.783230  1.0  0.1185
  H  H46  1  0.477090  0.873560  0.673110  1.0  0.1218
  H  H47  1  0.457940  0.790720  0.769500  1.0  0.1191
  H  H48  1  0.387080  0.229420  0.632910  1.0  0.1221
  H  H49  1  0.355510  0.369250  0.717490  1.0  0.1145
  H  H50  1  0.100820  0.096940  0.482920  1.0  0.111
  H  H51  1  0.004550  0.157820  0.506030  1.0  0.1344
  H  H52  1  0.007960  0.053470  0.337870  1.0  0.1315
  H  H53  1  0.060280  0.168760  0.349770  1.0  0.1274
  H  H54  1  0.916660  0.128780  0.362510  1.0  0.1219
  H  H55  1  0.956290  0.873860  0.491180  1.0  0.1225
  H  H56  1  0.836300  0.874400  0.530200  1.0  0.1462
  H  H57  1  0.064740  0.935250  0.636210  1.0  0.1171
  H  H58  1  0.026740  0.820690  0.629410  1.0  0.1357
  H  H59  1  0.939880  0.894210  0.669730  1.0  0.1181
  H  H60  1  0.880560  0.779340  0.499600  1.0  0.1353
  H  H61  1  0.137280  0.206630  0.497260  1.0  0.146
  C  C62  1  0.461370  0.342340  0.058290  1.0  -0.0522
  C  C63  1  0.414570  0.418980  0.102630  1.0  0.3583
  C  C64  1  0.421260  0.729340  0.302410  1.0  -0.1151
  C  C65  1  0.324440  0.658320  0.237680  1.0  -0.0755
  C  C66  1  0.342730  0.577810  0.188780  1.0  -0.09
  C  C67  1  0.400500  0.812630  0.356400  1.0  0.7322
  C  C68  1  0.587660  0.383090  0.051920  1.0  -0.1185
  C  C69  1  0.754850  0.501430  0.179000  1.0  0.1207
  C  C70  1  0.787820  0.556920  0.132530  1.0  -0.1108
  C  C71  1  0.867630  0.643270  0.179920  1.0  -0.1081
  C  C72  1  0.918640  0.675430  0.274260  1.0  -0.0708
  C  C73  1  0.887070  0.618840  0.319520  1.0  -0.0684
  C  C74  1  0.807080  0.533330  0.272450  1.0  -0.1188
  C  C75  1  0.015360  0.761890  0.324100  1.0  0.6377
  C  C76  1  0.375390  0.285350  0.961580  1.0  -0.0233
  C  C77  1  0.372680  0.158630  0.831580  1.0  0.1866
  C  C78  1  0.441390  0.105160  0.796540  1.0  -0.0964
  C  C79  1  0.404540  0.051050  0.706030  1.0  -0.1145
  C  C80  1  0.298170  0.048350  0.647030  1.0  -0.0866
  C  C81  1  0.226450  0.100800  0.681920  1.0  -0.0961
  C  C82  1  0.263180  0.155460  0.773730  1.0  -0.1054
  C  C83  1  0.262110  0.989040  0.550720  1.0  0.5274
  C  C84  1  0.471030  0.283150  0.116840  1.0  -0.0481
  C  C85  1  0.350390  0.185800  0.171240  1.0  0.1644
  C  C86  1  0.237710  0.141150  0.170890  1.0  -0.1089
  C  C87  1  0.227310  0.090090  0.225520  1.0  -0.1014
  C  C88  1  0.329920  0.083410  0.282950  1.0  -0.1155
  C  C89  1  0.442120  0.128720  0.283390  1.0  -0.0794
  C  C90  1  0.452640  0.177310  0.227580  1.0  -0.1013
  C  C91  1  0.323290  0.029090  0.341280  1.0  0.7114
  C  C92  1  0.010080  0.123520  0.375570  1.0  -0.0694
  C  C93  1  0.459080  0.566680  0.204780  1.0  0.1478
  C  C94  1  0.535980  0.717920  0.317240  1.0  -0.0564
  C  C95  1  0.554040  0.637780  0.268970  1.0  -0.1
  C  C96  1  0.538780  0.657470  0.942170  1.0  -0.0513
  C  C97  1  0.585330  0.580640  0.897530  1.0  0.3596
  C  C98  1  0.577650  0.270200  0.698250  1.0  -0.1002
  C  C99  1  0.674600  0.341110  0.762480  1.0  -0.0739
  C  C100  1  0.656640  0.421780  0.810920  1.0  -0.062
  C  C101  1  0.597360  0.186580  0.644480  1.0  0.7388
  C  C102  1  0.412480  0.616790  0.948550  1.0  -0.1186
  C  C103  1  0.244870  0.498530  0.821600  1.0  0.1357
  C  C104  1  0.211980  0.443190  0.868240  1.0  -0.1109
  C  C105  1  0.131390  0.357130  0.821010  1.0  -0.0942
  C  C106  1  0.079270  0.325350  0.726850  1.0  -0.0739
  C  C107  1  0.110920  0.381660  0.681370  1.0  -0.0717
  C  C108  1  0.192050  0.466750  0.728210  1.0  -0.116
  C  C109  1  0.982080  0.239270  0.677570  1.0  0.6322
  C  C110  1  0.625010  0.714610  0.038840  1.0  -0.018
  C  C111  1  0.628850  0.841810  0.169020  1.0  0.1921
  C  C112  1  0.560800  0.895580  0.204620  1.0  -0.0963
  C  C113  1  0.598230  0.949380  0.295280  1.0  -0.1163
  C  C114  1  0.704280  0.951060  0.354170  1.0  -0.1059
  C  C115  1  0.776510  0.899990  0.318330  1.0  -0.1158
  C  C116  1  0.738990  0.845280  0.226380  1.0  -0.1043
  C  C117  1  0.739610  0.009400  0.450950  1.0  0.5451
  C  C118  1  0.528810  0.716490  0.883480  1.0  -0.0502
  C  C119  1  0.649110  0.814070  0.829270  1.0  0.1799
  C  C120  1  0.761830  0.859600  0.831160  1.0  -0.1022
  C  C121  1  0.773050  0.912110  0.778480  1.0  -0.0834
  C  C122  1  0.671090  0.917300  0.719610  1.0  -0.1184
  C  C123  1  0.558130  0.871410  0.717380  1.0  -0.099
  C  C124  1  0.546990  0.822310  0.772580  1.0  -0.093
  C  C125  1  0.678770  0.971710  0.662050  1.0  0.7082
  C  C126  1  0.989550  0.876140  0.620790  1.0  -0.0201
  C  C127  1  0.540340  0.433070  0.795020  1.0  0.1533
  C  C128  1  0.462990  0.281940  0.682780  1.0  -0.0758
  C  C129  1  0.445140  0.362190  0.730730  1.0  -0.1088
  N  N130  1  0.067060  0.148120  0.471810  1.0  -0.4533
  N  N131  1  0.910330  0.849100  0.529210  1.0  -0.5062
  O  O132  1  0.488130  0.879590  0.410500  1.0  -0.6132
  O  O133  1  0.293080  0.813000  0.348090  1.0  -0.6599
  O  O134  1  0.679320  0.412670  0.137340  1.0  -0.3326
  O  O135  1  0.031950  0.825150  0.294750  1.0  -0.5666
  O  O136  1  0.092870  0.775940  0.397780  1.0  -0.5649
  O  O137  1  0.417580  0.210200  0.924200  1.0  -0.3006
  O  O138  1  0.333620  0.942170  0.510980  1.0  -0.6996
  O  O139  1  0.162950  0.972650  0.499220  1.0  -0.5638
  O  O140  1  0.355430  0.238050  0.116500  1.0  -0.2999
  O  O141  1  0.224760  0.972640  0.327520  1.0  -0.5944
  O  O142  1  0.418670  0.038770  0.402140  1.0  -0.6372
  O  O143  1  0.490960  0.490660  0.159330  1.0  -0.3399
  O  O144  1  0.509540  0.121690  0.587560  1.0  -0.6075
  O  O145  1  0.704590  0.183230  0.656180  1.0  -0.6558
  O  O146  1  0.320900  0.587120  0.863080  1.0  -0.3334
  O  O147  1  0.972900  0.172400  0.702120  1.0  -0.5604
  O  O148  1  0.897620  0.228590  0.609000  1.0  -0.5624
  O  O149  1  0.582720  0.789760  0.076520  1.0  -0.3006
  O  O150  1  0.668780  0.057860  0.490070  1.0  -0.6867
  O  O151  1  0.838130  0.023870  0.503140  1.0  -0.543
  O  O152  1  0.644110  0.761330  0.883380  1.0  -0.2939
  O  O153  1  0.776290  0.029260  0.676530  1.0  -0.5934
  O  O154  1  0.583320  0.960380  0.600120  1.0  -0.6361
  O  O155  1  0.508840  0.509190  0.840540  1.0  -0.3388
