# generated using pymatgen
data_In2H26C33O14
_symmetry_space_group_name_H-M   'P 1'
_cell_length_a   21.65610000
_cell_length_b   21.65610000
_cell_length_c   21.54940000
_cell_angle_alpha   101.98000000
_cell_angle_beta   101.98000000
_cell_angle_gamma   126.03670000
_symmetry_Int_Tables_number   1
_chemical_formula_structural   In2H26C33O14
_chemical_formula_sum   'In8 H104 C132 O56'
_cell_volume   7266.99977803
_cell_formula_units_Z   4
loop_
 _symmetry_equiv_pos_site_id
 _symmetry_equiv_pos_as_xyz
  1  'x, y, z'
loop_
 _atom_site_type_symbol
 _atom_site_label
 _atom_site_symmetry_multiplicity
 _atom_site_fract_x
 _atom_site_fract_y
 _atom_site_fract_z
 _atom_site_occupancy
 _atom_site_charge
  In  In1  1  0.476740  0.817570  0.918370  1.0  1.672
  In  In2  1  0.182430  0.523260  0.581630  1.0  1.6715
  In  In3  1  0.523260  0.182430  0.081630  1.0  1.6717
  In  In4  1  0.817570  0.476740  0.418370  1.0  1.6709
  In  In5  1  0.358710  0.641290  0.750000  1.0  1.7024
  In  In6  1  0.641290  0.358710  0.250000  1.0  1.7033
  In  In7  1  0.500000  0.000000  0.000000  1.0  1.6595
  In  In8  1  0.000000  0.500000  0.500000  1.0  1.6595
  H  H9  1  0.137100  0.229100  0.055200  1.0  0.0749
  H  H10  1  0.169100  0.278500  0.006900  1.0  0.0782
  H  H11  1  0.376600  0.415600  0.198100  1.0  0.1128
  H  H12  1  0.469000  0.389400  0.215300  1.0  0.1045
  H  H13  1  0.322000  0.195400  0.029000  1.0  0.1021
  H  H14  1  0.222500  0.215700  0.015700  1.0  0.1181
  H  H15  1  0.003800  0.286200  0.023100  1.0  0.0782
  H  H16  1  0.021100  0.243700  0.967100  1.0  0.0889
  H  H17  1  0.876500  0.058700  0.970100  1.0  0.1019
  H  H18  1  0.732800  0.967000  0.947600  1.0  0.1033
  H  H19  1  0.756600  0.169000  0.012200  1.0  0.1016
  H  H20  1  0.897800  0.254400  0.035300  1.0  0.1123
  H  H21  1  0.114100  0.289500  0.152500  1.0  0.0777
  H  H22  1  0.190400  0.387400  0.175400  1.0  0.0596
  H  H23  1  0.180400  0.387400  0.274800  1.0  0.1183
  H  H24  1  0.174800  0.424200  0.382600  1.0  0.1003
  H  H25  1  0.990500  0.419700  0.293000  1.0  0.1024
  H  H26  1  0.993100  0.379100  0.183900  1.0  0.1198
  H  H27  1  0.152700  0.438100  0.069900  1.0  0.113
  H  H28  1  0.233000  0.445000  0.082600  1.0  0.1107
  H  H29  1  0.259700  0.539900  0.059300  1.0  0.1437
  H  H30  1  0.338000  0.653000  0.018600  1.0  0.1173
  H  H31  1  0.216600  0.465800  0.828600  1.0  0.103
  H  H32  1  0.151300  0.365900  0.872700  1.0  0.1161
  H  H33  1  0.236470  0.635630  0.700510  1.0  0.4214
  H  H34  1  0.184270  0.661040  0.606240  1.0  -0.0006
  H  H35  1  0.770900  0.862900  0.444800  1.0  0.0766
  H  H36  1  0.721500  0.830900  0.493100  1.0  0.0811
  H  H37  1  0.584400  0.623400  0.301900  1.0  0.1123
  H  H38  1  0.610600  0.531000  0.284700  1.0  0.1043
  H  H39  1  0.804600  0.678000  0.471000  1.0  0.1031
  H  H40  1  0.784300  0.777500  0.484300  1.0  0.1166
  H  H41  1  0.713800  0.996200  0.476900  1.0  0.0773
  H  H42  1  0.756300  0.978900  0.532900  1.0  0.0895
  H  H43  1  0.941300  0.123500  0.529900  1.0  0.1015
  H  H44  1  0.033000  0.267200  0.552400  1.0  0.1026
  H  H45  1  0.831000  0.243400  0.487800  1.0  0.1019
  H  H46  1  0.745600  0.102200  0.464700  1.0  0.1134
  H  H47  1  0.710500  0.885900  0.347500  1.0  0.076
  H  H48  1  0.612600  0.809600  0.324600  1.0  0.0553
  H  H49  1  0.612600  0.819600  0.225200  1.0  0.1179
  H  H50  1  0.575800  0.825200  0.117400  1.0  0.1007
  H  H51  1  0.580300  0.009500  0.207000  1.0  0.1036
  H  H52  1  0.620900  0.006900  0.316100  1.0  0.1195
  H  H53  1  0.561900  0.847300  0.430100  1.0  0.1142
  H  H54  1  0.555000  0.767000  0.417400  1.0  0.1059
  H  H55  1  0.460100  0.740300  0.440700  1.0  0.1439
  H  H56  1  0.347000  0.662000  0.481400  1.0  0.1168
  H  H57  1  0.534200  0.783400  0.671400  1.0  0.1037
  H  H58  1  0.634100  0.848700  0.627300  1.0  0.1163
  H  H59  1  0.364370  0.763530  0.799490  1.0  0.4193
  H  H60  1  0.338960  0.815730  0.893760  1.0  -0.001
  H  H61  1  0.862900  0.770900  0.944800  1.0  0.0772
  H  H62  1  0.830900  0.721500  0.993100  1.0  0.0764
  H  H63  1  0.623400  0.584400  0.801900  1.0  0.113
  H  H64  1  0.531000  0.610600  0.784700  1.0  0.1051
  H  H65  1  0.678000  0.804600  0.971000  1.0  0.103
  H  H66  1  0.777500  0.784300  0.984300  1.0  0.1174
  H  H67  1  0.996200  0.713800  0.976900  1.0  0.0802
  H  H68  1  0.978900  0.756300  0.032900  1.0  0.089
  H  H69  1  0.123500  0.941300  0.029900  1.0  0.1021
  H  H70  1  0.267200  0.033000  0.052400  1.0  0.1031
  H  H71  1  0.243400  0.831000  0.987800  1.0  0.1019
  H  H72  1  0.102200  0.745600  0.964700  1.0  0.1118
  H  H73  1  0.885900  0.710500  0.847500  1.0  0.0766
  H  H74  1  0.809600  0.612600  0.824600  1.0  0.0595
  H  H75  1  0.819600  0.612600  0.725200  1.0  0.1166
  H  H76  1  0.825200  0.575800  0.617400  1.0  0.1011
  H  H77  1  0.009500  0.580300  0.707000  1.0  0.1024
  H  H78  1  0.006900  0.620900  0.816100  1.0  0.1195
  H  H79  1  0.847300  0.561900  0.930100  1.0  0.1133
  H  H80  1  0.767000  0.555000  0.917400  1.0  0.1105
  H  H81  1  0.740300  0.460100  0.940700  1.0  0.1426
  H  H82  1  0.662000  0.347000  0.981400  1.0  0.1173
  H  H83  1  0.783400  0.534200  0.171400  1.0  0.1034
  H  H84  1  0.848700  0.634100  0.127300  1.0  0.1169
  H  H85  1  0.763530  0.364370  0.299490  1.0  0.4193
  H  H86  1  0.815730  0.338960  0.393760  1.0  -0.0024
  H  H87  1  0.229100  0.137100  0.555200  1.0  0.0777
  H  H88  1  0.278500  0.169100  0.506900  1.0  0.0814
  H  H89  1  0.415600  0.376600  0.698100  1.0  0.1127
  H  H90  1  0.389400  0.469000  0.715300  1.0  0.1041
  H  H91  1  0.195400  0.322000  0.529000  1.0  0.1024
  H  H92  1  0.215700  0.222500  0.515700  1.0  0.1167
  H  H93  1  0.286200  0.003800  0.523100  1.0  0.079
  H  H94  1  0.243700  0.021100  0.467100  1.0  0.0897
  H  H95  1  0.058700  0.876500  0.470100  1.0  0.1007
  H  H96  1  0.967000  0.732800  0.447600  1.0  0.1033
  H  H97  1  0.169000  0.756600  0.512200  1.0  0.1018
  H  H98  1  0.254400  0.897800  0.535300  1.0  0.1137
  H  H99  1  0.289500  0.114100  0.652500  1.0  0.0769
  H  H100  1  0.387400  0.190400  0.675400  1.0  0.0586
  H  H101  1  0.387400  0.180400  0.774800  1.0  0.1184
  H  H102  1  0.424200  0.174800  0.882600  1.0  0.1005
  H  H103  1  0.419700  0.990500  0.793000  1.0  0.103
  H  H104  1  0.379100  0.993100  0.683900  1.0  0.1196
  H  H105  1  0.438100  0.152700  0.569900  1.0  0.1125
  H  H106  1  0.445000  0.233000  0.582600  1.0  0.1082
  H  H107  1  0.539900  0.259700  0.559300  1.0  0.1438
  H  H108  1  0.653000  0.338000  0.518600  1.0  0.1166
  H  H109  1  0.465800  0.216600  0.328600  1.0  0.1035
  H  H110  1  0.365900  0.151300  0.372700  1.0  0.1152
  H  H111  1  0.635630  0.236470  0.200510  1.0  0.4188
  H  H112  1  0.661040  0.184270  0.106240  1.0  -0.0021
  C  C113  1  0.121450  0.320550  0.066600  1.0  -0.0397
  C  C114  1  0.167200  0.284400  0.053100  1.0  0.003
  C  C115  1  0.294240  0.319160  0.107100  1.0  0.3387
  C  C116  1  0.363700  0.369500  0.163600  1.0  -0.2073
  C  C117  1  0.419630  0.354570  0.173100  1.0  -0.0565
  C  C118  1  0.403950  0.290650  0.122400  1.0  -0.1131
  C  C119  1  0.333560  0.239840  0.064500  1.0  -0.0927
  C  C120  1  0.274210  0.252590  0.055900  1.0  -0.1746
  C  C121  1  0.466450  0.280750  0.135700  1.0  0.7405
  C  C122  1  0.027400  0.259000  0.016000  1.0  -0.0118
  C  C123  1  0.896500  0.162100  0.003400  1.0  0.1008
  C  C124  1  0.850900  0.081300  0.978900  1.0  -0.1034
  C  C125  1  0.764800  0.026000  0.964900  1.0  -0.0866
  C  C126  1  0.729400  0.058200  0.976500  1.0  -0.1231
  C  C127  1  0.780000  0.144200  0.003000  1.0  -0.0672
  C  C128  1  0.863800  0.195200  0.016500  1.0  -0.1444
  C  C129  1  0.637290  0.003510  0.961600  1.0  0.7643
  C  C130  1  0.130930  0.338870  0.143000  1.0  0.0191
  C  C131  1  0.085690  0.376710  0.219400  1.0  0.3251
  C  C132  1  0.140310  0.392490  0.277600  1.0  -0.2492
  C  C133  1  0.137970  0.416430  0.342600  1.0  -0.0479
  C  C134  1  0.084710  0.428690  0.349400  1.0  -0.1053
  C  C135  1  0.029750  0.413250  0.289900  1.0  -0.02
  C  C136  1  0.030470  0.388130  0.224300  1.0  -0.2279
  C  C137  1  0.084260  0.456540  0.418200  1.0  0.7156
  C  C138  1  0.171520  0.407680  0.055600  1.0  0.0172
  C  C139  1  0.251800  0.526600  0.011900  1.0  -0.1673
  C  C140  1  0.300200  0.595200  0.987600  1.0  -0.0618
  C  C141  1  0.287030  0.570170  0.919700  1.0  -0.1121
  C  C142  1  0.228400  0.483800  0.876800  1.0  -0.0328
  C  C143  1  0.187400  0.424200  0.902000  1.0  -0.1725
  C  C144  1  0.199110  0.449290  0.966100  1.0  0.2783
  C  C145  1  0.332460  0.629740  0.889300  1.0  0.7334
  C  C146  1  0.679450  0.878550  0.433400  1.0  -0.0396
  C  C147  1  0.715600  0.832800  0.446900  1.0  0.002
  C  C148  1  0.680840  0.705760  0.392900  1.0  0.3401
  C  C149  1  0.630500  0.636300  0.336400  1.0  -0.2067
  C  C150  1  0.645430  0.580370  0.326900  1.0  -0.0559
  C  C151  1  0.709350  0.596050  0.377600  1.0  -0.1142
  C  C152  1  0.760160  0.666440  0.435500  1.0  -0.0904
  C  C153  1  0.747410  0.725790  0.444100  1.0  -0.1696
  C  C154  1  0.719250  0.533550  0.364300  1.0  0.7399
  C  C155  1  0.741000  0.972600  0.484000  1.0  -0.0143
  C  C156  1  0.837900  0.103500  0.496600  1.0  0.1015
  C  C157  1  0.918700  0.149100  0.521100  1.0  -0.098
  C  C158  1  0.974000  0.235200  0.535100  1.0  -0.0874
  C  C159  1  0.941800  0.270600  0.523500  1.0  -0.1208
  C  C160  1  0.855800  0.220000  0.497000  1.0  -0.063
  C  C161  1  0.804800  0.136200  0.483500  1.0  -0.1351
  C  C162  1  0.996490  0.362710  0.538400  1.0  0.7634
  C  C163  1  0.661130  0.869070  0.357000  1.0  0.0194
  C  C164  1  0.623290  0.914310  0.280600  1.0  0.3254
  C  C165  1  0.607510  0.859690  0.222400  1.0  -0.2504
  C  C166  1  0.583570  0.862030  0.157400  1.0  -0.0504
  C  C167  1  0.571310  0.915290  0.150600  1.0  -0.1046
  C  C168  1  0.586750  0.970250  0.210100  1.0  -0.0233
  C  C169  1  0.611870  0.969530  0.275700  1.0  -0.2262
  C  C170  1  0.543460  0.915740  0.081800  1.0  0.7153
  C  C171  1  0.592320  0.828480  0.444400  1.0  0.0183
  C  C172  1  0.473400  0.748200  0.488100  1.0  -0.1643
  C  C173  1  0.404800  0.699800  0.512400  1.0  -0.0619
  C  C174  1  0.429830  0.712970  0.580300  1.0  -0.1124
  C  C175  1  0.516200  0.771600  0.623200  1.0  -0.0321
  C  C176  1  0.575800  0.812600  0.598000  1.0  -0.1686
  C  C177  1  0.550710  0.800890  0.533900  1.0  0.2799
  C  C178  1  0.370260  0.667540  0.610700  1.0  0.7347
  C  C179  1  0.878550  0.679450  0.933400  1.0  -0.0402
  C  C180  1  0.832800  0.715600  0.946900  1.0  0.0049
  C  C181  1  0.705760  0.680840  0.892900  1.0  0.3393
  C  C182  1  0.636300  0.630500  0.836400  1.0  -0.2065
  C  C183  1  0.580370  0.645430  0.826900  1.0  -0.0565
  C  C184  1  0.596050  0.709350  0.877600  1.0  -0.1148
  C  C185  1  0.666440  0.760160  0.935500  1.0  -0.0948
  C  C186  1  0.725790  0.747410  0.944100  1.0  -0.1723
  C  C187  1  0.533550  0.719250  0.864300  1.0  0.7431
  C  C188  1  0.972600  0.741000  0.984000  1.0  -0.0123
  C  C189  1  0.103500  0.837900  0.996600  1.0  0.0976
  C  C190  1  0.149100  0.918700  0.021100  1.0  -0.1006
  C  C191  1  0.235200  0.974000  0.035100  1.0  -0.0873
  C  C192  1  0.270600  0.941800  0.023500  1.0  -0.1236
  C  C193  1  0.220000  0.855800  0.997000  1.0  -0.0679
  C  C194  1  0.136200  0.804800  0.983500  1.0  -0.1456
  C  C195  1  0.362710  0.996490  0.038400  1.0  0.7637
  C  C196  1  0.869070  0.661130  0.857000  1.0  0.0194
  C  C197  1  0.914310  0.623290  0.780600  1.0  0.3252
  C  C198  1  0.859690  0.607510  0.722400  1.0  -0.25
  C  C199  1  0.862030  0.583570  0.657400  1.0  -0.0497
  C  C200  1  0.915290  0.571310  0.650600  1.0  -0.1069
  C  C201  1  0.970250  0.586750  0.710100  1.0  -0.0206
  C  C202  1  0.969530  0.611870  0.775700  1.0  -0.2267
  C  C203  1  0.915740  0.543460  0.581800  1.0  0.7142
  C  C204  1  0.828480  0.592320  0.944400  1.0  0.0156
  C  C205  1  0.748200  0.473400  0.988100  1.0  -0.165
  C  C206  1  0.699800  0.404800  0.012400  1.0  -0.0638
  C  C207  1  0.712970  0.429830  0.080300  1.0  -0.1122
  C  C208  1  0.771600  0.516200  0.123200  1.0  -0.032
  C  C209  1  0.812600  0.575800  0.098000  1.0  -0.1679
  C  C210  1  0.800890  0.550710  0.033900  1.0  0.28
  C  C211  1  0.667540  0.370260  0.110700  1.0  0.7329
  C  C212  1  0.320550  0.121450  0.566600  1.0  -0.0403
  C  C213  1  0.284400  0.167200  0.553100  1.0  0.0006
  C  C214  1  0.319160  0.294240  0.607100  1.0  0.3401
  C  C215  1  0.369500  0.363700  0.663600  1.0  -0.2032
  C  C216  1  0.354570  0.419630  0.673100  1.0  -0.0553
  C  C217  1  0.290650  0.403950  0.622400  1.0  -0.1143
  C  C218  1  0.239840  0.333560  0.564500  1.0  -0.092
  C  C219  1  0.252590  0.274210  0.555900  1.0  -0.1695
  C  C220  1  0.280750  0.466450  0.635700  1.0  0.7423
  C  C221  1  0.259000  0.027400  0.516000  1.0  -0.0137
  C  C222  1  0.162100  0.896500  0.503400  1.0  0.1016
  C  C223  1  0.081300  0.850900  0.478900  1.0  -0.0957
  C  C224  1  0.026000  0.764800  0.464900  1.0  -0.0879
  C  C225  1  0.058200  0.729400  0.476500  1.0  -0.1207
  C  C226  1  0.144200  0.780000  0.503000  1.0  -0.0643
  C  C227  1  0.195200  0.863800  0.516500  1.0  -0.1349
  C  C228  1  0.003510  0.637290  0.461600  1.0  0.7637
  C  C229  1  0.338870  0.130930  0.643000  1.0  0.0188
  C  C230  1  0.376710  0.085690  0.719400  1.0  0.3258
  C  C231  1  0.392490  0.140310  0.777600  1.0  -0.2539
  C  C232  1  0.416430  0.137970  0.842600  1.0  -0.0519
  C  C233  1  0.428690  0.084710  0.849400  1.0  -0.1043
  C  C234  1  0.413250  0.029750  0.789900  1.0  -0.0219
  C  C235  1  0.388130  0.030470  0.724300  1.0  -0.2263
  C  C236  1  0.456540  0.084260  0.918200  1.0  0.7155
  C  C237  1  0.407680  0.171520  0.555600  1.0  0.0189
  C  C238  1  0.526600  0.251800  0.511900  1.0  -0.1676
  C  C239  1  0.595200  0.300200  0.487600  1.0  -0.06
  C  C240  1  0.570170  0.287030  0.419700  1.0  -0.1122
  C  C241  1  0.483800  0.228400  0.376800  1.0  -0.0337
  C  C242  1  0.424200  0.187400  0.402000  1.0  -0.1723
  C  C243  1  0.449290  0.199110  0.466100  1.0  0.2781
  C  C244  1  0.629740  0.332460  0.389300  1.0  0.7348
  O  O245  1  0.245490  0.341710  0.104700  1.0  -0.2808
  O  O246  1  0.987000  0.191600  0.027800  1.0  -0.5133
  O  O247  1  0.081880  0.355920  0.153500  1.0  -0.2894
  O  O248  1  0.151130  0.381270  0.987400  1.0  -0.3
  O  O249  1  0.461320  0.232220  0.086970  1.0  -0.6181
  O  O250  1  0.522700  0.323700  0.197600  1.0  -0.6249
  O  O251  1  0.594810  0.928790  0.927700  1.0  -0.5992
  O  O252  1  0.612850  0.038950  0.985800  1.0  -0.6254
  O  O253  1  0.033900  0.468080  0.419590  1.0  -0.6321
  O  O254  1  0.134110  0.465870  0.469790  1.0  -0.6242
  O  O255  1  0.378530  0.706470  0.927600  1.0  -0.6171
  O  O256  1  0.321200  0.599400  0.828300  1.0  -0.6014
  O  O257  1  0.411570  0.763530  0.809340  1.0  -0.8631
  O  O258  1  0.427610  0.878550  0.925360  1.0  -0.6825
  O  O259  1  0.658290  0.754510  0.395300  1.0  -0.2822
  O  O260  1  0.808400  0.013000  0.472200  1.0  -0.5133
  O  O261  1  0.644080  0.918120  0.346500  1.0  -0.2864
  O  O262  1  0.618730  0.848870  0.512600  1.0  -0.2967
  O  O263  1  0.767780  0.538680  0.413030  1.0  -0.6167
  O  O264  1  0.676300  0.477300  0.302400  1.0  -0.6212
  O  O265  1  0.071210  0.405190  0.572300  1.0  -0.5991
  O  O266  1  0.961050  0.387150  0.514200  1.0  -0.6241
  O  O267  1  0.531920  0.966100  0.080410  1.0  -0.632
  O  O268  1  0.534130  0.865890  0.030210  1.0  -0.6234
  O  O269  1  0.293530  0.621470  0.572400  1.0  -0.6162
  O  O270  1  0.400600  0.678800  0.671700  1.0  -0.6001
  O  O271  1  0.236470  0.588430  0.690660  1.0  -0.8567
  O  O272  1  0.121450  0.572390  0.574640  1.0  -0.6816
  O  O273  1  0.754510  0.658290  0.895300  1.0  -0.2853
  O  O274  1  0.013000  0.808400  0.972200  1.0  -0.5148
  O  O275  1  0.918120  0.644080  0.846500  1.0  -0.2868
  O  O276  1  0.848870  0.618730  0.012600  1.0  -0.3007
  O  O277  1  0.538680  0.767780  0.913030  1.0  -0.6179
  O  O278  1  0.477300  0.676300  0.802400  1.0  -0.6238
  O  O279  1  0.405190  0.071210  0.072300  1.0  -0.5986
  O  O280  1  0.387150  0.961050  0.014200  1.0  -0.6254
  O  O281  1  0.966100  0.531920  0.580410  1.0  -0.6348
  O  O282  1  0.865890  0.534130  0.530210  1.0  -0.6227
  O  O283  1  0.621470  0.293530  0.072400  1.0  -0.616
  O  O284  1  0.678800  0.400600  0.171700  1.0  -0.601
  O  O285  1  0.588430  0.236470  0.190660  1.0  -0.8602
  O  O286  1  0.572390  0.121450  0.074640  1.0  -0.6836
  O  O287  1  0.341710  0.245490  0.604700  1.0  -0.2801
  O  O288  1  0.191600  0.987000  0.527800  1.0  -0.5128
  O  O289  1  0.355920  0.081880  0.653500  1.0  -0.2859
  O  O290  1  0.381270  0.151130  0.487400  1.0  -0.2986
  O  O291  1  0.232220  0.461320  0.586970  1.0  -0.616
  O  O292  1  0.323700  0.522700  0.697600  1.0  -0.621
  O  O293  1  0.928790  0.594810  0.427700  1.0  -0.5991
  O  O294  1  0.038950  0.612850  0.485800  1.0  -0.6249
  O  O295  1  0.468080  0.033900  0.919590  1.0  -0.6332
  O  O296  1  0.465870  0.134110  0.969790  1.0  -0.6244
  O  O297  1  0.706470  0.378530  0.427600  1.0  -0.6163
  O  O298  1  0.599400  0.321200  0.328300  1.0  -0.6017
  O  O299  1  0.763530  0.411570  0.309340  1.0  -0.8602
  O  O300  1  0.878550  0.427610  0.425360  1.0  -0.6821
