# generated using pymatgen
data_CoH16(C11O4)2
_symmetry_space_group_name_H-M   'P 1'
_cell_length_a   11.86800000
_cell_length_b   16.26500000
_cell_length_c   16.37900000
_cell_angle_alpha   108.09900000
_cell_angle_beta   102.85500000
_cell_angle_gamma   101.21600000
_symmetry_Int_Tables_number   1
_chemical_formula_structural   CoH16(C11O4)2
_chemical_formula_sum   'Co3 H48 C66 O24'
_cell_volume   2808.87094646
_cell_formula_units_Z   3
loop_
 _symmetry_equiv_pos_site_id
 _symmetry_equiv_pos_as_xyz
  1  'x, y, z'
loop_
 _atom_site_type_symbol
 _atom_site_label
 _atom_site_symmetry_multiplicity
 _atom_site_fract_x
 _atom_site_fract_y
 _atom_site_fract_z
 _atom_site_occupancy
 _atom_site_charge
  Co  Co1  1  0.182690  0.894440  0.384140  1.0  1.0273
  Co  Co2  1  0.817310  0.105560  0.615860  1.0  1.0272
  Co  Co3  1  0.500000  0.000000  0.500000  1.0  0.9558
  H  H4  1  0.350300  0.424600  0.054000  1.0  0.0769
  H  H5  1  0.353200  0.389400  0.135200  1.0  0.0829
  H  H6  1  0.622500  0.630600  0.257000  1.0  0.1098
  H  H7  1  0.232900  0.652200  0.228100  1.0  0.1174
  H  H8  1  0.267800  0.520500  0.139400  1.0  0.1328
  H  H9  1  0.600600  0.333900  0.001800  1.0  0.1016
  H  H10  1  0.581400  0.432500  0.032200  1.0  0.0928
  H  H11  1  0.749300  0.526400  0.063300  1.0  0.1298
  H  H12  1  0.882100  0.670200  0.144100  1.0  0.11
  H  H13  1  0.914500  0.625400  0.375000  1.0  0.1233
  H  H14  1  0.774600  0.482000  0.293500  1.0  0.1238
  H  H15  1  0.290200  0.260800  0.966100  1.0  0.0786
  H  H16  1  0.368500  0.320800  0.925400  1.0  0.0722
  H  H17  1  0.511500  0.105000  0.837300  1.0  0.1399
  H  H18  1  0.446600  0.018700  0.683700  1.0  0.1124
  H  H19  1  0.145300  0.102200  0.654700  1.0  0.1126
  H  H20  1  0.211600  0.191200  0.809700  1.0  0.1352
  H  H21  1  0.517700  0.237500  0.089700  1.0  0.0878
  H  H22  1  0.526500  0.320500  0.177700  1.0  0.0723
  H  H23  1  0.174100  0.147600  0.129300  1.0  0.1249
  H  H24  1  0.152400  0.069200  0.222300  1.0  0.1209
  H  H25  1  0.511800  0.125900  0.316000  1.0  0.1064
  H  H26  1  0.536700  0.209600  0.225200  1.0  0.1404
  H  H27  1  0.589900  0.764600  0.340600  1.0  0.1183
  H  H28  1  0.649700  0.575400  0.946000  1.0  0.0774
  H  H29  1  0.646800  0.610600  0.864800  1.0  0.0833
  H  H30  1  0.377500  0.369400  0.743000  1.0  0.1087
  H  H31  1  0.767100  0.347800  0.771900  1.0  0.1169
  H  H32  1  0.732200  0.479500  0.860600  1.0  0.1324
  H  H33  1  0.399400  0.666100  0.998200  1.0  0.1014
  H  H34  1  0.418600  0.567500  0.967800  1.0  0.0911
  H  H35  1  0.250700  0.473600  0.936700  1.0  0.1291
  H  H36  1  0.117900  0.329800  0.855900  1.0  0.11
  H  H37  1  0.085500  0.374600  0.625000  1.0  0.1229
  H  H38  1  0.225400  0.518000  0.706500  1.0  0.1247
  H  H39  1  0.709800  0.739200  0.033900  1.0  0.0789
  H  H40  1  0.631500  0.679200  0.074600  1.0  0.0704
  H  H41  1  0.488500  0.895000  0.162700  1.0  0.1408
  H  H42  1  0.553400  0.981300  0.316300  1.0  0.1119
  H  H43  1  0.854700  0.897800  0.345300  1.0  0.1122
  H  H44  1  0.788400  0.808800  0.190300  1.0  0.1359
  H  H45  1  0.482300  0.762500  0.910300  1.0  0.0877
  H  H46  1  0.473500  0.679500  0.822300  1.0  0.0744
  H  H47  1  0.825900  0.852400  0.870700  1.0  0.1247
  H  H48  1  0.847600  0.930800  0.777700  1.0  0.1213
  H  H49  1  0.488200  0.874100  0.684000  1.0  0.1067
  H  H50  1  0.463300  0.790400  0.774800  1.0  0.1396
  H  H51  1  0.410100  0.235400  0.659400  1.0  0.1176
  C  C52  1  0.459100  0.339900  0.058300  1.0  -0.0129
  C  C53  1  0.403600  0.412400  0.102000  1.0  0.0087
  C  C54  1  0.449500  0.563900  0.194500  1.0  0.3405
  C  C55  1  0.542500  0.634700  0.250800  1.0  -0.1142
  C  C56  1  0.407100  0.721500  0.292300  1.0  -0.1242
  C  C57  1  0.313200  0.649000  0.233900  1.0  -0.0125
  C  C58  1  0.333500  0.569500  0.182200  1.0  -0.186
  C  C59  1  0.384600  0.805500  0.348400  1.0  0.74
  C  C60  1  0.583100  0.379600  0.049700  1.0  0.0075
  C  C61  1  0.748000  0.491300  0.170700  1.0  0.266
  C  C62  1  0.781000  0.546500  0.127000  1.0  -0.2045
  C  C63  1  0.860700  0.632100  0.175400  1.0  -0.0341
  C  C64  1  0.908900  0.662700  0.266900  1.0  -0.1103
  C  C65  1  0.879400  0.606300  0.311700  1.0  -0.057
  C  C66  1  0.796900  0.520400  0.262700  1.0  -0.2038
  C  C67  1  0.996100  0.753900  0.316800  1.0  0.6616
  C  C68  1  0.372200  0.283700  0.963300  1.0  0.0639
  C  C69  1  0.369800  0.158900  0.836400  1.0  0.2993
  C  C70  1  0.438100  0.105500  0.799900  1.0  -0.2303
  C  C71  1  0.398700  0.053500  0.709300  1.0  -0.0157
  C  C72  1  0.289500  0.051600  0.655200  1.0  -0.1337
  C  C73  1  0.219800  0.103200  0.692000  1.0  -0.0202
  C  C74  1  0.259600  0.156800  0.783800  1.0  -0.2525
  C  C75  1  0.248900  0.997000  0.556400  1.0  0.6918
  C  C76  1  0.476400  0.282000  0.115200  1.0  0.0722
  C  C77  1  0.356400  0.188300  0.169500  1.0  0.3096
  C  C78  1  0.244000  0.144400  0.168500  1.0  -0.1881
  C  C79  1  0.230900  0.096700  0.222500  1.0  -0.0313
  C  C80  1  0.329700  0.087900  0.277300  1.0  -0.1581
  C  C81  1  0.442600  0.130900  0.277700  1.0  -0.0194
  C  C82  1  0.458300  0.181000  0.224200  1.0  -0.3129
  C  C83  1  0.317800  0.036000  0.337500  1.0  0.7386
  C  C84  1  0.523100  0.714700  0.300700  1.0  -0.0404
  C  C85  1  0.540900  0.660100  0.941700  1.0  -0.0143
  C  C86  1  0.596400  0.587600  0.898000  1.0  0.0102
  C  C87  1  0.550500  0.436100  0.805500  1.0  0.3369
  C  C88  1  0.457500  0.365300  0.749200  1.0  -0.1172
  C  C89  1  0.592900  0.278500  0.707700  1.0  -0.1235
  C  C90  1  0.686800  0.351000  0.766100  1.0  -0.0127
  C  C91  1  0.666500  0.430500  0.817800  1.0  -0.184
  C  C92  1  0.615400  0.194500  0.651600  1.0  0.7407
  C  C93  1  0.416900  0.620400  0.950300  1.0  0.009
  C  C94  1  0.252000  0.508700  0.829300  1.0  0.2665
  C  C95  1  0.219000  0.453500  0.873000  1.0  -0.207
  C  C96  1  0.139300  0.367900  0.824600  1.0  -0.0342
  C  C97  1  0.091100  0.337300  0.733100  1.0  -0.1097
  C  C98  1  0.120600  0.393700  0.688300  1.0  -0.0543
  C  C99  1  0.203100  0.479600  0.737300  1.0  -0.2035
  C  C100  1  0.003900  0.246100  0.683200  1.0  0.6637
  C  C101  1  0.627800  0.716300  0.036700  1.0  0.064
  C  C102  1  0.630200  0.841100  0.163600  1.0  0.2998
  C  C103  1  0.561900  0.894500  0.200100  1.0  -0.2299
  C  C104  1  0.601300  0.946500  0.290700  1.0  -0.0144
  C  C105  1  0.710500  0.948400  0.344800  1.0  -0.1323
  C  C106  1  0.780200  0.896800  0.308000  1.0  -0.0203
  C  C107  1  0.740400  0.843200  0.216200  1.0  -0.2506
  C  C108  1  0.751100  0.003000  0.443600  1.0  0.6924
  C  C109  1  0.523600  0.718000  0.884800  1.0  0.0732
  C  C110  1  0.643600  0.811700  0.830500  1.0  0.3108
  C  C111  1  0.756000  0.855600  0.831500  1.0  -0.1857
  C  C112  1  0.769100  0.903300  0.777500  1.0  -0.0357
  C  C113  1  0.670300  0.912100  0.722700  1.0  -0.1569
  C  C114  1  0.557400  0.869100  0.722300  1.0  -0.019
  C  C115  1  0.541700  0.819000  0.775800  1.0  -0.3146
  C  C116  1  0.682200  0.964000  0.662500  1.0  0.7363
  C  C117  1  0.476900  0.285300  0.699300  1.0  -0.0423
  O  O118  1  0.483800  0.488100  0.157500  1.0  -0.2566
  O  O119  1  0.474700  0.864800  0.410500  1.0  -0.6367
  O  O120  1  0.279000  0.810100  0.331200  1.0  -0.6046
  O  O121  1  0.672300  0.405300  0.129600  1.0  -0.2815
  O  O122  1  0.017900  0.806000  0.275900  1.0  -0.5791
  O  O123  1  0.048600  0.778000  0.399800  1.0  -0.5867
  O  O124  1  0.418600  0.210300  0.926520  1.0  -0.2535
  O  O125  1  0.320500  0.957660  0.522030  1.0  -0.6663
  O  O126  1  0.144800  0.987900  0.507600  1.0  -0.5295
  O  O127  1  0.360800  0.236700  0.114900  1.0  -0.2696
  O  O128  1  0.212800  0.995300  0.330600  1.0  -0.5809
  O  O129  1  0.413300  0.034700  0.389900  1.0  -0.6208
  O  O130  1  0.516200  0.511900  0.842500  1.0  -0.2581
  O  O131  1  0.525300  0.135200  0.589500  1.0  -0.6356
  O  O132  1  0.721000  0.189900  0.668800  1.0  -0.6054
  O  O133  1  0.327700  0.594700  0.870400  1.0  -0.2828
  O  O134  1  0.982100  0.194000  0.724100  1.0  -0.58
  O  O135  1  0.951400  0.222000  0.600200  1.0  -0.5853
  O  O136  1  0.581400  0.789700  0.073480  1.0  -0.2519
  O  O137  1  0.679500  0.042340  0.477970  1.0  -0.6675
  O  O138  1  0.855200  0.012100  0.492400  1.0  -0.5289
  O  O139  1  0.639200  0.763300  0.885100  1.0  -0.2703
  O  O140  1  0.787200  0.004700  0.669400  1.0  -0.5801
  O  O141  1  0.586700  0.965300  0.610100  1.0  -0.6201
