# generated using pymatgen
data_MnH16(C11O4)2
_symmetry_space_group_name_H-M   'P 1'
_cell_length_a   11.77500000
_cell_length_b   16.11300000
_cell_length_c   16.34600000
_cell_angle_alpha   108.24400000
_cell_angle_beta   101.66300000
_cell_angle_gamma   102.55900000
_symmetry_Int_Tables_number   1
_chemical_formula_structural   MnH16(C11O4)2
_chemical_formula_sum   'Mn3 H48 C66 O24'
_cell_volume   2750.09781103
_cell_formula_units_Z   3
loop_
 _symmetry_equiv_pos_site_id
 _symmetry_equiv_pos_as_xyz
  1  'x, y, z'
loop_
 _atom_site_type_symbol
 _atom_site_label
 _atom_site_symmetry_multiplicity
 _atom_site_fract_x
 _atom_site_fract_y
 _atom_site_fract_z
 _atom_site_occupancy
 _atom_site_charge
  Mn  Mn1  1  0.189140  0.895250  0.390360  1.0  1.1672
  Mn  Mn2  1  0.810860  0.104750  0.609640  1.0  1.1664
  Mn  Mn3  1  0.500000  0.000000  0.500000  1.0  1.1883
  H  H4  1  0.354400  0.430300  0.050700  1.0  0.0757
  H  H5  1  0.338200  0.387900  0.125700  1.0  0.0827
  H  H6  1  0.627400  0.635200  0.268300  1.0  0.1195
  H  H7  1  0.231000  0.653800  0.223300  1.0  0.1123
  H  H8  1  0.267600  0.519800  0.140800  1.0  0.1242
  H  H9  1  0.592700  0.337500  0.993100  1.0  0.0988
  H  H10  1  0.576400  0.437300  0.031100  1.0  0.0745
  H  H11  1  0.753800  0.531800  0.061200  1.0  0.1232
  H  H12  1  0.889300  0.677200  0.144000  1.0  0.1136
  H  H13  1  0.916700  0.624000  0.371000  1.0  0.1149
  H  H14  1  0.778500  0.478700  0.287800  1.0  0.124
  H  H15  1  0.285200  0.257300  0.968600  1.0  0.0706
  H  H16  1  0.362200  0.317300  0.924800  1.0  0.064
  H  H17  1  0.505700  0.101300  0.835400  1.0  0.1312
  H  H18  1  0.441200  0.013800  0.681800  1.0  0.1112
  H  H19  1  0.140400  0.097300  0.656300  1.0  0.1026
  H  H20  1  0.207800  0.189800  0.809700  1.0  0.1222
  H  H21  1  0.516900  0.238400  0.088000  1.0  0.0846
  H  H22  1  0.525100  0.322800  0.175600  1.0  0.0704
  H  H23  1  0.174400  0.142900  0.135100  1.0  0.1291
  H  H24  1  0.158000  0.060700  0.227700  1.0  0.1107
  H  H25  1  0.522400  0.133400  0.320400  1.0  0.1031
  H  H26  1  0.541000  0.214900  0.226200  1.0  0.1336
  H  H27  1  0.590500  0.770800  0.343300  1.0  0.0994
  H  H28  1  0.645600  0.569700  0.949300  1.0  0.0752
  H  H29  1  0.661800  0.612100  0.874300  1.0  0.0821
  H  H30  1  0.372600  0.364800  0.731700  1.0  0.1209
  H  H31  1  0.769000  0.346200  0.776700  1.0  0.112
  H  H32  1  0.732400  0.480200  0.859200  1.0  0.1246
  H  H33  1  0.407300  0.662500  0.006900  1.0  0.0992
  H  H34  1  0.423600  0.562700  0.968900  1.0  0.0716
  H  H35  1  0.246200  0.468200  0.938800  1.0  0.1238
  H  H36  1  0.110700  0.322800  0.856000  1.0  0.1147
  H  H37  1  0.083300  0.376000  0.629000  1.0  0.1143
  H  H38  1  0.221500  0.521300  0.712200  1.0  0.1246
  H  H39  1  0.714800  0.742700  0.031400  1.0  0.0702
  H  H40  1  0.637800  0.682700  0.075200  1.0  0.0631
  H  H41  1  0.494300  0.898700  0.164600  1.0  0.1311
  H  H42  1  0.558800  0.986200  0.318200  1.0  0.1106
  H  H43  1  0.859600  0.902700  0.343700  1.0  0.1026
  H  H44  1  0.792200  0.810200  0.190300  1.0  0.1232
  H  H45  1  0.483100  0.761600  0.912000  1.0  0.085
  H  H46  1  0.474900  0.677200  0.824400  1.0  0.0712
  H  H47  1  0.825600  0.857100  0.864900  1.0  0.1281
  H  H48  1  0.842000  0.939300  0.772300  1.0  0.1111
  H  H49  1  0.477600  0.866600  0.679600  1.0  0.1027
  H  H50  1  0.459000  0.785100  0.773800  1.0  0.1327
  H  H51  1  0.409500  0.229200  0.656700  1.0  0.0998
  C  C52  1  0.456400  0.339660  0.056180  1.0  -0.0172
  C  C53  1  0.398000  0.413050  0.098170  1.0  0.0276
  C  C54  1  0.451300  0.565130  0.198800  1.0  0.3078
  C  C55  1  0.546600  0.638900  0.258400  1.0  -0.1804
  C  C56  1  0.407300  0.724680  0.293570  1.0  -0.1483
  C  C57  1  0.311800  0.650300  0.232330  1.0  -0.0022
  C  C58  1  0.333200  0.570330  0.183800  1.0  -0.1952
  C  C59  1  0.384900  0.810210  0.349620  1.0  0.7362
  C  C60  1  0.578300  0.381770  0.044560  1.0  0.0062
  C  C61  1  0.751100  0.492540  0.167130  1.0  0.2554
  C  C62  1  0.785700  0.550920  0.124570  1.0  -0.2107
  C  C63  1  0.866600  0.637030  0.173780  1.0  -0.0436
  C  C64  1  0.915200  0.665780  0.265910  1.0  -0.1303
  C  C65  1  0.882600  0.605890  0.307880  1.0  -0.0571
  C  C66  1  0.800600  0.519510  0.258400  1.0  -0.2129
  C  C67  1  0.005900  0.758440  0.318170  1.0  0.6526
  C  C68  1  0.367300  0.280850  0.963400  1.0  0.067
  C  C69  1  0.364100  0.155090  0.835970  1.0  0.3111
  C  C70  1  0.432500  0.101700  0.798510  1.0  -0.2411
  C  C71  1  0.393800  0.049450  0.707680  1.0  0.0155
  C  C72  1  0.285900  0.048700  0.653830  1.0  -0.1487
  C  C73  1  0.216000  0.099670  0.692620  1.0  -0.0127
  C  C74  1  0.255000  0.154020  0.783680  1.0  -0.2984
  C  C75  1  0.246800  0.994510  0.555440  1.0  0.7027
  C  C76  1  0.474500  0.282450  0.113550  1.0  0.0608
  C  C77  1  0.358600  0.186610  0.171420  1.0  0.3024
  C  C78  1  0.245800  0.140920  0.172760  1.0  -0.2303
  C  C79  1  0.236300  0.092620  0.228140  1.0  -0.027
  C  C80  1  0.339500  0.089600  0.285000  1.0  -0.1178
  C  C81  1  0.451000  0.135230  0.282560  1.0  -0.0108
  C  C82  1  0.462800  0.183900  0.226670  1.0  -0.3192
  C  C83  1  0.331100  0.038950  0.347630  1.0  0.7289
  C  C84  1  0.524000  0.718790  0.303900  1.0  -0.0051
  C  C85  1  0.543600  0.660340  0.943820  1.0  -0.0192
  C  C86  1  0.602000  0.586950  0.901830  1.0  0.0263
  C  C87  1  0.548700  0.434870  0.801200  1.0  0.3082
  C  C88  1  0.453400  0.361100  0.741600  1.0  -0.185
  C  C89  1  0.592700  0.275320  0.706430  1.0  -0.1479
  C  C90  1  0.688200  0.349700  0.767670  1.0  -0.0013
  C  C91  1  0.666800  0.429670  0.816200  1.0  -0.1928
  C  C92  1  0.615100  0.189790  0.650380  1.0  0.7373
  C  C93  1  0.421700  0.618230  0.955440  1.0  0.0064
  C  C94  1  0.248900  0.507460  0.832870  1.0  0.2553
  C  C95  1  0.214300  0.449080  0.875430  1.0  -0.2128
  C  C96  1  0.133400  0.362970  0.826220  1.0  -0.0433
  C  C97  1  0.084800  0.334220  0.734090  1.0  -0.129
  C  C98  1  0.117400  0.394110  0.692120  1.0  -0.0541
  C  C99  1  0.199400  0.480490  0.741600  1.0  -0.2123
  C  C100  1  0.994100  0.241560  0.681830  1.0  0.6514
  C  C101  1  0.632700  0.719150  0.036600  1.0  0.0648
  C  C102  1  0.635900  0.844910  0.164030  1.0  0.3106
  C  C103  1  0.567500  0.898300  0.201490  1.0  -0.2403
  C  C104  1  0.606200  0.950550  0.292320  1.0  0.0154
  C  C105  1  0.714100  0.951300  0.346170  1.0  -0.1473
  C  C106  1  0.784000  0.900330  0.307380  1.0  -0.0132
  C  C107  1  0.745000  0.845980  0.216320  1.0  -0.2979
  C  C108  1  0.753200  0.005490  0.444560  1.0  0.7033
  C  C109  1  0.525500  0.717550  0.886450  1.0  0.0621
  C  C110  1  0.641400  0.813390  0.828580  1.0  0.3031
  C  C111  1  0.754200  0.859080  0.827240  1.0  -0.2281
  C  C112  1  0.763700  0.907380  0.771860  1.0  -0.0294
  C  C113  1  0.660500  0.910400  0.715000  1.0  -0.1175
  C  C114  1  0.549000  0.864770  0.717440  1.0  -0.0108
  C  C115  1  0.537200  0.816100  0.773330  1.0  -0.3195
  C  C116  1  0.668900  0.961050  0.652370  1.0  0.7286
  C  C117  1  0.476000  0.281210  0.696100  1.0  -0.0071
  O  O118  1  0.485000  0.488120  0.161800  1.0  -0.2776
  O  O119  1  0.472830  0.869370  0.411770  1.0  -0.6197
  O  O120  1  0.277320  0.813040  0.329330  1.0  -0.6203
  O  O121  1  0.674410  0.405280  0.123620  1.0  -0.2805
  O  O122  1  0.028530  0.814450  0.280020  1.0  -0.5776
  O  O123  1  0.061020  0.779040  0.399420  1.0  -0.554
  O  O124  1  0.412670  0.206640  0.925730  1.0  -0.2602
  O  O125  1  0.317880  0.957700  0.518640  1.0  -0.6551
  O  O126  1  0.142080  0.983410  0.507980  1.0  -0.5328
  O  O127  1  0.358880  0.234140  0.115320  1.0  -0.2725
  O  O128  1  0.225390  0.998390  0.345920  1.0  -0.5791
  O  O129  1  0.427980  0.040010  0.396410  1.0  -0.5898
  O  O130  1  0.515000  0.511880  0.838200  1.0  -0.2759
  O  O131  1  0.527170  0.130630  0.588230  1.0  -0.6192
  O  O132  1  0.722680  0.186960  0.670670  1.0  -0.6232
  O  O133  1  0.325590  0.594720  0.876380  1.0  -0.2832
  O  O134  1  0.971470  0.185550  0.719980  1.0  -0.5766
  O  O135  1  0.938980  0.220960  0.600580  1.0  -0.5539
  O  O136  1  0.587330  0.793360  0.074270  1.0  -0.2587
  O  O137  1  0.682120  0.042300  0.481360  1.0  -0.6574
  O  O138  1  0.857920  0.016590  0.492020  1.0  -0.5327
  O  O139  1  0.641120  0.765860  0.884680  1.0  -0.275
  O  O140  1  0.774610  0.001610  0.654080  1.0  -0.5779
  O  O141  1  0.572020  0.959990  0.603590  1.0  -0.5892
