# generated using pymatgen
data_Y3H48C66NO29
_symmetry_space_group_name_H-M   'P 1'
_cell_length_a   10.67620000
_cell_length_b   28.24200000
_cell_length_c   34.07900000
_cell_angle_alpha   90.00000000
_cell_angle_beta   90.00000000
_cell_angle_gamma   90.00000000
_symmetry_Int_Tables_number   1
_chemical_formula_structural   Y3H48C66NO29
_chemical_formula_sum   'Y12 H192 C264 N4 O116'
_cell_volume   10275.40603559
_cell_formula_units_Z   4
loop_
 _symmetry_equiv_pos_site_id
 _symmetry_equiv_pos_as_xyz
  1  'x, y, z'
loop_
 _atom_site_type_symbol
 _atom_site_label
 _atom_site_symmetry_multiplicity
 _atom_site_fract_x
 _atom_site_fract_y
 _atom_site_fract_z
 _atom_site_occupancy
 _atom_site_charge
  Y  Y1  1  0.948710  0.191610  0.250000  1.0  2.1303
  Y  Y2  1  0.128300  0.326010  0.250000  1.0  2.1011
  Y  Y3  1  0.051290  0.808390  0.750000  1.0  2.1276
  Y  Y4  1  0.871700  0.673990  0.750000  1.0  2.1029
  Y  Y5  1  0.051290  0.691610  0.250000  1.0  2.1277
  Y  Y6  1  0.871700  0.826010  0.250000  1.0  2.1034
  Y  Y7  1  0.948710  0.308390  0.750000  1.0  2.1304
  Y  Y8  1  0.128300  0.173990  0.750000  1.0  2.101
  Y  Y9  1  0.832070  0.490180  0.750000  1.0  2.0342
  Y  Y10  1  0.167930  0.509820  0.250000  1.0  2.0423
  Y  Y11  1  0.167930  0.990180  0.750000  1.0  2.0419
  Y  Y12  1  0.832070  0.009820  0.250000  1.0  2.0341
  H  H13  1  0.520100  0.311000  0.045500  1.0  0.0726
  H  H14  1  0.642500  0.303700  0.018800  1.0  0.0889
  H  H15  1  0.583500  0.408200  0.957200  1.0  0.0731
  H  H16  1  0.664500  0.411300  0.996800  1.0  0.0991
  H  H17  1  0.532000  0.303800  0.957600  1.0  0.0765
  H  H18  1  0.406800  0.303500  0.983700  1.0  0.096
  H  H19  1  0.480200  0.414300  0.035800  1.0  0.1024
  H  H20  1  0.398700  0.413300  0.996300  1.0  0.1045
  H  H21  1  0.640300  0.269400  0.084700  1.0  0.1354
  H  H22  1  0.732600  0.241300  0.142000  1.0  0.1147
  H  H23  1  0.893500  0.368300  0.160900  1.0  0.1157
  H  H24  1  0.792900  0.399000  0.105800  1.0  0.1466
  H  H25  1  0.833000  0.306400  0.915500  1.0  0.14
  H  H26  1  0.919800  0.323500  0.853900  1.0  0.1137
  H  H27  1  0.816100  0.459600  0.864700  1.0  0.1165
  H  H28  1  0.732400  0.444200  0.926900  1.0  0.1421
  H  H29  1  0.425200  0.261000  0.918400  1.0  0.1335
  H  H30  1  0.341400  0.227500  0.861600  1.0  0.1114
  H  H31  1  0.175100  0.351300  0.834600  1.0  0.1167
  H  H32  1  0.267500  0.386600  0.888700  1.0  0.1409
  H  H33  1  0.204600  0.322400  0.081700  1.0  0.1374
  H  H34  1  0.132500  0.341300  0.144100  1.0  0.1151
  H  H35  1  0.310500  0.467400  0.137800  1.0  0.1188
  H  H36  1  0.380700  0.449000  0.074400  1.0  0.1289
  H  H37  1  0.479900  0.689000  0.545500  1.0  0.0717
  H  H38  1  0.357500  0.696300  0.518800  1.0  0.0904
  H  H39  1  0.416500  0.591800  0.457200  1.0  0.0726
  H  H40  1  0.335500  0.588700  0.496800  1.0  0.0995
  H  H41  1  0.468000  0.696200  0.457600  1.0  0.0768
  H  H42  1  0.593200  0.696500  0.483700  1.0  0.0965
  H  H43  1  0.519800  0.585700  0.535800  1.0  0.1023
  H  H44  1  0.601300  0.586700  0.496300  1.0  0.1037
  H  H45  1  0.359700  0.730600  0.584700  1.0  0.1358
  H  H46  1  0.267400  0.758700  0.642000  1.0  0.1146
  H  H47  1  0.106500  0.631700  0.660900  1.0  0.116
  H  H48  1  0.207100  0.601000  0.605800  1.0  0.1462
  H  H49  1  0.167000  0.693600  0.415500  1.0  0.1405
  H  H50  1  0.080200  0.676500  0.353900  1.0  0.1135
  H  H51  1  0.183900  0.540400  0.364700  1.0  0.1161
  H  H52  1  0.267600  0.555800  0.426900  1.0  0.1423
  H  H53  1  0.574800  0.739000  0.418400  1.0  0.1335
  H  H54  1  0.658600  0.772500  0.361600  1.0  0.1114
  H  H55  1  0.824900  0.648700  0.334600  1.0  0.1159
  H  H56  1  0.732500  0.613400  0.388700  1.0  0.1413
  H  H57  1  0.795400  0.677600  0.581700  1.0  0.1386
  H  H58  1  0.867500  0.658700  0.644100  1.0  0.1152
  H  H59  1  0.689500  0.532600  0.637800  1.0  0.1189
  H  H60  1  0.619300  0.551000  0.574400  1.0  0.1288
  H  H61  1  0.479900  0.811000  0.454500  1.0  0.0716
  H  H62  1  0.357500  0.803700  0.481200  1.0  0.0902
  H  H63  1  0.416500  0.908200  0.542800  1.0  0.0729
  H  H64  1  0.335500  0.911300  0.503200  1.0  0.0998
  H  H65  1  0.468000  0.803800  0.542400  1.0  0.0776
  H  H66  1  0.593200  0.803500  0.516300  1.0  0.0957
  H  H67  1  0.519800  0.914300  0.464200  1.0  0.1024
  H  H68  1  0.601300  0.913300  0.503700  1.0  0.1042
  H  H69  1  0.359700  0.769400  0.415300  1.0  0.1356
  H  H70  1  0.267400  0.741300  0.358000  1.0  0.1147
  H  H71  1  0.106500  0.868300  0.339100  1.0  0.1161
  H  H72  1  0.207100  0.899000  0.394200  1.0  0.147
  H  H73  1  0.167000  0.806400  0.584500  1.0  0.1408
  H  H74  1  0.080200  0.823500  0.646100  1.0  0.1139
  H  H75  1  0.183900  0.959600  0.635300  1.0  0.1163
  H  H76  1  0.267600  0.944200  0.573100  1.0  0.1423
  H  H77  1  0.574800  0.761000  0.581600  1.0  0.1326
  H  H78  1  0.658600  0.727500  0.638400  1.0  0.1114
  H  H79  1  0.824900  0.851300  0.665400  1.0  0.1163
  H  H80  1  0.732500  0.886600  0.611300  1.0  0.1412
  H  H81  1  0.795400  0.822400  0.418300  1.0  0.1377
  H  H82  1  0.867500  0.841300  0.355900  1.0  0.1153
  H  H83  1  0.689500  0.967400  0.362200  1.0  0.1194
  H  H84  1  0.619300  0.949000  0.425600  1.0  0.1291
  H  H85  1  0.520100  0.189000  0.954500  1.0  0.0724
  H  H86  1  0.642500  0.196300  0.981200  1.0  0.0898
  H  H87  1  0.583500  0.091800  0.042800  1.0  0.0729
  H  H88  1  0.664500  0.088700  0.003200  1.0  0.0986
  H  H89  1  0.532000  0.196200  0.042400  1.0  0.0759
  H  H90  1  0.406800  0.196500  0.016300  1.0  0.096
  H  H91  1  0.480200  0.085700  0.964200  1.0  0.1003
  H  H92  1  0.398700  0.086700  0.003700  1.0  0.1043
  H  H93  1  0.640300  0.230600  0.915300  1.0  0.1358
  H  H94  1  0.732600  0.258700  0.858000  1.0  0.1148
  H  H95  1  0.893500  0.131700  0.839100  1.0  0.1151
  H  H96  1  0.792900  0.101000  0.894200  1.0  0.1462
  H  H97  1  0.833000  0.193600  0.084500  1.0  0.1407
  H  H98  1  0.919800  0.176500  0.146100  1.0  0.1135
  H  H99  1  0.816100  0.040400  0.135300  1.0  0.1164
  H  H100  1  0.732400  0.055800  0.073100  1.0  0.1422
  H  H101  1  0.425200  0.239000  0.081600  1.0  0.1336
  H  H102  1  0.341400  0.272500  0.138400  1.0  0.1116
  H  H103  1  0.175100  0.148700  0.165400  1.0  0.1165
  H  H104  1  0.267500  0.113400  0.111300  1.0  0.1412
  H  H105  1  0.204600  0.177600  0.918300  1.0  0.1377
  H  H106  1  0.132500  0.158700  0.855900  1.0  0.1148
  H  H107  1  0.310500  0.032600  0.862200  1.0  0.1185
  H  H108  1  0.380700  0.051000  0.925600  1.0  0.1297
  H  H109  1  0.479900  0.689000  0.954500  1.0  0.072
  H  H110  1  0.357500  0.696300  0.981200  1.0  0.0904
  H  H111  1  0.416500  0.591800  0.042800  1.0  0.0729
  H  H112  1  0.335500  0.588700  0.003200  1.0  0.0987
  H  H113  1  0.468000  0.696200  0.042400  1.0  0.0765
  H  H114  1  0.593200  0.696500  0.016300  1.0  0.0959
  H  H115  1  0.519800  0.585700  0.964200  1.0  0.1014
  H  H116  1  0.601300  0.586700  0.003700  1.0  0.1046
  H  H117  1  0.359700  0.730600  0.915300  1.0  0.1358
  H  H118  1  0.267400  0.758700  0.858000  1.0  0.1149
  H  H119  1  0.106500  0.631700  0.839100  1.0  0.1157
  H  H120  1  0.207100  0.601000  0.894200  1.0  0.1464
  H  H121  1  0.167000  0.693600  0.084500  1.0  0.1408
  H  H122  1  0.080200  0.676500  0.146100  1.0  0.1136
  H  H123  1  0.183900  0.540400  0.135300  1.0  0.1165
  H  H124  1  0.267600  0.555800  0.073100  1.0  0.1422
  H  H125  1  0.574800  0.739000  0.081600  1.0  0.1329
  H  H126  1  0.658600  0.772500  0.138400  1.0  0.1115
  H  H127  1  0.824900  0.648700  0.165400  1.0  0.1161
  H  H128  1  0.732500  0.613400  0.111300  1.0  0.141
  H  H129  1  0.795400  0.677600  0.918300  1.0  0.1378
  H  H130  1  0.867500  0.658700  0.855900  1.0  0.1149
  H  H131  1  0.689500  0.532600  0.862200  1.0  0.1186
  H  H132  1  0.619300  0.551000  0.925600  1.0  0.1294
  H  H133  1  0.520100  0.311000  0.454500  1.0  0.0721
  H  H134  1  0.642500  0.303700  0.481200  1.0  0.0894
  H  H135  1  0.583500  0.408200  0.542800  1.0  0.0727
  H  H136  1  0.664500  0.411300  0.503200  1.0  0.0992
  H  H137  1  0.532000  0.303800  0.542400  1.0  0.0773
  H  H138  1  0.406800  0.303500  0.516300  1.0  0.0956
  H  H139  1  0.480200  0.414300  0.464200  1.0  0.1022
  H  H140  1  0.398700  0.413300  0.503700  1.0  0.1043
  H  H141  1  0.640300  0.269400  0.415300  1.0  0.1355
  H  H142  1  0.732600  0.241300  0.358000  1.0  0.1144
  H  H143  1  0.893500  0.368300  0.339100  1.0  0.1156
  H  H144  1  0.792900  0.399000  0.394200  1.0  0.1471
  H  H145  1  0.833000  0.306400  0.584500  1.0  0.1408
  H  H146  1  0.919800  0.323500  0.646100  1.0  0.114
  H  H147  1  0.816100  0.459600  0.635300  1.0  0.1168
  H  H148  1  0.732400  0.444200  0.573100  1.0  0.1424
  H  H149  1  0.425200  0.261000  0.581600  1.0  0.1332
  H  H150  1  0.341400  0.227500  0.638400  1.0  0.1114
  H  H151  1  0.175100  0.351300  0.665400  1.0  0.1168
  H  H152  1  0.267500  0.386600  0.611300  1.0  0.1409
  H  H153  1  0.204600  0.322400  0.418300  1.0  0.1375
  H  H154  1  0.132500  0.341300  0.355900  1.0  0.1149
  H  H155  1  0.310500  0.467400  0.362200  1.0  0.1191
  H  H156  1  0.380700  0.449000  0.425600  1.0  0.1294
  H  H157  1  0.520100  0.189000  0.545500  1.0  0.0723
  H  H158  1  0.642500  0.196300  0.518800  1.0  0.0895
  H  H159  1  0.583500  0.091800  0.457200  1.0  0.0727
  H  H160  1  0.664500  0.088700  0.496800  1.0  0.0995
  H  H161  1  0.532000  0.196200  0.457600  1.0  0.0762
  H  H162  1  0.406800  0.196500  0.483700  1.0  0.0962
  H  H163  1  0.480200  0.085700  0.535800  1.0  0.1016
  H  H164  1  0.398700  0.086700  0.496300  1.0  0.1033
  H  H165  1  0.640300  0.230600  0.584700  1.0  0.1356
  H  H166  1  0.732600  0.258700  0.642000  1.0  0.1145
  H  H167  1  0.893500  0.131700  0.660900  1.0  0.1155
  H  H168  1  0.792900  0.101000  0.605800  1.0  0.1461
  H  H169  1  0.833000  0.193600  0.415500  1.0  0.1399
  H  H170  1  0.919800  0.176500  0.353900  1.0  0.1133
  H  H171  1  0.816100  0.040400  0.364700  1.0  0.1169
  H  H172  1  0.732400  0.055800  0.426900  1.0  0.1422
  H  H173  1  0.425200  0.239000  0.418400  1.0  0.1339
  H  H174  1  0.341400  0.272500  0.361600  1.0  0.1115
  H  H175  1  0.175100  0.148700  0.334600  1.0  0.1161
  H  H176  1  0.267500  0.113400  0.388700  1.0  0.1416
  H  H177  1  0.204600  0.177600  0.581700  1.0  0.1378
  H  H178  1  0.132500  0.158700  0.644100  1.0  0.1151
  H  H179  1  0.310500  0.032600  0.637800  1.0  0.1186
  H  H180  1  0.380700  0.051000  0.574400  1.0  0.1291
  H  H181  1  0.479900  0.811000  0.045500  1.0  0.0721
  H  H182  1  0.357500  0.803700  0.018800  1.0  0.0896
  H  H183  1  0.416500  0.908200  0.957200  1.0  0.0729
  H  H184  1  0.335500  0.911300  0.996800  1.0  0.0995
  H  H185  1  0.468000  0.803800  0.957600  1.0  0.0769
  H  H186  1  0.593200  0.803500  0.983700  1.0  0.0964
  H  H187  1  0.519800  0.914300  0.035800  1.0  0.1023
  H  H188  1  0.601300  0.913300  0.996300  1.0  0.1041
  H  H189  1  0.359700  0.769400  0.084700  1.0  0.1356
  H  H190  1  0.267400  0.741300  0.142000  1.0  0.1147
  H  H191  1  0.106500  0.868300  0.160900  1.0  0.1162
  H  H192  1  0.207100  0.899000  0.105800  1.0  0.1465
  H  H193  1  0.167000  0.806400  0.915500  1.0  0.1407
  H  H194  1  0.080200  0.823500  0.853900  1.0  0.1137
  H  H195  1  0.183900  0.959600  0.864700  1.0  0.1167
  H  H196  1  0.267600  0.944200  0.926900  1.0  0.1422
  H  H197  1  0.574800  0.761000  0.918400  1.0  0.1333
  H  H198  1  0.658600  0.727500  0.861600  1.0  0.1111
  H  H199  1  0.824900  0.851300  0.834600  1.0  0.1162
  H  H200  1  0.732500  0.886600  0.888700  1.0  0.1413
  H  H201  1  0.795400  0.822400  0.081700  1.0  0.1384
  H  H202  1  0.867500  0.841300  0.144100  1.0  0.1154
  H  H203  1  0.689500  0.967400  0.137800  1.0  0.1192
  H  H204  1  0.619300  0.949000  0.074400  1.0  0.1287
  C  C205  1  0.528600  0.358500  0.998920  1.0  0.0012
  C  C206  1  0.586600  0.327680  0.030810  1.0  0.0533
  C  C207  1  0.624900  0.389270  0.977890  1.0  0.0523
  C  C208  1  0.467300  0.324150  0.969870  1.0  0.0344
  C  C209  1  0.436100  0.393320  0.017040  1.0  0.0212
  C  C210  1  0.707800  0.336580  0.089590  1.0  0.2568
  C  C211  1  0.690400  0.289780  0.100370  1.0  -0.2357
  C  C212  1  0.746600  0.273190  0.134140  1.0  -0.0093
  C  C213  1  0.822700  0.301780  0.156830  1.0  -0.117
  C  C214  1  0.840500  0.348450  0.145640  1.0  -0.0157
  C  C215  1  0.782500  0.366630  0.112720  1.0  -0.2135
  C  C216  1  0.886000  0.281530  0.192950  1.0  0.7735
  C  C217  1  0.769300  0.373290  0.925970  1.0  0.2766
  C  C218  1  0.827700  0.337520  0.904980  1.0  -0.2493
  C  C219  1  0.878600  0.347730  0.868260  1.0  -0.0074
  C  C220  1  0.869800  0.392430  0.852610  1.0  -0.1178
  C  C221  1  0.817700  0.428270  0.874780  1.0  -0.0105
  C  C222  1  0.767400  0.419310  0.911760  1.0  -0.2344
  C  C223  1  0.911400  0.401730  0.811250  1.0  0.773
  C  C224  1  0.356700  0.327350  0.908790  1.0  0.2891
  C  C225  1  0.376600  0.279770  0.900940  1.0  -0.2129
  C  C226  1  0.324900  0.259780  0.867370  1.0  -0.008
  C  C227  1  0.250500  0.285540  0.842270  1.0  -0.12
  C  C228  1  0.228100  0.333120  0.851210  1.0  -0.0226
  C  C229  1  0.281600  0.354010  0.883530  1.0  -0.2222
  C  C230  1  0.190300  0.263380  0.806970  1.0  0.7786
  C  C231  1  0.301600  0.383380  0.072750  1.0  0.2837
  C  C232  1  0.226800  0.351870  0.093240  1.0  -0.2218
  C  C233  1  0.184300  0.362950  0.130340  1.0  -0.0177
  C  C234  1  0.217300  0.405880  0.147630  1.0  -0.1193
  C  C235  1  0.289500  0.437680  0.126470  1.0  -0.0101
  C  C236  1  0.331900  0.426900  0.088800  1.0  -0.1878
  C  C237  1  0.174600  0.417790  0.188410  1.0  0.7812
  C  C238  1  0.471400  0.641500  0.498920  1.0  0.0013
  C  C239  1  0.413400  0.672320  0.530810  1.0  0.0542
  C  C240  1  0.375100  0.610730  0.477890  1.0  0.0521
  C  C241  1  0.532700  0.675850  0.469870  1.0  0.035
  C  C242  1  0.563900  0.606680  0.517040  1.0  0.0215
  C  C243  1  0.292200  0.663420  0.589590  1.0  0.2552
  C  C244  1  0.309600  0.710220  0.600370  1.0  -0.2367
  C  C245  1  0.253400  0.726810  0.634140  1.0  -0.0084
  C  C246  1  0.177300  0.698220  0.656830  1.0  -0.1173
  C  C247  1  0.159500  0.651550  0.645640  1.0  -0.0149
  C  C248  1  0.217500  0.633370  0.612720  1.0  -0.2145
  C  C249  1  0.114000  0.718470  0.692950  1.0  0.776
  C  C250  1  0.230700  0.626710  0.425970  1.0  0.2774
  C  C251  1  0.172300  0.662480  0.404980  1.0  -0.2491
  C  C252  1  0.121400  0.652270  0.368260  1.0  -0.0075
  C  C253  1  0.130200  0.607570  0.352610  1.0  -0.119
  C  C254  1  0.182300  0.571730  0.374780  1.0  -0.0096
  C  C255  1  0.232600  0.580690  0.411760  1.0  -0.2339
  C  C256  1  0.088600  0.598270  0.311250  1.0  0.7723
  C  C257  1  0.643300  0.672650  0.408790  1.0  0.2879
  C  C258  1  0.623400  0.720230  0.400940  1.0  -0.2131
  C  C259  1  0.675100  0.740220  0.367370  1.0  -0.0085
  C  C260  1  0.749500  0.714460  0.342270  1.0  -0.1202
  C  C261  1  0.771900  0.666880  0.351210  1.0  -0.023
  C  C262  1  0.718400  0.645990  0.383530  1.0  -0.2231
  C  C263  1  0.809700  0.736620  0.306970  1.0  0.7785
  C  C264  1  0.698400  0.616620  0.572750  1.0  0.2837
  C  C265  1  0.773200  0.648130  0.593240  1.0  -0.2239
  C  C266  1  0.815700  0.637050  0.630340  1.0  -0.0197
  C  C267  1  0.782700  0.594120  0.647630  1.0  -0.1193
  C  C268  1  0.710500  0.562320  0.626470  1.0  -0.011
  C  C269  1  0.668100  0.573100  0.588800  1.0  -0.1898
  C  C270  1  0.825400  0.582210  0.688410  1.0  0.7822
  C  C271  1  0.471400  0.858500  0.501080  1.0  0.0012
  C  C272  1  0.413400  0.827680  0.469190  1.0  0.0533
  C  C273  1  0.375100  0.889270  0.522110  1.0  0.0519
  C  C274  1  0.532700  0.824150  0.530130  1.0  0.0369
  C  C275  1  0.563900  0.893320  0.482960  1.0  0.0212
  C  C276  1  0.292200  0.836580  0.410410  1.0  0.2569
  C  C277  1  0.309600  0.789780  0.399630  1.0  -0.2356
  C  C278  1  0.253400  0.773190  0.365860  1.0  -0.0084
  C  C279  1  0.177300  0.801780  0.343170  1.0  -0.1165
  C  C280  1  0.159500  0.848450  0.354360  1.0  -0.016
  C  C281  1  0.217500  0.866630  0.387280  1.0  -0.214
  C  C282  1  0.114000  0.781530  0.307050  1.0  0.7751
  C  C283  1  0.230700  0.873290  0.574030  1.0  0.2778
  C  C284  1  0.172300  0.837520  0.595020  1.0  -0.2479
  C  C285  1  0.121400  0.847730  0.631740  1.0  -0.0081
  C  C286  1  0.130200  0.892430  0.647390  1.0  -0.1181
  C  C287  1  0.182300  0.928270  0.625220  1.0  -0.0102
  C  C288  1  0.232600  0.919310  0.588240  1.0  -0.2333
  C  C289  1  0.088600  0.901730  0.688750  1.0  0.7698
  C  C290  1  0.643300  0.827350  0.591210  1.0  0.289
  C  C291  1  0.623400  0.779770  0.599060  1.0  -0.2133
  C  C292  1  0.675100  0.759780  0.632630  1.0  -0.0092
  C  C293  1  0.749500  0.785540  0.657730  1.0  -0.1202
  C  C294  1  0.771900  0.833120  0.648790  1.0  -0.024
  C  C295  1  0.718400  0.854010  0.616470  1.0  -0.2224
  C  C296  1  0.809700  0.763380  0.693030  1.0  0.7777
  C  C297  1  0.698400  0.883380  0.427250  1.0  0.2829
  C  C298  1  0.773200  0.851870  0.406760  1.0  -0.2228
  C  C299  1  0.815700  0.862950  0.369660  1.0  -0.0189
  C  C300  1  0.782700  0.905880  0.352370  1.0  -0.1192
  C  C301  1  0.710500  0.937680  0.373530  1.0  -0.0104
  C  C302  1  0.668100  0.926900  0.411200  1.0  -0.1907
  C  C303  1  0.825400  0.917790  0.311590  1.0  0.7828
  C  C304  1  0.528600  0.141500  0.001080  1.0  0.0016
  C  C305  1  0.586600  0.172320  0.969190  1.0  0.054
  C  C306  1  0.624900  0.110730  0.022110  1.0  0.0529
  C  C307  1  0.467300  0.175850  0.030130  1.0  0.0378
  C  C308  1  0.436100  0.106680  0.982960  1.0  0.0204
  C  C309  1  0.707800  0.163420  0.910410  1.0  0.2567
  C  C310  1  0.690400  0.210220  0.899630  1.0  -0.2353
  C  C311  1  0.746600  0.226810  0.865860  1.0  -0.0091
  C  C312  1  0.822700  0.198220  0.843170  1.0  -0.116
  C  C313  1  0.840500  0.151550  0.854360  1.0  -0.0154
  C  C314  1  0.782500  0.133370  0.887280  1.0  -0.2163
  C  C315  1  0.886000  0.218470  0.807050  1.0  0.7747
  C  C316  1  0.769300  0.126710  0.074030  1.0  0.2772
  C  C317  1  0.827700  0.162480  0.095020  1.0  -0.2489
  C  C318  1  0.878600  0.152270  0.131740  1.0  -0.0077
  C  C319  1  0.869800  0.107570  0.147390  1.0  -0.1187
  C  C320  1  0.817700  0.071730  0.125220  1.0  -0.0098
  C  C321  1  0.767400  0.080690  0.088240  1.0  -0.2343
  C  C322  1  0.911400  0.098270  0.188750  1.0  0.772
  C  C323  1  0.356700  0.172650  0.091210  1.0  0.2874
  C  C324  1  0.376600  0.220230  0.099060  1.0  -0.2134
  C  C325  1  0.324900  0.240220  0.132630  1.0  -0.0085
  C  C326  1  0.250500  0.214460  0.157730  1.0  -0.1202
  C  C327  1  0.228100  0.166880  0.148790  1.0  -0.0224
  C  C328  1  0.281600  0.145990  0.116470  1.0  -0.2221
  C  C329  1  0.190300  0.236620  0.193030  1.0  0.7795
  C  C330  1  0.301600  0.116620  0.927250  1.0  0.2839
  C  C331  1  0.226800  0.148130  0.906760  1.0  -0.2235
  C  C332  1  0.184300  0.137050  0.869660  1.0  -0.0184
  C  C333  1  0.217300  0.094120  0.852370  1.0  -0.1195
  C  C334  1  0.289500  0.062320  0.873530  1.0  -0.0109
  C  C335  1  0.331900  0.073100  0.911200  1.0  -0.1884
  C  C336  1  0.174600  0.082210  0.811590  1.0  0.7849
  C  C337  1  0.471400  0.641500  0.001080  1.0  0.0015
  C  C338  1  0.413400  0.672320  0.969190  1.0  0.0537
  C  C339  1  0.375100  0.610730  0.022110  1.0  0.0517
  C  C340  1  0.532700  0.675850  0.030130  1.0  0.0378
  C  C341  1  0.563900  0.606680  0.982960  1.0  0.0215
  C  C342  1  0.292200  0.663420  0.910410  1.0  0.2557
  C  C343  1  0.309600  0.710220  0.899630  1.0  -0.2354
  C  C344  1  0.253400  0.726810  0.865860  1.0  -0.0089
  C  C345  1  0.177300  0.698220  0.843170  1.0  -0.1167
  C  C346  1  0.159500  0.651550  0.854360  1.0  -0.0155
  C  C347  1  0.217500  0.633370  0.887280  1.0  -0.2158
  C  C348  1  0.114000  0.718470  0.807050  1.0  0.7759
  C  C349  1  0.230700  0.626710  0.074030  1.0  0.2777
  C  C350  1  0.172300  0.662480  0.095020  1.0  -0.2483
  C  C351  1  0.121400  0.652270  0.131740  1.0  -0.008
  C  C352  1  0.130200  0.607570  0.147390  1.0  -0.1187
  C  C353  1  0.182300  0.571730  0.125220  1.0  -0.0096
  C  C354  1  0.232600  0.580690  0.088240  1.0  -0.2334
  C  C355  1  0.088600  0.598270  0.188750  1.0  0.77
  C  C356  1  0.643300  0.672650  0.091210  1.0  0.2874
  C  C357  1  0.623400  0.720230  0.099060  1.0  -0.2133
  C  C358  1  0.675100  0.740220  0.132630  1.0  -0.0086
  C  C359  1  0.749500  0.714460  0.157730  1.0  -0.1204
  C  C360  1  0.771900  0.666880  0.148790  1.0  -0.0232
  C  C361  1  0.718400  0.645990  0.116470  1.0  -0.2222
  C  C362  1  0.809700  0.736620  0.193030  1.0  0.7781
  C  C363  1  0.698400  0.616620  0.927250  1.0  0.2834
  C  C364  1  0.773200  0.648130  0.906760  1.0  -0.2242
  C  C365  1  0.815700  0.637050  0.869660  1.0  -0.0198
  C  C366  1  0.782700  0.594120  0.852370  1.0  -0.1195
  C  C367  1  0.710500  0.562320  0.873530  1.0  -0.0113
  C  C368  1  0.668100  0.573100  0.911200  1.0  -0.1901
  C  C369  1  0.825400  0.582210  0.811590  1.0  0.7832
  C  C370  1  0.528600  0.358500  0.501080  1.0  0.0013
  C  C371  1  0.586600  0.327680  0.469190  1.0  0.0542
  C  C372  1  0.624900  0.389270  0.522110  1.0  0.0518
  C  C373  1  0.467300  0.324150  0.530130  1.0  0.0355
  C  C374  1  0.436100  0.393320  0.482960  1.0  0.0214
  C  C375  1  0.707800  0.336580  0.410410  1.0  0.2573
  C  C376  1  0.690400  0.289780  0.399630  1.0  -0.235
  C  C377  1  0.746600  0.273190  0.365860  1.0  -0.0086
  C  C378  1  0.822700  0.301780  0.343170  1.0  -0.116
  C  C379  1  0.840500  0.348450  0.354360  1.0  -0.0156
  C  C380  1  0.782500  0.366630  0.387280  1.0  -0.2141
  C  C381  1  0.886000  0.281530  0.307050  1.0  0.7738
  C  C382  1  0.769300  0.373290  0.574030  1.0  0.2771
  C  C383  1  0.827700  0.337520  0.595020  1.0  -0.2483
  C  C384  1  0.878600  0.347730  0.631740  1.0  -0.0077
  C  C385  1  0.869800  0.392430  0.647390  1.0  -0.1185
  C  C386  1  0.817700  0.428270  0.625220  1.0  -0.0107
  C  C387  1  0.767400  0.419310  0.588240  1.0  -0.2338
  C  C388  1  0.911400  0.401730  0.688750  1.0  0.7715
  C  C389  1  0.356700  0.327350  0.591210  1.0  0.2889
  C  C390  1  0.376600  0.279770  0.599060  1.0  -0.2137
  C  C391  1  0.324900  0.259780  0.632630  1.0  -0.0088
  C  C392  1  0.250500  0.285540  0.657730  1.0  -0.1199
  C  C393  1  0.228100  0.333120  0.648790  1.0  -0.0237
  C  C394  1  0.281600  0.354010  0.616470  1.0  -0.2219
  C  C395  1  0.190300  0.263380  0.693030  1.0  0.7796
  C  C396  1  0.301600  0.383380  0.427250  1.0  0.2836
  C  C397  1  0.226800  0.351870  0.406760  1.0  -0.2227
  C  C398  1  0.184300  0.362950  0.369660  1.0  -0.0175
  C  C399  1  0.217300  0.405880  0.352370  1.0  -0.1193
  C  C400  1  0.289500  0.437680  0.373530  1.0  -0.0099
  C  C401  1  0.331900  0.426900  0.411200  1.0  -0.1888
  C  C402  1  0.174600  0.417790  0.311590  1.0  0.7844
  C  C403  1  0.528600  0.141500  0.498920  1.0  0.0014
  C  C404  1  0.586600  0.172320  0.530810  1.0  0.0538
  C  C405  1  0.624900  0.110730  0.477890  1.0  0.0533
  C  C406  1  0.467300  0.175850  0.469870  1.0  0.0351
  C  C407  1  0.436100  0.106680  0.517040  1.0  0.0205
  C  C408  1  0.707800  0.163420  0.589590  1.0  0.2562
  C  C409  1  0.690400  0.210220  0.600370  1.0  -0.2362
  C  C410  1  0.746600  0.226810  0.634140  1.0  -0.0088
  C  C411  1  0.822700  0.198220  0.656830  1.0  -0.1171
  C  C412  1  0.840500  0.151550  0.645640  1.0  -0.015
  C  C413  1  0.782500  0.133370  0.612720  1.0  -0.2149
  C  C414  1  0.886000  0.218470  0.692950  1.0  0.7742
  C  C415  1  0.769300  0.126710  0.425970  1.0  0.2767
  C  C416  1  0.827700  0.162480  0.404980  1.0  -0.2495
  C  C417  1  0.878600  0.152270  0.368260  1.0  -0.0074
  C  C418  1  0.869800  0.107570  0.352610  1.0  -0.1184
  C  C419  1  0.817700  0.071730  0.374780  1.0  -0.0097
  C  C420  1  0.767400  0.080690  0.411760  1.0  -0.235
  C  C421  1  0.911400  0.098270  0.311250  1.0  0.7723
  C  C422  1  0.356700  0.172650  0.408790  1.0  0.2875
  C  C423  1  0.376600  0.220230  0.400940  1.0  -0.2123
  C  C424  1  0.324900  0.240220  0.367370  1.0  -0.0085
  C  C425  1  0.250500  0.214460  0.342270  1.0  -0.1199
  C  C426  1  0.228100  0.166880  0.351210  1.0  -0.0223
  C  C427  1  0.281600  0.145990  0.383530  1.0  -0.2226
  C  C428  1  0.190300  0.236620  0.306970  1.0  0.7789
  C  C429  1  0.301600  0.116620  0.572750  1.0  0.2841
  C  C430  1  0.226800  0.148130  0.593240  1.0  -0.2234
  C  C431  1  0.184300  0.137050  0.630340  1.0  -0.0186
  C  C432  1  0.217300  0.094120  0.647630  1.0  -0.1192
  C  C433  1  0.289500  0.062320  0.626470  1.0  -0.0107
  C  C434  1  0.331900  0.073100  0.588800  1.0  -0.1882
  C  C435  1  0.174600  0.082210  0.688410  1.0  0.7819
  C  C436  1  0.471400  0.858500  0.998920  1.0  0.0011
  C  C437  1  0.413400  0.827680  0.030810  1.0  0.0528
  C  C438  1  0.375100  0.889270  0.977890  1.0  0.0522
  C  C439  1  0.532700  0.824150  0.969870  1.0  0.0354
  C  C440  1  0.563900  0.893320  0.017040  1.0  0.021
  C  C441  1  0.292200  0.836580  0.089590  1.0  0.2564
  C  C442  1  0.309600  0.789780  0.100370  1.0  -0.2366
  C  C443  1  0.253400  0.773190  0.134140  1.0  -0.009
  C  C444  1  0.177300  0.801780  0.156830  1.0  -0.117
  C  C445  1  0.159500  0.848450  0.145640  1.0  -0.016
  C  C446  1  0.217500  0.866630  0.112720  1.0  -0.2136
  C  C447  1  0.114000  0.781530  0.192950  1.0  0.7758
  C  C448  1  0.230700  0.873290  0.925970  1.0  0.2774
  C  C449  1  0.172300  0.837520  0.904980  1.0  -0.2495
  C  C450  1  0.121400  0.847730  0.868260  1.0  -0.0077
  C  C451  1  0.130200  0.892430  0.852610  1.0  -0.118
  C  C452  1  0.182300  0.928270  0.874780  1.0  -0.0102
  C  C453  1  0.232600  0.919310  0.911760  1.0  -0.2337
  C  C454  1  0.088600  0.901730  0.811250  1.0  0.7731
  C  C455  1  0.643300  0.827350  0.908790  1.0  0.2895
  C  C456  1  0.623400  0.779770  0.900940  1.0  -0.2132
  C  C457  1  0.675100  0.759780  0.867370  1.0  -0.0084
  C  C458  1  0.749500  0.785540  0.842270  1.0  -0.1207
  C  C459  1  0.771900  0.833120  0.851210  1.0  -0.0227
  C  C460  1  0.718400  0.854010  0.883530  1.0  -0.2229
  C  C461  1  0.809700  0.763380  0.806970  1.0  0.778
  C  C462  1  0.698400  0.883380  0.072750  1.0  0.2831
  C  C463  1  0.773200  0.851870  0.093240  1.0  -0.2223
  C  C464  1  0.815700  0.862950  0.130340  1.0  -0.0189
  C  C465  1  0.782700  0.905880  0.147630  1.0  -0.1194
  C  C466  1  0.710500  0.937680  0.126470  1.0  -0.0106
  C  C467  1  0.668100  0.926900  0.088800  1.0  -0.1898
  C  C468  1  0.825400  0.917790  0.188410  1.0  0.7816
  N  N469  1  0.592600  0.459500  0.750000  1.0  -0.2387
  N  N470  1  0.407400  0.540500  0.250000  1.0  -0.237
  N  N471  1  0.407400  0.959500  0.750000  1.0  -0.2358
  N  N472  1  0.592600  0.040500  0.250000  1.0  -0.239
  O  O473  1  0.656400  0.357410  0.056660  1.0  -0.2611
  O  O474  1  0.856100  0.240890  0.204450  1.0  -0.6194
  O  O475  1  0.966100  0.307890  0.209350  1.0  -0.6801
  O  O476  1  0.717900  0.359300  0.960820  1.0  -0.2633
  O  O477  1  0.964200  0.368470  0.793820  1.0  -0.7038
  O  O478  1  0.895000  0.442030  0.797400  1.0  -0.6858
  O  O479  1  0.404100  0.351210  0.940380  1.0  -0.2553
  O  O480  1  0.109200  0.287700  0.789520  1.0  -0.665
  O  O481  1  0.223200  0.222830  0.796290  1.0  -0.6457
  O  O482  1  0.340000  0.367590  0.036910  1.0  -0.2687
  O  O483  1  0.200800  0.458260  0.201720  1.0  -0.6969
  O  O484  1  0.116700  0.386870  0.206770  1.0  -0.7091
  O  O485  1  0.611100  0.489200  0.729500  1.0  -0.509
  O  O486  1  0.662700  0.445300  0.774200  1.0  -0.5791
  O  O487  1  0.343600  0.642590  0.556660  1.0  -0.2608
  O  O488  1  0.143900  0.759110  0.704450  1.0  -0.6215
  O  O489  1  0.033900  0.692110  0.709350  1.0  -0.6795
  O  O490  1  0.282100  0.640700  0.460820  1.0  -0.264
  O  O491  1  0.035800  0.631530  0.293820  1.0  -0.7044
  O  O492  1  0.105000  0.557970  0.297400  1.0  -0.6861
  O  O493  1  0.595900  0.648790  0.440380  1.0  -0.2591
  O  O494  1  0.890800  0.712300  0.289520  1.0  -0.6654
  O  O495  1  0.776800  0.777170  0.296290  1.0  -0.645
  O  O496  1  0.660000  0.632410  0.536910  1.0  -0.2669
  O  O497  1  0.799200  0.541740  0.701720  1.0  -0.6973
  O  O498  1  0.883300  0.613130  0.706770  1.0  -0.7078
  O  O499  1  0.388900  0.510800  0.229500  1.0  -0.5083
  O  O500  1  0.337300  0.554700  0.274200  1.0  -0.5768
  O  O501  1  0.343600  0.857410  0.443340  1.0  -0.2601
  O  O502  1  0.143900  0.740890  0.295550  1.0  -0.6198
  O  O503  1  0.033900  0.807890  0.290650  1.0  -0.679
  O  O504  1  0.282100  0.859300  0.539180  1.0  -0.2651
  O  O505  1  0.035800  0.868470  0.706180  1.0  -0.7049
  O  O506  1  0.105000  0.942030  0.702600  1.0  -0.6876
  O  O507  1  0.595900  0.851210  0.559620  1.0  -0.2555
  O  O508  1  0.890800  0.787700  0.710480  1.0  -0.665
  O  O509  1  0.776800  0.722830  0.703710  1.0  -0.6436
  O  O510  1  0.660000  0.867590  0.463090  1.0  -0.2669
  O  O511  1  0.799200  0.958260  0.298280  1.0  -0.6957
  O  O512  1  0.883300  0.886870  0.293230  1.0  -0.7072
  O  O513  1  0.388900  0.989200  0.770500  1.0  -0.5047
  O  O514  1  0.337300  0.945300  0.725800  1.0  -0.5804
  O  O515  1  0.656400  0.142590  0.943340  1.0  -0.2619
  O  O516  1  0.856100  0.259110  0.795550  1.0  -0.6195
  O  O517  1  0.966100  0.192110  0.790650  1.0  -0.6791
  O  O518  1  0.717900  0.140700  0.039180  1.0  -0.2649
  O  O519  1  0.964200  0.131530  0.206180  1.0  -0.7029
  O  O520  1  0.895000  0.057970  0.202600  1.0  -0.6875
  O  O521  1  0.404100  0.148790  0.059620  1.0  -0.2566
  O  O522  1  0.109200  0.212300  0.210480  1.0  -0.6654
  O  O523  1  0.223200  0.277170  0.203710  1.0  -0.6454
  O  O524  1  0.340000  0.132410  0.963090  1.0  -0.2679
  O  O525  1  0.200800  0.041740  0.798280  1.0  -0.6982
  O  O526  1  0.116700  0.113130  0.793230  1.0  -0.7071
  O  O527  1  0.611100  0.010800  0.270500  1.0  -0.5061
  O  O528  1  0.662700  0.054700  0.225800  1.0  -0.5831
  O  O529  1  0.343600  0.642590  0.943340  1.0  -0.2616
  O  O530  1  0.143900  0.759110  0.795550  1.0  -0.6204
  O  O531  1  0.033900  0.692110  0.790650  1.0  -0.6792
  O  O532  1  0.282100  0.640700  0.039180  1.0  -0.2655
  O  O533  1  0.035800  0.631530  0.206180  1.0  -0.7034
  O  O534  1  0.105000  0.557970  0.202600  1.0  -0.6866
  O  O535  1  0.595900  0.648790  0.059620  1.0  -0.2586
  O  O536  1  0.890800  0.712300  0.210480  1.0  -0.6648
  O  O537  1  0.776800  0.777170  0.203710  1.0  -0.6454
  O  O538  1  0.660000  0.632410  0.963090  1.0  -0.2666
  O  O539  1  0.799200  0.541740  0.798280  1.0  -0.6973
  O  O540  1  0.883300  0.613130  0.793230  1.0  -0.7068
  O  O541  1  0.388900  0.510800  0.270500  1.0  -0.5047
  O  O542  1  0.337300  0.554700  0.225800  1.0  -0.5784
  O  O543  1  0.656400  0.357410  0.443340  1.0  -0.2607
  O  O544  1  0.856100  0.240890  0.295550  1.0  -0.6191
  O  O545  1  0.966100  0.307890  0.290650  1.0  -0.6794
  O  O546  1  0.717900  0.359300  0.539180  1.0  -0.2645
  O  O547  1  0.964200  0.368470  0.706180  1.0  -0.7044
  O  O548  1  0.895000  0.442030  0.702600  1.0  -0.6871
  O  O549  1  0.404100  0.351210  0.559620  1.0  -0.2564
  O  O550  1  0.109200  0.287700  0.710480  1.0  -0.6652
  O  O551  1  0.223200  0.222830  0.703710  1.0  -0.6459
  O  O552  1  0.340000  0.367590  0.463090  1.0  -0.2683
  O  O553  1  0.200800  0.458260  0.298280  1.0  -0.6966
  O  O554  1  0.116700  0.386870  0.293230  1.0  -0.7073
  O  O555  1  0.611100  0.489200  0.770500  1.0  -0.5089
  O  O556  1  0.662700  0.445300  0.725800  1.0  -0.581
  O  O557  1  0.656400  0.142590  0.556660  1.0  -0.2618
  O  O558  1  0.856100  0.259110  0.704450  1.0  -0.6203
  O  O559  1  0.966100  0.192110  0.709350  1.0  -0.679
  O  O560  1  0.717900  0.140700  0.460820  1.0  -0.2636
  O  O561  1  0.964200  0.131530  0.293820  1.0  -0.7037
  O  O562  1  0.895000  0.057970  0.297400  1.0  -0.6876
  O  O563  1  0.404100  0.148790  0.440380  1.0  -0.2568
  O  O564  1  0.109200  0.212300  0.289520  1.0  -0.6659
  O  O565  1  0.223200  0.277170  0.296290  1.0  -0.6448
  O  O566  1  0.340000  0.132410  0.536910  1.0  -0.2686
  O  O567  1  0.200800  0.041740  0.701720  1.0  -0.6983
  O  O568  1  0.116700  0.113130  0.706770  1.0  -0.708
  O  O569  1  0.611100  0.010800  0.229500  1.0  -0.5091
  O  O570  1  0.662700  0.054700  0.274200  1.0  -0.5813
  O  O571  1  0.343600  0.857410  0.056660  1.0  -0.2605
  O  O572  1  0.143900  0.740890  0.204450  1.0  -0.621
  O  O573  1  0.033900  0.807890  0.209350  1.0  -0.6802
  O  O574  1  0.282100  0.859300  0.960820  1.0  -0.264
  O  O575  1  0.035800  0.868470  0.793820  1.0  -0.7044
  O  O576  1  0.105000  0.942030  0.797400  1.0  -0.6877
  O  O577  1  0.595900  0.851210  0.940380  1.0  -0.2553
  O  O578  1  0.890800  0.787700  0.789520  1.0  -0.6649
  O  O579  1  0.776800  0.722830  0.796290  1.0  -0.6439
  O  O580  1  0.660000  0.867590  0.036910  1.0  -0.2667
  O  O581  1  0.799200  0.958260  0.201720  1.0  -0.6959
  O  O582  1  0.883300  0.886870  0.206770  1.0  -0.7088
  O  O583  1  0.388900  0.989200  0.729500  1.0  -0.5068
  O  O584  1  0.337300  0.945300  0.774200  1.0  -0.5791
  O  O585  1  0.475300  0.447300  0.750000  1.0  -0.473
  O  O586  1  0.524700  0.552700  0.250000  1.0  -0.4632
  O  O587  1  0.524700  0.947300  0.750000  1.0  -0.4639
  O  O588  1  0.475300  0.052700  0.250000  1.0  -0.4724
