# generated using pymatgen
data_Co3P4H14C10(N2O7)2
_symmetry_space_group_name_H-M   'P 1'
_cell_length_a   5.06960000
_cell_length_b   9.60810000
_cell_length_c   12.53280000
_cell_angle_alpha   89.12000000
_cell_angle_beta   85.50800000
_cell_angle_gamma   76.86200000
_symmetry_Int_Tables_number   1
_chemical_formula_structural   Co3P4H14C10(N2O7)2
_chemical_formula_sum   'Co3 P4 H14 C10 N4 O14'
_cell_volume   592.65638799
_cell_formula_units_Z   1
loop_
 _symmetry_equiv_pos_site_id
 _symmetry_equiv_pos_as_xyz
  1  'x, y, z'
loop_
 _atom_site_type_symbol
 _atom_site_label
 _atom_site_symmetry_multiplicity
 _atom_site_fract_x
 _atom_site_fract_y
 _atom_site_fract_z
 _atom_site_occupancy
 _atom_site_charge
  Co  Co1  1  0.833820  0.106330  0.596550  1.0  1.277
  Co  Co2  1  0.166180  0.893670  0.403450  1.0  1.278
  Co  Co3  1  0.500000  0.000000  0.000000  1.0  0.759
  P  P4  1  0.683800  0.786520  0.557230  1.0  1.4884
  P  P5  1  0.377400  0.967450  0.746810  1.0  1.5051
  P  P6  1  0.316200  0.213480  0.442770  1.0  1.4873
  P  P7  1  0.622600  0.032550  0.253190  1.0  1.5031
  H  H8  1  0.945800  0.624100  0.479600  1.0  0.4072
  H  H9  1  0.925900  0.849600  0.733000  1.0  0.3755
  H  H10  1  0.481000  0.434100  0.624600  1.0  0.0989
  H  H11  1  0.158800  0.279700  0.757500  1.0  0.113
  H  H12  1  0.981700  0.522300  0.826900  1.0  0.1493
  H  H13  1  0.320100  0.671900  0.710900  1.0  0.1089
  H  H14  1  0.435700  0.684400  0.821600  1.0  0.124
  H  H15  1  0.054200  0.375900  0.520400  1.0  0.4074
  H  H16  1  0.074100  0.150400  0.267000  1.0  0.3753
  H  H17  1  0.519000  0.565900  0.375400  1.0  0.0964
  H  H18  1  0.841200  0.720300  0.242500  1.0  0.113
  H  H19  1  0.018300  0.477700  0.173100  1.0  0.1501
  H  H20  1  0.679900  0.328100  0.289100  1.0  0.1088
  H  H21  1  0.564300  0.315600  0.178400  1.0  0.1224
  C  C22  1  0.629100  0.425200  0.665600  1.0  0.1624
  C  C23  1  0.999700  0.341400  0.738900  1.0  0.0327
  C  C24  1  0.903800  0.475400  0.777800  1.0  -0.1571
  C  C25  1  0.485200  0.669900  0.745600  1.0  -0.0158
  C  C26  1  0.605800  0.794300  0.702800  1.0  -0.4087
  C  C27  1  0.370900  0.574800  0.334400  1.0  0.1625
  C  C28  1  0.000300  0.658600  0.261100  1.0  0.0367
  C  C29  1  0.096200  0.524600  0.222200  1.0  -0.1576
  C  C30  1  0.514800  0.330100  0.254400  1.0  -0.0153
  C  C31  1  0.394200  0.205700  0.297200  1.0  -0.4081
  N  N32  1  0.667100  0.527800  0.729500  1.0  0.0496
  N  N33  1  0.828500  0.309300  0.667800  1.0  -0.4121
  N  N34  1  0.332900  0.472200  0.270500  1.0  0.0478
  N  N35  1  0.171500  0.690700  0.332200  1.0  -0.4233
  O  O36  1  0.827700  0.903300  0.523600  1.0  -0.8684
  O  O37  1  0.431400  0.780100  0.505900  1.0  -0.8048
  O  O38  1  0.896700  0.638100  0.543200  1.0  -0.6915
  O  O39  1  0.538100  0.078900  0.716700  1.0  -0.8247
  O  O40  1  0.114300  0.984900  0.693700  1.0  -0.8041
  O  O41  1  0.324200  0.956200  0.867500  1.0  -0.7906
  O  O42  1  0.853800  0.785300  0.754900  1.0  -0.4878
  O  O43  1  0.172300  0.096700  0.476400  1.0  -0.87
  O  O44  1  0.568600  0.219900  0.494100  1.0  -0.8045
  O  O45  1  0.103300  0.361900  0.456800  1.0  -0.6922
  O  O46  1  0.461900  0.921100  0.283300  1.0  -0.8214
  O  O47  1  0.885700  0.015100  0.306300  1.0  -0.8036
  O  O48  1  0.675800  0.043800  0.132500  1.0  -0.7918
  O  O49  1  0.146200  0.214700  0.245100  1.0  -0.4863
