# generated using pymatgen
data_Co3H37C32(NO3)4
_symmetry_space_group_name_H-M   'P 1'
_cell_length_a   12.07510000
_cell_length_b   18.97050000
_cell_length_c   19.47830000
_cell_angle_alpha   90.00000000
_cell_angle_beta   90.00000000
_cell_angle_gamma   90.00000000
_symmetry_Int_Tables_number   1
_chemical_formula_structural   Co3H37C32(NO3)4
_chemical_formula_sum   'Co12 H148 C128 N16 O48'
_cell_volume   4461.90751487
_cell_formula_units_Z   4
loop_
 _symmetry_equiv_pos_site_id
 _symmetry_equiv_pos_as_xyz
  1  'x, y, z'
loop_
 _atom_site_type_symbol
 _atom_site_label
 _atom_site_symmetry_multiplicity
 _atom_site_fract_x
 _atom_site_fract_y
 _atom_site_fract_z
 _atom_site_occupancy
 _atom_site_charge
  Co  Co1  1  0.647240  0.812790  0.837870  1.0  0.99
  Co  Co2  1  0.147240  0.687210  0.162130  1.0  0.9891
  Co  Co3  1  0.352760  0.187210  0.337870  1.0  0.9871
  Co  Co4  1  0.852760  0.312790  0.662130  1.0  0.9881
  Co  Co5  1  0.352760  0.187210  0.162130  1.0  0.9872
  Co  Co6  1  0.852760  0.312790  0.837870  1.0  0.9879
  Co  Co7  1  0.647240  0.812790  0.662130  1.0  0.9899
  Co  Co8  1  0.147240  0.687210  0.337870  1.0  0.9891
  Co  Co9  1  0.407310  0.655480  0.250000  1.0  0.9318
  Co  Co10  1  0.907310  0.844520  0.750000  1.0  0.9304
  Co  Co11  1  0.592690  0.344520  0.750000  1.0  0.9332
  Co  Co12  1  0.092690  0.155480  0.250000  1.0  0.9348
  H  H13  1  0.559700  0.648800  0.040000  1.0  0.1254
  H  H14  1  0.649300  0.690600  0.942100  1.0  0.0901
  H  H15  1  0.455300  0.856300  0.934900  1.0  0.0876
  H  H16  1  0.351900  0.815500  0.027000  1.0  0.1291
  H  H17  1  0.346600  0.413600  0.348900  1.0  0.125
  H  H18  1  0.372000  0.535100  0.345600  1.0  0.1208
  H  H19  1  0.801700  0.716700  0.335800  1.0  0.1339
  H  H20  1  0.608400  0.715000  0.334900  1.0  0.1026
  H  H21  1  0.661000  0.013600  0.892600  1.0  0.0978
  H  H22  1  0.686800  0.984400  0.819000  1.0  0.1064
  H  H23  1  0.464700  0.002600  0.851800  1.0  0.0934
  H  H24  1  0.525700  0.010600  0.779100  1.0  0.2243
  H  H25  1  0.589400  0.119900  0.803800  1.0  0.1017
  H  H26  1  0.584000  0.107100  0.885100  1.0  0.0912
  H  H27  1  0.439600  0.183800  0.852100  1.0  0.1006
  H  H28  1  0.393600  0.126100  0.799400  1.0  0.1443
  H  H29  1  0.387300  0.111900  0.880300  1.0  0.1094
  H  H30  1  0.725400  0.920400  0.870200  1.0  0.2828
  H  H31  1  0.059700  0.851200  0.960000  1.0  0.1262
  H  H32  1  0.149300  0.809400  0.057900  1.0  0.0894
  H  H33  1  0.955300  0.643700  0.065100  1.0  0.0872
  H  H34  1  0.851900  0.684500  0.973000  1.0  0.1291
  H  H35  1  0.846600  0.086400  0.651100  1.0  0.1266
  H  H36  1  0.872000  0.964900  0.654400  1.0  0.1201
  H  H37  1  0.301700  0.783300  0.664200  1.0  0.134
  H  H38  1  0.108400  0.785000  0.665100  1.0  0.1029
  H  H39  1  0.161000  0.486400  0.107400  1.0  0.0978
  H  H40  1  0.186800  0.515600  0.181000  1.0  0.1062
  H  H41  1  0.964700  0.497400  0.148200  1.0  0.0935
  H  H42  1  0.025700  0.489400  0.220900  1.0  0.2222
  H  H43  1  0.089400  0.380100  0.196200  1.0  0.1015
  H  H44  1  0.084000  0.392900  0.114900  1.0  0.0905
  H  H45  1  0.939600  0.316200  0.147900  1.0  0.0991
  H  H46  1  0.893600  0.373900  0.200600  1.0  0.1459
  H  H47  1  0.887300  0.388100  0.119700  1.0  0.1072
  H  H48  1  0.225400  0.579600  0.129800  1.0  0.282
  H  H49  1  0.440300  0.351200  0.540000  1.0  0.1262
  H  H50  1  0.350700  0.309400  0.442100  1.0  0.0903
  H  H51  1  0.544700  0.143700  0.434900  1.0  0.0874
  H  H52  1  0.648100  0.184500  0.527000  1.0  0.1288
  H  H53  1  0.653400  0.586400  0.848900  1.0  0.1255
  H  H54  1  0.628000  0.464900  0.845600  1.0  0.1234
  H  H55  1  0.198300  0.283300  0.835800  1.0  0.1337
  H  H56  1  0.391600  0.285000  0.834900  1.0  0.1029
  H  H57  1  0.339000  0.986400  0.392600  1.0  0.0989
  H  H58  1  0.313200  0.015600  0.319000  1.0  0.1059
  H  H59  1  0.535300  0.997400  0.351800  1.0  0.0926
  H  H60  1  0.474300  0.989400  0.279100  1.0  0.22
  H  H61  1  0.410600  0.880100  0.303800  1.0  0.1033
  H  H62  1  0.416000  0.892900  0.385100  1.0  0.0919
  H  H63  1  0.560400  0.816200  0.352100  1.0  0.1003
  H  H64  1  0.606400  0.873900  0.299400  1.0  0.146
  H  H65  1  0.612700  0.888100  0.380300  1.0  0.1097
  H  H66  1  0.274600  0.079600  0.370200  1.0  0.2788
  H  H67  1  0.940300  0.148800  0.460000  1.0  0.125
  H  H68  1  0.850700  0.190600  0.557900  1.0  0.09
  H  H69  1  0.044700  0.356300  0.565100  1.0  0.0875
  H  H70  1  0.148100  0.315500  0.473000  1.0  0.1291
  H  H71  1  0.153400  0.913600  0.151100  1.0  0.126
  H  H72  1  0.128000  0.035100  0.154400  1.0  0.1213
  H  H73  1  0.698300  0.216700  0.164200  1.0  0.1338
  H  H74  1  0.891600  0.215000  0.165100  1.0  0.1026
  H  H75  1  0.839000  0.513600  0.607400  1.0  0.0998
  H  H76  1  0.813200  0.484400  0.681000  1.0  0.107
  H  H77  1  0.035300  0.502600  0.648200  1.0  0.0933
  H  H78  1  0.974300  0.510600  0.720900  1.0  0.2211
  H  H79  1  0.910600  0.619900  0.696200  1.0  0.1014
  H  H80  1  0.916000  0.607100  0.614900  1.0  0.0901
  H  H81  1  0.060400  0.683800  0.647900  1.0  0.1003
  H  H82  1  0.106400  0.626100  0.700600  1.0  0.1472
  H  H83  1  0.112700  0.611900  0.619700  1.0  0.1095
  H  H84  1  0.774600  0.420400  0.629800  1.0  0.279
  H  H85  1  0.440300  0.351200  0.960000  1.0  0.1264
  H  H86  1  0.350700  0.309400  0.057900  1.0  0.0899
  H  H87  1  0.544700  0.143700  0.065100  1.0  0.0873
  H  H88  1  0.648100  0.184500  0.973000  1.0  0.1291
  H  H89  1  0.653400  0.586400  0.651100  1.0  0.1263
  H  H90  1  0.628000  0.464900  0.654400  1.0  0.1216
  H  H91  1  0.198300  0.283300  0.664200  1.0  0.1337
  H  H92  1  0.391600  0.285000  0.665100  1.0  0.1027
  H  H93  1  0.339000  0.986400  0.107400  1.0  0.0988
  H  H94  1  0.313200  0.015600  0.181000  1.0  0.1041
  H  H95  1  0.535300  0.997400  0.148200  1.0  0.0937
  H  H96  1  0.474300  0.989400  0.220900  1.0  0.2169
  H  H97  1  0.410600  0.880100  0.196200  1.0  0.102
  H  H98  1  0.416000  0.892900  0.114900  1.0  0.0907
  H  H99  1  0.560400  0.816200  0.147900  1.0  0.0996
  H  H100  1  0.606400  0.873900  0.200600  1.0  0.1472
  H  H101  1  0.612700  0.888100  0.119700  1.0  0.1102
  H  H102  1  0.274600  0.079600  0.129800  1.0  0.2802
  H  H103  1  0.940300  0.148800  0.040000  1.0  0.1254
  H  H104  1  0.850700  0.190600  0.942100  1.0  0.0906
  H  H105  1  0.044700  0.356300  0.934900  1.0  0.0876
  H  H106  1  0.148100  0.315500  0.027000  1.0  0.1289
  H  H107  1  0.153400  0.913600  0.348900  1.0  0.1255
  H  H108  1  0.128000  0.035100  0.345600  1.0  0.1232
  H  H109  1  0.698300  0.216700  0.335800  1.0  0.1337
  H  H110  1  0.891600  0.215000  0.334900  1.0  0.1027
  H  H111  1  0.839000  0.513600  0.892600  1.0  0.0985
  H  H112  1  0.813200  0.484400  0.819000  1.0  0.1038
  H  H113  1  0.035300  0.502600  0.851800  1.0  0.0924
  H  H114  1  0.974300  0.510600  0.779100  1.0  0.2183
  H  H115  1  0.910600  0.619900  0.803800  1.0  0.1027
  H  H116  1  0.916000  0.607100  0.885100  1.0  0.0914
  H  H117  1  0.060400  0.683800  0.852100  1.0  0.1004
  H  H118  1  0.106400  0.626100  0.799400  1.0  0.1456
  H  H119  1  0.112700  0.611900  0.880300  1.0  0.1098
  H  H120  1  0.774600  0.420400  0.870200  1.0  0.2804
  H  H121  1  0.559700  0.648800  0.460000  1.0  0.1249
  H  H122  1  0.649300  0.690600  0.557900  1.0  0.0897
  H  H123  1  0.455300  0.856300  0.565100  1.0  0.0874
  H  H124  1  0.351900  0.815500  0.473000  1.0  0.1292
  H  H125  1  0.346600  0.413600  0.151100  1.0  0.1265
  H  H126  1  0.372000  0.535100  0.154400  1.0  0.1195
  H  H127  1  0.801700  0.716700  0.164200  1.0  0.1341
  H  H128  1  0.608400  0.715000  0.165100  1.0  0.1026
  H  H129  1  0.661000  0.013600  0.607400  1.0  0.0985
  H  H130  1  0.686800  0.984400  0.681000  1.0  0.1052
  H  H131  1  0.464700  0.002600  0.648200  1.0  0.0936
  H  H132  1  0.525700  0.010600  0.720900  1.0  0.2201
  H  H133  1  0.589400  0.119900  0.696200  1.0  0.1012
  H  H134  1  0.584000  0.107100  0.614900  1.0  0.0899
  H  H135  1  0.439600  0.183800  0.647900  1.0  0.1004
  H  H136  1  0.393600  0.126100  0.700600  1.0  0.1457
  H  H137  1  0.387300  0.111900  0.619700  1.0  0.1071
  H  H138  1  0.725400  0.920400  0.629800  1.0  0.2834
  H  H139  1  0.059700  0.851200  0.540000  1.0  0.1262
  H  H140  1  0.149300  0.809400  0.442100  1.0  0.0898
  H  H141  1  0.955300  0.643700  0.434900  1.0  0.0872
  H  H142  1  0.851900  0.684500  0.527000  1.0  0.1287
  H  H143  1  0.846600  0.086400  0.848900  1.0  0.1249
  H  H144  1  0.872000  0.964900  0.845600  1.0  0.121
  H  H145  1  0.301700  0.783300  0.835800  1.0  0.134
  H  H146  1  0.108400  0.785000  0.834900  1.0  0.1027
  H  H147  1  0.161000  0.486400  0.392600  1.0  0.0978
  H  H148  1  0.186800  0.515600  0.319000  1.0  0.104
  H  H149  1  0.964700  0.497400  0.351800  1.0  0.0931
  H  H150  1  0.025700  0.489400  0.279100  1.0  0.2195
  H  H151  1  0.089400  0.380100  0.303800  1.0  0.1021
  H  H152  1  0.084000  0.392900  0.385100  1.0  0.0916
  H  H153  1  0.939600  0.316200  0.352100  1.0  0.1001
  H  H154  1  0.893600  0.373900  0.299400  1.0  0.1451
  H  H155  1  0.887300  0.388100  0.380300  1.0  0.1086
  H  H156  1  0.225400  0.579600  0.370200  1.0  0.282
  H  H157  1  0.327200  0.780200  0.250000  1.0  0.3572
  H  H158  1  0.827200  0.719800  0.750000  1.0  0.3572
  H  H159  1  0.672800  0.219800  0.750000  1.0  0.3581
  H  H160  1  0.172800  0.280200  0.250000  1.0  0.3583
  C  C161  1  0.444700  0.726600  0.043300  1.0  -0.0829
  C  C162  1  0.534800  0.690800  0.018300  1.0  -0.1161
  C  C163  1  0.589300  0.716900  0.960400  1.0  0.1762
  C  C164  1  0.475200  0.812800  0.955600  1.0  0.1729
  C  C165  1  0.413900  0.789400  0.011100  1.0  -0.174
  C  C166  1  0.379800  0.700300  0.104400  1.0  0.7006
  C  C167  1  0.370600  0.435900  0.307900  1.0  -0.1907
  C  C168  1  0.384400  0.508800  0.304800  1.0  0.0902
  C  C169  1  0.763200  0.691800  0.300900  1.0  -0.1817
  C  C170  1  0.647600  0.691000  0.299700  1.0  0.1009
  C  C171  1  0.633200  0.980500  0.857300  1.0  -0.0622
  C  C172  1  0.532700  0.019800  0.829000  1.0  -0.151
  C  C173  1  0.545000  0.098800  0.841100  1.0  -0.1088
  C  C174  1  0.431000  0.133200  0.843400  1.0  -0.3442
  C  C175  1  0.944700  0.773400  0.956700  1.0  -0.0831
  C  C176  1  0.034800  0.809200  0.981700  1.0  -0.1145
  C  C177  1  0.089300  0.783100  0.039600  1.0  0.1762
  C  C178  1  0.975200  0.687200  0.044400  1.0  0.173
  C  C179  1  0.913900  0.710600  0.988900  1.0  -0.1736
  C  C180  1  0.879800  0.799700  0.895600  1.0  0.7011
  C  C181  1  0.870600  0.064100  0.692100  1.0  -0.1909
  C  C182  1  0.884400  0.991200  0.695200  1.0  0.0899
  C  C183  1  0.263200  0.808200  0.699100  1.0  -0.1826
  C  C184  1  0.147600  0.809000  0.700300  1.0  0.0984
  C  C185  1  0.133200  0.519500  0.142700  1.0  -0.063
  C  C186  1  0.032700  0.480200  0.171000  1.0  -0.1538
  C  C187  1  0.045000  0.401200  0.158900  1.0  -0.108
  C  C188  1  0.931000  0.366800  0.156600  1.0  -0.3428
  C  C189  1  0.555300  0.273400  0.543300  1.0  -0.0825
  C  C190  1  0.465200  0.309200  0.518300  1.0  -0.1162
  C  C191  1  0.410700  0.283100  0.460400  1.0  0.1771
  C  C192  1  0.524800  0.187200  0.455600  1.0  0.1728
  C  C193  1  0.586100  0.210600  0.511100  1.0  -0.1757
  C  C194  1  0.620200  0.299700  0.604400  1.0  0.7002
  C  C195  1  0.629400  0.564100  0.807900  1.0  -0.1946
  C  C196  1  0.615600  0.491200  0.804800  1.0  0.0889
  C  C197  1  0.236800  0.308200  0.800900  1.0  -0.1826
  C  C198  1  0.352400  0.309000  0.799700  1.0  0.0998
  C  C199  1  0.366800  0.019500  0.357300  1.0  -0.0686
  C  C200  1  0.467300  0.980200  0.329000  1.0  -0.151
  C  C201  1  0.455000  0.901200  0.341100  1.0  -0.1081
  C  C202  1  0.569000  0.866800  0.343400  1.0  -0.3424
  C  C203  1  0.055300  0.226600  0.456700  1.0  -0.083
  C  C204  1  0.965200  0.190800  0.481700  1.0  -0.1159
  C  C205  1  0.910700  0.216900  0.539600  1.0  0.1769
  C  C206  1  0.024800  0.312800  0.544400  1.0  0.1732
  C  C207  1  0.086100  0.289400  0.488900  1.0  -0.1751
  C  C208  1  0.120200  0.200300  0.395600  1.0  0.7017
  C  C209  1  0.129400  0.935900  0.192100  1.0  -0.1947
  C  C210  1  0.115600  0.008800  0.195200  1.0  0.0885
  C  C211  1  0.736800  0.191800  0.199100  1.0  -0.182
  C  C212  1  0.852400  0.191000  0.200300  1.0  0.0979
  C  C213  1  0.866800  0.480500  0.642700  1.0  -0.0717
  C  C214  1  0.967300  0.519800  0.671000  1.0  -0.1528
  C  C215  1  0.955000  0.598800  0.658900  1.0  -0.1087
  C  C216  1  0.069000  0.633200  0.656600  1.0  -0.3444
  C  C217  1  0.555300  0.273400  0.956700  1.0  -0.0833
  C  C218  1  0.465200  0.309200  0.981700  1.0  -0.116
  C  C219  1  0.410700  0.283100  0.039600  1.0  0.1771
  C  C220  1  0.524800  0.187200  0.044400  1.0  0.1732
  C  C221  1  0.586100  0.210600  0.988900  1.0  -0.1754
  C  C222  1  0.620200  0.299700  0.895600  1.0  0.701
  C  C223  1  0.629400  0.564100  0.692100  1.0  -0.1922
  C  C224  1  0.615600  0.491200  0.695200  1.0  0.089
  C  C225  1  0.236800  0.308200  0.699100  1.0  -0.182
  C  C226  1  0.352400  0.309000  0.700300  1.0  0.0969
  C  C227  1  0.366800  0.019500  0.142700  1.0  -0.0695
  C  C228  1  0.467300  0.980200  0.171000  1.0  -0.1516
  C  C229  1  0.455000  0.901200  0.158900  1.0  -0.1078
  C  C230  1  0.569000  0.866800  0.156600  1.0  -0.3446
  C  C231  1  0.055300  0.226600  0.043300  1.0  -0.0825
  C  C232  1  0.965200  0.190800  0.018300  1.0  -0.1163
  C  C233  1  0.910700  0.216900  0.960400  1.0  0.1769
  C  C234  1  0.024800  0.312800  0.955600  1.0  0.1731
  C  C235  1  0.086100  0.289400  0.011100  1.0  -0.1755
  C  C236  1  0.120200  0.200300  0.104400  1.0  0.7006
  C  C237  1  0.129400  0.935900  0.307900  1.0  -0.1912
  C  C238  1  0.115600  0.008800  0.304800  1.0  0.0895
  C  C239  1  0.736800  0.191800  0.300900  1.0  -0.1817
  C  C240  1  0.852400  0.191000  0.299700  1.0  0.0989
  C  C241  1  0.866800  0.480500  0.857300  1.0  -0.0669
  C  C242  1  0.967300  0.519800  0.829000  1.0  -0.1501
  C  C243  1  0.955000  0.598800  0.841100  1.0  -0.109
  C  C244  1  0.069000  0.633200  0.843400  1.0  -0.3417
  C  C245  1  0.444700  0.726600  0.456700  1.0  -0.0833
  C  C246  1  0.534800  0.690800  0.481700  1.0  -0.1157
  C  C247  1  0.589300  0.716900  0.539600  1.0  0.176
  C  C248  1  0.475200  0.812800  0.544400  1.0  0.173
  C  C249  1  0.413900  0.789400  0.488900  1.0  -0.1735
  C  C250  1  0.379800  0.700300  0.395600  1.0  0.7012
  C  C251  1  0.370600  0.435900  0.192100  1.0  -0.1884
  C  C252  1  0.384400  0.508800  0.195200  1.0  0.0905
  C  C253  1  0.763200  0.691800  0.199100  1.0  -0.1826
  C  C254  1  0.647600  0.691000  0.200300  1.0  0.0977
  C  C255  1  0.633200  0.980500  0.642700  1.0  -0.0665
  C  C256  1  0.532700  0.019800  0.671000  1.0  -0.154
  C  C257  1  0.545000  0.098800  0.658900  1.0  -0.1083
  C  C258  1  0.431000  0.133200  0.656600  1.0  -0.3439
  C  C259  1  0.944700  0.773400  0.543300  1.0  -0.0825
  C  C260  1  0.034800  0.809200  0.518300  1.0  -0.1148
  C  C261  1  0.089300  0.783100  0.460400  1.0  0.1764
  C  C262  1  0.975200  0.687200  0.455600  1.0  0.1726
  C  C263  1  0.913900  0.710600  0.511100  1.0  -0.1739
  C  C264  1  0.879800  0.799700  0.604400  1.0  0.7007
  C  C265  1  0.870600  0.064100  0.807900  1.0  -0.1893
  C  C266  1  0.884400  0.991200  0.804800  1.0  0.0906
  C  C267  1  0.263200  0.808200  0.800900  1.0  -0.1824
  C  C268  1  0.147600  0.809000  0.799700  1.0  0.0988
  C  C269  1  0.133200  0.519500  0.357300  1.0  -0.0628
  C  C270  1  0.032700  0.480200  0.329000  1.0  -0.1525
  C  C271  1  0.045000  0.401200  0.341100  1.0  -0.1084
  C  C272  1  0.931000  0.366800  0.343400  1.0  -0.3433
  C  C273  1  0.392800  0.397400  0.250000  1.0  -0.0573
  C  C274  1  0.376000  0.318300  0.250000  1.0  0.7344
  C  C275  1  0.821600  0.655700  0.250000  1.0  -0.0965
  C  C276  1  0.948900  0.656400  0.250000  1.0  0.7083
  C  C277  1  0.892800  0.102600  0.750000  1.0  -0.0573
  C  C278  1  0.876000  0.181700  0.750000  1.0  0.7354
  C  C279  1  0.321600  0.844300  0.750000  1.0  -0.0982
  C  C280  1  0.448900  0.843600  0.750000  1.0  0.709
  C  C281  1  0.607200  0.602600  0.750000  1.0  -0.0572
  C  C282  1  0.624000  0.681700  0.750000  1.0  0.7371
  C  C283  1  0.178400  0.344300  0.750000  1.0  -0.1001
  C  C284  1  0.051100  0.343600  0.750000  1.0  0.7083
  C  C285  1  0.107200  0.897400  0.250000  1.0  -0.0591
  C  C286  1  0.124000  0.818300  0.250000  1.0  0.7361
  C  C287  1  0.678400  0.155700  0.250000  1.0  -0.0984
  C  C288  1  0.551100  0.156400  0.250000  1.0  0.708
  N  N289  1  0.561000  0.777200  0.929700  1.0  -0.3173
  N  N290  1  0.061000  0.722800  0.070300  1.0  -0.3161
  N  N291  1  0.439000  0.222800  0.429700  1.0  -0.3178
  N  N292  1  0.939000  0.277200  0.570300  1.0  -0.3162
  N  N293  1  0.439000  0.222800  0.070300  1.0  -0.3161
  N  N294  1  0.939000  0.277200  0.929700  1.0  -0.3173
  N  N295  1  0.561000  0.777200  0.570300  1.0  -0.3161
  N  N296  1  0.061000  0.722800  0.429700  1.0  -0.3178
  N  N297  1  0.412900  0.543000  0.250000  1.0  -0.286
  N  N298  1  0.589200  0.657200  0.250000  1.0  -0.4164
  N  N299  1  0.912900  0.957000  0.750000  1.0  -0.285
  N  N300  1  0.089200  0.842800  0.750000  1.0  -0.4247
  N  N301  1  0.587100  0.457000  0.750000  1.0  -0.285
  N  N302  1  0.410800  0.342800  0.750000  1.0  -0.425
  N  N303  1  0.087100  0.043000  0.250000  1.0  -0.2863
  N  N304  1  0.910800  0.157200  0.250000  1.0  -0.4165
  O  O305  1  0.427300  0.657200  0.143800  1.0  -0.5906
  O  O306  1  0.283600  0.723600  0.110400  1.0  -0.5841
  O  O307  1  0.368700  0.289200  0.196200  1.0  -0.5754
  O  O308  1  0.993400  0.655900  0.306200  1.0  -0.5782
  O  O309  1  0.660300  0.914300  0.885800  1.0  -0.6015
  O  O310  1  0.927300  0.842800  0.856200  1.0  -0.5899
  O  O311  1  0.783600  0.776400  0.889600  1.0  -0.5851
  O  O312  1  0.868700  0.210800  0.803800  1.0  -0.5757
  O  O313  1  0.493400  0.844100  0.693800  1.0  -0.579
  O  O314  1  0.160300  0.585700  0.114200  1.0  -0.5998
  O  O315  1  0.572700  0.342800  0.643800  1.0  -0.5906
  O  O316  1  0.716400  0.276400  0.610400  1.0  -0.5843
  O  O317  1  0.631300  0.710800  0.696200  1.0  -0.5778
  O  O318  1  0.006600  0.344100  0.806200  1.0  -0.5779
  O  O319  1  0.339700  0.085700  0.385800  1.0  -0.6014
  O  O320  1  0.072700  0.157200  0.356200  1.0  -0.5892
  O  O321  1  0.216400  0.223600  0.389600  1.0  -0.5846
  O  O322  1  0.131300  0.789200  0.303800  1.0  -0.5762
  O  O323  1  0.506600  0.155900  0.193800  1.0  -0.5786
  O  O324  1  0.839700  0.414300  0.614200  1.0  -0.6007
  O  O325  1  0.572700  0.342800  0.856200  1.0  -0.5899
  O  O326  1  0.716400  0.276400  0.889600  1.0  -0.585
  O  O327  1  0.631300  0.710800  0.803800  1.0  -0.5761
  O  O328  1  0.006600  0.344100  0.693800  1.0  -0.5787
  O  O329  1  0.339700  0.085700  0.114200  1.0  -0.5992
  O  O330  1  0.072700  0.157200  0.143800  1.0  -0.591
  O  O331  1  0.216400  0.223600  0.110400  1.0  -0.5843
  O  O332  1  0.131300  0.789200  0.196200  1.0  -0.5779
  O  O333  1  0.506600  0.155900  0.306200  1.0  -0.5781
  O  O334  1  0.839700  0.414300  0.885800  1.0  -0.6007
  O  O335  1  0.427300  0.657200  0.356200  1.0  -0.5895
  O  O336  1  0.283600  0.723600  0.389600  1.0  -0.5847
  O  O337  1  0.368700  0.289200  0.303800  1.0  -0.5757
  O  O338  1  0.993400  0.655900  0.193800  1.0  -0.5791
  O  O339  1  0.660300  0.914300  0.614200  1.0  -0.6027
  O  O340  1  0.927300  0.842800  0.643800  1.0  -0.5906
  O  O341  1  0.783600  0.776400  0.610400  1.0  -0.5842
  O  O342  1  0.868700  0.210800  0.696200  1.0  -0.5756
  O  O343  1  0.493400  0.844100  0.806200  1.0  -0.578
  O  O344  1  0.160300  0.585700  0.385800  1.0  -0.6008
  O  O345  1  0.232000  0.652300  0.250000  1.0  -0.7773
  O  O346  1  0.395000  0.768000  0.250000  1.0  -0.7449
  O  O347  1  0.732000  0.847700  0.750000  1.0  -0.7776
  O  O348  1  0.895000  0.732000  0.750000  1.0  -0.7445
  O  O349  1  0.768000  0.347700  0.750000  1.0  -0.7776
  O  O350  1  0.605000  0.232000  0.750000  1.0  -0.7438
  O  O351  1  0.268000  0.152300  0.250000  1.0  -0.7774
  O  O352  1  0.105000  0.268000  0.250000  1.0  -0.7442
