# generated using pymatgen
data_PrH5C7NO5
_symmetry_space_group_name_H-M   'P 1'
_cell_length_a   8.30900000
_cell_length_b   9.35000000
_cell_length_c   16.15800000
_cell_angle_alpha   90.00000000
_cell_angle_beta   90.00000000
_cell_angle_gamma   94.07800000
_symmetry_Int_Tables_number   1
_chemical_formula_structural   PrH5C7NO5
_chemical_formula_sum   'Pr4 H20 C28 N4 O20'
_cell_volume   1252.12306677
_cell_formula_units_Z   4
loop_
 _symmetry_equiv_pos_site_id
 _symmetry_equiv_pos_as_xyz
  1  'x, y, z'
loop_
 _atom_site_type_symbol
 _atom_site_label
 _atom_site_symmetry_multiplicity
 _atom_site_fract_x
 _atom_site_fract_y
 _atom_site_fract_z
 _atom_site_occupancy
 _atom_site_charge
  Pr  Pr1  1  0.468100  0.391980  0.606530  1.0  1.9125
  Pr  Pr2  1  0.031900  0.608020  0.106530  1.0  1.949
  Pr  Pr3  1  0.531900  0.608020  0.393470  1.0  1.9356
  Pr  Pr4  1  0.968100  0.391980  0.893470  1.0  1.91
  H  H5  1  0.654000  0.966200  0.715500  1.0  0.0916
  H  H6  1  0.723500  0.769600  0.782300  1.0  0.1016
  H  H7  1  0.894700  0.018500  0.964500  1.0  0.0604
  H  H8  1  0.221300  0.406300  0.453700  1.0  0.4747
  H  H9  1  0.344700  0.519400  0.445500  1.0  0.2213
  H  H10  1  0.846000  0.033800  0.215500  1.0  0.0918
  H  H11  1  0.776500  0.230400  0.282300  1.0  0.1027
  H  H12  1  0.605300  0.981500  0.464500  1.0  0.0602
  H  H13  1  0.278700  0.593700  0.953700  1.0  0.4767
  H  H14  1  0.155300  0.480600  0.945500  1.0  0.2348
  H  H15  1  0.346000  0.033800  0.284500  1.0  0.0919
  H  H16  1  0.276500  0.230400  0.217700  1.0  0.102
  H  H17  1  0.105300  0.981500  0.035500  1.0  0.0599
  H  H18  1  0.778700  0.593700  0.546300  1.0  0.4773
  H  H19  1  0.655300  0.480600  0.554500  1.0  0.2293
  H  H20  1  0.154000  0.966200  0.784500  1.0  0.0922
  H  H21  1  0.223500  0.769600  0.717700  1.0  0.1011
  H  H22  1  0.394700  0.018500  0.535500  1.0  0.0599
  H  H23  1  0.721300  0.406300  0.046300  1.0  0.4754
  H  H24  1  0.844700  0.519400  0.054500  1.0  0.2173
  C  C25  1  0.707000  0.245000  0.754000  1.0  0.6746
  C  C26  1  0.742000  0.107000  0.796600  1.0  0.1162
  C  C27  1  0.707000  0.976000  0.766000  1.0  -0.1381
  C  C28  1  0.744000  0.860000  0.806000  1.0  -0.0333
  C  C29  1  0.815000  0.874000  0.883500  1.0  -0.2668
  C  C30  1  0.848000  0.008000  0.912400  1.0  0.2241
  C  C31  1  0.871000  0.744000  0.929500  1.0  0.7485
  C  C32  1  0.793000  0.755000  0.254000  1.0  0.6759
  C  C33  1  0.758000  0.893000  0.296600  1.0  0.1157
  C  C34  1  0.793000  0.024000  0.266000  1.0  -0.1329
  C  C35  1  0.756000  0.140000  0.306000  1.0  -0.0249
  C  C36  1  0.685000  0.126000  0.383500  1.0  -0.2685
  C  C37  1  0.652000  0.992000  0.412400  1.0  0.2395
  C  C38  1  0.629000  0.256000  0.429500  1.0  0.7355
  C  C39  1  0.293000  0.755000  0.246000  1.0  0.6763
  C  C40  1  0.258000  0.893000  0.203400  1.0  0.1161
  C  C41  1  0.293000  0.024000  0.234000  1.0  -0.1338
  C  C42  1  0.256000  0.140000  0.194000  1.0  -0.0246
  C  C43  1  0.185000  0.126000  0.116500  1.0  -0.2679
  C  C44  1  0.152000  0.992000  0.087600  1.0  0.2362
  C  C45  1  0.129000  0.256000  0.070500  1.0  0.7356
  C  C46  1  0.207000  0.245000  0.746000  1.0  0.6747
  C  C47  1  0.242000  0.107000  0.703400  1.0  0.1171
  C  C48  1  0.207000  0.976000  0.734000  1.0  -0.1389
  C  C49  1  0.244000  0.860000  0.694000  1.0  -0.0307
  C  C50  1  0.315000  0.874000  0.616500  1.0  -0.2678
  C  C51  1  0.348000  0.008000  0.587600  1.0  0.2213
  C  C52  1  0.371000  0.744000  0.570500  1.0  0.7483
  N  N53  1  0.816000  0.127000  0.870200  1.0  -0.521
  N  N54  1  0.684000  0.873000  0.370200  1.0  -0.5225
  N  N55  1  0.184000  0.873000  0.129800  1.0  -0.5225
  N  N56  1  0.316000  0.127000  0.629800  1.0  -0.5212
  O  O57  1  0.919000  0.761000  0.998800  1.0  -0.6587
  O  O58  1  0.855000  0.625600  0.891400  1.0  -0.7663
  O  O59  1  0.622000  0.236000  0.692500  1.0  -0.6939
  O  O60  1  0.767000  0.357000  0.789000  1.0  -0.7603
  O  O61  1  0.324000  0.441000  0.470900  1.0  -0.8142
  O  O62  1  0.581000  0.239000  0.498800  1.0  -0.6577
  O  O63  1  0.645000  0.374400  0.391400  1.0  -0.7643
  O  O64  1  0.878000  0.764000  0.192500  1.0  -0.6951
  O  O65  1  0.733000  0.643000  0.289000  1.0  -0.7591
  O  O66  1  0.176000  0.559000  0.970900  1.0  -0.8121
  O  O67  1  0.081000  0.239000  0.001200  1.0  -0.659
  O  O68  1  0.145000  0.374400  0.108600  1.0  -0.7659
  O  O69  1  0.378000  0.764000  0.307500  1.0  -0.6951
  O  O70  1  0.233000  0.643000  0.211000  1.0  -0.755
  O  O71  1  0.676000  0.559000  0.529100  1.0  -0.8153
  O  O72  1  0.419000  0.761000  0.501200  1.0  -0.6596
  O  O73  1  0.355000  0.625600  0.608600  1.0  -0.7663
  O  O74  1  0.122000  0.236000  0.807500  1.0  -0.6948
  O  O75  1  0.267000  0.357000  0.711000  1.0  -0.7599
  O  O76  1  0.824000  0.441000  0.029100  1.0  -0.817
