# generated using pymatgen
data_AgH14C14(SN)2
_symmetry_space_group_name_H-M   'P 1'
_cell_length_a   15.31900000
_cell_length_b   15.45600000
_cell_length_c   16.23700000
_cell_angle_alpha   90.00000000
_cell_angle_beta   90.00000000
_cell_angle_gamma   90.00000000
_symmetry_Int_Tables_number   1
_chemical_formula_structural   AgH14C14(SN)2
_chemical_formula_sum   'Ag8 H112 C112 S16 N16'
_cell_volume   3844.44202397
_cell_formula_units_Z   8
loop_
 _symmetry_equiv_pos_site_id
 _symmetry_equiv_pos_as_xyz
  1  'x, y, z'
loop_
 _atom_site_type_symbol
 _atom_site_label
 _atom_site_symmetry_multiplicity
 _atom_site_fract_x
 _atom_site_fract_y
 _atom_site_fract_z
 _atom_site_occupancy
 _atom_site_charge
  Ag  Ag1  1  0.415600  0.898130  0.118120  1.0  0.2996
  Ag  Ag2  1  0.915600  0.398130  0.618120  1.0  0.2996
  Ag  Ag3  1  0.584400  0.101870  0.118120  1.0  0.3003
  Ag  Ag4  1  0.084400  0.601870  0.618120  1.0  0.3003
  Ag  Ag5  1  0.915600  0.601870  0.118120  1.0  0.3002
  Ag  Ag6  1  0.415600  0.101870  0.618120  1.0  0.3002
  Ag  Ag7  1  0.084400  0.398130  0.118120  1.0  0.2998
  Ag  Ag8  1  0.584400  0.898130  0.618120  1.0  0.2998
  H  H9  1  0.187700  0.819000  0.142300  1.0  0.1144
  H  H10  1  0.187400  0.890800  0.073700  1.0  0.1
  H  H11  1  0.165900  0.808300  0.919300  1.0  0.0967
  H  H12  1  0.962600  0.655700  0.928800  1.0  0.0712
  H  H13  1  0.069500  0.734200  0.137000  1.0  0.0761
  H  H14  1  0.113400  0.747200  0.784700  1.0  0.1258
  H  H15  1  0.011700  0.736000  0.785800  1.0  0.1555
  H  H16  1  0.202400  0.518800  0.785200  1.0  0.1515
  H  H17  1  0.224300  0.617800  0.789300  1.0  0.1206
  H  H18  1  0.285000  0.660000  0.919800  1.0  0.0912
  H  H19  1  0.204600  0.563100  0.138300  1.0  0.0954
  H  H20  1  0.112200  0.471000  0.926700  1.0  0.0725
  H  H21  1  0.367400  0.662800  0.084000  1.0  0.1388
  H  H22  1  0.288300  0.677400  0.143500  1.0  0.143
  H  H23  1  0.687700  0.319000  0.642300  1.0  0.1144
  H  H24  1  0.687400  0.390800  0.573700  1.0  0.1
  H  H25  1  0.665900  0.308300  0.419300  1.0  0.0967
  H  H26  1  0.462600  0.155700  0.428800  1.0  0.0712
  H  H27  1  0.569500  0.234200  0.637000  1.0  0.0761
  H  H28  1  0.613400  0.247200  0.284700  1.0  0.1258
  H  H29  1  0.511700  0.236000  0.285800  1.0  0.1555
  H  H30  1  0.702400  0.018800  0.285200  1.0  0.1515
  H  H31  1  0.724300  0.117800  0.289300  1.0  0.1206
  H  H32  1  0.785000  0.160000  0.419800  1.0  0.0912
  H  H33  1  0.704600  0.063100  0.638300  1.0  0.0954
  H  H34  1  0.612200  0.971000  0.426700  1.0  0.0725
  H  H35  1  0.867400  0.162800  0.584000  1.0  0.1388
  H  H36  1  0.788300  0.177400  0.643500  1.0  0.143
  H  H37  1  0.812300  0.181000  0.142300  1.0  0.1156
  H  H38  1  0.812600  0.109200  0.073700  1.0  0.1031
  H  H39  1  0.834100  0.191700  0.919300  1.0  0.0966
  H  H40  1  0.037400  0.344300  0.928800  1.0  0.0711
  H  H41  1  0.930500  0.265800  0.137000  1.0  0.0758
  H  H42  1  0.886600  0.252800  0.784700  1.0  0.1251
  H  H43  1  0.988300  0.264000  0.785800  1.0  0.1549
  H  H44  1  0.797600  0.481200  0.785200  1.0  0.1512
  H  H45  1  0.775700  0.382200  0.789300  1.0  0.1217
  H  H46  1  0.715000  0.340000  0.919800  1.0  0.0909
  H  H47  1  0.795400  0.436900  0.138300  1.0  0.0958
  H  H48  1  0.887800  0.529000  0.926700  1.0  0.0737
  H  H49  1  0.632600  0.337200  0.084000  1.0  0.1393
  H  H50  1  0.711700  0.322600  0.143500  1.0  0.1446
  H  H51  1  0.312300  0.681000  0.642300  1.0  0.1156
  H  H52  1  0.312600  0.609200  0.573700  1.0  0.1031
  H  H53  1  0.334100  0.691700  0.419300  1.0  0.0966
  H  H54  1  0.537400  0.844300  0.428800  1.0  0.0711
  H  H55  1  0.430500  0.765800  0.637000  1.0  0.0758
  H  H56  1  0.386600  0.752800  0.284700  1.0  0.1251
  H  H57  1  0.488300  0.764000  0.285800  1.0  0.1549
  H  H58  1  0.297600  0.981200  0.285200  1.0  0.1512
  H  H59  1  0.275700  0.882200  0.289300  1.0  0.1217
  H  H60  1  0.215000  0.840000  0.419800  1.0  0.0909
  H  H61  1  0.295400  0.936900  0.638300  1.0  0.0958
  H  H62  1  0.387800  0.029000  0.426700  1.0  0.0737
  H  H63  1  0.132600  0.837200  0.584000  1.0  0.1393
  H  H64  1  0.211700  0.822600  0.643500  1.0  0.1446
  H  H65  1  0.687700  0.681000  0.142300  1.0  0.1154
  H  H66  1  0.687400  0.609200  0.073700  1.0  0.1028
  H  H67  1  0.665900  0.691700  0.919300  1.0  0.0968
  H  H68  1  0.462600  0.844300  0.928800  1.0  0.0713
  H  H69  1  0.569500  0.765800  0.137000  1.0  0.0764
  H  H70  1  0.613400  0.752800  0.784700  1.0  0.1257
  H  H71  1  0.511700  0.764000  0.785800  1.0  0.1541
  H  H72  1  0.702400  0.981200  0.785200  1.0  0.1511
  H  H73  1  0.724300  0.882200  0.789300  1.0  0.121
  H  H74  1  0.785000  0.840000  0.919800  1.0  0.0915
  H  H75  1  0.704600  0.936900  0.138300  1.0  0.0944
  H  H76  1  0.612200  0.029000  0.926700  1.0  0.073
  H  H77  1  0.867400  0.837200  0.084000  1.0  0.1393
  H  H78  1  0.788300  0.822600  0.143500  1.0  0.143
  H  H79  1  0.187700  0.181000  0.642300  1.0  0.1154
  H  H80  1  0.187400  0.109200  0.573700  1.0  0.1028
  H  H81  1  0.165900  0.191700  0.419300  1.0  0.0968
  H  H82  1  0.962600  0.344300  0.428800  1.0  0.0713
  H  H83  1  0.069500  0.265800  0.637000  1.0  0.0764
  H  H84  1  0.113400  0.252800  0.284700  1.0  0.1257
  H  H85  1  0.011700  0.264000  0.285800  1.0  0.1541
  H  H86  1  0.202400  0.481200  0.285200  1.0  0.1511
  H  H87  1  0.224300  0.382200  0.289300  1.0  0.121
  H  H88  1  0.285000  0.340000  0.419800  1.0  0.0915
  H  H89  1  0.204600  0.436900  0.638300  1.0  0.0944
  H  H90  1  0.112200  0.529000  0.426700  1.0  0.073
  H  H91  1  0.367400  0.337200  0.584000  1.0  0.1393
  H  H92  1  0.288300  0.322600  0.643500  1.0  0.143
  H  H93  1  0.312300  0.319000  0.142300  1.0  0.1145
  H  H94  1  0.312600  0.390800  0.073700  1.0  0.1
  H  H95  1  0.334100  0.308300  0.919300  1.0  0.0969
  H  H96  1  0.537400  0.155700  0.928800  1.0  0.0711
  H  H97  1  0.430500  0.234200  0.137000  1.0  0.0754
  H  H98  1  0.386600  0.247200  0.784700  1.0  0.1255
  H  H99  1  0.488300  0.236000  0.785800  1.0  0.1553
  H  H100  1  0.297600  0.018800  0.785200  1.0  0.1512
  H  H101  1  0.275700  0.117800  0.789300  1.0  0.1216
  H  H102  1  0.215000  0.160000  0.919800  1.0  0.0914
  H  H103  1  0.295400  0.063100  0.138300  1.0  0.0951
  H  H104  1  0.387800  0.971000  0.926700  1.0  0.0733
  H  H105  1  0.132600  0.162800  0.084000  1.0  0.1405
  H  H106  1  0.211700  0.177400  0.143500  1.0  0.1448
  H  H107  1  0.812300  0.819000  0.642300  1.0  0.1145
  H  H108  1  0.812600  0.890800  0.573700  1.0  0.1
  H  H109  1  0.834100  0.808300  0.419300  1.0  0.0969
  H  H110  1  0.037400  0.655700  0.428800  1.0  0.0711
  H  H111  1  0.930500  0.734200  0.637000  1.0  0.0754
  H  H112  1  0.886600  0.747200  0.284700  1.0  0.1255
  H  H113  1  0.988300  0.736000  0.285800  1.0  0.1553
  H  H114  1  0.797600  0.518800  0.285200  1.0  0.1512
  H  H115  1  0.775700  0.617800  0.289300  1.0  0.1216
  H  H116  1  0.715000  0.660000  0.419800  1.0  0.0914
  H  H117  1  0.795400  0.563100  0.638300  1.0  0.0951
  H  H118  1  0.887800  0.471000  0.426700  1.0  0.0733
  H  H119  1  0.632600  0.662800  0.584000  1.0  0.1405
  H  H120  1  0.711700  0.677400  0.643500  1.0  0.1448
  C  C121  1  0.194200  0.829300  0.083700  1.0  -0.3236
  C  C122  1  0.126100  0.779000  0.036300  1.0  0.0602
  C  C123  1  0.124800  0.776000  0.948200  1.0  -0.15
  C  C124  1  0.065500  0.727500  0.904400  1.0  0.021
  C  C125  1  0.006600  0.687700  0.953900  1.0  0.1347
  C  C126  1  0.067100  0.734200  0.079800  1.0  0.0572
  C  C127  1  0.065900  0.714000  0.808500  1.0  -0.3125
  C  C128  1  0.185300  0.573400  0.810000  1.0  -0.3025
  C  C129  1  0.196500  0.566500  0.905400  1.0  0.0355
  C  C130  1  0.250300  0.620800  0.948400  1.0  -0.1305
  C  C131  1  0.254300  0.618500  0.038200  1.0  0.0754
  C  C132  1  0.203400  0.562700  0.081000  1.0  -0.0063
  C  C133  1  0.148700  0.509900  0.953500  1.0  0.1129
  C  C134  1  0.306600  0.680200  0.086400  1.0  -0.2918
  C  C135  1  0.694200  0.329300  0.583700  1.0  -0.3236
  C  C136  1  0.626100  0.279000  0.536300  1.0  0.0602
  C  C137  1  0.624800  0.276000  0.448200  1.0  -0.15
  C  C138  1  0.565500  0.227500  0.404400  1.0  0.021
  C  C139  1  0.506600  0.187700  0.453900  1.0  0.1347
  C  C140  1  0.567100  0.234200  0.579800  1.0  0.0572
  C  C141  1  0.565900  0.214000  0.308500  1.0  -0.3125
  C  C142  1  0.685300  0.073400  0.310000  1.0  -0.3025
  C  C143  1  0.696500  0.066500  0.405400  1.0  0.0355
  C  C144  1  0.750300  0.120800  0.448400  1.0  -0.1305
  C  C145  1  0.754300  0.118500  0.538200  1.0  0.0754
  C  C146  1  0.703400  0.062700  0.581000  1.0  -0.0063
  C  C147  1  0.648700  0.009900  0.453500  1.0  0.1129
  C  C148  1  0.806600  0.180200  0.586400  1.0  -0.2918
  C  C149  1  0.805800  0.170700  0.083700  1.0  -0.3213
  C  C150  1  0.873900  0.221000  0.036300  1.0  0.0601
  C  C151  1  0.875200  0.224000  0.948200  1.0  -0.1495
  C  C152  1  0.934500  0.272500  0.904400  1.0  0.0215
  C  C153  1  0.993400  0.312300  0.953900  1.0  0.1338
  C  C154  1  0.932900  0.265800  0.079800  1.0  0.0564
  C  C155  1  0.934100  0.286000  0.808500  1.0  -0.3108
  C  C156  1  0.814700  0.426600  0.810000  1.0  -0.302
  C  C157  1  0.803500  0.433500  0.905400  1.0  0.038
  C  C158  1  0.749700  0.379200  0.948400  1.0  -0.1296
  C  C159  1  0.745700  0.381500  0.038200  1.0  0.0755
  C  C160  1  0.796600  0.437300  0.081000  1.0  -0.0074
  C  C161  1  0.851300  0.490100  0.953500  1.0  0.1109
  C  C162  1  0.693400  0.319800  0.086400  1.0  -0.2927
  C  C163  1  0.305800  0.670700  0.583700  1.0  -0.3213
  C  C164  1  0.373900  0.721000  0.536300  1.0  0.0601
  C  C165  1  0.375200  0.724000  0.448200  1.0  -0.1495
  C  C166  1  0.434500  0.772500  0.404400  1.0  0.0215
  C  C167  1  0.493400  0.812300  0.453900  1.0  0.1338
  C  C168  1  0.432900  0.765800  0.579800  1.0  0.0564
  C  C169  1  0.434100  0.786000  0.308500  1.0  -0.3108
  C  C170  1  0.314700  0.926600  0.310000  1.0  -0.302
  C  C171  1  0.303500  0.933500  0.405400  1.0  0.038
  C  C172  1  0.249700  0.879200  0.448400  1.0  -0.1296
  C  C173  1  0.245700  0.881500  0.538200  1.0  0.0755
  C  C174  1  0.296600  0.937300  0.581000  1.0  -0.0074
  C  C175  1  0.351300  0.990100  0.453500  1.0  0.1109
  C  C176  1  0.193400  0.819800  0.586400  1.0  -0.2927
  C  C177  1  0.694200  0.670700  0.083700  1.0  -0.3227
  C  C178  1  0.626100  0.721000  0.036300  1.0  0.0602
  C  C179  1  0.624800  0.724000  0.948200  1.0  -0.149
  C  C180  1  0.565500  0.772500  0.904400  1.0  0.02
  C  C181  1  0.506600  0.812300  0.953900  1.0  0.135
  C  C182  1  0.567100  0.765800  0.079800  1.0  0.0572
  C  C183  1  0.565900  0.786000  0.808500  1.0  -0.3105
  C  C184  1  0.685300  0.926600  0.810000  1.0  -0.3022
  C  C185  1  0.696500  0.933500  0.905400  1.0  0.0376
  C  C186  1  0.750300  0.879200  0.948400  1.0  -0.13
  C  C187  1  0.754300  0.881500  0.038200  1.0  0.0744
  C  C188  1  0.703400  0.937300  0.081000  1.0  -0.0073
  C  C189  1  0.648700  0.990100  0.953500  1.0  0.1116
  C  C190  1  0.806600  0.819800  0.086400  1.0  -0.2908
  C  C191  1  0.194200  0.170700  0.583700  1.0  -0.3227
  C  C192  1  0.126100  0.221000  0.536300  1.0  0.0602
  C  C193  1  0.124800  0.224000  0.448200  1.0  -0.149
  C  C194  1  0.065500  0.272500  0.404400  1.0  0.02
  C  C195  1  0.006600  0.312300  0.453900  1.0  0.135
  C  C196  1  0.067100  0.265800  0.579800  1.0  0.0572
  C  C197  1  0.065900  0.286000  0.308500  1.0  -0.3105
  C  C198  1  0.185300  0.426600  0.310000  1.0  -0.3022
  C  C199  1  0.196500  0.433500  0.405400  1.0  0.0376
  C  C200  1  0.250300  0.379200  0.448400  1.0  -0.13
  C  C201  1  0.254300  0.381500  0.538200  1.0  0.0744
  C  C202  1  0.203400  0.437300  0.581000  1.0  -0.0073
  C  C203  1  0.148700  0.490100  0.453500  1.0  0.1116
  C  C204  1  0.306600  0.319800  0.586400  1.0  -0.2908
  C  C205  1  0.305800  0.329300  0.083700  1.0  -0.3223
  C  C206  1  0.373900  0.279000  0.036300  1.0  0.0602
  C  C207  1  0.375200  0.276000  0.948200  1.0  -0.1522
  C  C208  1  0.434500  0.227500  0.904400  1.0  0.022
  C  C209  1  0.493400  0.187700  0.953900  1.0  0.1334
  C  C210  1  0.432900  0.234200  0.079800  1.0  0.0558
  C  C211  1  0.434100  0.214000  0.808500  1.0  -0.3127
  C  C212  1  0.314700  0.073400  0.810000  1.0  -0.3024
  C  C213  1  0.303500  0.066500  0.905400  1.0  0.0351
  C  C214  1  0.249700  0.120800  0.948400  1.0  -0.1297
  C  C215  1  0.245700  0.118500  0.038200  1.0  0.0765
  C  C216  1  0.296600  0.062700  0.081000  1.0  -0.0061
  C  C217  1  0.351300  0.009900  0.953500  1.0  0.1109
  C  C218  1  0.193400  0.180200  0.086400  1.0  -0.2937
  C  C219  1  0.805800  0.829300  0.583700  1.0  -0.3223
  C  C220  1  0.873900  0.779000  0.536300  1.0  0.0602
  C  C221  1  0.875200  0.776000  0.448200  1.0  -0.1522
  C  C222  1  0.934500  0.727500  0.404400  1.0  0.022
  C  C223  1  0.993400  0.687700  0.453900  1.0  0.1334
  C  C224  1  0.932900  0.734200  0.579800  1.0  0.0558
  C  C225  1  0.934100  0.714000  0.308500  1.0  -0.3127
  C  C226  1  0.814700  0.573400  0.310000  1.0  -0.3024
  C  C227  1  0.803500  0.566500  0.405400  1.0  0.0351
  C  C228  1  0.749700  0.620800  0.448400  1.0  -0.1297
  C  C229  1  0.745700  0.618500  0.538200  1.0  0.0765
  C  C230  1  0.796600  0.562700  0.581000  1.0  -0.0061
  C  C231  1  0.851300  0.509900  0.453500  1.0  0.1109
  C  C232  1  0.693400  0.680200  0.586400  1.0  -0.2937
  S  S233  1  0.297600  0.794600  0.050300  1.0  -0.0174
  S  S234  1  0.078600  0.598000  0.778970  1.0  -0.0308
  S  S235  1  0.797600  0.294600  0.550300  1.0  -0.0174
  S  S236  1  0.578600  0.098000  0.278970  1.0  -0.0308
  S  S237  1  0.702400  0.205400  0.050300  1.0  -0.0182
  S  S238  1  0.921400  0.402000  0.778970  1.0  -0.0321
  S  S239  1  0.202400  0.705400  0.550300  1.0  -0.0182
  S  S240  1  0.421400  0.902000  0.278970  1.0  -0.0321
  S  S241  1  0.797600  0.705400  0.050300  1.0  -0.0181
  S  S242  1  0.578600  0.902000  0.778970  1.0  -0.03
  S  S243  1  0.297600  0.205400  0.550300  1.0  -0.0181
  S  S244  1  0.078600  0.402000  0.278970  1.0  -0.03
  S  S245  1  0.202400  0.294600  0.050300  1.0  -0.0175
  S  S246  1  0.421400  0.098000  0.778970  1.0  -0.0313
  S  S247  1  0.702400  0.794600  0.550300  1.0  -0.0175
  S  S248  1  0.921400  0.598000  0.278970  1.0  -0.0313
  N  N249  1  0.007200  0.691100  0.042100  1.0  -0.3764
  N  N250  1  0.151400  0.506800  0.041200  1.0  -0.4117
  N  N251  1  0.507200  0.191100  0.542100  1.0  -0.3764
  N  N252  1  0.651400  0.006800  0.541200  1.0  -0.4117
  N  N253  1  0.992800  0.308900  0.042100  1.0  -0.3757
  N  N254  1  0.848600  0.493200  0.041200  1.0  -0.4118
  N  N255  1  0.492800  0.808900  0.542100  1.0  -0.3757
  N  N256  1  0.348600  0.993200  0.541200  1.0  -0.4118
  N  N257  1  0.507200  0.808900  0.042100  1.0  -0.376
  N  N258  1  0.651400  0.993200  0.041200  1.0  -0.4118
  N  N259  1  0.007200  0.308900  0.542100  1.0  -0.376
  N  N260  1  0.151400  0.493200  0.541200  1.0  -0.4118
  N  N261  1  0.492800  0.191100  0.042100  1.0  -0.3758
  N  N262  1  0.348600  0.006800  0.041200  1.0  -0.4106
  N  N263  1  0.992800  0.691100  0.542100  1.0  -0.3758
  N  N264  1  0.848600  0.506800  0.541200  1.0  -0.4106
