# generated using pymatgen
data_Co2H6C17O9
_symmetry_space_group_name_H-M   'P 1'
_cell_length_a   7.33100000
_cell_length_b   11.90100000
_cell_length_c   15.83800000
_cell_angle_alpha   103.50000000
_cell_angle_beta   100.46000000
_cell_angle_gamma   104.75000000
_symmetry_Int_Tables_number   1
_chemical_formula_structural   Co2H6C17O9
_chemical_formula_sum   'Co4 H12 C34 O18'
_cell_volume   1255.95437066
_cell_formula_units_Z   2
loop_
 _symmetry_equiv_pos_site_id
 _symmetry_equiv_pos_as_xyz
  1  'x, y, z'
loop_
 _atom_site_type_symbol
 _atom_site_label
 _atom_site_symmetry_multiplicity
 _atom_site_fract_x
 _atom_site_fract_y
 _atom_site_fract_z
 _atom_site_occupancy
 _atom_site_charge
  Co  Co1  1  0.027430  0.952810  0.334900  1.0  1.0238
  Co  Co2  1  0.972570  0.047190  0.665100  1.0  1.0254
  Co  Co3  1  0.500000  0.000000  0.500000  1.0  1.2661
  Co  Co4  1  0.000000  0.000000  0.000000  1.0  0.828
  H  H5  1  0.792800  0.256400  0.422900  1.0  0.111
  H  H6  1  0.038700  0.583800  0.352500  1.0  0.1116
  H  H7  1  0.589500  0.309500  0.143700  1.0  0.1196
  H  H8  1  0.695100  0.617000  0.386500  1.0  0.111
  H  H9  1  0.914500  0.396000  0.223000  1.0  0.1188
  H  H10  1  0.481600  0.442500  0.395800  1.0  0.111
  H  H11  1  0.207200  0.743600  0.577100  1.0  0.1109
  H  H12  1  0.961300  0.416200  0.647500  1.0  0.1106
  H  H13  1  0.410500  0.690500  0.856300  1.0  0.1188
  H  H14  1  0.304900  0.383000  0.613500  1.0  0.1113
  H  H15  1  0.085500  0.604000  0.777000  1.0  0.1186
  H  H16  1  0.518400  0.557500  0.604200  1.0  0.1114
  C  C17  1  0.889800  0.335800  0.332600  1.0  -0.0909
  C  C18  1  0.235400  0.494200  0.374400  1.0  -0.0585
  C  C19  1  0.752000  0.266600  0.366900  1.0  0.0004
  C  C20  1  0.170800  0.591500  0.361200  1.0  -0.0426
  C  C21  1  0.555500  0.212500  0.319500  1.0  -0.1397
  C  C22  1  0.301300  0.700200  0.360800  1.0  -0.0436
  C  C23  1  0.493000  0.229800  0.235000  1.0  -0.0057
  C  C24  1  0.501300  0.710800  0.369900  1.0  -0.1019
  C  C25  1  0.630300  0.298800  0.199600  1.0  -0.0923
  C  C26  1  0.564600  0.611500  0.381500  1.0  -0.0423
  C  C27  1  0.825900  0.351100  0.247300  1.0  -0.0652
  C  C28  1  0.435900  0.505500  0.385700  1.0  -0.0526
  C  C29  1  0.419600  0.132800  0.358600  1.0  0.7106
  C  C30  1  0.214700  0.800000  0.347700  1.0  0.667
  C  C31  1  0.285200  0.178900  0.178300  1.0  0.6768
  C  C32  1  0.650100  0.826200  0.369900  1.0  0.6992
  C  C33  1  0.099900  0.379100  0.381900  1.0  0.4064
  C  C34  1  0.110200  0.664200  0.667400  1.0  -0.0909
  C  C35  1  0.764600  0.505800  0.625600  1.0  -0.0579
  C  C36  1  0.248000  0.733400  0.633100  1.0  -0.0011
  C  C37  1  0.829200  0.408500  0.638800  1.0  -0.0435
  C  C38  1  0.444500  0.787500  0.680500  1.0  -0.1392
  C  C39  1  0.698700  0.299800  0.639200  1.0  -0.0431
  C  C40  1  0.507000  0.770200  0.765000  1.0  -0.0129
  C  C41  1  0.498700  0.289200  0.630100  1.0  -0.1023
  C  C42  1  0.369700  0.701200  0.800400  1.0  -0.1033
  C  C43  1  0.435400  0.388500  0.618500  1.0  -0.0393
  C  C44  1  0.174100  0.648900  0.752700  1.0  -0.0958
  C  C45  1  0.564100  0.494500  0.614300  1.0  -0.0523
  C  C46  1  0.580400  0.867200  0.641400  1.0  0.7103
  C  C47  1  0.785300  0.200000  0.652300  1.0  0.6661
  C  C48  1  0.714800  0.821100  0.821700  1.0  0.6748
  C  C49  1  0.349900  0.173800  0.630100  1.0  0.7015
  C  C50  1  0.900100  0.620900  0.618100  1.0  0.4049
  O  O51  1  0.483100  0.134200  0.439000  1.0  -0.6053
  O  O52  1  0.121900  0.793600  0.270600  1.0  -0.5265
  O  O53  1  0.255000  0.067800  0.306200  1.0  -0.5828
  O  O54  1  0.220200  0.885700  0.416700  1.0  -0.6232
  O  O55  1  0.248700  0.084500  0.110200  1.0  -0.6182
  O  O56  1  0.623700  0.928700  0.398700  1.0  -0.6351
  O  O57  1  0.167700  0.235300  0.195900  1.0  -0.5324
  O  O58  1  0.791900  0.812300  0.337700  1.0  -0.5929
  O  O59  1  0.165000  0.322400  0.429500  1.0  -0.4361
  O  O60  1  0.516900  0.865800  0.561000  1.0  -0.6065
  O  O61  1  0.878100  0.206400  0.729400  1.0  -0.5283
  O  O62  1  0.745000  0.932200  0.693800  1.0  -0.5827
  O  O63  1  0.779800  0.114300  0.583300  1.0  -0.6242
  O  O64  1  0.751300  0.915500  0.889800  1.0  -0.617
  O  O65  1  0.376300  0.071300  0.601300  1.0  -0.6358
  O  O66  1  0.832300  0.764700  0.804100  1.0  -0.535
  O  O67  1  0.208100  0.187700  0.662300  1.0  -0.5901
  O  O68  1  0.835000  0.677600  0.570500  1.0  -0.4369
