# generated using pymatgen
data_Zr3H38(C9O2)8
_symmetry_space_group_name_H-M   'P 1'
_cell_length_a   28.17470000
_cell_length_b   28.17470000
_cell_length_c   28.17470000
_cell_angle_alpha   60.00000000
_cell_angle_beta   60.00000000
_cell_angle_gamma   60.00000000
_symmetry_Int_Tables_number   1
_chemical_formula_structural   Zr3H38(C9O2)8
_chemical_formula_sum   'Zr12 H152 C288 O64'
_cell_volume   15814.77084825
_cell_formula_units_Z   4
loop_
 _symmetry_equiv_pos_site_id
 _symmetry_equiv_pos_as_xyz
  1  'x, y, z'
loop_
 _atom_site_type_symbol
 _atom_site_label
 _atom_site_symmetry_multiplicity
 _atom_site_fract_x
 _atom_site_fract_y
 _atom_site_fract_z
 _atom_site_occupancy
 _atom_site_charge
  Zr  Zr1  1  0.187790  0.187790  0.312210  1.0  1.7971
  Zr  Zr2  1  0.312210  0.312210  0.187790  1.0  1.7888
  Zr  Zr3  1  0.312210  0.187790  0.187790  1.0  1.7925
  Zr  Zr4  1  0.187790  0.312210  0.312210  1.0  1.7968
  Zr  Zr5  1  0.187790  0.312210  0.187790  1.0  1.7934
  Zr  Zr6  1  0.312210  0.187790  0.312210  1.0  1.7961
  Zr  Zr7  1  0.562210  0.562210  0.437790  1.0  1.7931
  Zr  Zr8  1  0.437790  0.437790  0.562210  1.0  1.8001
  Zr  Zr9  1  0.437790  0.562210  0.562210  1.0  1.8006
  Zr  Zr10  1  0.562210  0.437790  0.437790  1.0  1.7966
  Zr  Zr11  1  0.562210  0.437790  0.562210  1.0  1.7997
  Zr  Zr12  1  0.437790  0.562210  0.437790  1.0  1.7973
  H  H13  1  0.182020  0.027140  0.335520  1.0  0.082
  H  H14  1  0.190830  0.928910  0.344610  1.0  0.0948
  H  H15  1  0.360670  0.759730  0.212740  1.0  0.0902
  H  H16  1  0.722860  0.567980  0.414480  1.0  0.0833
  H  H17  1  0.821090  0.559170  0.405390  1.0  0.0955
  H  H18  1  0.990270  0.389330  0.537260  1.0  0.0899
  H  H19  1  0.027140  0.182020  0.455320  1.0  0.0812
  H  H20  1  0.928910  0.190830  0.535650  1.0  0.0953
  H  H21  1  0.759730  0.360670  0.666870  1.0  0.0864
  H  H22  1  0.567980  0.722860  0.294680  1.0  0.0835
  H  H23  1  0.559170  0.821090  0.214350  1.0  0.095
  H  H24  1  0.389330  0.990270  0.083130  1.0  0.0841
  H  H25  1  0.335520  0.455320  0.182020  1.0  0.082
  H  H26  1  0.344610  0.535650  0.190830  1.0  0.0976
  H  H27  1  0.212740  0.666870  0.360670  1.0  0.0849
  H  H28  1  0.414480  0.294680  0.722860  1.0  0.0842
  H  H29  1  0.405390  0.214350  0.821090  1.0  0.097
  H  H30  1  0.537260  0.083130  0.990270  1.0  0.088
  H  H31  1  0.455320  0.335520  0.027140  1.0  0.0799
  H  H32  1  0.535650  0.344610  0.928910  1.0  0.0946
  H  H33  1  0.666870  0.212740  0.759730  1.0  0.0897
  H  H34  1  0.294680  0.414480  0.567980  1.0  0.0816
  H  H35  1  0.214350  0.405390  0.559170  1.0  0.0954
  H  H36  1  0.083130  0.537260  0.389330  1.0  0.0868
  H  H37  1  0.335520  0.182020  0.027140  1.0  0.0826
  H  H38  1  0.344610  0.190830  0.928910  1.0  0.0956
  H  H39  1  0.212740  0.360670  0.759730  1.0  0.087
  H  H40  1  0.414480  0.722860  0.567980  1.0  0.0844
  H  H41  1  0.405390  0.821090  0.559170  1.0  0.0957
  H  H42  1  0.537260  0.990270  0.389330  1.0  0.0877
  H  H43  1  0.455320  0.027140  0.182020  1.0  0.0813
  H  H44  1  0.535650  0.928910  0.190830  1.0  0.0951
  H  H45  1  0.666870  0.759730  0.360670  1.0  0.085
  H  H46  1  0.294680  0.567980  0.722860  1.0  0.0842
  H  H47  1  0.214350  0.559170  0.821090  1.0  0.0955
  H  H48  1  0.083130  0.389330  0.990270  1.0  0.0817
  H  H49  1  0.182020  0.335520  0.455320  1.0  0.0823
  H  H50  1  0.190830  0.344610  0.535650  1.0  0.0955
  H  H51  1  0.360670  0.212740  0.666870  1.0  0.0855
  H  H52  1  0.722860  0.414480  0.294680  1.0  0.0848
  H  H53  1  0.821090  0.405390  0.214350  1.0  0.0961
  H  H54  1  0.990270  0.537260  0.083130  1.0  0.0875
  H  H55  1  0.027140  0.455320  0.335520  1.0  0.0824
  H  H56  1  0.928910  0.535650  0.344610  1.0  0.0951
  H  H57  1  0.759730  0.666870  0.212740  1.0  0.0872
  H  H58  1  0.567980  0.294680  0.414480  1.0  0.0848
  H  H59  1  0.559170  0.214350  0.405390  1.0  0.0954
  H  H60  1  0.389330  0.083130  0.537260  1.0  0.0848
  H  H61  1  0.027140  0.335520  0.182020  1.0  0.0824
  H  H62  1  0.928910  0.344610  0.190830  1.0  0.0951
  H  H63  1  0.759730  0.212740  0.360670  1.0  0.089
  H  H64  1  0.567980  0.414480  0.722860  1.0  0.0835
  H  H65  1  0.559170  0.405390  0.821090  1.0  0.0956
  H  H66  1  0.389330  0.537260  0.990270  1.0  0.0896
  H  H67  1  0.182020  0.455320  0.027140  1.0  0.0824
  H  H68  1  0.190830  0.535650  0.928910  1.0  0.0961
  H  H69  1  0.360670  0.666870  0.759730  1.0  0.0838
  H  H70  1  0.722860  0.294680  0.567980  1.0  0.0839
  H  H71  1  0.821090  0.214350  0.559170  1.0  0.0952
  H  H72  1  0.990270  0.083130  0.389330  1.0  0.0835
  H  H73  1  0.455320  0.182020  0.335520  1.0  0.0826
  H  H74  1  0.535650  0.190830  0.344610  1.0  0.0956
  H  H75  1  0.666870  0.360670  0.212740  1.0  0.0827
  H  H76  1  0.294680  0.722860  0.414480  1.0  0.0824
  H  H77  1  0.214350  0.821090  0.405390  1.0  0.0945
  H  H78  1  0.083130  0.990270  0.537260  1.0  0.0873
  H  H79  1  0.335520  0.027140  0.455320  1.0  0.0825
  H  H80  1  0.344610  0.928910  0.535650  1.0  0.0959
  H  H81  1  0.212740  0.759730  0.666870  1.0  0.0875
  H  H82  1  0.414480  0.567980  0.294680  1.0  0.0837
  H  H83  1  0.405390  0.559170  0.214350  1.0  0.0958
  H  H84  1  0.537260  0.389330  0.083130  1.0  0.084
  H  H85  1  0.027140  0.182020  0.335520  1.0  0.0819
  H  H86  1  0.928910  0.190830  0.344610  1.0  0.0953
  H  H87  1  0.759730  0.360670  0.212740  1.0  0.0888
  H  H88  1  0.567980  0.722860  0.414480  1.0  0.0837
  H  H89  1  0.559170  0.821090  0.405390  1.0  0.0947
  H  H90  1  0.389330  0.990270  0.537260  1.0  0.0866
  H  H91  1  0.182020  0.027140  0.455320  1.0  0.0823
  H  H92  1  0.190830  0.928910  0.535650  1.0  0.0948
  H  H93  1  0.360670  0.759730  0.666870  1.0  0.0855
  H  H94  1  0.722860  0.567980  0.294680  1.0  0.0838
  H  H95  1  0.821090  0.559170  0.214350  1.0  0.096
  H  H96  1  0.990270  0.389330  0.083130  1.0  0.0838
  H  H97  1  0.455320  0.335520  0.182020  1.0  0.0804
  H  H98  1  0.535650  0.344610  0.190830  1.0  0.0947
  H  H99  1  0.666870  0.212740  0.360670  1.0  0.0854
  H  H100  1  0.294680  0.414480  0.722860  1.0  0.0825
  H  H101  1  0.214350  0.405390  0.821090  1.0  0.095
  H  H102  1  0.083130  0.537260  0.990270  1.0  0.088
  H  H103  1  0.335520  0.455320  0.027140  1.0  0.0824
  H  H104  1  0.344610  0.535650  0.928910  1.0  0.0975
  H  H105  1  0.212740  0.666870  0.759730  1.0  0.0859
  H  H106  1  0.414480  0.294680  0.567980  1.0  0.0842
  H  H107  1  0.405390  0.214350  0.559170  1.0  0.0974
  H  H108  1  0.537260  0.083130  0.389330  1.0  0.0832
  H  H109  1  0.182020  0.335520  0.027140  1.0  0.0825
  H  H110  1  0.190830  0.344610  0.928910  1.0  0.0948
  H  H111  1  0.360670  0.212740  0.759730  1.0  0.0886
  H  H112  1  0.722860  0.414480  0.567980  1.0  0.0854
  H  H113  1  0.821090  0.405390  0.559170  1.0  0.0965
  H  H114  1  0.990270  0.537260  0.389330  1.0  0.0868
  H  H115  1  0.027140  0.455320  0.182020  1.0  0.0823
  H  H116  1  0.928910  0.535650  0.190830  1.0  0.0956
  H  H117  1  0.759730  0.666870  0.360670  1.0  0.0847
  H  H118  1  0.567980  0.294680  0.722860  1.0  0.0853
  H  H119  1  0.559170  0.214350  0.821090  1.0  0.0959
  H  H120  1  0.389330  0.083130  0.990270  1.0  0.0817
  H  H121  1  0.335520  0.182020  0.455320  1.0  0.0828
  H  H122  1  0.344610  0.190830  0.535650  1.0  0.0964
  H  H123  1  0.212740  0.360670  0.666870  1.0  0.0826
  H  H124  1  0.414480  0.722860  0.294680  1.0  0.0843
  H  H125  1  0.405390  0.821090  0.214350  1.0  0.0955
  H  H126  1  0.537260  0.990270  0.083130  1.0  0.0852
  H  H127  1  0.455320  0.027140  0.335520  1.0  0.0821
  H  H128  1  0.535650  0.928910  0.344610  1.0  0.095
  H  H129  1  0.666870  0.759730  0.212740  1.0  0.0868
  H  H130  1  0.294680  0.567980  0.414480  1.0  0.0847
  H  H131  1  0.214350  0.559170  0.405390  1.0  0.0959
  H  H132  1  0.083130  0.389330  0.537260  1.0  0.0824
  H  H133  1  0.335520  0.027140  0.182020  1.0  0.0822
  H  H134  1  0.344610  0.928910  0.190830  1.0  0.0953
  H  H135  1  0.212740  0.759730  0.360670  1.0  0.0854
  H  H136  1  0.414480  0.567980  0.722860  1.0  0.0846
  H  H137  1  0.405390  0.559170  0.821090  1.0  0.0959
  H  H138  1  0.537260  0.389330  0.990270  1.0  0.0867
  H  H139  1  0.455320  0.182020  0.027140  1.0  0.083
  H  H140  1  0.535650  0.190830  0.928910  1.0  0.095
  H  H141  1  0.666870  0.360670  0.759730  1.0  0.0812
  H  H142  1  0.294680  0.722860  0.567980  1.0  0.0831
  H  H143  1  0.214350  0.821090  0.559170  1.0  0.0943
  H  H144  1  0.083130  0.990270  0.389330  1.0  0.0816
  H  H145  1  0.182020  0.455320  0.335520  1.0  0.0828
  H  H146  1  0.190830  0.535650  0.344610  1.0  0.0961
  H  H147  1  0.360670  0.666870  0.212740  1.0  0.0826
  H  H148  1  0.722860  0.294680  0.414480  1.0  0.0844
  H  H149  1  0.821090  0.214350  0.405390  1.0  0.095
  H  H150  1  0.990270  0.083130  0.537260  1.0  0.0871
  H  H151  1  0.027140  0.335520  0.455320  1.0  0.0839
  H  H152  1  0.928910  0.344610  0.535650  1.0  0.0957
  H  H153  1  0.759730  0.212740  0.666870  1.0  0.087
  H  H154  1  0.567980  0.414480  0.294680  1.0  0.0841
  H  H155  1  0.559170  0.405390  0.214350  1.0  0.0953
  H  H156  1  0.389330  0.537260  0.083130  1.0  0.085
  H  H157  1  0.203530  0.203530  0.389410  1.0  0.3043
  H  H158  1  0.203530  0.203530  0.203530  1.0  0.3035
  H  H159  1  0.389410  0.203530  0.203530  1.0  0.3048
  H  H160  1  0.203530  0.389410  0.203530  1.0  0.3088
  H  H161  1  0.544220  0.544220  0.544220  1.0  0.381
  H  H162  1  0.544220  0.544220  0.367340  1.0  0.3801
  H  H163  1  0.544220  0.367340  0.544220  1.0  0.3782
  H  H164  1  0.367340  0.544220  0.544220  1.0  0.3798
  C  C165  1  0.219030  0.005050  0.302510  1.0  -0.0831
  C  C166  1  0.224080  0.950740  0.307720  1.0  -0.119
  C  C167  1  0.322800  0.742600  0.244400  1.0  -0.0821
  C  C168  1  0.744950  0.530970  0.447490  1.0  -0.0839
  C  C169  1  0.799260  0.525920  0.442280  1.0  -0.1187
  C  C170  1  0.007400  0.427200  0.505600  1.0  -0.0873
  C  C171  1  0.005050  0.219030  0.473410  1.0  -0.0834
  C  C172  1  0.950740  0.224080  0.517460  1.0  -0.1203
  C  C173  1  0.742600  0.322800  0.690200  1.0  -0.0868
  C  C174  1  0.530970  0.744950  0.276590  1.0  -0.085
  C  C175  1  0.525920  0.799260  0.232540  1.0  -0.12
  C  C176  1  0.427200  0.007400  0.059800  1.0  -0.0911
  C  C177  1  0.302510  0.473410  0.219030  1.0  -0.0819
  C  C178  1  0.307720  0.517460  0.224080  1.0  -0.118
  C  C179  1  0.244400  0.690200  0.322800  1.0  -0.0867
  C  C180  1  0.447490  0.276590  0.744950  1.0  -0.0846
  C  C181  1  0.442280  0.232540  0.799260  1.0  -0.1229
  C  C182  1  0.505600  0.059800  0.007400  1.0  -0.083
  C  C183  1  0.473410  0.302510  0.005050  1.0  -0.0857
  C  C184  1  0.517460  0.307720  0.950740  1.0  -0.1232
  C  C185  1  0.690200  0.244400  0.742600  1.0  -0.0869
  C  C186  1  0.276590  0.447490  0.530970  1.0  -0.0843
  C  C187  1  0.232540  0.442280  0.525920  1.0  -0.1194
  C  C188  1  0.059800  0.505600  0.427200  1.0  -0.0862
  C  C189  1  0.302510  0.219030  0.005050  1.0  -0.0847
  C  C190  1  0.307720  0.224080  0.950740  1.0  -0.1186
  C  C191  1  0.244400  0.322800  0.742600  1.0  -0.0832
  C  C192  1  0.447490  0.744950  0.530970  1.0  -0.085
  C  C193  1  0.442280  0.799260  0.525920  1.0  -0.1215
  C  C194  1  0.505600  0.007400  0.427200  1.0  -0.0847
  C  C195  1  0.473410  0.005050  0.219030  1.0  -0.0817
  C  C196  1  0.517460  0.950740  0.224080  1.0  -0.1165
  C  C197  1  0.690200  0.742600  0.322800  1.0  -0.0842
  C  C198  1  0.276590  0.530970  0.744950  1.0  -0.0882
  C  C199  1  0.232540  0.525920  0.799260  1.0  -0.1139
  C  C200  1  0.059800  0.427200  0.007400  1.0  -0.0931
  C  C201  1  0.219030  0.302510  0.473410  1.0  -0.0846
  C  C202  1  0.224080  0.307720  0.517460  1.0  -0.1183
  C  C203  1  0.322800  0.244400  0.690200  1.0  -0.0879
  C  C204  1  0.744950  0.447490  0.276590  1.0  -0.0857
  C  C205  1  0.799260  0.442280  0.232540  1.0  -0.1192
  C  C206  1  0.007400  0.505600  0.059800  1.0  -0.0837
  C  C207  1  0.005050  0.473410  0.302510  1.0  -0.0858
  C  C208  1  0.950740  0.517460  0.307720  1.0  -0.1203
  C  C209  1  0.742600  0.690200  0.244400  1.0  -0.0835
  C  C210  1  0.530970  0.276590  0.447490  1.0  -0.0844
  C  C211  1  0.525920  0.232540  0.442280  1.0  -0.1171
  C  C212  1  0.427200  0.059800  0.505600  1.0  -0.085
  C  C213  1  0.005050  0.302510  0.219030  1.0  -0.0841
  C  C214  1  0.950740  0.307720  0.224080  1.0  -0.116
  C  C215  1  0.742600  0.244400  0.322800  1.0  -0.0838
  C  C216  1  0.530970  0.447490  0.744950  1.0  -0.0865
  C  C217  1  0.525920  0.442280  0.799260  1.0  -0.1191
  C  C218  1  0.427200  0.505600  0.007400  1.0  -0.0849
  C  C219  1  0.219030  0.473410  0.005050  1.0  -0.0829
  C  C220  1  0.224080  0.517460  0.950740  1.0  -0.1179
  C  C221  1  0.322800  0.690200  0.742600  1.0  -0.0858
  C  C222  1  0.744950  0.276590  0.530970  1.0  -0.0841
  C  C223  1  0.799260  0.232540  0.525920  1.0  -0.115
  C  C224  1  0.007400  0.059800  0.427200  1.0  -0.0881
  C  C225  1  0.473410  0.219030  0.302510  1.0  -0.0847
  C  C226  1  0.517460  0.224080  0.307720  1.0  -0.1145
  C  C227  1  0.690200  0.322800  0.244400  1.0  -0.0858
  C  C228  1  0.276590  0.744950  0.447490  1.0  -0.0837
  C  C229  1  0.232540  0.799260  0.442280  1.0  -0.1183
  C  C230  1  0.059800  0.007400  0.505600  1.0  -0.0831
  C  C231  1  0.302510  0.005050  0.473410  1.0  -0.0874
  C  C232  1  0.307720  0.950740  0.517460  1.0  -0.1216
  C  C233  1  0.244400  0.742600  0.690200  1.0  -0.0851
  C  C234  1  0.447490  0.530970  0.276590  1.0  -0.0873
  C  C235  1  0.442280  0.525920  0.232540  1.0  -0.1218
  C  C236  1  0.505600  0.427200  0.059800  1.0  -0.0859
  C  C237  1  0.005050  0.219030  0.302510  1.0  -0.0822
  C  C238  1  0.950740  0.224080  0.307720  1.0  -0.1213
  C  C239  1  0.742600  0.322800  0.244400  1.0  -0.0832
  C  C240  1  0.530970  0.744950  0.447490  1.0  -0.0851
  C  C241  1  0.525920  0.799260  0.442280  1.0  -0.1203
  C  C242  1  0.427200  0.007400  0.505600  1.0  -0.0855
  C  C243  1  0.219030  0.005050  0.473410  1.0  -0.083
  C  C244  1  0.224080  0.950740  0.517460  1.0  -0.1192
  C  C245  1  0.322800  0.742600  0.690200  1.0  -0.0835
  C  C246  1  0.744950  0.530970  0.276590  1.0  -0.0853
  C  C247  1  0.799260  0.525920  0.232540  1.0  -0.1199
  C  C248  1  0.007400  0.427200  0.059800  1.0  -0.0911
  C  C249  1  0.473410  0.302510  0.219030  1.0  -0.0829
  C  C250  1  0.517460  0.307720  0.224080  1.0  -0.1208
  C  C251  1  0.690200  0.244400  0.322800  1.0  -0.0878
  C  C252  1  0.276590  0.447490  0.744950  1.0  -0.0845
  C  C253  1  0.232540  0.442280  0.799260  1.0  -0.1236
  C  C254  1  0.059800  0.505600  0.007400  1.0  -0.0867
  C  C255  1  0.302510  0.473410  0.005050  1.0  -0.0855
  C  C256  1  0.307720  0.517460  0.950740  1.0  -0.1219
  C  C257  1  0.244400  0.690200  0.742600  1.0  -0.0874
  C  C258  1  0.447490  0.276590  0.530970  1.0  -0.0837
  C  C259  1  0.442280  0.232540  0.525920  1.0  -0.1202
  C  C260  1  0.505600  0.059800  0.427200  1.0  -0.086
  C  C261  1  0.219030  0.302510  0.005050  1.0  -0.0846
  C  C262  1  0.224080  0.307720  0.950740  1.0  -0.1183
  C  C263  1  0.322800  0.244400  0.742600  1.0  -0.0842
  C  C264  1  0.744950  0.447490  0.530970  1.0  -0.0852
  C  C265  1  0.799260  0.442280  0.525920  1.0  -0.1166
  C  C266  1  0.007400  0.505600  0.427200  1.0  -0.085
  C  C267  1  0.005050  0.473410  0.219030  1.0  -0.0822
  C  C268  1  0.950740  0.517460  0.224080  1.0  -0.1169
  C  C269  1  0.742600  0.690200  0.322800  1.0  -0.083
  C  C270  1  0.530970  0.276590  0.744950  1.0  -0.0844
  C  C271  1  0.525920  0.232540  0.799260  1.0  -0.1174
  C  C272  1  0.427200  0.059800  0.007400  1.0  -0.0869
  C  C273  1  0.302510  0.219030  0.473410  1.0  -0.0853
  C  C274  1  0.307720  0.224080  0.517460  1.0  -0.1192
  C  C275  1  0.244400  0.322800  0.690200  1.0  -0.0878
  C  C276  1  0.447490  0.744950  0.276590  1.0  -0.0857
  C  C277  1  0.442280  0.799260  0.232540  1.0  -0.126
  C  C278  1  0.505600  0.007400  0.059800  1.0  -0.0833
  C  C279  1  0.473410  0.005050  0.302510  1.0  -0.085
  C  C280  1  0.517460  0.950740  0.307720  1.0  -0.1205
  C  C281  1  0.690200  0.742600  0.244400  1.0  -0.0832
  C  C282  1  0.276590  0.530970  0.447490  1.0  -0.0879
  C  C283  1  0.232540  0.525920  0.442280  1.0  -0.1135
  C  C284  1  0.059800  0.427200  0.505600  1.0  -0.088
  C  C285  1  0.302510  0.005050  0.219030  1.0  -0.0837
  C  C286  1  0.307720  0.950740  0.224080  1.0  -0.119
  C  C287  1  0.244400  0.742600  0.322800  1.0  -0.0823
  C  C288  1  0.447490  0.530970  0.744950  1.0  -0.0871
  C  C289  1  0.442280  0.525920  0.799260  1.0  -0.1232
  C  C290  1  0.505600  0.427200  0.007400  1.0  -0.0864
  C  C291  1  0.473410  0.219030  0.005050  1.0  -0.0851
  C  C292  1  0.517460  0.224080  0.950740  1.0  -0.1161
  C  C293  1  0.690200  0.322800  0.742600  1.0  -0.0868
  C  C294  1  0.276590  0.744950  0.530970  1.0  -0.084
  C  C295  1  0.232540  0.799260  0.525920  1.0  -0.1164
  C  C296  1  0.059800  0.007400  0.427200  1.0  -0.0877
  C  C297  1  0.219030  0.473410  0.302510  1.0  -0.0827
  C  C298  1  0.224080  0.517460  0.307720  1.0  -0.1191
  C  C299  1  0.322800  0.690200  0.244400  1.0  -0.085
  C  C300  1  0.744950  0.276590  0.447490  1.0  -0.0841
  C  C301  1  0.799260  0.232540  0.442280  1.0  -0.1196
  C  C302  1  0.007400  0.059800  0.505600  1.0  -0.0836
  C  C303  1  0.005050  0.302510  0.473410  1.0  -0.0876
  C  C304  1  0.950740  0.307720  0.517460  1.0  -0.1209
  C  C305  1  0.742600  0.244400  0.690200  1.0  -0.0886
  C  C306  1  0.530970  0.447490  0.276590  1.0  -0.0857
  C  C307  1  0.525920  0.442280  0.232540  1.0  -0.1197
  C  C308  1  0.427200  0.505600  0.059800  1.0  -0.0853
  C  C309  1  0.253390  0.088930  0.253390  1.0  0.6432
  C  C310  1  0.258160  0.031580  0.258160  1.0  -0.0746
  C  C311  1  0.088930  0.253390  0.404290  1.0  0.641
  C  C312  1  0.031580  0.258160  0.452100  1.0  -0.0737
  C  C313  1  0.253390  0.404290  0.253390  1.0  0.6421
  C  C314  1  0.258160  0.452100  0.258160  1.0  -0.0726
  C  C315  1  0.404290  0.253390  0.088930  1.0  0.6454
  C  C316  1  0.452100  0.258160  0.031580  1.0  -0.0728
  C  C317  1  0.253390  0.253390  0.088930  1.0  0.6432
  C  C318  1  0.258160  0.258160  0.031580  1.0  -0.0747
  C  C319  1  0.404290  0.088930  0.253390  1.0  0.645
  C  C320  1  0.452100  0.031580  0.258160  1.0  -0.0732
  C  C321  1  0.253390  0.253390  0.404290  1.0  0.6426
  C  C322  1  0.258160  0.258160  0.452100  1.0  -0.0748
  C  C323  1  0.088930  0.404290  0.253390  1.0  0.6426
  C  C324  1  0.031580  0.452100  0.258160  1.0  -0.0726
  C  C325  1  0.088930  0.253390  0.253390  1.0  0.6419
  C  C326  1  0.031580  0.258160  0.258160  1.0  -0.0741
  C  C327  1  0.253390  0.404290  0.088930  1.0  0.6423
  C  C328  1  0.258160  0.452100  0.031580  1.0  -0.0727
  C  C329  1  0.404290  0.253390  0.253390  1.0  0.6451
  C  C330  1  0.452100  0.258160  0.258160  1.0  -0.0724
  C  C331  1  0.253390  0.088930  0.404290  1.0  0.6424
  C  C332  1  0.258160  0.031580  0.452100  1.0  -0.0745
  C  C333  1  0.268800  0.923120  0.268800  1.0  0.0409
  C  C334  1  0.274000  0.867920  0.274000  1.0  0.0017
  C  C335  1  0.278100  0.821920  0.278100  1.0  -0.0479
  C  C336  1  0.280100  0.769680  0.280100  1.0  0.2779
  C  C337  1  0.923120  0.268800  0.539280  1.0  0.0423
  C  C338  1  0.867920  0.274000  0.584080  1.0  0.0483
  C  C339  1  0.821920  0.278100  0.621880  1.0  0.0158
  C  C340  1  0.769680  0.280100  0.670120  1.0  0.286
  C  C341  1  0.268800  0.539280  0.268800  1.0  0.0408
  C  C342  1  0.274000  0.584080  0.274000  1.0  0.0018
  C  C343  1  0.278100  0.621880  0.278100  1.0  -0.0481
  C  C344  1  0.280100  0.670120  0.280100  1.0  0.2803
  C  C345  1  0.539280  0.268800  0.923120  1.0  0.0408
  C  C346  1  0.584080  0.274000  0.867920  1.0  0.0499
  C  C347  1  0.621880  0.278100  0.821920  1.0  0.0113
  C  C348  1  0.670120  0.280100  0.769680  1.0  0.2871
  C  C349  1  0.268800  0.268800  0.923120  1.0  0.0434
  C  C350  1  0.274000  0.274000  0.867920  1.0  0.0016
  C  C351  1  0.278100  0.278100  0.821920  1.0  -0.0501
  C  C352  1  0.280100  0.280100  0.769680  1.0  0.2771
  C  C353  1  0.539280  0.923120  0.268800  1.0  0.0381
  C  C354  1  0.584080  0.867920  0.274000  1.0  0.0495
  C  C355  1  0.621880  0.821920  0.278100  1.0  0.0143
  C  C356  1  0.670120  0.769680  0.280100  1.0  0.2868
  C  C357  1  0.268800  0.268800  0.539280  1.0  0.0391
  C  C358  1  0.274000  0.274000  0.584080  1.0  0.0017
  C  C359  1  0.278100  0.278100  0.621880  1.0  -0.051
  C  C360  1  0.280100  0.280100  0.670120  1.0  0.2772
  C  C361  1  0.923120  0.539280  0.268800  1.0  0.0403
  C  C362  1  0.867920  0.584080  0.274000  1.0  0.046
  C  C363  1  0.821920  0.621880  0.278100  1.0  0.0153
  C  C364  1  0.769680  0.670120  0.280100  1.0  0.2851
  C  C365  1  0.923120  0.268800  0.268800  1.0  0.043
  C  C366  1  0.867920  0.274000  0.274000  1.0  0.0
  C  C367  1  0.821920  0.278100  0.278100  1.0  -0.0467
  C  C368  1  0.769680  0.280100  0.280100  1.0  0.2776
  C  C369  1  0.268800  0.539280  0.923120  1.0  0.0422
  C  C370  1  0.274000  0.584080  0.867920  1.0  0.0506
  C  C371  1  0.278100  0.621880  0.821920  1.0  0.0146
  C  C372  1  0.280100  0.670120  0.769680  1.0  0.2883
  C  C373  1  0.539280  0.268800  0.268800  1.0  0.0401
  C  C374  1  0.584080  0.274000  0.274000  1.0  0.0022
  C  C375  1  0.621880  0.278100  0.278100  1.0  -0.0519
  C  C376  1  0.670120  0.280100  0.280100  1.0  0.2805
  C  C377  1  0.268800  0.923120  0.539280  1.0  0.0398
  C  C378  1  0.274000  0.867920  0.584080  1.0  0.0507
  C  C379  1  0.278100  0.821920  0.621880  1.0  0.0154
  C  C380  1  0.280100  0.769680  0.670120  1.0  0.2881
  C  C381  1  0.661070  0.496610  0.496610  1.0  0.6476
  C  C382  1  0.718420  0.491840  0.491840  1.0  -0.079
  C  C383  1  0.826880  0.481200  0.481200  1.0  0.0433
  C  C384  1  0.882080  0.476000  0.476000  1.0  0.0014
  C  C385  1  0.928080  0.471900  0.471900  1.0  -0.0486
  C  C386  1  0.980320  0.469900  0.469900  1.0  0.2763
  C  C387  1  0.496610  0.661070  0.345710  1.0  0.6493
  C  C388  1  0.491840  0.718420  0.297900  1.0  -0.0793
  C  C389  1  0.481200  0.826880  0.210720  1.0  0.0379
  C  C390  1  0.476000  0.882080  0.165920  1.0  0.0492
  C  C391  1  0.471900  0.928080  0.128120  1.0  0.0172
  C  C392  1  0.469900  0.980320  0.079880  1.0  0.2873
  C  C393  1  0.496610  0.345710  0.661070  1.0  0.6503
  C  C394  1  0.491840  0.297900  0.718420  1.0  -0.0774
  C  C395  1  0.481200  0.210720  0.826880  1.0  0.0385
  C  C396  1  0.476000  0.165920  0.882080  1.0  0.0496
  C  C397  1  0.471900  0.128120  0.928080  1.0  0.0143
  C  C398  1  0.469900  0.079880  0.980320  1.0  0.2897
  C  C399  1  0.345710  0.496610  0.496610  1.0  0.6535
  C  C400  1  0.297900  0.491840  0.491840  1.0  -0.0798
  C  C401  1  0.210720  0.481200  0.481200  1.0  0.0428
  C  C402  1  0.165920  0.476000  0.476000  1.0  0.0008
  C  C403  1  0.128120  0.471900  0.471900  1.0  -0.0498
  C  C404  1  0.079880  0.469900  0.469900  1.0  0.2789
  C  C405  1  0.496610  0.661070  0.496610  1.0  0.6485
  C  C406  1  0.491840  0.718420  0.491840  1.0  -0.0793
  C  C407  1  0.481200  0.826880  0.481200  1.0  0.0399
  C  C408  1  0.476000  0.882080  0.476000  1.0  0.0018
  C  C409  1  0.471900  0.928080  0.471900  1.0  -0.0477
  C  C410  1  0.469900  0.980320  0.469900  1.0  0.2775
  C  C411  1  0.345710  0.496610  0.661070  1.0  0.6534
  C  C412  1  0.297900  0.491840  0.718420  1.0  -0.08
  C  C413  1  0.210720  0.481200  0.826880  1.0  0.0392
  C  C414  1  0.165920  0.476000  0.882080  1.0  0.0488
  C  C415  1  0.128120  0.471900  0.928080  1.0  0.0128
  C  C416  1  0.079880  0.469900  0.980320  1.0  0.2885
  C  C417  1  0.661070  0.496610  0.345710  1.0  0.6484
  C  C418  1  0.718420  0.491840  0.297900  1.0  -0.0786
  C  C419  1  0.826880  0.481200  0.210720  1.0  0.0421
  C  C420  1  0.882080  0.476000  0.165920  1.0  0.0486
  C  C421  1  0.928080  0.471900  0.128120  1.0  0.0154
  C  C422  1  0.980320  0.469900  0.079880  1.0  0.2854
  C  C423  1  0.496610  0.345710  0.496610  1.0  0.6505
  C  C424  1  0.491840  0.297900  0.491840  1.0  -0.0775
  C  C425  1  0.481200  0.210720  0.481200  1.0  0.041
  C  C426  1  0.476000  0.165920  0.476000  1.0  0.002
  C  C427  1  0.471900  0.128120  0.471900  1.0  -0.0493
  C  C428  1  0.469900  0.079880  0.469900  1.0  0.2795
  C  C429  1  0.496610  0.496610  0.661070  1.0  0.6501
  C  C430  1  0.491840  0.491840  0.718420  1.0  -0.0795
  C  C431  1  0.481200  0.481200  0.826880  1.0  0.0385
  C  C432  1  0.476000  0.476000  0.882080  1.0  0.0021
  C  C433  1  0.471900  0.471900  0.928080  1.0  -0.0484
  C  C434  1  0.469900  0.469900  0.980320  1.0  0.2782
  C  C435  1  0.661070  0.345710  0.496610  1.0  0.6493
  C  C436  1  0.718420  0.297900  0.491840  1.0  -0.0778
  C  C437  1  0.826880  0.210720  0.481200  1.0  0.0389
  C  C438  1  0.882080  0.165920  0.476000  1.0  0.0502
  C  C439  1  0.928080  0.128120  0.471900  1.0  0.0126
  C  C440  1  0.980320  0.079880  0.469900  1.0  0.2857
  C  C441  1  0.345710  0.661070  0.496610  1.0  0.6532
  C  C442  1  0.297900  0.718420  0.491840  1.0  -0.0797
  C  C443  1  0.210720  0.826880  0.481200  1.0  0.0383
  C  C444  1  0.165920  0.882080  0.476000  1.0  0.0489
  C  C445  1  0.128120  0.928080  0.471900  1.0  0.0141
  C  C446  1  0.079880  0.980320  0.469900  1.0  0.2859
  C  C447  1  0.496610  0.496610  0.345710  1.0  0.6507
  C  C448  1  0.491840  0.491840  0.297900  1.0  -0.0795
  C  C449  1  0.481200  0.481200  0.210720  1.0  0.0431
  C  C450  1  0.476000  0.476000  0.165920  1.0  0.0019
  C  C451  1  0.471900  0.471900  0.128120  1.0  -0.0472
  C  C452  1  0.469900  0.469900  0.079880  1.0  0.2788
  O  O453  1  0.210090  0.111410  0.291150  1.0  -0.6311
  O  O454  1  0.638590  0.539910  0.458850  1.0  -0.6377
  O  O455  1  0.111410  0.210090  0.387350  1.0  -0.6322
  O  O456  1  0.539910  0.638590  0.362650  1.0  -0.6375
  O  O457  1  0.291150  0.387350  0.210090  1.0  -0.6316
  O  O458  1  0.458850  0.362650  0.638590  1.0  -0.6354
  O  O459  1  0.387350  0.291150  0.111410  1.0  -0.6334
  O  O460  1  0.362650  0.458850  0.539910  1.0  -0.6367
  O  O461  1  0.291150  0.210090  0.111410  1.0  -0.6309
  O  O462  1  0.458850  0.638590  0.539910  1.0  -0.6349
  O  O463  1  0.387350  0.111410  0.210090  1.0  -0.631
  O  O464  1  0.362650  0.539910  0.638590  1.0  -0.6379
  O  O465  1  0.210090  0.291150  0.387350  1.0  -0.6312
  O  O466  1  0.638590  0.458850  0.362650  1.0  -0.6367
  O  O467  1  0.111410  0.387350  0.291150  1.0  -0.633
  O  O468  1  0.539910  0.362650  0.458850  1.0  -0.6359
  O  O469  1  0.111410  0.291150  0.210090  1.0  -0.6316
  O  O470  1  0.539910  0.458850  0.638590  1.0  -0.6362
  O  O471  1  0.210090  0.387350  0.111410  1.0  -0.6291
  O  O472  1  0.638590  0.362650  0.539910  1.0  -0.6364
  O  O473  1  0.387350  0.210090  0.291150  1.0  -0.632
  O  O474  1  0.362650  0.638590  0.458850  1.0  -0.6359
  O  O475  1  0.291150  0.111410  0.387350  1.0  -0.6301
  O  O476  1  0.458850  0.539910  0.362650  1.0  -0.6362
  O  O477  1  0.111410  0.210090  0.291150  1.0  -0.6315
  O  O478  1  0.539910  0.638590  0.458850  1.0  -0.6368
  O  O479  1  0.210090  0.111410  0.387350  1.0  -0.6309
  O  O480  1  0.638590  0.539910  0.362650  1.0  -0.6388
  O  O481  1  0.387350  0.291150  0.210090  1.0  -0.6329
  O  O482  1  0.362650  0.458850  0.638590  1.0  -0.6373
  O  O483  1  0.291150  0.387350  0.111410  1.0  -0.6317
  O  O484  1  0.458850  0.362650  0.539910  1.0  -0.6354
  O  O485  1  0.210090  0.291150  0.111410  1.0  -0.6313
  O  O486  1  0.638590  0.458850  0.539910  1.0  -0.636
  O  O487  1  0.111410  0.387350  0.210090  1.0  -0.6323
  O  O488  1  0.539910  0.362650  0.638590  1.0  -0.6353
  O  O489  1  0.291150  0.210090  0.387350  1.0  -0.6311
  O  O490  1  0.458850  0.638590  0.362650  1.0  -0.6345
  O  O491  1  0.387350  0.111410  0.291150  1.0  -0.6307
  O  O492  1  0.362650  0.539910  0.458850  1.0  -0.6374
  O  O493  1  0.291150  0.111410  0.210090  1.0  -0.6302
  O  O494  1  0.458850  0.539910  0.638590  1.0  -0.6361
  O  O495  1  0.387350  0.210090  0.111410  1.0  -0.6319
  O  O496  1  0.362650  0.638590  0.539910  1.0  -0.6359
  O  O497  1  0.210090  0.387350  0.291150  1.0  -0.6295
  O  O498  1  0.638590  0.362650  0.458850  1.0  -0.6373
  O  O499  1  0.111410  0.291150  0.387350  1.0  -0.6322
  O  O500  1  0.539910  0.458850  0.362650  1.0  -0.6365
  O  O501  1  0.162670  0.279110  0.279110  1.0  -0.9087
  O  O502  1  0.279110  0.162670  0.279110  1.0  -0.9098
  O  O503  1  0.279110  0.279110  0.162670  1.0  -0.9086
  O  O504  1  0.279110  0.279110  0.279110  1.0  -0.9078
  O  O505  1  0.470890  0.587330  0.470890  1.0  -0.914
  O  O506  1  0.587330  0.470890  0.470890  1.0  -0.9137
  O  O507  1  0.470890  0.470890  0.470890  1.0  -0.9122
  O  O508  1  0.470890  0.470890  0.587330  1.0  -0.9133
  O  O509  1  0.217410  0.217410  0.347770  1.0  -0.8828
  O  O510  1  0.217410  0.217410  0.217410  1.0  -0.8828
  O  O511  1  0.347770  0.217410  0.217410  1.0  -0.8822
  O  O512  1  0.217410  0.347770  0.217410  1.0  -0.8815
  O  O513  1  0.532590  0.532590  0.402230  1.0  -0.8697
  O  O514  1  0.532590  0.532590  0.532590  1.0  -0.87
  O  O515  1  0.402230  0.532590  0.532590  1.0  -0.8689
  O  O516  1  0.532590  0.402230  0.532590  1.0  -0.87
