# generated using pymatgen
data_TbH24C39NO6
_symmetry_space_group_name_H-M   'P 1'
_cell_length_a   21.88910000
_cell_length_b   9.10700000
_cell_length_c   32.03800000
_cell_angle_alpha   90.00000000
_cell_angle_beta   124.12100000
_cell_angle_gamma   90.00000000
_symmetry_Int_Tables_number   1
_chemical_formula_structural   TbH24C39NO6
_chemical_formula_sum   'Tb4 H96 C156 N4 O24'
_cell_volume   5287.16430779
_cell_formula_units_Z   4
loop_
 _symmetry_equiv_pos_site_id
 _symmetry_equiv_pos_as_xyz
  1  'x, y, z'
loop_
 _atom_site_type_symbol
 _atom_site_label
 _atom_site_symmetry_multiplicity
 _atom_site_fract_x
 _atom_site_fract_y
 _atom_site_fract_z
 _atom_site_occupancy
 _atom_site_charge
  Tb  Tb1  1  0.982330  0.798160  0.444780  1.0  2.2448
  Tb  Tb2  1  0.017670  0.798160  0.055220  1.0  2.2464
  Tb  Tb3  1  0.017670  0.201840  0.555220  1.0  2.2432
  Tb  Tb4  1  0.982330  0.201840  0.944780  1.0  2.2403
  H  H5  1  0.306700  0.309900  0.395600  1.0  0.1044
  H  H6  1  0.029500  0.304900  0.124400  1.0  0.0985
  H  H7  1  0.204100  0.181000  0.470700  1.0  0.0718
  H  H8  1  0.471600  0.907400  0.464600  1.0  0.1179
  H  H9  1  0.256500  0.814400  0.400700  1.0  0.1118
  H  H10  1  0.368800  0.128200  0.381200  1.0  0.1059
  H  H11  1  0.244600  0.208500  0.281300  1.0  0.1058
  H  H12  1  0.672900  0.109800  0.474500  1.0  0.1048
  H  H13  1  0.193500  0.998100  0.414500  1.0  0.1132
  H  H14  1  0.095200  0.494700  0.182300  1.0  0.1073
  H  H15  1  0.320200  0.385600  0.316900  1.0  0.1058
  H  H16  1  0.132800  0.349000  0.480600  1.0  0.1051
  H  H17  1  0.649800  0.760700  0.387300  1.0  0.1172
  H  H18  1  0.768100  0.810600  0.406300  1.0  0.1039
  H  H19  1  0.120500  0.601800  0.375500  1.0  0.079
  H  H20  1  0.388400  0.573300  0.370100  1.0  0.1031
  H  H21  1  0.792800  0.154700  0.494400  1.0  0.1086
  H  H22  1  0.141900  0.644700  0.248100  1.0  0.1056
  H  H23  1  0.523900  0.852100  0.341500  1.0  0.1128
  H  H24  1  0.189200  0.433900  0.362000  1.0  0.1251
  H  H25  1  0.209800  0.838100  0.302200  1.0  0.1325
  H  H26  1  0.184200  0.022800  0.221700  1.0  0.0993
  H  H27  1  0.402600  0.814000  0.320400  1.0  0.116
  H  H28  1  0.591000  0.953400  0.484900  1.0  0.0865
  H  H29  1  0.693300  0.309900  0.104400  1.0  0.1041
  H  H30  1  0.970500  0.304900  0.375600  1.0  0.0972
  H  H31  1  0.795900  0.181000  0.029300  1.0  0.0718
  H  H32  1  0.528400  0.907400  0.035400  1.0  0.1173
  H  H33  1  0.743500  0.814400  0.099300  1.0  0.1124
  H  H34  1  0.631200  0.128200  0.118800  1.0  0.1062
  H  H35  1  0.755400  0.208500  0.218700  1.0  0.1056
  H  H36  1  0.327100  0.109800  0.025500  1.0  0.1054
  H  H37  1  0.806500  0.998100  0.085500  1.0  0.1132
  H  H38  1  0.904800  0.494700  0.317700  1.0  0.1067
  H  H39  1  0.679800  0.385600  0.183100  1.0  0.1054
  H  H40  1  0.867200  0.349000  0.019400  1.0  0.1049
  H  H41  1  0.350200  0.760700  0.112700  1.0  0.1177
  H  H42  1  0.231900  0.810600  0.093700  1.0  0.1044
  H  H43  1  0.879500  0.601800  0.124500  1.0  0.0791
  H  H44  1  0.611600  0.573300  0.129900  1.0  0.105
  H  H45  1  0.207200  0.154700  0.005600  1.0  0.109
  H  H46  1  0.858100  0.644700  0.251900  1.0  0.1057
  H  H47  1  0.476100  0.852100  0.158500  1.0  0.1135
  H  H48  1  0.810800  0.433900  0.138000  1.0  0.1243
  H  H49  1  0.790200  0.838100  0.197800  1.0  0.1327
  H  H50  1  0.815800  0.022800  0.278300  1.0  0.0997
  H  H51  1  0.597400  0.814000  0.179600  1.0  0.1141
  H  H52  1  0.409000  0.953400  0.015100  1.0  0.0863
  H  H53  1  0.693300  0.690100  0.604400  1.0  0.1035
  H  H54  1  0.970500  0.695100  0.875600  1.0  0.0974
  H  H55  1  0.795900  0.819000  0.529300  1.0  0.0711
  H  H56  1  0.528400  0.092600  0.535400  1.0  0.1168
  H  H57  1  0.743500  0.185600  0.599300  1.0  0.1122
  H  H58  1  0.631200  0.871800  0.618800  1.0  0.1062
  H  H59  1  0.755400  0.791500  0.718700  1.0  0.1057
  H  H60  1  0.327100  0.890200  0.525500  1.0  0.1049
  H  H61  1  0.806500  0.001900  0.585500  1.0  0.1135
  H  H62  1  0.904800  0.505300  0.817700  1.0  0.1073
  H  H63  1  0.679800  0.614400  0.683100  1.0  0.1069
  H  H64  1  0.867200  0.651000  0.519400  1.0  0.1052
  H  H65  1  0.350200  0.239300  0.612700  1.0  0.1181
  H  H66  1  0.231900  0.189400  0.593700  1.0  0.1048
  H  H67  1  0.879500  0.398200  0.624500  1.0  0.079
  H  H68  1  0.611600  0.426700  0.629900  1.0  0.105
  H  H69  1  0.207200  0.845300  0.505600  1.0  0.1086
  H  H70  1  0.858100  0.355300  0.751900  1.0  0.1054
  H  H71  1  0.476100  0.147900  0.658500  1.0  0.1123
  H  H72  1  0.810800  0.566100  0.638000  1.0  0.1246
  H  H73  1  0.790200  0.161900  0.697800  1.0  0.1346
  H  H74  1  0.815800  0.977200  0.778300  1.0  0.1001
  H  H75  1  0.597400  0.186000  0.679600  1.0  0.1139
  H  H76  1  0.409000  0.046600  0.515100  1.0  0.0858
  H  H77  1  0.306700  0.690100  0.895600  1.0  0.104
  H  H78  1  0.029500  0.695100  0.624400  1.0  0.0984
  H  H79  1  0.204100  0.819000  0.970700  1.0  0.0712
  H  H80  1  0.471600  0.092600  0.964600  1.0  0.1175
  H  H81  1  0.256500  0.185600  0.900700  1.0  0.1123
  H  H82  1  0.368800  0.871800  0.881200  1.0  0.1055
  H  H83  1  0.244600  0.791500  0.781300  1.0  0.1059
  H  H84  1  0.672900  0.890200  0.974500  1.0  0.1045
  H  H85  1  0.193500  0.001900  0.914500  1.0  0.1131
  H  H86  1  0.095200  0.505300  0.682300  1.0  0.1077
  H  H87  1  0.320200  0.614400  0.816900  1.0  0.1066
  H  H88  1  0.132800  0.651000  0.980600  1.0  0.1054
  H  H89  1  0.649800  0.239300  0.887300  1.0  0.118
  H  H90  1  0.768100  0.189400  0.906300  1.0  0.1044
  H  H91  1  0.120500  0.398200  0.875500  1.0  0.0788
  H  H92  1  0.388400  0.426700  0.870100  1.0  0.1035
  H  H93  1  0.792800  0.845300  0.994400  1.0  0.1086
  H  H94  1  0.141900  0.355300  0.748100  1.0  0.1057
  H  H95  1  0.523900  0.147900  0.841500  1.0  0.1118
  H  H96  1  0.189200  0.566100  0.862000  1.0  0.125
  H  H97  1  0.209800  0.161900  0.802200  1.0  0.1337
  H  H98  1  0.184200  0.977200  0.721700  1.0  0.0998
  H  H99  1  0.402600  0.186000  0.820400  1.0  0.1162
  H  H100  1  0.591000  0.046600  0.984900  1.0  0.0873
  C  C101  1  0.307400  0.725400  0.342600  1.0  0.213
  C  C102  1  0.571300  0.907700  0.416400  1.0  0.008
  C  C103  1  0.295700  0.209400  0.396200  1.0  -0.1404
  C  C104  1  0.201700  0.284100  0.414900  1.0  0.0284
  C  C105  1  0.075000  0.284000  0.155300  1.0  -0.0967
  C  C106  1  0.067600  0.022900  0.126700  1.0  0.6919
  C  C107  1  0.791900  0.986400  0.453400  1.0  -0.0444
  C  C108  1  0.647100  0.930400  0.427100  1.0  0.0573
  C  C109  1  0.118600  0.491200  0.427900  1.0  -0.1407
  C  C110  1  0.185900  0.265800  0.449800  1.0  -0.141
  C  C111  1  0.317200  0.953300  0.387700  1.0  0.1451
  C  C112  1  0.102900  0.144400  0.165300  1.0  -0.0856
  C  C113  1  0.481500  0.898400  0.439400  1.0  -0.1713
  C  C114  1  0.223100  0.492100  0.274900  1.0  0.0453
  C  C115  1  0.266200  0.915000  0.398900  1.0  -0.1873
  C  C116  1  0.069700  0.600100  0.431800  1.0  0.6765
  C  C117  1  0.332700  0.100400  0.387400  1.0  -0.0927
  C  C118  1  0.202200  0.232200  0.249000  1.0  -0.1721
  C  C119  1  0.692200  0.048600  0.460500  1.0  -0.1067
  C  C120  1  0.424500  0.859400  0.389600  1.0  0.1106
  C  C121  1  0.178400  0.373200  0.238500  1.0  0.0451
  C  C122  1  0.228900  0.025000  0.407500  1.0  -0.1266
  C  C123  1  0.114000  0.397400  0.191100  1.0  -0.1155
  C  C124  1  0.296800  0.477300  0.312900  1.0  -0.1635
  C  C125  1  0.243800  0.172200  0.405800  1.0  -0.0003
  C  C126  1  0.868400  0.010600  0.465800  1.0  0.7138
  C  C127  1  0.143800  0.367100  0.456300  1.0  -0.085
  C  C128  1  0.677200  0.841500  0.408400  1.0  -0.1375
  C  C129  1  0.748600  0.870300  0.420500  1.0  -0.0538
  C  C130  1  0.136700  0.513500  0.394500  1.0  -0.0503
  C  C131  1  0.337500  0.589400  0.345100  1.0  -0.207
  C  C132  1  0.764300  0.075600  0.472800  1.0  -0.0967
  C  C133  1  0.192900  0.629800  0.273000  1.0  -0.1062
  C  C134  1  0.513600  0.865000  0.366400  1.0  -0.1129
  C  C135  1  0.177900  0.414200  0.386000  1.0  -0.1711
  C  C136  1  0.232900  0.746600  0.305400  1.0  -0.2252
  C  C137  1  0.165300  0.119800  0.212900  1.0  -0.0558
  C  C138  1  0.440600  0.841800  0.353800  1.0  -0.1867
  C  C139  1  0.553500  0.924000  0.451500  1.0  -0.0888
  C  C140  1  0.692600  0.725400  0.157400  1.0  0.2128
  C  C141  1  0.428700  0.907700  0.083600  1.0  0.0095
  C  C142  1  0.704300  0.209400  0.103800  1.0  -0.1381
  C  C143  1  0.798300  0.284100  0.085100  1.0  0.0293
  C  C144  1  0.925000  0.284000  0.344700  1.0  -0.0956
  C  C145  1  0.932400  0.022900  0.373300  1.0  0.6916
  C  C146  1  0.208100  0.986400  0.046600  1.0  -0.0453
  C  C147  1  0.352900  0.930400  0.072900  1.0  0.057
  C  C148  1  0.881400  0.491200  0.072100  1.0  -0.1425
  C  C149  1  0.814100  0.265800  0.050200  1.0  -0.1425
  C  C150  1  0.682800  0.953300  0.112300  1.0  0.1454
  C  C151  1  0.897100  0.144400  0.334700  1.0  -0.0863
  C  C152  1  0.518500  0.898400  0.060600  1.0  -0.1701
  C  C153  1  0.776900  0.492100  0.225100  1.0  0.0474
  C  C154  1  0.733800  0.915000  0.101100  1.0  -0.1872
  C  C155  1  0.930300  0.600100  0.068200  1.0  0.6764
  C  C156  1  0.667300  0.100400  0.112600  1.0  -0.0939
  C  C157  1  0.797800  0.232200  0.251000  1.0  -0.1732
  C  C158  1  0.307800  0.048600  0.039500  1.0  -0.1072
  C  C159  1  0.575500  0.859400  0.110400  1.0  0.1097
  C  C160  1  0.821600  0.373200  0.261500  1.0  0.0456
  C  C161  1  0.771100  0.025000  0.092500  1.0  -0.1257
  C  C162  1  0.886000  0.397400  0.308900  1.0  -0.1171
  C  C163  1  0.703200  0.477300  0.187100  1.0  -0.1647
  C  C164  1  0.756200  0.172200  0.094200  1.0  0.0007
  C  C165  1  0.131600  0.010600  0.034200  1.0  0.7133
  C  C166  1  0.856200  0.367100  0.043700  1.0  -0.0839
  C  C167  1  0.322800  0.841500  0.091600  1.0  -0.1366
  C  C168  1  0.251400  0.870300  0.079500  1.0  -0.0549
  C  C169  1  0.863300  0.513500  0.105500  1.0  -0.0476
  C  C170  1  0.662500  0.589400  0.154900  1.0  -0.2027
  C  C171  1  0.235700  0.075600  0.027200  1.0  -0.0964
  C  C172  1  0.807100  0.629800  0.227000  1.0  -0.1096
  C  C173  1  0.486400  0.865000  0.133600  1.0  -0.1123
  C  C174  1  0.822100  0.414200  0.114000  1.0  -0.1725
  C  C175  1  0.767100  0.746600  0.194600  1.0  -0.2243
  C  C176  1  0.834700  0.119800  0.287100  1.0  -0.0579
  C  C177  1  0.559400  0.841800  0.146200  1.0  -0.1878
  C  C178  1  0.446500  0.924000  0.048500  1.0  -0.0887
  C  C179  1  0.692600  0.274600  0.657400  1.0  0.2124
  C  C180  1  0.428700  0.092300  0.583600  1.0  0.0096
  C  C181  1  0.704300  0.790600  0.603800  1.0  -0.1381
  C  C182  1  0.798300  0.715900  0.585100  1.0  0.0294
  C  C183  1  0.925000  0.716000  0.844700  1.0  -0.0958
  C  C184  1  0.932400  0.977100  0.873300  1.0  0.6918
  C  C185  1  0.208100  0.013600  0.546600  1.0  -0.0457
  C  C186  1  0.352900  0.069600  0.572900  1.0  0.0569
  C  C187  1  0.881400  0.508800  0.572100  1.0  -0.1426
  C  C188  1  0.814100  0.734200  0.550200  1.0  -0.1434
  C  C189  1  0.682800  0.046700  0.612300  1.0  0.1457
  C  C190  1  0.897100  0.855600  0.834700  1.0  -0.0863
  C  C191  1  0.518500  0.101600  0.560600  1.0  -0.1695
  C  C192  1  0.776900  0.507900  0.725100  1.0  0.0473
  C  C193  1  0.733800  0.085000  0.601100  1.0  -0.1873
  C  C194  1  0.930300  0.399900  0.568200  1.0  0.6766
  C  C195  1  0.667300  0.899600  0.612600  1.0  -0.0914
  C  C196  1  0.797800  0.767800  0.751000  1.0  -0.1728
  C  C197  1  0.307800  0.951400  0.539500  1.0  -0.1079
  C  C198  1  0.575500  0.140600  0.610400  1.0  0.1095
  C  C199  1  0.821600  0.626800  0.761500  1.0  0.0457
  C  C200  1  0.771100  0.975000  0.592500  1.0  -0.126
  C  C201  1  0.886000  0.602600  0.808900  1.0  -0.116
  C  C202  1  0.703200  0.522700  0.687100  1.0  -0.1641
  C  C203  1  0.756200  0.827800  0.594200  1.0  0.0008
  C  C204  1  0.131600  0.989400  0.534200  1.0  0.7138
  C  C205  1  0.856200  0.632900  0.543700  1.0  -0.0844
  C  C206  1  0.322800  0.158500  0.591600  1.0  -0.1365
  C  C207  1  0.251400  0.129700  0.579500  1.0  -0.0545
  C  C208  1  0.863300  0.486500  0.605500  1.0  -0.0463
  C  C209  1  0.662500  0.410600  0.654900  1.0  -0.2061
  C  C210  1  0.235700  0.924400  0.527200  1.0  -0.097
  C  C211  1  0.807100  0.370200  0.727000  1.0  -0.1092
  C  C212  1  0.486400  0.135000  0.633600  1.0  -0.1118
  C  C213  1  0.822100  0.585800  0.614000  1.0  -0.1719
  C  C214  1  0.767100  0.253400  0.694600  1.0  -0.2234
  C  C215  1  0.834700  0.880200  0.787100  1.0  -0.059
  C  C216  1  0.559400  0.158200  0.646200  1.0  -0.188
  C  C217  1  0.446500  0.076000  0.548500  1.0  -0.0889
  C  C218  1  0.307400  0.274600  0.842600  1.0  0.2126
  C  C219  1  0.571300  0.092300  0.916400  1.0  0.0081
  C  C220  1  0.295700  0.790600  0.896200  1.0  -0.1376
  C  C221  1  0.201700  0.715900  0.914900  1.0  0.0284
  C  C222  1  0.075000  0.716000  0.655300  1.0  -0.0968
  C  C223  1  0.067600  0.977100  0.626700  1.0  0.6918
  C  C224  1  0.791900  0.013600  0.953400  1.0  -0.0455
  C  C225  1  0.647100  0.069600  0.927100  1.0  0.057
  C  C226  1  0.118600  0.508800  0.927900  1.0  -0.1409
  C  C227  1  0.185900  0.734200  0.949800  1.0  -0.1417
  C  C228  1  0.317200  0.046700  0.887700  1.0  0.1454
  C  C229  1  0.102900  0.855600  0.665300  1.0  -0.0851
  C  C230  1  0.481500  0.101600  0.939400  1.0  -0.1704
  C  C231  1  0.223100  0.507900  0.774900  1.0  0.0458
  C  C232  1  0.266200  0.085000  0.898900  1.0  -0.1885
  C  C233  1  0.069700  0.399900  0.931800  1.0  0.6781
  C  C234  1  0.332700  0.899600  0.887400  1.0  -0.0937
  C  C235  1  0.202200  0.767800  0.749000  1.0  -0.1717
  C  C236  1  0.692200  0.951400  0.960500  1.0  -0.1055
  C  C237  1  0.424500  0.140600  0.889600  1.0  0.1099
  C  C238  1  0.178400  0.626800  0.738500  1.0  0.045
  C  C239  1  0.228900  0.975000  0.907500  1.0  -0.127
  C  C240  1  0.114000  0.602600  0.691100  1.0  -0.1158
  C  C241  1  0.296800  0.522700  0.812900  1.0  -0.1624
  C  C242  1  0.243800  0.827800  0.905800  1.0  -0.0008
  C  C243  1  0.868400  0.989400  0.965800  1.0  0.7136
  C  C244  1  0.143800  0.632900  0.956300  1.0  -0.0842
  C  C245  1  0.677200  0.158500  0.908400  1.0  -0.1376
  C  C246  1  0.748600  0.129700  0.920500  1.0  -0.0556
  C  C247  1  0.136700  0.486500  0.894500  1.0  -0.0489
  C  C248  1  0.337500  0.410600  0.845100  1.0  -0.2072
  C  C249  1  0.764300  0.924400  0.972800  1.0  -0.0974
  C  C250  1  0.192900  0.370200  0.773000  1.0  -0.1062
  C  C251  1  0.513600  0.135000  0.866400  1.0  -0.1129
  C  C252  1  0.177900  0.585800  0.886000  1.0  -0.1709
  C  C253  1  0.232900  0.253400  0.805400  1.0  -0.2269
  C  C254  1  0.165300  0.880200  0.712900  1.0  -0.0566
  C  C255  1  0.440600  0.158200  0.853800  1.0  -0.1872
  C  C256  1  0.553500  0.076000  0.951500  1.0  -0.0887
  N  N257  1  0.350200  0.840500  0.375300  1.0  -0.1944
  N  N258  1  0.649800  0.840500  0.124700  1.0  -0.1953
  N  N259  1  0.649800  0.159500  0.624700  1.0  -0.1949
  N  N260  1  0.350200  0.159500  0.875300  1.0  -0.1942
  O  O261  1  0.895700  0.918300  0.451300  1.0  -0.7566
  O  O262  1  0.013000  0.050300  0.082600  1.0  -0.6051
  O  O263  1  0.050600  0.565800  0.462500  1.0  -0.6797
  O  O264  1  0.095700  0.894600  0.139500  1.0  -0.6078
  O  O265  1  0.903800  0.122000  0.493100  1.0  -0.6973
  O  O266  1  0.047300  0.718200  0.407100  1.0  -0.6197
  O  O267  1  0.104300  0.918300  0.048700  1.0  -0.7559
  O  O268  1  0.987000  0.050300  0.417400  1.0  -0.6043
  O  O269  1  0.949400  0.565800  0.037500  1.0  -0.6798
  O  O270  1  0.904300  0.894600  0.360500  1.0  -0.6088
  O  O271  1  0.096200  0.122000  0.006900  1.0  -0.6953
  O  O272  1  0.952700  0.718200  0.092900  1.0  -0.6199
  O  O273  1  0.104300  0.081700  0.548700  1.0  -0.7573
  O  O274  1  0.987000  0.949700  0.917400  1.0  -0.6059
  O  O275  1  0.949400  0.434200  0.537500  1.0  -0.6791
  O  O276  1  0.904300  0.105400  0.860500  1.0  -0.6089
  O  O277  1  0.096200  0.878000  0.506900  1.0  -0.6942
  O  O278  1  0.952700  0.281800  0.592900  1.0  -0.6194
  O  O279  1  0.895700  0.081700  0.951300  1.0  -0.7585
  O  O280  1  0.013000  0.949700  0.582600  1.0  -0.6052
  O  O281  1  0.050600  0.434200  0.962500  1.0  -0.68
  O  O282  1  0.095700  0.105400  0.639500  1.0  -0.6077
  O  O283  1  0.903800  0.878000  0.993100  1.0  -0.6968
  O  O284  1  0.047300  0.281800  0.907100  1.0  -0.6193
