# generated using pymatgen
data_MgCd2Mo12P8H19C2N2(ClO25)2
_symmetry_space_group_name_H-M   'P 1'
_cell_length_a   12.00140000
_cell_length_b   14.68600000
_cell_length_c   21.17600000
_cell_angle_alpha   81.09300000
_cell_angle_beta   83.08000000
_cell_angle_gamma   76.57100000
_symmetry_Int_Tables_number   1
_chemical_formula_structural   MgCd2Mo12P8H19C2N2(ClO25)2
_chemical_formula_sum   'Mg2 Cd4 Mo24 P16 H38 C4 N4 Cl4 O100'
_cell_volume   3572.59713325
_cell_formula_units_Z   2
loop_
 _symmetry_equiv_pos_site_id
 _symmetry_equiv_pos_as_xyz
  1  'x, y, z'
loop_
 _atom_site_type_symbol
 _atom_site_label
 _atom_site_symmetry_multiplicity
 _atom_site_fract_x
 _atom_site_fract_y
 _atom_site_fract_z
 _atom_site_occupancy
 _atom_site_charge
  Mg  Mg1  1  0.261700  0.076300  0.340200  1.0  1.5242
  Mg  Mg2  1  0.738300  0.923700  0.659800  1.0  1.5212
  Cd  Cd3  1  0.009860  0.379020  0.128320  1.0  1.0274
  Cd  Cd4  1  0.990140  0.620980  0.871680  1.0  1.0277
  Cd  Cd5  1  0.000000  0.000000  0.000000  1.0  0.979
  Cd  Cd6  1  0.500000  0.500000  0.500000  1.0  0.9974
  Mo  Mo7  1  0.051470  0.019090  0.171630  1.0  1.6657
  Mo  Mo8  1  0.805250  0.851040  0.951420  1.0  1.2681
  Mo  Mo9  1  0.919290  0.755030  0.045530  1.0  1.2481
  Mo  Mo10  1  0.208480  0.764080  0.055610  1.0  1.2328
  Mo  Mo11  1  0.312810  0.861590  0.963600  1.0  1.2725
  Mo  Mo12  1  0.836560  0.011240  0.168850  1.0  1.7462
  Mo  Mo13  1  0.802250  0.479740  0.411870  1.0  1.1888
  Mo  Mo14  1  0.567700  0.521110  0.317190  1.0  1.3027
  Mo  Mo15  1  0.382690  0.647710  0.343430  1.0  1.2899
  Mo  Mo16  1  0.365030  0.770690  0.473670  1.0  1.316
  Mo  Mo17  1  0.539040  0.738570  0.542290  1.0  1.2433
  Mo  Mo18  1  0.789990  0.568630  0.510330  1.0  1.1761
  Mo  Mo19  1  0.948530  0.980910  0.828370  1.0  1.6735
  Mo  Mo20  1  0.194750  0.148960  0.048580  1.0  1.2691
  Mo  Mo21  1  0.080710  0.244970  0.954470  1.0  1.2451
  Mo  Mo22  1  0.791520  0.235920  0.944390  1.0  1.2399
  Mo  Mo23  1  0.687190  0.138410  0.036400  1.0  1.2753
  Mo  Mo24  1  0.163440  0.988760  0.831150  1.0  1.7443
  Mo  Mo25  1  0.197750  0.520260  0.588130  1.0  1.1938
  Mo  Mo26  1  0.432300  0.478890  0.682810  1.0  1.2947
  Mo  Mo27  1  0.617310  0.352290  0.656570  1.0  1.2896
  Mo  Mo28  1  0.634970  0.229310  0.526330  1.0  1.3172
  Mo  Mo29  1  0.460960  0.261430  0.457710  1.0  1.2477
  Mo  Mo30  1  0.210010  0.431370  0.489670  1.0  1.1751
  P  P31  1  0.902240  0.216310  0.090880  1.0  1.8212
  P  P32  1  0.188400  0.180990  0.199370  1.0  1.8911
  P  P33  1  0.427560  0.852620  0.812400  1.0  1.836
  P  P34  1  0.104450  0.577000  0.110820  1.0  1.7255
  P  P35  1  0.624950  0.699230  0.388130  1.0  1.7528
  P  P36  1  0.837170  0.512340  0.250120  1.0  1.7275
  P  P37  1  0.255330  0.870750  0.339850  1.0  1.6708
  P  P38  1  0.802080  0.781970  0.545650  1.0  1.8545
  P  P39  1  0.097760  0.783690  0.909120  1.0  1.8218
  P  P40  1  0.811600  0.819010  0.800630  1.0  1.8916
  P  P41  1  0.572440  0.147380  0.187600  1.0  1.8422
  P  P42  1  0.895550  0.423000  0.889180  1.0  1.7236
  P  P43  1  0.375050  0.300770  0.611870  1.0  1.7531
  P  P44  1  0.162830  0.487660  0.749880  1.0  1.728
  P  P45  1  0.744670  0.129250  0.660150  1.0  1.6719
  P  P46  1  0.197920  0.218030  0.454350  1.0  1.8492
  H  H47  1  0.409300  0.984700  0.405000  1.0  0.2445
  H  H48  1  0.409600  0.082000  0.404700  1.0  0.2282
  H  H49  1  0.764700  0.947100  0.371300  1.0  0.2788
  H  H50  1  0.739400  0.902700  0.436100  1.0  0.2609
  H  H51  1  0.691400  0.879100  0.382500  1.0  0.2433
  H  H52  1  0.586200  0.875200  0.780000  1.0  0.3833
  H  H53  1  0.195600  0.976300  0.077100  1.0  0.4117
  H  H54  1  0.017300  0.844400  0.104600  1.0  0.452
  H  H55  1  0.224300  0.034600  0.929200  1.0  0.4189
  H  H56  1  0.925100  0.608500  0.204400  1.0  0.4329
  H  H57  1  0.105800  0.906300  0.384900  1.0  0.4787
  H  H58  1  0.646000  0.392400  0.403000  1.0  0.4152
  H  H59  1  0.285200  0.637000  0.453400  1.0  0.4692
  H  H60  1  0.618500  0.572700  0.591100  1.0  0.4277
  H  H61  1  0.947800  0.561100  0.428200  1.0  0.4367
  H  H62  1  0.551400  0.969100  0.328700  1.0  0.0992
  H  H63  1  0.550000  0.076500  0.326500  1.0  0.0992
  H  H64  1  0.573700  0.980100  0.446600  1.0  0.0918
  H  H65  1  0.642800  0.053300  0.410000  1.0  0.1046
  H  H66  1  0.590700  0.015300  0.595000  1.0  0.2432
  H  H67  1  0.590400  0.918000  0.595300  1.0  0.2267
  H  H68  1  0.235300  0.052900  0.628700  1.0  0.2782
  H  H69  1  0.260600  0.097300  0.563900  1.0  0.2628
  H  H70  1  0.308600  0.120900  0.617500  1.0  0.2463
  H  H71  1  0.413800  0.124800  0.220000  1.0  0.3811
  H  H72  1  0.804400  0.023700  0.922900  1.0  0.4126
  H  H73  1  0.982700  0.155600  0.895400  1.0  0.4526
  H  H74  1  0.775700  0.965400  0.070800  1.0  0.4197
  H  H75  1  0.074900  0.391500  0.795600  1.0  0.4307
  H  H76  1  0.894200  0.093700  0.615100  1.0  0.4787
  H  H77  1  0.354000  0.607600  0.597000  1.0  0.4132
  H  H78  1  0.714800  0.363000  0.546600  1.0  0.4684
  H  H79  1  0.381500  0.427300  0.408900  1.0  0.4257
  H  H80  1  0.052200  0.438900  0.571800  1.0  0.4365
  H  H81  1  0.448600  0.030900  0.671300  1.0  0.1006
  H  H82  1  0.450000  0.923500  0.673500  1.0  0.0994
  H  H83  1  0.426300  0.019900  0.553400  1.0  0.0918
  H  H84  1  0.357200  0.946700  0.590000  1.0  0.1005
  C  C85  1  0.535500  0.020700  0.354400  1.0  0.0303
  C  C86  1  0.616500  0.996900  0.406300  1.0  0.0681
  C  C87  1  0.464500  0.979300  0.645600  1.0  0.0243
  C  C88  1  0.383500  0.003100  0.593700  1.0  0.0699
  N  N89  1  0.414800  0.038000  0.378600  1.0  -0.5255
  N  N90  1  0.711400  0.925200  0.398300  1.0  -0.2424
  N  N91  1  0.585200  0.962000  0.621400  1.0  -0.527
  N  N92  1  0.288600  0.074800  0.601700  1.0  -0.2467
  Cl  Cl93  1  0.834000  0.904900  0.210800  1.0  -0.1168
  Cl  Cl94  1  0.102500  0.914200  0.213400  1.0  -0.1238
  Cl  Cl95  1  0.166000  0.095100  0.789200  1.0  -0.1149
  Cl  Cl96  1  0.897500  0.085800  0.786600  1.0  -0.1228
  O  O97  1  0.022100  0.154600  0.107900  1.0  -0.8184
  O  O98  1  0.912200  0.249900  0.018100  1.0  -0.8701
  O  O99  1  0.814600  0.152400  0.104500  1.0  -0.8502
  O  O100  1  0.870100  0.297200  0.130500  1.0  -0.7848
  O  O101  1  0.132900  0.094500  0.220400  1.0  -0.7617
  O  O102  1  0.245600  0.177300  0.130600  1.0  -0.771
  O  O103  1  0.101500  0.273400  0.203400  1.0  -0.8068
  O  O104  1  0.282600  0.172300  0.244600  1.0  -0.8017
  O  O105  1  0.002700  0.617300  0.066800  1.0  -0.7414
  O  O106  1  0.206500  0.622100  0.079400  1.0  -0.7267
  O  O107  1  0.138900  0.471000  0.108400  1.0  -0.7498
  O  O108  1  0.067300  0.602500  0.178200  1.0  -0.7643
  O  O109  1  0.422600  0.827900  0.885900  1.0  -0.8017
  O  O110  1  0.314600  0.918000  0.790700  1.0  -0.7922
  O  O111  1  0.454500  0.762900  0.781000  1.0  -0.6535
  O  O112  1  0.522500  0.910300  0.791600  1.0  -0.6026
  O  O113  1  0.195900  0.016000  0.102300  1.0  -0.81
  O  O114  1  0.871200  0.715800  0.970300  1.0  -0.7876
  O  O115  1  0.038700  0.786800  0.098600  1.0  -0.892
  O  O116  1  0.328200  0.726700  0.988900  1.0  -0.679
  O  O117  1  0.262700  0.994500  0.905500  1.0  -0.8595
  O  O118  1  0.911300  0.074600  0.220200  1.0  -0.642
  O  O119  1  0.890700  0.889900  0.011800  1.0  -0.8383
  O  O120  1  0.168900  0.897400  0.017100  1.0  -0.8589
  O  O121  1  0.971900  0.980900  0.106900  1.0  -0.829
  O  O122  1  0.670000  0.600900  0.364300  1.0  -0.8565
  O  O123  1  0.492000  0.719100  0.390600  1.0  -0.869
  O  O124  1  0.658000  0.690400  0.457800  1.0  -0.8243
  O  O125  1  0.673000  0.774800  0.344700  1.0  -0.6579
  O  O126  1  0.876300  0.496300  0.318300  1.0  -0.7972
  O  O127  1  0.708400  0.517200  0.251400  1.0  -0.7526
  O  O128  1  0.907000  0.435700  0.214000  1.0  -0.8452
  O  O129  1  0.854600  0.611600  0.217300  1.0  -0.6041
  O  O130  1  0.320700  0.786000  0.306000  1.0  -0.7614
  O  O131  1  0.314400  0.875200  0.400300  1.0  -0.8121
  O  O132  1  0.279200  0.960400  0.294200  1.0  -0.7329
  O  O133  1  0.130300  0.872300  0.354900  1.0  -0.5463
  O  O134  1  0.668400  0.808800  0.547200  1.0  -0.755
  O  O135  1  0.846700  0.681600  0.526400  1.0  -0.8077
  O  O136  1  0.851300  0.850100  0.494700  1.0  -0.6469
  O  O137  1  0.163500  0.213900  0.388400  1.0  -0.8306
  O  O138  1  0.464900  0.535200  0.395700  1.0  -0.8443
  O  O139  1  0.449500  0.653300  0.520200  1.0  -0.8381
  O  O140  1  0.683700  0.420300  0.372500  1.0  -0.8454
  O  O141  1  0.503900  0.645300  0.273100  1.0  -0.6758
  O  O142  1  0.291200  0.686700  0.427900  1.0  -0.873
  O  O143  1  0.474800  0.845700  0.481700  1.0  -0.6186
  O  O144  1  0.654900  0.616300  0.578300  1.0  -0.8615
  O  O145  1  0.875300  0.577800  0.427400  1.0  -0.8793
  O  O146  1  0.688800  0.493800  0.486200  1.0  -0.8212
  O  O147  1  0.977900  0.845400  0.892100  1.0  -0.818
  O  O148  1  0.087800  0.750100  0.981900  1.0  -0.8703
  O  O149  1  0.185400  0.847600  0.895500  1.0  -0.8492
  O  O150  1  0.129900  0.702800  0.869500  1.0  -0.785
  O  O151  1  0.867100  0.905500  0.779600  1.0  -0.7616
  O  O152  1  0.754400  0.822700  0.869400  1.0  -0.7706
  O  O153  1  0.898500  0.726600  0.796600  1.0  -0.8088
  O  O154  1  0.717400  0.827700  0.755400  1.0  -0.7982
  O  O155  1  0.997300  0.382700  0.933200  1.0  -0.7452
  O  O156  1  0.793500  0.377900  0.920600  1.0  -0.723
  O  O157  1  0.861100  0.529000  0.891600  1.0  -0.7491
  O  O158  1  0.932700  0.397500  0.821800  1.0  -0.7625
  O  O159  1  0.577400  0.172100  0.114100  1.0  -0.8019
  O  O160  1  0.685400  0.082000  0.209300  1.0  -0.7934
  O  O161  1  0.545500  0.237100  0.219000  1.0  -0.6538
  O  O162  1  0.477500  0.089700  0.208400  1.0  -0.6021
  O  O163  1  0.804100  0.984000  0.897700  1.0  -0.8158
  O  O164  1  0.128800  0.284200  0.029700  1.0  -0.7883
  O  O165  1  0.961300  0.213200  0.901400  1.0  -0.8883
  O  O166  1  0.671800  0.273300  0.011100  1.0  -0.6764
  O  O167  1  0.737300  0.005500  0.094500  1.0  -0.8571
  O  O168  1  0.088700  0.925400  0.779800  1.0  -0.6452
  O  O169  1  0.109300  0.110100  0.988200  1.0  -0.8405
  O  O170  1  0.831100  0.102600  0.982900  1.0  -0.8569
  O  O171  1  0.028100  0.019100  0.893100  1.0  -0.8259
  O  O172  1  0.330000  0.399100  0.635700  1.0  -0.8594
  O  O173  1  0.508000  0.280900  0.609400  1.0  -0.8717
  O  O174  1  0.342000  0.309600  0.542200  1.0  -0.8215
  O  O175  1  0.327000  0.225200  0.655300  1.0  -0.6573
  O  O176  1  0.123700  0.503700  0.681700  1.0  -0.7979
  O  O177  1  0.291600  0.482800  0.748600  1.0  -0.753
  O  O178  1  0.093000  0.564300  0.786000  1.0  -0.8469
  O  O179  1  0.145400  0.388400  0.782700  1.0  -0.6004
  O  O180  1  0.679300  0.214000  0.694000  1.0  -0.7613
  O  O181  1  0.685600  0.124800  0.599700  1.0  -0.8118
  O  O182  1  0.720800  0.039600  0.705800  1.0  -0.7299
  O  O183  1  0.869700  0.127700  0.645100  1.0  -0.543
  O  O184  1  0.331600  0.191200  0.452800  1.0  -0.7552
  O  O185  1  0.153300  0.318400  0.473600  1.0  -0.8073
  O  O186  1  0.148700  0.149900  0.505300  1.0  -0.64
  O  O187  1  0.836500  0.786100  0.611600  1.0  -0.833
  O  O188  1  0.535100  0.464800  0.604300  1.0  -0.844
  O  O189  1  0.550500  0.346700  0.479800  1.0  -0.8385
  O  O190  1  0.316300  0.579700  0.627500  1.0  -0.8432
  O  O191  1  0.496100  0.354700  0.726900  1.0  -0.6712
  O  O192  1  0.708800  0.313300  0.572100  1.0  -0.8688
  O  O193  1  0.525200  0.154300  0.518300  1.0  -0.6181
  O  O194  1  0.345100  0.383700  0.421700  1.0  -0.8577
  O  O195  1  0.124700  0.422200  0.572600  1.0  -0.8823
  O  O196  1  0.311200  0.506200  0.513800  1.0  -0.8207
