# generated using pymatgen
data_UP2H2(CO)6
_symmetry_space_group_name_H-M   'P 1'
_cell_length_a   7.80100000
_cell_length_b   20.35390000
_cell_length_c   20.35390000
_cell_angle_alpha   90.00000000
_cell_angle_beta   90.00000000
_cell_angle_gamma   90.00000000
_symmetry_Int_Tables_number   1
_chemical_formula_structural   UP2H2(CO)6
_chemical_formula_sum   'U8 P16 H16 C48 O48'
_cell_volume   3231.80799388
_cell_formula_units_Z   8
loop_
 _symmetry_equiv_pos_site_id
 _symmetry_equiv_pos_as_xyz
  1  'x, y, z'
loop_
 _atom_site_type_symbol
 _atom_site_label
 _atom_site_symmetry_multiplicity
 _atom_site_fract_x
 _atom_site_fract_y
 _atom_site_fract_z
 _atom_site_occupancy
 _atom_site_charge
  U  U1  1  0.791620  0.597420  0.750000  1.0  2.4704
  U  U2  1  0.791620  0.902580  0.750000  1.0  2.4709
  U  U3  1  0.291620  0.750000  0.597420  1.0  2.4706
  U  U4  1  0.291620  0.750000  0.902580  1.0  2.4694
  U  U5  1  0.208380  0.402580  0.250000  1.0  2.4715
  U  U6  1  0.208380  0.097420  0.250000  1.0  2.4712
  U  U7  1  0.708380  0.250000  0.097420  1.0  2.4713
  U  U8  1  0.708380  0.250000  0.402580  1.0  2.47
  P  P9  1  0.431500  0.574390  0.864270  1.0  1.6541
  P  P10  1  0.431500  0.925610  0.635730  1.0  1.6538
  P  P11  1  0.931500  0.635730  0.574390  1.0  1.6546
  P  P12  1  0.931500  0.864270  0.925610  1.0  1.654
  P  P13  1  0.568500  0.425610  0.364270  1.0  1.6542
  P  P14  1  0.568500  0.074390  0.135730  1.0  1.6538
  P  P15  1  0.068500  0.364270  0.074390  1.0  1.6534
  P  P16  1  0.068500  0.135730  0.425610  1.0  1.655
  P  P17  1  0.568500  0.425610  0.135730  1.0  1.6537
  P  P18  1  0.568500  0.074390  0.364270  1.0  1.6539
  P  P19  1  0.068500  0.364270  0.425610  1.0  1.6538
  P  P20  1  0.068500  0.135730  0.074390  1.0  1.6544
  P  P21  1  0.431500  0.574390  0.635730  1.0  1.6539
  P  P22  1  0.431500  0.925610  0.864270  1.0  1.6544
  P  P23  1  0.931500  0.635730  0.925610  1.0  1.6551
  P  P24  1  0.931500  0.864270  0.574390  1.0  1.6536
  H  H25  1  0.419000  0.609000  0.998500  1.0  0.0897
  H  H26  1  0.419000  0.891000  0.501500  1.0  0.0896
  H  H27  1  0.919000  0.501500  0.609000  1.0  0.0893
  H  H28  1  0.919000  0.998500  0.891000  1.0  0.0898
  H  H29  1  0.581000  0.391000  0.498500  1.0  0.0895
  H  H30  1  0.581000  0.109000  0.001500  1.0  0.0891
  H  H31  1  0.081000  0.498500  0.109000  1.0  0.0892
  H  H32  1  0.081000  0.001500  0.391000  1.0  0.0899
  H  H33  1  0.581000  0.391000  0.001500  1.0  0.0892
  H  H34  1  0.581000  0.109000  0.498500  1.0  0.0896
  H  H35  1  0.081000  0.498500  0.391000  1.0  0.0899
  H  H36  1  0.081000  0.001500  0.109000  1.0  0.0889
  H  H37  1  0.419000  0.609000  0.501500  1.0  0.0897
  H  H38  1  0.419000  0.891000  0.998500  1.0  0.089
  H  H39  1  0.919000  0.501500  0.891000  1.0  0.0904
  H  H40  1  0.919000  0.998500  0.609000  1.0  0.0889
  C  C41  1  0.467100  0.532100  0.940700  1.0  -0.3254
  C  C42  1  0.510500  0.466100  0.942000  1.0  0.0627
  C  C43  1  0.453800  0.564300  0.998500  1.0  0.0159
  C  C44  1  0.467100  0.967900  0.559300  1.0  -0.3239
  C  C45  1  0.510500  0.033900  0.558000  1.0  0.0642
  C  C46  1  0.453800  0.935700  0.501500  1.0  0.0148
  C  C47  1  0.967100  0.559300  0.532100  1.0  -0.323
  C  C48  1  0.010500  0.558000  0.466100  1.0  0.0654
  C  C49  1  0.953800  0.501500  0.564300  1.0  0.0179
  C  C50  1  0.967100  0.940700  0.967900  1.0  -0.3231
  C  C51  1  0.010500  0.942000  0.033900  1.0  0.0646
  C  C52  1  0.953800  0.998500  0.935700  1.0  0.0167
  C  C53  1  0.532900  0.467900  0.440700  1.0  -0.3254
  C  C54  1  0.489500  0.533900  0.442000  1.0  0.0642
  C  C55  1  0.546200  0.435700  0.498500  1.0  0.0167
  C  C56  1  0.532900  0.032100  0.059300  1.0  -0.3245
  C  C57  1  0.489500  0.966100  0.058000  1.0  0.064
  C  C58  1  0.546200  0.064300  0.001500  1.0  0.0176
  C  C59  1  0.032900  0.440700  0.032100  1.0  -0.3234
  C  C60  1  0.989500  0.442000  0.966100  1.0  0.066
  C  C61  1  0.046200  0.498500  0.064300  1.0  0.019
  C  C62  1  0.032900  0.059300  0.467900  1.0  -0.3232
  C  C63  1  0.989500  0.058000  0.533900  1.0  0.0651
  C  C64  1  0.046200  0.001500  0.435700  1.0  0.018
  C  C65  1  0.532900  0.467900  0.059300  1.0  -0.3242
  C  C66  1  0.489500  0.533900  0.058000  1.0  0.0645
  C  C67  1  0.546200  0.435700  0.001500  1.0  0.0146
  C  C68  1  0.532900  0.032100  0.440700  1.0  -0.3255
  C  C69  1  0.489500  0.966100  0.442000  1.0  0.0631
  C  C70  1  0.546200  0.064300  0.498500  1.0  0.0159
  C  C71  1  0.032900  0.440700  0.467900  1.0  -0.3232
  C  C72  1  0.989500  0.442000  0.533900  1.0  0.0647
  C  C73  1  0.046200  0.498500  0.435700  1.0  0.0163
  C  C74  1  0.032900  0.059300  0.032100  1.0  -0.3232
  C  C75  1  0.989500  0.058000  0.966100  1.0  0.0656
  C  C76  1  0.046200  0.001500  0.064300  1.0  0.0176
  C  C77  1  0.467100  0.532100  0.559300  1.0  -0.3242
  C  C78  1  0.510500  0.466100  0.558000  1.0  0.0639
  C  C79  1  0.453800  0.564300  0.501500  1.0  0.0139
  C  C80  1  0.467100  0.967900  0.940700  1.0  -0.3252
  C  C81  1  0.510500  0.033900  0.942000  1.0  0.0639
  C  C82  1  0.453800  0.935700  0.998500  1.0  0.0136
  C  C83  1  0.967100  0.559300  0.967900  1.0  -0.3231
  C  C84  1  0.010500  0.558000  0.033900  1.0  0.0649
  C  C85  1  0.953800  0.501500  0.935700  1.0  0.015
  C  C86  1  0.967100  0.940700  0.532100  1.0  -0.3233
  C  C87  1  0.010500  0.942000  0.466100  1.0  0.0658
  C  C88  1  0.953800  0.998500  0.564300  1.0  0.015
  O  O89  1  0.581500  0.560600  0.820100  1.0  -0.9076
  O  O90  1  0.398400  0.645100  0.878300  1.0  -1.0748
  O  O91  1  0.266300  0.543400  0.833600  1.0  -0.7568
  O  O92  1  0.581500  0.939400  0.679900  1.0  -0.9064
  O  O93  1  0.398400  0.854900  0.621700  1.0  -1.0734
  O  O94  1  0.266300  0.956600  0.666400  1.0  -0.7498
  O  O95  1  0.081500  0.679900  0.560600  1.0  -0.9081
  O  O96  1  0.898400  0.621700  0.645100  1.0  -1.0749
  O  O97  1  0.766300  0.666400  0.543400  1.0  -0.7518
  O  O98  1  0.081500  0.820100  0.939400  1.0  -0.9081
  O  O99  1  0.898400  0.878300  0.854900  1.0  -1.0754
  O  O100  1  0.766300  0.833600  0.956600  1.0  -0.7498
  O  O101  1  0.418500  0.439400  0.320100  1.0  -0.906
  O  O102  1  0.601600  0.354900  0.378300  1.0  -1.0739
  O  O103  1  0.733700  0.456600  0.333600  1.0  -0.7582
  O  O104  1  0.418500  0.060600  0.179900  1.0  -0.9064
  O  O105  1  0.601600  0.145100  0.121700  1.0  -1.0747
  O  O106  1  0.733700  0.043400  0.166400  1.0  -0.7549
  O  O107  1  0.918500  0.320100  0.060600  1.0  -0.9076
  O  O108  1  0.101600  0.378300  0.145100  1.0  -1.0752
  O  O109  1  0.233700  0.333600  0.043400  1.0  -0.7516
  O  O110  1  0.918500  0.179900  0.439400  1.0  -0.9074
  O  O111  1  0.101600  0.121700  0.354900  1.0  -1.0768
  O  O112  1  0.233700  0.166400  0.456600  1.0  -0.7567
  O  O113  1  0.418500  0.439400  0.179900  1.0  -0.9058
  O  O114  1  0.601600  0.354900  0.121700  1.0  -1.0734
  O  O115  1  0.733700  0.456600  0.166400  1.0  -0.7583
  O  O116  1  0.418500  0.060600  0.320100  1.0  -0.9065
  O  O117  1  0.601600  0.145100  0.378300  1.0  -1.0747
  O  O118  1  0.733700  0.043400  0.333600  1.0  -0.7556
  O  O119  1  0.918500  0.320100  0.439400  1.0  -0.9068
  O  O120  1  0.101600  0.378300  0.354900  1.0  -1.0753
  O  O121  1  0.233700  0.333600  0.456600  1.0  -0.7587
  O  O122  1  0.918500  0.179900  0.060600  1.0  -0.9069
  O  O123  1  0.101600  0.121700  0.145100  1.0  -1.0748
  O  O124  1  0.233700  0.166400  0.043400  1.0  -0.7502
  O  O125  1  0.581500  0.560600  0.679900  1.0  -0.9072
  O  O126  1  0.398400  0.645100  0.621700  1.0  -1.0738
  O  O127  1  0.266300  0.543400  0.666400  1.0  -0.7563
  O  O128  1  0.581500  0.939400  0.820100  1.0  -0.9071
  O  O129  1  0.398400  0.854900  0.878300  1.0  -1.073
  O  O130  1  0.266300  0.956600  0.833600  1.0  -0.7517
  O  O131  1  0.081500  0.679900  0.939400  1.0  -0.9069
  O  O132  1  0.898400  0.621700  0.854900  1.0  -1.076
  O  O133  1  0.766300  0.666400  0.956600  1.0  -0.7494
  O  O134  1  0.081500  0.820100  0.560600  1.0  -0.9072
  O  O135  1  0.898400  0.878300  0.645100  1.0  -1.0744
  O  O136  1  0.766300  0.833600  0.543400  1.0  -0.7537
