# generated using pymatgen
data_ZnH16C20(NO2)2
_symmetry_space_group_name_H-M   'P 1'
_cell_length_a   9.47920000
_cell_length_b   11.36580000
_cell_length_c   22.12650000
_cell_angle_alpha   102.43400000
_cell_angle_beta   90.00000000
_cell_angle_gamma   114.64600000
_symmetry_Int_Tables_number   1
_chemical_formula_structural   ZnH16C20(NO2)2
_chemical_formula_sum   'Zn4 H64 C80 N8 O16'
_cell_volume   2105.03723025
_cell_formula_units_Z   4
loop_
 _symmetry_equiv_pos_site_id
 _symmetry_equiv_pos_as_xyz
  1  'x, y, z'
loop_
 _atom_site_type_symbol
 _atom_site_label
 _atom_site_symmetry_multiplicity
 _atom_site_fract_x
 _atom_site_fract_y
 _atom_site_fract_z
 _atom_site_occupancy
 _atom_site_charge
  Zn  Zn1  1  0.078940  0.666500  0.620110  1.0  0.863
  Zn  Zn2  1  0.412440  0.333500  0.879890  1.0  0.8604
  Zn  Zn3  1  0.921060  0.333500  0.379890  1.0  0.8597
  Zn  Zn4  1  0.587560  0.666500  0.120110  1.0  0.8617
  H  H5  1  0.963400  0.395000  0.545900  1.0  0.0791
  H  H6  1  0.017500  0.214800  0.524200  1.0  0.1094
  H  H7  1  0.387500  0.411600  0.648000  1.0  0.1317
  H  H8  1  0.325000  0.588000  0.666500  1.0  0.0764
  H  H9  1  0.215000  0.125200  0.527900  1.0  0.1043
  H  H10  1  0.353500  0.198000  0.580800  1.0  0.0885
  H  H11  1  0.166500  0.989200  0.594600  1.0  0.1024
  H  H12  1  0.044800  0.050400  0.604800  1.0  0.0996
  H  H13  1  0.140500  0.266000  0.800700  1.0  0.0745
  H  H14  1  0.039200  0.171000  0.701400  1.0  0.135
  H  H15  1  0.408400  0.097400  0.670500  1.0  0.1213
  H  H16  1  0.500400  0.192600  0.770500  1.0  0.0914
  H  H17  1  0.587100  0.723800  0.544700  1.0  0.0976
  H  H18  1  0.645600  0.388000  0.516700  1.0  0.1003
  H  H19  1  0.602600  0.038600  0.598200  1.0  0.0983
  H  H20  1  0.262200  0.823000  0.463400  1.0  0.1016
  H  H21  1  0.568400  0.605000  0.954100  1.0  0.0789
  H  H22  1  0.802700  0.785200  0.975800  1.0  0.1091
  H  H23  1  0.975900  0.588400  0.852000  1.0  0.1316
  H  H24  1  0.737000  0.412000  0.833500  1.0  0.0761
  H  H25  1  0.089800  0.874800  0.972100  1.0  0.1045
  H  H26  1  0.155500  0.802000  0.919200  1.0  0.0883
  H  H27  1  0.177300  0.010800  0.905400  1.0  0.1019
  H  H28  1  0.994400  0.949600  0.895200  1.0  0.1002
  H  H29  1  0.874500  0.734000  0.699300  1.0  0.0748
  H  H30  1  0.868200  0.829000  0.798600  1.0  0.1342
  H  H31  1  0.311000  0.902600  0.829500  1.0  0.121
  H  H32  1  0.307800  0.807400  0.729500  1.0  0.0916
  H  H33  1  0.863300  0.276200  0.955300  1.0  0.097
  H  H34  1  0.257600  0.612000  0.983300  1.0  0.1001
  H  H35  1  0.564000  0.961400  0.901800  1.0  0.0982
  H  H36  1  0.439200  0.177000  0.036600  1.0  0.102
  H  H37  1  0.036600  0.605000  0.454100  1.0  0.0786
  H  H38  1  0.982500  0.785200  0.475800  1.0  0.1087
  H  H39  1  0.612500  0.588400  0.352000  1.0  0.1316
  H  H40  1  0.675000  0.412000  0.333500  1.0  0.0761
  H  H41  1  0.785000  0.874800  0.472100  1.0  0.1043
  H  H42  1  0.646500  0.802000  0.419200  1.0  0.0881
  H  H43  1  0.833500  0.010800  0.405400  1.0  0.1028
  H  H44  1  0.955200  0.949600  0.395200  1.0  0.0941
  H  H45  1  0.859500  0.734000  0.199300  1.0  0.0749
  H  H46  1  0.960800  0.829000  0.298600  1.0  0.1364
  H  H47  1  0.591600  0.902600  0.329500  1.0  0.12
  H  H48  1  0.499600  0.807400  0.229500  1.0  0.0919
  H  H49  1  0.412900  0.276200  0.455300  1.0  0.097
  H  H50  1  0.354400  0.612000  0.483300  1.0  0.1003
  H  H51  1  0.397400  0.961400  0.401800  1.0  0.0983
  H  H52  1  0.737800  0.177000  0.536600  1.0  0.1019
  H  H53  1  0.431600  0.395000  0.045900  1.0  0.0788
  H  H54  1  0.197300  0.214800  0.024200  1.0  0.1092
  H  H55  1  0.024100  0.411600  0.148000  1.0  0.1315
  H  H56  1  0.263000  0.588000  0.166500  1.0  0.0765
  H  H57  1  0.910200  0.125200  0.027900  1.0  0.1043
  H  H58  1  0.844500  0.198000  0.080800  1.0  0.0884
  H  H59  1  0.822700  0.989200  0.094600  1.0  0.1029
  H  H60  1  0.005600  0.050400  0.104800  1.0  0.094
  H  H61  1  0.125500  0.266000  0.300700  1.0  0.075
  H  H62  1  0.131800  0.171000  0.201400  1.0  0.1365
  H  H63  1  0.689000  0.097400  0.170500  1.0  0.1208
  H  H64  1  0.692200  0.192600  0.270500  1.0  0.0918
  H  H65  1  0.136700  0.723800  0.044700  1.0  0.0975
  H  H66  1  0.742400  0.388000  0.016700  1.0  0.1003
  H  H67  1  0.436000  0.038600  0.098200  1.0  0.0986
  H  H68  1  0.560800  0.823000  0.963400  1.0  0.1017
  C  C69  1  0.050210  0.399020  0.567380  1.0  0.1899
  C  C70  1  0.082290  0.289980  0.554210  1.0  -0.22
  C  C71  1  0.207990  0.289580  0.584370  1.0  0.1648
  C  C72  1  0.299010  0.404820  0.626530  1.0  -0.2376
  C  C73  1  0.260420  0.510840  0.637470  1.0  0.1738
  C  C74  1  0.242320  0.169240  0.571700  1.0  -0.1857
  C  C75  1  0.154920  0.071040  0.609580  1.0  -0.1932
  C  C76  1  0.195120  0.230840  0.773240  1.0  0.1924
  C  C77  1  0.134660  0.175320  0.714630  1.0  -0.2411
  C  C78  1  0.213730  0.125460  0.674570  1.0  0.2029
  C  C79  1  0.351940  0.132480  0.696990  1.0  -0.2105
  C  C80  1  0.406000  0.188600  0.756040  1.0  0.1702
  C  C81  1  0.551560  0.633320  0.526560  1.0  -0.0558
  C  C82  1  0.639720  0.567040  0.536920  1.0  -0.1328
  C  C83  1  0.586960  0.433120  0.509980  1.0  -0.0433
  C  C84  1  0.791740  0.641280  0.575960  1.0  0.6623
  C  C85  1  0.560680  0.023160  0.557700  1.0  -0.069
  C  C86  1  0.418170  0.917340  0.536470  1.0  -0.1052
  C  C87  1  0.358180  0.894360  0.478690  1.0  -0.0736
  C  C88  1  0.326580  0.830760  0.576370  1.0  0.6595
  C  C89  1  0.651190  0.600980  0.932620  1.0  0.1911
  C  C90  1  0.792310  0.710020  0.945790  1.0  -0.2198
  C  C91  1  0.918410  0.710420  0.915630  1.0  0.1645
  C  C92  1  0.894190  0.595180  0.873470  1.0  -0.239
  C  C93  1  0.749580  0.489160  0.862530  1.0  0.1728
  C  C94  1  0.073080  0.830760  0.928300  1.0  -0.1869
  C  C95  1  0.083880  0.928960  0.890420  1.0  -0.1925
  C  C96  1  0.964280  0.769160  0.726760  1.0  0.1907
  C  C97  1  0.959340  0.824680  0.785370  1.0  -0.241
  C  C98  1  0.088270  0.874540  0.825430  1.0  0.2024
  C  C99  1  0.219460  0.867520  0.803010  1.0  -0.2106
  C  C100  1  0.217400  0.811400  0.743960  1.0  0.1705
  C  C101  1  0.918240  0.366680  0.973440  1.0  -0.0533
  C  C102  1  0.072680  0.432960  0.963080  1.0  -0.1339
  C  C103  1  0.153840  0.566880  0.990020  1.0  -0.0435
  C  C104  1  0.150460  0.358720  0.924040  1.0  0.6537
  C  C105  1  0.537520  0.976840  0.942300  1.0  -0.0683
  C  C106  1  0.500830  0.082660  0.963530  1.0  -0.1063
  C  C107  1  0.463820  0.105640  0.021310  1.0  -0.0758
  C  C108  1  0.495820  0.169240  0.923630  1.0  0.6594
  C  C109  1  0.949790  0.600980  0.432620  1.0  0.1904
  C  C110  1  0.917710  0.710020  0.445790  1.0  -0.2194
  C  C111  1  0.792010  0.710420  0.415630  1.0  0.1645
  C  C112  1  0.700990  0.595180  0.373470  1.0  -0.238
  C  C113  1  0.739580  0.489160  0.362530  1.0  0.1728
  C  C114  1  0.757680  0.830760  0.428300  1.0  -0.187
  C  C115  1  0.845080  0.928960  0.390420  1.0  -0.1931
  C  C116  1  0.804880  0.769160  0.226760  1.0  0.1904
  C  C117  1  0.865340  0.824680  0.285370  1.0  -0.241
  C  C118  1  0.786270  0.874540  0.325430  1.0  0.2033
  C  C119  1  0.648060  0.867520  0.303010  1.0  -0.2005
  C  C120  1  0.594000  0.811400  0.243960  1.0  0.1688
  C  C121  1  0.448440  0.366680  0.473440  1.0  -0.0534
  C  C122  1  0.360280  0.432960  0.463080  1.0  -0.1349
  C  C123  1  0.413040  0.566880  0.490020  1.0  -0.0438
  C  C124  1  0.208260  0.358720  0.424040  1.0  0.6618
  C  C125  1  0.439320  0.976840  0.442300  1.0  -0.0664
  C  C126  1  0.581830  0.082660  0.463530  1.0  -0.1047
  C  C127  1  0.641820  0.105640  0.521310  1.0  -0.0752
  C  C128  1  0.673420  0.169240  0.423630  1.0  0.6597
  C  C129  1  0.348810  0.399020  0.067380  1.0  0.1889
  C  C130  1  0.207690  0.289980  0.054210  1.0  -0.2199
  C  C131  1  0.081590  0.289580  0.084370  1.0  0.165
  C  C132  1  0.105810  0.404820  0.126530  1.0  -0.2385
  C  C133  1  0.250420  0.510840  0.137470  1.0  0.1731
  C  C134  1  0.926920  0.169240  0.071700  1.0  -0.1854
  C  C135  1  0.916120  0.071040  0.109580  1.0  -0.1939
  C  C136  1  0.035720  0.230840  0.273240  1.0  0.1916
  C  C137  1  0.040660  0.175320  0.214630  1.0  -0.2413
  C  C138  1  0.911730  0.125460  0.174570  1.0  0.2037
  C  C139  1  0.780540  0.132480  0.196990  1.0  -0.2001
  C  C140  1  0.782600  0.188600  0.256040  1.0  0.1689
  C  C141  1  0.081760  0.633320  0.026560  1.0  -0.0555
  C  C142  1  0.927320  0.567040  0.036920  1.0  -0.1339
  C  C143  1  0.846160  0.433120  0.009980  1.0  -0.0435
  C  C144  1  0.849540  0.641280  0.075960  1.0  0.6551
  C  C145  1  0.462480  0.023160  0.057700  1.0  -0.0676
  C  C146  1  0.499170  0.917340  0.036470  1.0  -0.1047
  C  C147  1  0.536180  0.894360  0.978690  1.0  -0.0744
  C  C148  1  0.504180  0.830760  0.076370  1.0  0.6592
  N  N149  1  0.136390  0.509660  0.609050  1.0  -0.3549
  N  N150  1  0.329770  0.238480  0.794380  1.0  -0.3522
  N  N151  1  0.626730  0.490340  0.890950  1.0  -0.3534
  N  N152  1  0.091290  0.761520  0.705620  1.0  -0.3555
  N  N153  1  0.863610  0.490340  0.390950  1.0  -0.3538
  N  N154  1  0.670230  0.761520  0.205620  1.0  -0.3553
  N  N155  1  0.373270  0.509660  0.109050  1.0  -0.355
  N  N156  1  0.908710  0.238480  0.294380  1.0  -0.3522
  O  O157  1  0.859550  0.569980  0.586500  1.0  -0.6274
  O  O158  1  0.844210  0.762200  0.595410  1.0  -0.5922
  O  O159  1  0.182370  0.761660  0.560030  1.0  -0.5955
  O  O160  1  0.390640  0.831640  0.623290  1.0  -0.5923
  O  O161  1  0.289570  0.430020  0.913500  1.0  -0.6292
  O  O162  1  0.082010  0.237800  0.904590  1.0  -0.5931
  O  O163  1  0.420710  0.238340  0.939970  1.0  -0.5947
  O  O164  1  0.559000  0.168360  0.876710  1.0  -0.5907
  O  O165  1  0.140450  0.430020  0.413500  1.0  -0.6284
  O  O166  1  0.155790  0.237800  0.404590  1.0  -0.592
  O  O167  1  0.817630  0.238340  0.439970  1.0  -0.5955
  O  O168  1  0.609360  0.168360  0.376710  1.0  -0.5915
  O  O169  1  0.710430  0.569980  0.086500  1.0  -0.6296
  O  O170  1  0.917990  0.762200  0.095410  1.0  -0.5914
  O  O171  1  0.579290  0.761660  0.060030  1.0  -0.595
  O  O172  1  0.441000  0.831640  0.123290  1.0  -0.591
