# generated using pymatgen
data_Cu3H64C78(BrN12)2
_symmetry_space_group_name_H-M   'P 1'
_cell_length_a   15.59700000
_cell_length_b   18.49200000
_cell_length_c   23.29500000
_cell_angle_alpha   91.82200000
_cell_angle_beta   90.00000000
_cell_angle_gamma   90.00000000
_symmetry_Int_Tables_number   1
_chemical_formula_structural   Cu3H64C78(BrN12)2
_chemical_formula_sum   'Cu6 H128 C156 Br4 N48'
_cell_volume   6715.34065039
_cell_formula_units_Z   2
loop_
 _symmetry_equiv_pos_site_id
 _symmetry_equiv_pos_as_xyz
  1  'x, y, z'
loop_
 _atom_site_type_symbol
 _atom_site_label
 _atom_site_symmetry_multiplicity
 _atom_site_fract_x
 _atom_site_fract_y
 _atom_site_fract_z
 _atom_site_occupancy
 _atom_site_charge
  Cu  Cu1  1  0.343020  0.797540  0.029770  1.0  0.2602
  Cu  Cu2  1  0.843020  0.702460  0.470230  1.0  0.2693
  Cu  Cu3  1  0.656980  0.202460  0.970230  1.0  0.2615
  Cu  Cu4  1  0.156980  0.297540  0.529770  1.0  0.2533
  Cu  Cu5  1  0.500000  0.000000  0.500000  1.0  0.4181
  Cu  Cu6  1  0.000000  0.500000  0.000000  1.0  0.4181
  H  H7  1  0.319400  0.853900  0.907000  1.0  0.0744
  H  H8  1  0.525600  0.870400  0.001100  1.0  0.0814
  H  H9  1  0.565300  0.896900  0.903800  1.0  0.1143
  H  H10  1  0.306100  0.919400  0.827700  1.0  0.1049
  H  H11  1  0.289700  0.939300  0.731400  1.0  0.1124
  H  H12  1  0.532900  0.881100  0.703000  1.0  0.1122
  H  H13  1  0.550500  0.864100  0.800700  1.0  0.1052
  H  H14  1  0.272400  0.903900  0.630500  1.0  0.1268
  H  H15  1  0.305400  0.948300  0.535000  1.0  0.096
  H  H16  1  0.515100  0.969700  0.627300  1.0  0.0936
  H  H17  1  0.236000  0.784000  0.144600  1.0  0.099
  H  H18  1  0.315500  0.628200  0.039200  1.0  0.0982
  H  H19  1  0.228800  0.571900  0.113000  1.0  0.1096
  H  H20  1  0.222300  0.733000  0.248700  1.0  0.1189
  H  H21  1  0.129200  0.716100  0.326500  1.0  0.1101
  H  H22  1  0.984200  0.585200  0.230900  1.0  0.1094
  H  H23  1  0.071600  0.607000  0.151200  1.0  0.0983
  H  H24  1  0.976100  0.738000  0.368400  1.0  0.0954
  H  H25  1  0.879200  0.552300  0.412900  1.0  0.0941
  H  H26  1  0.970300  0.527700  0.329400  1.0  0.1181
  H  H27  1  0.191700  0.742100  0.933200  1.0  0.097
  H  H28  1  0.065400  0.817900  0.916200  1.0  0.1297
  H  H29  1  0.209800  0.913900  0.035000  1.0  0.0921
  H  H30  1  0.145300  0.019500  0.004800  1.0  0.0971
  H  H31  1  0.949800  0.887000  0.971000  1.0  0.1028
  H  H32  1  0.639700  0.112400  0.550900  1.0  0.0849
  H  H33  1  0.394400  0.141700  0.527900  1.0  0.088
  H  H34  1  0.454400  0.259900  0.551600  1.0  0.1258
  H  H35  1  0.605300  0.297800  0.639700  1.0  0.1154
  H  H36  1  0.701400  0.394100  0.642400  1.0  0.1082
  H  H37  1  0.785700  0.335400  0.486800  1.0  0.1057
  H  H38  1  0.687300  0.240100  0.483100  1.0  0.1063
  H  H39  1  0.819400  0.646100  0.593000  1.0  0.0742
  H  H40  1  0.025600  0.629600  0.498900  1.0  0.0821
  H  H41  1  0.065300  0.603100  0.596200  1.0  0.1139
  H  H42  1  0.806100  0.580600  0.672300  1.0  0.1049
  H  H43  1  0.789700  0.560700  0.768600  1.0  0.1126
  H  H44  1  0.032900  0.618900  0.797000  1.0  0.1117
  H  H45  1  0.050500  0.635900  0.699300  1.0  0.1059
  H  H46  1  0.772400  0.596100  0.869500  1.0  0.127
  H  H47  1  0.805400  0.551700  0.965000  1.0  0.0965
  H  H48  1  0.015100  0.530300  0.872700  1.0  0.0939
  H  H49  1  0.736000  0.716000  0.355400  1.0  0.0986
  H  H50  1  0.815500  0.871800  0.460800  1.0  0.0973
  H  H51  1  0.728800  0.928100  0.387000  1.0  0.109
  H  H52  1  0.722300  0.767000  0.251300  1.0  0.1187
  H  H53  1  0.629200  0.783900  0.173500  1.0  0.1106
  H  H54  1  0.484200  0.914800  0.269100  1.0  0.1096
  H  H55  1  0.571600  0.893000  0.348800  1.0  0.0983
  H  H56  1  0.476100  0.762000  0.131600  1.0  0.0961
  H  H57  1  0.379200  0.947700  0.087100  1.0  0.0948
  H  H58  1  0.470300  0.972300  0.170600  1.0  0.1185
  H  H59  1  0.691700  0.757900  0.566800  1.0  0.0979
  H  H60  1  0.565400  0.682100  0.583800  1.0  0.1299
  H  H61  1  0.709800  0.586100  0.465000  1.0  0.092
  H  H62  1  0.645300  0.480500  0.495200  1.0  0.0971
  H  H63  1  0.449800  0.613000  0.529000  1.0  0.1032
  H  H64  1  0.139700  0.387600  0.949100  1.0  0.0851
  H  H65  1  0.894400  0.358300  0.972100  1.0  0.0862
  H  H66  1  0.954400  0.240100  0.948400  1.0  0.1258
  H  H67  1  0.105300  0.202200  0.860300  1.0  0.115
  H  H68  1  0.201400  0.105900  0.857600  1.0  0.1079
  H  H69  1  0.285700  0.164600  0.013200  1.0  0.1057
  H  H70  1  0.187300  0.259900  0.016900  1.0  0.1062
  H  H71  1  0.680600  0.146100  0.093000  1.0  0.0759
  H  H72  1  0.474400  0.129600  0.998900  1.0  0.0824
  H  H73  1  0.434700  0.103100  0.096200  1.0  0.1139
  H  H74  1  0.693900  0.080600  0.172300  1.0  0.1055
  H  H75  1  0.710300  0.060700  0.268600  1.0  0.1121
  H  H76  1  0.467100  0.118900  0.297000  1.0  0.1118
  H  H77  1  0.449500  0.135900  0.199300  1.0  0.105
  H  H78  1  0.727600  0.096100  0.369500  1.0  0.1266
  H  H79  1  0.694600  0.051700  0.465000  1.0  0.0962
  H  H80  1  0.484900  0.030300  0.372700  1.0  0.0918
  H  H81  1  0.764000  0.216000  0.855400  1.0  0.0988
  H  H82  1  0.684500  0.371800  0.960800  1.0  0.0973
  H  H83  1  0.771200  0.428100  0.887000  1.0  0.1086
  H  H84  1  0.777700  0.267000  0.751300  1.0  0.119
  H  H85  1  0.870800  0.283900  0.673500  1.0  0.1106
  H  H86  1  0.015800  0.414800  0.769100  1.0  0.1097
  H  H87  1  0.928400  0.393000  0.848800  1.0  0.0987
  H  H88  1  0.023900  0.262000  0.631600  1.0  0.0962
  H  H89  1  0.120800  0.447700  0.587100  1.0  0.0945
  H  H90  1  0.029700  0.472300  0.670600  1.0  0.1182
  H  H91  1  0.808300  0.257900  0.066800  1.0  0.0977
  H  H92  1  0.934600  0.182100  0.083800  1.0  0.1294
  H  H93  1  0.790200  0.086100  0.965000  1.0  0.0918
  H  H94  1  0.854700  0.980500  0.995200  1.0  0.0981
  H  H95  1  0.050200  0.113000  0.029000  1.0  0.1032
  H  H96  1  0.360300  0.887600  0.449100  1.0  0.0853
  H  H97  1  0.605600  0.858300  0.472100  1.0  0.0855
  H  H98  1  0.545600  0.740100  0.448400  1.0  0.1261
  H  H99  1  0.394700  0.702200  0.360300  1.0  0.115
  H  H100  1  0.298600  0.605900  0.357600  1.0  0.1079
  H  H101  1  0.214300  0.664600  0.513200  1.0  0.1057
  H  H102  1  0.312700  0.759900  0.516900  1.0  0.1068
  H  H103  1  0.180600  0.353900  0.407000  1.0  0.0761
  H  H104  1  0.974400  0.370400  0.501100  1.0  0.0816
  H  H105  1  0.934700  0.396900  0.403800  1.0  0.1137
  H  H106  1  0.193900  0.419400  0.327700  1.0  0.1056
  H  H107  1  0.210300  0.439300  0.231400  1.0  0.1122
  H  H108  1  0.967100  0.381100  0.203000  1.0  0.1119
  H  H109  1  0.949500  0.364100  0.300700  1.0  0.105
  H  H110  1  0.227600  0.403900  0.130500  1.0  0.1261
  H  H111  1  0.194600  0.448300  0.035000  1.0  0.0958
  H  H112  1  0.984900  0.469700  0.127300  1.0  0.0917
  H  H113  1  0.264000  0.284000  0.644600  1.0  0.099
  H  H114  1  0.184500  0.128200  0.539200  1.0  0.097
  H  H115  1  0.271200  0.071900  0.613000  1.0  0.1084
  H  H116  1  0.277700  0.233000  0.748700  1.0  0.1193
  H  H117  1  0.370800  0.216100  0.826500  1.0  0.1101
  H  H118  1  0.515800  0.085200  0.730900  1.0  0.1096
  H  H119  1  0.428400  0.107000  0.651200  1.0  0.0982
  H  H120  1  0.523900  0.238000  0.868400  1.0  0.0956
  H  H121  1  0.620800  0.052300  0.912900  1.0  0.0942
  H  H122  1  0.529700  0.027700  0.829400  1.0  0.118
  H  H123  1  0.308300  0.242100  0.433200  1.0  0.0969
  H  H124  1  0.434600  0.317900  0.416200  1.0  0.1295
  H  H125  1  0.290200  0.413900  0.535000  1.0  0.092
  H  H126  1  0.354700  0.519500  0.504800  1.0  0.0976
  H  H127  1  0.550200  0.387000  0.471000  1.0  0.1031
  H  H128  1  0.860300  0.612400  0.050900  1.0  0.0856
  H  H129  1  0.105600  0.641700  0.027900  1.0  0.0861
  H  H130  1  0.045600  0.759900  0.051600  1.0  0.1256
  H  H131  1  0.894700  0.797800  0.139700  1.0  0.1149
  H  H132  1  0.798600  0.894100  0.142400  1.0  0.1079
  H  H133  1  0.714300  0.835400  0.986800  1.0  0.1053
  H  H134  1  0.812700  0.740100  0.983100  1.0  0.1063
  C  C135  1  0.376000  0.860700  0.918500  1.0  0.0876
  C  C136  1  0.488700  0.869800  0.969700  1.0  0.0172
  C  C137  1  0.510700  0.884700  0.916300  1.0  -0.1803
  C  C138  1  0.430600  0.889600  0.823600  1.0  0.0702
  C  C139  1  0.352100  0.912300  0.802700  1.0  -0.1633
  C  C140  1  0.342300  0.924100  0.745500  1.0  -0.1546
  C  C141  1  0.410200  0.913600  0.709000  1.0  0.084
  C  C142  1  0.487800  0.889800  0.728400  1.0  -0.2066
  C  C143  1  0.497700  0.878800  0.786700  1.0  -0.1362
  C  C144  1  0.324800  0.921900  0.618300  1.0  -0.1768
  C  C145  1  0.343500  0.946900  0.565700  1.0  0.0024
  C  C146  1  0.459300  0.958700  0.616000  1.0  0.0801
  C  C147  1  0.245100  0.738800  0.127100  1.0  0.0796
  C  C148  1  0.288700  0.652700  0.069700  1.0  -0.0249
  C  C149  1  0.240500  0.621000  0.110000  1.0  -0.1399
  C  C150  1  0.156900  0.667000  0.194100  1.0  0.1031
  C  C151  1  0.174700  0.702900  0.244900  1.0  -0.1835
  C  C152  1  0.119000  0.692700  0.291200  1.0  -0.1686
  C  C153  1  0.049900  0.648400  0.284200  1.0  0.1226
  C  C154  1  0.031700  0.615400  0.234500  1.0  -0.1687
  C  C155  1  0.085400  0.627000  0.187200  1.0  -0.1536
  C  C156  1  0.963800  0.688900  0.369700  1.0  0.0788
  C  C157  1  0.911000  0.586600  0.393800  1.0  -0.0191
  C  C158  1  0.960600  0.572600  0.347300  1.0  -0.1625
  C  C159  1  0.179500  0.786300  0.951600  1.0  -0.0112
  C  C160  1  0.109600  0.827800  0.942100  1.0  -0.1742
  C  C161  1  0.190000  0.880200  0.007600  1.0  0.0917
  C  C162  1  0.056500  0.944700  0.987700  1.0  0.0973
  C  C163  1  0.086500  0.011300  0.003200  1.0  -0.1708
  C  C164  1  0.970300  0.932300  0.983100  1.0  -0.1649
  C  C165  1  0.586200  0.134100  0.547600  1.0  0.1121
  C  C166  1  0.452000  0.151000  0.535400  1.0  0.0249
  C  C167  1  0.484200  0.216300  0.548300  1.0  -0.1511
  C  C168  1  0.635400  0.262100  0.560600  1.0  0.109
  C  C169  1  0.640800  0.305800  0.608500  1.0  -0.1637
  C  C170  1  0.699300  0.362300  0.610700  1.0  -0.1348
  C  C171  1  0.753400  0.370300  0.566000  1.0  0.0765
  C  C172  1  0.749400  0.327400  0.517600  1.0  -0.1432
  C  C173  1  0.690000  0.271200  0.515300  1.0  -0.1418
  C  C174  1  0.876000  0.639300  0.581500  1.0  0.0869
  C  C175  1  0.988700  0.630200  0.530300  1.0  0.0163
  C  C176  1  0.010700  0.615300  0.583700  1.0  -0.1793
  C  C177  1  0.930600  0.610400  0.676400  1.0  0.0702
  C  C178  1  0.852100  0.587700  0.697300  1.0  -0.1628
  C  C179  1  0.842300  0.575900  0.754500  1.0  -0.1548
  C  C180  1  0.910200  0.586400  0.791000  1.0  0.0834
  C  C181  1  0.987800  0.610200  0.771600  1.0  -0.2059
  C  C182  1  0.997700  0.621200  0.713300  1.0  -0.1355
  C  C183  1  0.824800  0.578100  0.881700  1.0  -0.1753
  C  C184  1  0.843500  0.553100  0.934300  1.0  0.0018
  C  C185  1  0.959300  0.541300  0.884000  1.0  0.0804
  C  C186  1  0.745100  0.761200  0.372900  1.0  0.0791
  C  C187  1  0.788700  0.847300  0.430300  1.0  -0.0241
  C  C188  1  0.740500  0.879000  0.390000  1.0  -0.137
  C  C189  1  0.656900  0.833000  0.305900  1.0  0.104
  C  C190  1  0.674700  0.797100  0.255100  1.0  -0.1836
  C  C191  1  0.619000  0.807300  0.208800  1.0  -0.1682
  C  C192  1  0.549900  0.851600  0.215800  1.0  0.1227
  C  C193  1  0.531700  0.884600  0.265500  1.0  -0.1681
  C  C194  1  0.585400  0.873000  0.312800  1.0  -0.1531
  C  C195  1  0.463800  0.811100  0.130300  1.0  0.0786
  C  C196  1  0.411000  0.913400  0.106200  1.0  -0.0194
  C  C197  1  0.460600  0.927400  0.152700  1.0  -0.1626
  C  C198  1  0.679500  0.713700  0.548400  1.0  -0.0097
  C  C199  1  0.609600  0.672200  0.557900  1.0  -0.1757
  C  C200  1  0.690000  0.619800  0.492400  1.0  0.0936
  C  C201  1  0.556500  0.555300  0.512300  1.0  0.097
  C  C202  1  0.586500  0.488700  0.496800  1.0  -0.1713
  C  C203  1  0.470300  0.567700  0.516900  1.0  -0.1646
  C  C204  1  0.086200  0.365900  0.952400  1.0  0.1126
  C  C205  1  0.952000  0.349000  0.964600  1.0  0.0253
  C  C206  1  0.984200  0.283700  0.951700  1.0  -0.1501
  C  C207  1  0.135400  0.237900  0.939400  1.0  0.1093
  C  C208  1  0.140800  0.194200  0.891500  1.0  -0.1639
  C  C209  1  0.199300  0.137700  0.889300  1.0  -0.1343
  C  C210  1  0.253400  0.129700  0.934000  1.0  0.0786
  C  C211  1  0.249400  0.172600  0.982400  1.0  -0.1416
  C  C212  1  0.190000  0.228800  0.984700  1.0  -0.1431
  C  C213  1  0.624000  0.139300  0.081500  1.0  0.0873
  C  C214  1  0.511300  0.130200  0.030300  1.0  0.0155
  C  C215  1  0.489300  0.115300  0.083700  1.0  -0.1818
  C  C216  1  0.569400  0.110400  0.176400  1.0  0.0699
  C  C217  1  0.647900  0.087700  0.197300  1.0  -0.1624
  C  C218  1  0.657700  0.075900  0.254500  1.0  -0.1548
  C  C219  1  0.589800  0.086400  0.291000  1.0  0.0827
  C  C220  1  0.512200  0.110200  0.271600  1.0  -0.207
  C  C221  1  0.502300  0.121200  0.213300  1.0  -0.1304
  C  C222  1  0.675200  0.078100  0.381700  1.0  -0.1603
  C  C223  1  0.656500  0.053100  0.434300  1.0  0.0043
  C  C224  1  0.540700  0.041300  0.384000  1.0  0.0779
  C  C225  1  0.754900  0.261200  0.872900  1.0  0.0801
  C  C226  1  0.711300  0.347300  0.930300  1.0  -0.026
  C  C227  1  0.759500  0.379000  0.890000  1.0  -0.138
  C  C228  1  0.843100  0.333000  0.805900  1.0  0.1032
  C  C229  1  0.825300  0.297100  0.755100  1.0  -0.1838
  C  C230  1  0.881000  0.307300  0.708800  1.0  -0.1672
  C  C231  1  0.950100  0.351600  0.715800  1.0  0.1233
  C  C232  1  0.968300  0.384600  0.765500  1.0  -0.1682
  C  C233  1  0.914600  0.373000  0.812800  1.0  -0.1533
  C  C234  1  0.036200  0.311100  0.630300  1.0  0.0783
  C  C235  1  0.089000  0.413400  0.606200  1.0  -0.0189
  C  C236  1  0.039400  0.427400  0.652700  1.0  -0.1621
  C  C237  1  0.820500  0.213700  0.048400  1.0  -0.0103
  C  C238  1  0.890400  0.172200  0.057900  1.0  -0.1744
  C  C239  1  0.810000  0.119800  0.992400  1.0  0.0946
  C  C240  1  0.943500  0.055300  0.012300  1.0  0.0905
  C  C241  1  0.913500  0.988700  0.996800  1.0  -0.1732
  C  C242  1  0.029700  0.067700  0.016900  1.0  -0.1644
  C  C243  1  0.413800  0.865900  0.452400  1.0  0.1093
  C  C244  1  0.548000  0.849000  0.464600  1.0  0.0258
  C  C245  1  0.515800  0.783700  0.451700  1.0  -0.1503
  C  C246  1  0.364600  0.737900  0.439400  1.0  0.1089
  C  C247  1  0.359200  0.694200  0.391500  1.0  -0.1654
  C  C248  1  0.300700  0.637700  0.389300  1.0  -0.1344
  C  C249  1  0.246600  0.629700  0.434000  1.0  0.0783
  C  C250  1  0.250600  0.672600  0.482400  1.0  -0.142
  C  C251  1  0.310000  0.728800  0.484700  1.0  -0.1413
  C  C252  1  0.124000  0.360700  0.418500  1.0  0.0877
  C  C253  1  0.011300  0.369800  0.469700  1.0  0.0164
  C  C254  1  0.989300  0.384700  0.416300  1.0  -0.1821
  C  C255  1  0.069400  0.389600  0.323600  1.0  0.0698
  C  C256  1  0.147900  0.412300  0.302700  1.0  -0.1616
  C  C257  1  0.157700  0.424100  0.245500  1.0  -0.1548
  C  C258  1  0.089800  0.413600  0.209000  1.0  0.0836
  C  C259  1  0.012200  0.389800  0.228400  1.0  -0.2068
  C  C260  1  0.002300  0.378800  0.286700  1.0  -0.1348
  C  C261  1  0.175200  0.421900  0.118300  1.0  -0.1612
  C  C262  1  0.156500  0.446900  0.065700  1.0  0.0003
  C  C263  1  0.040700  0.458700  0.116000  1.0  0.078
  C  C264  1  0.254900  0.238800  0.627100  1.0  0.0804
  C  C265  1  0.211300  0.152700  0.569700  1.0  -0.0266
  C  C266  1  0.259500  0.121000  0.610000  1.0  -0.1409
  C  C267  1  0.343100  0.167000  0.694100  1.0  0.1026
  C  C268  1  0.325300  0.202900  0.744900  1.0  -0.1843
  C  C269  1  0.381000  0.192700  0.791200  1.0  -0.1681
  C  C270  1  0.450100  0.148400  0.784200  1.0  0.1236
  C  C271  1  0.468300  0.115400  0.734500  1.0  -0.1688
  C  C272  1  0.414600  0.127000  0.687200  1.0  -0.1539
  C  C273  1  0.536200  0.188900  0.869700  1.0  0.0781
  C  C274  1  0.589000  0.086600  0.893800  1.0  -0.0181
  C  C275  1  0.539400  0.072600  0.847300  1.0  -0.162
  C  C276  1  0.320500  0.286300  0.451600  1.0  -0.0107
  C  C277  1  0.390400  0.327800  0.442100  1.0  -0.1731
  C  C278  1  0.310000  0.380200  0.507600  1.0  0.0922
  C  C279  1  0.443500  0.444700  0.487700  1.0  0.0908
  C  C280  1  0.413500  0.511300  0.503200  1.0  -0.1724
  C  C281  1  0.529700  0.432300  0.483100  1.0  -0.1651
  C  C282  1  0.913800  0.634100  0.047600  1.0  0.1105
  C  C283  1  0.048000  0.651000  0.035400  1.0  0.0247
  C  C284  1  0.015800  0.716300  0.048300  1.0  -0.1507
  C  C285  1  0.864600  0.762100  0.060600  1.0  0.1087
  C  C286  1  0.859200  0.805800  0.108500  1.0  -0.164
  C  C287  1  0.800700  0.862300  0.110700  1.0  -0.134
  C  C288  1  0.746600  0.870300  0.066000  1.0  0.0779
  C  C289  1  0.750600  0.827400  0.017600  1.0  -0.1426
  C  C290  1  0.810000  0.771200  0.015300  1.0  -0.1387
  Br  Br291  1  0.832340  0.447460  0.567480  1.0  -0.0777
  Br  Br292  1  0.332340  0.052540  0.932520  1.0  -0.078
  Br  Br293  1  0.167660  0.552540  0.432520  1.0  -0.0771
  Br  Br294  1  0.667660  0.947460  0.067480  1.0  -0.0763
  N  N295  1  0.404000  0.853500  0.971400  1.0  -0.3458
  N  N296  1  0.439900  0.879100  0.883500  1.0  0.0589
  N  N297  1  0.399200  0.928500  0.650200  1.0  0.041
  N  N298  1  0.427400  0.970200  0.564500  1.0  -0.3469
  N  N299  1  0.292500  0.726000  0.079900  1.0  -0.3006
  N  N300  1  0.212700  0.676100  0.145300  1.0  0.0518
  N  N301  1  0.993700  0.637300  0.331900  1.0  0.0408
  N  N302  1  0.914600  0.658900  0.408500  1.0  -0.2983
  N  N303  1  0.229700  0.820500  0.993300  1.0  -0.2917
  N  N304  1  0.117300  0.887000  0.978100  1.0  0.0495
  N  N305  1  0.515000  0.099600  0.534600  1.0  -0.3452
  N  N306  1  0.571000  0.205600  0.555600  1.0  0.0208
  N  N307  1  0.904000  0.646500  0.528600  1.0  -0.3445
  N  N308  1  0.939900  0.620900  0.616500  1.0  0.0602
  N  N309  1  0.899200  0.571500  0.849800  1.0  0.0415
  N  N310  1  0.927400  0.529800  0.935500  1.0  -0.3489
  N  N311  1  0.792500  0.774000  0.420100  1.0  -0.3007
  N  N312  1  0.712700  0.823900  0.354700  1.0  0.0528
  N  N313  1  0.493700  0.862700  0.168100  1.0  0.0407
  N  N314  1  0.414600  0.841100  0.091500  1.0  -0.3025
  N  N315  1  0.729700  0.679500  0.506700  1.0  -0.294
  N  N316  1  0.617300  0.613000  0.521900  1.0  0.0502
  N  N317  1  0.015000  0.400400  0.965400  1.0  -0.3463
  N  N318  1  0.071000  0.294400  0.944400  1.0  0.0215
  N  N319  1  0.596000  0.146500  0.028600  1.0  -0.3426
  N  N320  1  0.560100  0.120900  0.116500  1.0  0.0601
  N  N321  1  0.600800  0.071500  0.349800  1.0  0.0411
  N  N322  1  0.572600  0.029800  0.435500  1.0  -0.3489
  N  N323  1  0.707500  0.274000  0.920100  1.0  -0.3008
  N  N324  1  0.787300  0.323900  0.854700  1.0  0.0522
  N  N325  1  0.006300  0.362700  0.668100  1.0  0.0407
  N  N326  1  0.085400  0.341100  0.591500  1.0  -0.3012
  N  N327  1  0.770300  0.179500  0.006700  1.0  -0.2981
  N  N328  1  0.882700  0.113000  0.021900  1.0  0.0504
  N  N329  1  0.485000  0.900400  0.465400  1.0  -0.3474
  N  N330  1  0.429000  0.794400  0.444400  1.0  0.0217
  N  N331  1  0.096000  0.353500  0.471400  1.0  -0.3443
  N  N332  1  0.060100  0.379100  0.383500  1.0  0.059
  N  N333  1  0.100800  0.428500  0.150200  1.0  0.0411
  N  N334  1  0.072600  0.470200  0.064500  1.0  -0.3469
  N  N335  1  0.207500  0.226000  0.579900  1.0  -0.3016
  N  N336  1  0.287300  0.176100  0.645300  1.0  0.0516
  N  N337  1  0.506300  0.137300  0.831900  1.0  0.0412
  N  N338  1  0.585400  0.158900  0.908500  1.0  -0.2974
  N  N339  1  0.270300  0.320500  0.493300  1.0  -0.2963
  N  N340  1  0.382700  0.387000  0.478100  1.0  0.0499
  N  N341  1  0.985000  0.599600  0.034600  1.0  -0.3457
  N  N342  1  0.929000  0.705600  0.055600  1.0  0.0219
