# generated using pymatgen
data_Cr3Cu3H24C36N6O13
_symmetry_space_group_name_H-M   'P 1'
_cell_length_a   20.77200000
_cell_length_b   20.77200000
_cell_length_c   21.05300000
_cell_angle_alpha   90.00000000
_cell_angle_beta   90.00000000
_cell_angle_gamma   120.00000000
_symmetry_Int_Tables_number   1
_chemical_formula_structural   Cr3Cu3H24C36N6O13
_chemical_formula_sum   'Cr6 Cu6 H48 C72 N12 O26'
_cell_volume   7866.85689426
_cell_formula_units_Z   2
loop_
 _symmetry_equiv_pos_site_id
 _symmetry_equiv_pos_as_xyz
  1  'x, y, z'
loop_
 _atom_site_type_symbol
 _atom_site_label
 _atom_site_symmetry_multiplicity
 _atom_site_fract_x
 _atom_site_fract_y
 _atom_site_fract_z
 _atom_site_occupancy
 _atom_site_charge
  Cr  Cr1  1  0.759760  0.423540  0.250000  1.0  1.4731
  Cr  Cr2  1  0.576460  0.336220  0.250000  1.0  1.4711
  Cr  Cr3  1  0.663780  0.240240  0.250000  1.0  1.4708
  Cr  Cr4  1  0.240240  0.576460  0.750000  1.0  1.4718
  Cr  Cr5  1  0.423540  0.663780  0.750000  1.0  1.4711
  Cr  Cr6  1  0.336220  0.759760  0.750000  1.0  1.4733
  Cu  Cu7  1  0.500000  0.500000  0.500000  1.0  0.2892
  Cu  Cu8  1  0.500000  0.000000  0.500000  1.0  0.2892
  Cu  Cu9  1  0.000000  0.500000  0.500000  1.0  0.2892
  Cu  Cu10  1  0.500000  0.500000  0.000000  1.0  0.2834
  Cu  Cu11  1  0.500000  0.000000  0.000000  1.0  0.2834
  Cu  Cu12  1  0.000000  0.500000  0.000000  1.0  0.2896
  H  H13  1  0.560800  0.449600  0.403600  1.0  0.0847
  H  H14  1  0.664200  0.602500  0.534200  1.0  0.0763
  H  H15  1  0.780200  0.622800  0.502300  1.0  0.1065
  H  H16  1  0.786100  0.565500  0.406800  1.0  0.0909
  H  H17  1  0.550400  0.111200  0.403600  1.0  0.0837
  H  H18  1  0.397500  0.061700  0.534200  1.0  0.077
  H  H19  1  0.377200  0.157400  0.502300  1.0  0.1061
  H  H20  1  0.434500  0.220600  0.406800  1.0  0.0913
  H  H21  1  0.888800  0.439200  0.403600  1.0  0.0846
  H  H22  1  0.938300  0.335800  0.534200  1.0  0.0769
  H  H23  1  0.842600  0.219800  0.502300  1.0  0.1082
  H  H24  1  0.779400  0.213900  0.406800  1.0  0.0956
  H  H25  1  0.439200  0.550400  0.903600  1.0  0.0844
  H  H26  1  0.335800  0.397500  0.034200  1.0  0.0769
  H  H27  1  0.219800  0.377200  0.002300  1.0  0.1063
  H  H28  1  0.213900  0.434500  0.906800  1.0  0.0914
  H  H29  1  0.449600  0.888800  0.903600  1.0  0.084
  H  H30  1  0.602500  0.938300  0.034200  1.0  0.0765
  H  H31  1  0.622800  0.842600  0.002300  1.0  0.1057
  H  H32  1  0.565500  0.779400  0.906800  1.0  0.0922
  H  H33  1  0.111200  0.560800  0.903600  1.0  0.0851
  H  H34  1  0.061700  0.664200  0.034200  1.0  0.0767
  H  H35  1  0.157400  0.780200  0.002300  1.0  0.1073
  H  H36  1  0.220600  0.786100  0.906800  1.0  0.0962
  H  H37  1  0.439200  0.550400  0.596400  1.0  0.0839
  H  H38  1  0.335800  0.397500  0.465800  1.0  0.0767
  H  H39  1  0.219800  0.377200  0.497700  1.0  0.1063
  H  H40  1  0.213900  0.434500  0.593200  1.0  0.0912
  H  H41  1  0.449600  0.888800  0.596400  1.0  0.0835
  H  H42  1  0.602500  0.938300  0.465800  1.0  0.0768
  H  H43  1  0.622800  0.842600  0.497700  1.0  0.1067
  H  H44  1  0.565500  0.779400  0.593200  1.0  0.0919
  H  H45  1  0.111200  0.560800  0.596400  1.0  0.0846
  H  H46  1  0.061700  0.664200  0.465800  1.0  0.0763
  H  H47  1  0.157400  0.780200  0.497700  1.0  0.1076
  H  H48  1  0.220600  0.786100  0.593200  1.0  0.0959
  H  H49  1  0.560800  0.449600  0.096400  1.0  0.0847
  H  H50  1  0.664200  0.602500  0.965800  1.0  0.0761
  H  H51  1  0.780200  0.622800  0.997700  1.0  0.1069
  H  H52  1  0.786100  0.565500  0.093200  1.0  0.0904
  H  H53  1  0.550400  0.111200  0.096400  1.0  0.0833
  H  H54  1  0.397500  0.061700  0.965800  1.0  0.0764
  H  H55  1  0.377200  0.157400  0.997700  1.0  0.1064
  H  H56  1  0.434500  0.220600  0.093200  1.0  0.0909
  H  H57  1  0.888800  0.439200  0.096400  1.0  0.0842
  H  H58  1  0.938300  0.335800  0.965800  1.0  0.077
  H  H59  1  0.842600  0.219800  0.997700  1.0  0.1087
  H  H60  1  0.779400  0.213900  0.093200  1.0  0.0952
  C  C61  1  0.668800  0.455300  0.338400  1.0  0.7305
  C  C62  1  0.673100  0.501500  0.393900  1.0  -0.1625
  C  C63  1  0.605800  0.487200  0.421900  1.0  0.1437
  C  C64  1  0.666500  0.574800  0.499300  1.0  0.0826
  C  C65  1  0.736500  0.589900  0.479500  1.0  -0.1629
  C  C66  1  0.739400  0.554200  0.424100  1.0  -0.0429
  C  C67  1  0.544700  0.213500  0.338400  1.0  0.7312
  C  C68  1  0.498500  0.171600  0.393900  1.0  -0.1639
  C  C69  1  0.512800  0.118600  0.421900  1.0  0.1424
  C  C70  1  0.425200  0.091700  0.499300  1.0  0.0815
  C  C71  1  0.410100  0.146600  0.479500  1.0  -0.166
  C  C72  1  0.445800  0.185200  0.424100  1.0  -0.0424
  C  C73  1  0.786500  0.331200  0.338400  1.0  0.7334
  C  C74  1  0.828400  0.326900  0.393900  1.0  -0.1635
  C  C75  1  0.881400  0.394200  0.421900  1.0  0.1417
  C  C76  1  0.908300  0.333500  0.499300  1.0  0.0843
  C  C77  1  0.853400  0.263500  0.479500  1.0  -0.1654
  C  C78  1  0.814800  0.260600  0.424100  1.0  -0.0448
  C  C79  1  0.331200  0.544700  0.838400  1.0  0.7313
  C  C80  1  0.326900  0.498500  0.893900  1.0  -0.1632
  C  C81  1  0.394200  0.512800  0.921900  1.0  0.1444
  C  C82  1  0.333500  0.425200  0.999300  1.0  0.0837
  C  C83  1  0.263500  0.410100  0.979500  1.0  -0.1649
  C  C84  1  0.260600  0.445800  0.924100  1.0  -0.0418
  C  C85  1  0.455300  0.786500  0.838400  1.0  0.7303
  C  C86  1  0.501500  0.828400  0.893900  1.0  -0.1639
  C  C87  1  0.487200  0.881400  0.921900  1.0  0.1408
  C  C88  1  0.574800  0.908300  0.999300  1.0  0.0823
  C  C89  1  0.589900  0.853400  0.979500  1.0  -0.1649
  C  C90  1  0.554200  0.814800  0.924100  1.0  -0.0434
  C  C91  1  0.213500  0.668800  0.838400  1.0  0.7322
  C  C92  1  0.171600  0.673100  0.893900  1.0  -0.1642
  C  C93  1  0.118600  0.605800  0.921900  1.0  0.1429
  C  C94  1  0.091700  0.666500  0.999300  1.0  0.0826
  C  C95  1  0.146600  0.736500  0.979500  1.0  -0.1653
  C  C96  1  0.185200  0.739400  0.924100  1.0  -0.0445
  C  C97  1  0.331200  0.544700  0.661600  1.0  0.7317
  C  C98  1  0.326900  0.498500  0.606100  1.0  -0.1631
  C  C99  1  0.394200  0.512800  0.578100  1.0  0.1447
  C  C100  1  0.333500  0.425200  0.500700  1.0  0.0815
  C  C101  1  0.263500  0.410100  0.520500  1.0  -0.1645
  C  C102  1  0.260600  0.445800  0.575900  1.0  -0.0422
  C  C103  1  0.455300  0.786500  0.661600  1.0  0.7308
  C  C104  1  0.501500  0.828400  0.606100  1.0  -0.1633
  C  C105  1  0.487200  0.881400  0.578100  1.0  0.1412
  C  C106  1  0.574800  0.908300  0.500700  1.0  0.0808
  C  C107  1  0.589900  0.853400  0.520500  1.0  -0.1654
  C  C108  1  0.554200  0.814800  0.575900  1.0  -0.0433
  C  C109  1  0.213500  0.668800  0.661600  1.0  0.7329
  C  C110  1  0.171600  0.673100  0.606100  1.0  -0.1634
  C  C111  1  0.118600  0.605800  0.578100  1.0  0.1432
  C  C112  1  0.091700  0.666500  0.500700  1.0  0.0815
  C  C113  1  0.146600  0.736500  0.520500  1.0  -0.1655
  C  C114  1  0.185200  0.739400  0.575900  1.0  -0.0453
  C  C115  1  0.668800  0.455300  0.161600  1.0  0.7311
  C  C116  1  0.673100  0.501500  0.106100  1.0  -0.1621
  C  C117  1  0.605800  0.487200  0.078100  1.0  0.1439
  C  C118  1  0.666500  0.574800  0.000700  1.0  0.082
  C  C119  1  0.736500  0.589900  0.020500  1.0  -0.1633
  C  C120  1  0.739400  0.554200  0.075900  1.0  -0.0431
  C  C121  1  0.544700  0.213500  0.161600  1.0  0.7317
  C  C122  1  0.498500  0.171600  0.106100  1.0  -0.1634
  C  C123  1  0.512800  0.118600  0.078100  1.0  0.1429
  C  C124  1  0.425200  0.091700  0.000700  1.0  0.0807
  C  C125  1  0.410100  0.146600  0.020500  1.0  -0.1652
  C  C126  1  0.445800  0.185200  0.075900  1.0  -0.0433
  C  C127  1  0.786500  0.331200  0.161600  1.0  0.7342
  C  C128  1  0.828400  0.326900  0.106100  1.0  -0.1631
  C  C129  1  0.881400  0.394200  0.078100  1.0  0.1418
  C  C130  1  0.908300  0.333500  0.000700  1.0  0.0827
  C  C131  1  0.853400  0.263500  0.020500  1.0  -0.1646
  C  C132  1  0.814800  0.260600  0.075900  1.0  -0.0453
  N  N133  1  0.601200  0.523500  0.472900  1.0  -0.3533
  N  N134  1  0.476500  0.077700  0.472900  1.0  -0.35
  N  N135  1  0.922300  0.398800  0.472900  1.0  -0.3499
  N  N136  1  0.398800  0.476500  0.972900  1.0  -0.3575
  N  N137  1  0.523500  0.922300  0.972900  1.0  -0.3498
  N  N138  1  0.077700  0.601200  0.972900  1.0  -0.3494
  N  N139  1  0.398800  0.476500  0.527100  1.0  -0.3576
  N  N140  1  0.523500  0.922300  0.527100  1.0  -0.3494
  N  N141  1  0.077700  0.601200  0.527100  1.0  -0.35
  N  N142  1  0.601200  0.523500  0.027100  1.0  -0.3546
  N  N143  1  0.476500  0.077700  0.027100  1.0  -0.3508
  N  N144  1  0.922300  0.398800  0.027100  1.0  -0.349
  O  O145  1  0.731800  0.469600  0.318100  1.0  -0.6374
  O  O146  1  0.607700  0.410900  0.316400  1.0  -0.6461
  O  O147  1  0.530400  0.262200  0.318100  1.0  -0.6371
  O  O148  1  0.589100  0.196800  0.316400  1.0  -0.6459
  O  O149  1  0.737800  0.268200  0.318100  1.0  -0.6377
  O  O150  1  0.803200  0.392300  0.316400  1.0  -0.6477
  O  O151  1  0.268200  0.530400  0.818100  1.0  -0.637
  O  O152  1  0.392300  0.589100  0.816400  1.0  -0.646
  O  O153  1  0.469600  0.737800  0.818100  1.0  -0.6381
  O  O154  1  0.410900  0.803200  0.816400  1.0  -0.6468
  O  O155  1  0.262200  0.731800  0.818100  1.0  -0.6386
  O  O156  1  0.196800  0.607700  0.816400  1.0  -0.6484
  O  O157  1  0.268200  0.530400  0.681900  1.0  -0.6371
  O  O158  1  0.392300  0.589100  0.683600  1.0  -0.647
  O  O159  1  0.469600  0.737800  0.681900  1.0  -0.6385
  O  O160  1  0.410900  0.803200  0.683600  1.0  -0.6471
  O  O161  1  0.262200  0.731800  0.681900  1.0  -0.6383
  O  O162  1  0.196800  0.607700  0.683600  1.0  -0.6487
  O  O163  1  0.731800  0.469600  0.181900  1.0  -0.6372
  O  O164  1  0.607700  0.410900  0.183600  1.0  -0.6464
  O  O165  1  0.530400  0.262200  0.181900  1.0  -0.6368
  O  O166  1  0.589100  0.196800  0.183600  1.0  -0.6461
  O  O167  1  0.737800  0.268200  0.181900  1.0  -0.6381
  O  O168  1  0.803200  0.392300  0.183600  1.0  -0.6483
  O  O169  1  0.666667  0.333333  0.250000  1.0  -1.1325
  O  O170  1  0.333333  0.666667  0.750000  1.0  -1.1325
