# generated using pymatgen
data_Cr3Cd2H24C36N6O13
_symmetry_space_group_name_H-M   'P 1'
_cell_length_a   20.60800000
_cell_length_b   20.60800000
_cell_length_c   22.35000000
_cell_angle_alpha   90.00000000
_cell_angle_beta   90.00000000
_cell_angle_gamma   90.00000000
_symmetry_Int_Tables_number   1
_chemical_formula_structural   Cr3Cd2H24C36N6O13
_chemical_formula_sum   'Cr12 Cd8 H96 C144 N24 O52'
_cell_volume   9491.81399040
_cell_formula_units_Z   4
loop_
 _symmetry_equiv_pos_site_id
 _symmetry_equiv_pos_as_xyz
  1  'x, y, z'
loop_
 _atom_site_type_symbol
 _atom_site_label
 _atom_site_symmetry_multiplicity
 _atom_site_fract_x
 _atom_site_fract_y
 _atom_site_fract_z
 _atom_site_occupancy
 _atom_site_charge
  Cr  Cr1  1  0.422360  0.019450  0.319200  1.0  1.3766
  Cr  Cr2  1  0.577640  0.980550  0.319200  1.0  1.3749
  Cr  Cr3  1  0.019450  0.577640  0.680800  1.0  1.3766
  Cr  Cr4  1  0.980550  0.422360  0.680800  1.0  1.3754
  Cr  Cr5  1  0.077640  0.519450  0.180800  1.0  1.3749
  Cr  Cr6  1  0.922360  0.480550  0.180800  1.0  1.3762
  Cr  Cr7  1  0.480550  0.077640  0.819200  1.0  1.379
  Cr  Cr8  1  0.519450  0.922360  0.819200  1.0  1.3741
  Cr  Cr9  1  0.500000  0.000000  0.446490  1.0  1.3577
  Cr  Cr10  1  0.000000  0.500000  0.553510  1.0  1.3616
  Cr  Cr11  1  0.000000  0.500000  0.053510  1.0  1.3616
  Cr  Cr12  1  0.500000  0.000000  0.946490  1.0  1.3577
  Cd  Cd13  1  0.718860  0.208710  0.114370  1.0  0.57
  Cd  Cd14  1  0.281140  0.791290  0.114370  1.0  0.57
  Cd  Cd15  1  0.208710  0.281140  0.885630  1.0  0.5697
  Cd  Cd16  1  0.791290  0.718860  0.885630  1.0  0.5684
  Cd  Cd17  1  0.781140  0.708710  0.385630  1.0  0.5702
  Cd  Cd18  1  0.218860  0.291290  0.385630  1.0  0.5683
  Cd  Cd19  1  0.291290  0.781140  0.614370  1.0  0.5687
  Cd  Cd20  1  0.708710  0.218860  0.614370  1.0  0.5704
  H  H21  1  0.630400  0.120700  0.198000  1.0  0.0825
  H  H22  1  0.578400  0.275500  0.105700  1.0  0.0804
  H  H23  1  0.473700  0.268800  0.139100  1.0  0.0995
  H  H24  1  0.444900  0.183500  0.206100  1.0  0.0987
  H  H25  1  0.359600  0.880700  0.519600  1.0  0.0751
  H  H26  1  0.270200  0.888500  0.359800  1.0  0.0996
  H  H27  1  0.326100  0.183200  0.376800  1.0  0.0866
  H  H28  1  0.460000  0.194000  0.510300  1.0  0.115
  H  H29  1  0.189400  0.818500  0.399200  1.0  0.1045
  H  H30  1  0.408900  0.290800  0.541100  1.0  0.1008
  H  H31  1  0.203200  0.775300  0.494300  1.0  0.0635
  H  H32  1  0.325200  0.332400  0.487300  1.0  0.0772
  H  H33  1  0.369600  0.879300  0.198000  1.0  0.0836
  H  H34  1  0.421600  0.724500  0.105700  1.0  0.0797
  H  H35  1  0.526300  0.731200  0.139100  1.0  0.0993
  H  H36  1  0.555100  0.816500  0.206100  1.0  0.0988
  H  H37  1  0.640400  0.119300  0.519600  1.0  0.0753
  H  H38  1  0.729800  0.111500  0.359800  1.0  0.0994
  H  H39  1  0.673900  0.816800  0.376800  1.0  0.086
  H  H40  1  0.540000  0.806000  0.510300  1.0  0.1149
  H  H41  1  0.810600  0.181500  0.399200  1.0  0.104
  H  H42  1  0.591100  0.709200  0.541100  1.0  0.1013
  H  H43  1  0.796800  0.224700  0.494300  1.0  0.0632
  H  H44  1  0.674800  0.667600  0.487300  1.0  0.0771
  H  H45  1  0.120700  0.369600  0.802000  1.0  0.0845
  H  H46  1  0.275500  0.421600  0.894300  1.0  0.0805
  H  H47  1  0.268800  0.526300  0.860900  1.0  0.0988
  H  H48  1  0.183500  0.555100  0.793900  1.0  0.0995
  H  H49  1  0.880700  0.640400  0.480400  1.0  0.0751
  H  H50  1  0.888500  0.729800  0.640200  1.0  0.1006
  H  H51  1  0.183200  0.673900  0.623200  1.0  0.0863
  H  H52  1  0.194000  0.540000  0.489700  1.0  0.1152
  H  H53  1  0.818500  0.810600  0.600800  1.0  0.1049
  H  H54  1  0.290800  0.591100  0.458900  1.0  0.0997
  H  H55  1  0.775300  0.796800  0.505700  1.0  0.0642
  H  H56  1  0.332400  0.674800  0.512700  1.0  0.0745
  H  H57  1  0.879300  0.630400  0.802000  1.0  0.0836
  H  H58  1  0.724500  0.578400  0.894300  1.0  0.0805
  H  H59  1  0.731200  0.473700  0.860900  1.0  0.0979
  H  H60  1  0.816500  0.444900  0.793900  1.0  0.099
  H  H61  1  0.119300  0.359600  0.480400  1.0  0.0757
  H  H62  1  0.111500  0.270200  0.640200  1.0  0.1006
  H  H63  1  0.816800  0.326100  0.623200  1.0  0.0858
  H  H64  1  0.806000  0.460000  0.489700  1.0  0.1151
  H  H65  1  0.181500  0.189400  0.600800  1.0  0.1046
  H  H66  1  0.709200  0.408900  0.458900  1.0  0.0993
  H  H67  1  0.224700  0.203200  0.505700  1.0  0.0641
  H  H68  1  0.667600  0.325200  0.512700  1.0  0.0742
  H  H69  1  0.869600  0.620700  0.302000  1.0  0.0842
  H  H70  1  0.921600  0.775500  0.394300  1.0  0.0803
  H  H71  1  0.026300  0.768800  0.360900  1.0  0.0989
  H  H72  1  0.055100  0.683500  0.293900  1.0  0.0989
  H  H73  1  0.140400  0.380700  0.980400  1.0  0.075
  H  H74  1  0.229800  0.388500  0.140200  1.0  0.1
  H  H75  1  0.173900  0.683200  0.123200  1.0  0.0857
  H  H76  1  0.040000  0.694000  0.989700  1.0  0.115
  H  H77  1  0.310600  0.318500  0.100800  1.0  0.1033
  H  H78  1  0.091100  0.790800  0.958900  1.0  0.0997
  H  H79  1  0.296800  0.275300  0.005700  1.0  0.0634
  H  H80  1  0.174800  0.832400  0.012700  1.0  0.0766
  H  H81  1  0.130400  0.379300  0.302000  1.0  0.0833
  H  H82  1  0.078400  0.224500  0.394300  1.0  0.0805
  H  H83  1  0.973700  0.231200  0.360900  1.0  0.0982
  H  H84  1  0.944900  0.316500  0.293900  1.0  0.099
  H  H85  1  0.859600  0.619300  0.980400  1.0  0.075
  H  H86  1  0.770200  0.611500  0.140200  1.0  0.1001
  H  H87  1  0.826100  0.316800  0.123200  1.0  0.0864
  H  H88  1  0.960000  0.306000  0.989700  1.0  0.1144
  H  H89  1  0.689400  0.681500  0.100800  1.0  0.1043
  H  H90  1  0.908900  0.209200  0.958900  1.0  0.1002
  H  H91  1  0.703200  0.724700  0.005700  1.0  0.0635
  H  H92  1  0.825200  0.167600  0.012700  1.0  0.0772
  H  H93  1  0.379300  0.869600  0.698000  1.0  0.0838
  H  H94  1  0.224500  0.921600  0.605700  1.0  0.0805
  H  H95  1  0.231200  0.026300  0.639100  1.0  0.0992
  H  H96  1  0.316500  0.055100  0.706100  1.0  0.0994
  H  H97  1  0.619300  0.140400  0.019600  1.0  0.0755
  H  H98  1  0.611500  0.229800  0.859800  1.0  0.0999
  H  H99  1  0.316800  0.173900  0.876800  1.0  0.0862
  H  H100  1  0.306000  0.040000  0.010300  1.0  0.1158
  H  H101  1  0.681500  0.310600  0.899200  1.0  0.1053
  H  H102  1  0.209200  0.091100  0.041100  1.0  0.1003
  H  H103  1  0.724700  0.296800  0.994300  1.0  0.0643
  H  H104  1  0.167600  0.174800  0.987300  1.0  0.0742
  H  H105  1  0.620700  0.130400  0.698000  1.0  0.0843
  H  H106  1  0.775500  0.078400  0.605700  1.0  0.0808
  H  H107  1  0.768800  0.973700  0.639100  1.0  0.0989
  H  H108  1  0.683500  0.944900  0.706100  1.0  0.0995
  H  H109  1  0.380700  0.859600  0.019600  1.0  0.0755
  H  H110  1  0.388500  0.770200  0.859800  1.0  0.0996
  H  H111  1  0.683200  0.826100  0.876800  1.0  0.0862
  H  H112  1  0.694000  0.960000  0.010300  1.0  0.1158
  H  H113  1  0.318500  0.689400  0.899200  1.0  0.1048
  H  H114  1  0.790800  0.908900  0.041100  1.0  0.1004
  H  H115  1  0.275300  0.703200  0.994300  1.0  0.0638
  H  H116  1  0.832400  0.825200  0.987300  1.0  0.0742
  C  C117  1  0.597900  0.150800  0.186200  1.0  0.1531
  C  C118  1  0.566900  0.241600  0.132400  1.0  0.1257
  C  C119  1  0.534600  0.143400  0.207700  1.0  -0.1801
  C  C120  1  0.505100  0.237900  0.151800  1.0  -0.1911
  C  C121  1  0.520300  0.088100  0.248000  1.0  0.701
  C  C122  1  0.488000  0.187100  0.191300  1.0  -0.042
  C  C123  1  0.373100  0.939000  0.416200  1.0  0.6889
  C  C124  1  0.420400  0.113600  0.421000  1.0  0.6979
  C  C125  1  0.322000  0.892200  0.437300  1.0  -0.1922
  C  C126  1  0.395400  0.177200  0.441000  1.0  -0.2209
  C  C127  1  0.325000  0.867100  0.494400  1.0  0.1652
  C  C128  1  0.272500  0.873200  0.399800  1.0  -0.0707
  C  C129  1  0.342900  0.204700  0.411100  1.0  0.153
  C  C130  1  0.422900  0.210300  0.490000  1.0  -0.0783
  C  C131  1  0.225900  0.830700  0.422600  1.0  -0.1709
  C  C132  1  0.393300  0.268000  0.507100  1.0  -0.1537
  C  C133  1  0.233800  0.806300  0.480300  1.0  0.1389
  C  C134  1  0.342700  0.291600  0.475800  1.0  0.1376
  C  C135  1  0.402100  0.849200  0.186200  1.0  0.1556
  C  C136  1  0.433100  0.758400  0.132400  1.0  0.1249
  C  C137  1  0.465400  0.856600  0.207700  1.0  -0.18
  C  C138  1  0.494900  0.762100  0.151800  1.0  -0.1921
  C  C139  1  0.479700  0.911900  0.248000  1.0  0.7011
  C  C140  1  0.512000  0.812900  0.191300  1.0  -0.042
  C  C141  1  0.626900  0.061000  0.416200  1.0  0.6894
  C  C142  1  0.579600  0.886400  0.421000  1.0  0.6998
  C  C143  1  0.678000  0.107800  0.437300  1.0  -0.1937
  C  C144  1  0.604600  0.822800  0.441000  1.0  -0.2211
  C  C145  1  0.675000  0.132900  0.494400  1.0  0.1648
  C  C146  1  0.727500  0.126800  0.399800  1.0  -0.071
  C  C147  1  0.657100  0.795300  0.411100  1.0  0.1518
  C  C148  1  0.577100  0.789700  0.490000  1.0  -0.08
  C  C149  1  0.774100  0.169300  0.422600  1.0  -0.1705
  C  C150  1  0.606700  0.732000  0.507100  1.0  -0.1567
  C  C151  1  0.766200  0.193700  0.480300  1.0  0.1374
  C  C152  1  0.657300  0.708400  0.475800  1.0  0.1394
  C  C153  1  0.150800  0.402100  0.813800  1.0  0.1548
  C  C154  1  0.241600  0.433100  0.867600  1.0  0.1273
  C  C155  1  0.143400  0.465400  0.792300  1.0  -0.1793
  C  C156  1  0.237900  0.494900  0.848200  1.0  -0.1888
  C  C157  1  0.088100  0.479700  0.752000  1.0  0.7001
  C  C158  1  0.187100  0.512000  0.808700  1.0  -0.0443
  C  C159  1  0.939000  0.626900  0.583800  1.0  0.6889
  C  C160  1  0.113600  0.579600  0.579000  1.0  0.6973
  C  C161  1  0.892200  0.678000  0.562700  1.0  -0.1919
  C  C162  1  0.177200  0.604600  0.559000  1.0  -0.2216
  C  C163  1  0.867100  0.675000  0.505600  1.0  0.1671
  C  C164  1  0.873200  0.727500  0.600200  1.0  -0.0699
  C  C165  1  0.204700  0.657100  0.588900  1.0  0.1498
  C  C166  1  0.210300  0.577100  0.510000  1.0  -0.082
  C  C167  1  0.830700  0.774100  0.577400  1.0  -0.1705
  C  C168  1  0.268000  0.606700  0.492900  1.0  -0.1535
  C  C169  1  0.806300  0.766200  0.519700  1.0  0.1373
  C  C170  1  0.291600  0.657300  0.524200  1.0  0.1403
  C  C171  1  0.849200  0.597900  0.813800  1.0  0.1533
  C  C172  1  0.758400  0.566900  0.867600  1.0  0.1286
  C  C173  1  0.856600  0.534600  0.792300  1.0  -0.1787
  C  C174  1  0.762100  0.505100  0.848200  1.0  -0.191
  C  C175  1  0.911900  0.520300  0.752000  1.0  0.6995
  C  C176  1  0.812900  0.488000  0.808700  1.0  -0.0441
  C  C177  1  0.061000  0.373100  0.583800  1.0  0.6892
  C  C178  1  0.886400  0.420400  0.579000  1.0  0.6977
  C  C179  1  0.107800  0.322000  0.562700  1.0  -0.1922
  C  C180  1  0.822800  0.395400  0.559000  1.0  -0.2198
  C  C181  1  0.132900  0.325000  0.505600  1.0  0.166
  C  C182  1  0.126800  0.272500  0.600200  1.0  -0.0706
  C  C183  1  0.795300  0.342900  0.588900  1.0  0.1526
  C  C184  1  0.789700  0.422900  0.510000  1.0  -0.0819
  C  C185  1  0.169300  0.225900  0.577400  1.0  -0.1716
  C  C186  1  0.732000  0.393300  0.492900  1.0  -0.1534
  C  C187  1  0.193700  0.233800  0.519700  1.0  0.1356
  C  C188  1  0.708400  0.342700  0.524200  1.0  0.1399
  C  C189  1  0.902100  0.650800  0.313800  1.0  0.1553
  C  C190  1  0.933100  0.741600  0.367600  1.0  0.1251
  C  C191  1  0.965400  0.643400  0.292300  1.0  -0.1799
  C  C192  1  0.994900  0.737900  0.348200  1.0  -0.1901
  C  C193  1  0.979700  0.588100  0.252000  1.0  0.7007
  C  C194  1  0.012000  0.687100  0.308700  1.0  -0.0428
  C  C195  1  0.126900  0.439000  0.083800  1.0  0.6896
  C  C196  1  0.079600  0.613600  0.079000  1.0  0.6984
  C  C197  1  0.178000  0.392200  0.062700  1.0  -0.1935
  C  C198  1  0.104600  0.677200  0.059000  1.0  -0.2206
  C  C199  1  0.175000  0.367100  0.005600  1.0  0.1654
  C  C200  1  0.227500  0.373200  0.100200  1.0  -0.0714
  C  C201  1  0.157100  0.704700  0.088900  1.0  0.1519
  C  C202  1  0.077100  0.710300  0.010000  1.0  -0.08
  C  C203  1  0.274100  0.330700  0.077400  1.0  -0.1692
  C  C204  1  0.106700  0.768000  0.992900  1.0  -0.1545
  C  C205  1  0.266200  0.306300  0.019700  1.0  0.1379
  C  C206  1  0.157300  0.791600  0.024200  1.0  0.139
  C  C207  1  0.097900  0.349200  0.313800  1.0  0.1534
  C  C208  1  0.066900  0.258400  0.367600  1.0  0.1278
  C  C209  1  0.034600  0.356600  0.292300  1.0  -0.1799
  C  C210  1  0.005100  0.262100  0.348200  1.0  -0.1927
  C  C211  1  0.020300  0.411900  0.252000  1.0  0.7006
  C  C212  1  0.988000  0.312900  0.308700  1.0  -0.041
  C  C213  1  0.873100  0.561000  0.083800  1.0  0.6886
  C  C214  1  0.920400  0.386400  0.079000  1.0  0.699
  C  C215  1  0.822000  0.607800  0.062700  1.0  -0.1925
  C  C216  1  0.895400  0.322800  0.059000  1.0  -0.2215
  C  C217  1  0.825000  0.632900  0.005600  1.0  0.1654
  C  C218  1  0.772500  0.626800  0.100200  1.0  -0.071
  C  C219  1  0.842900  0.295300  0.088900  1.0  0.1503
  C  C220  1  0.922900  0.289700  0.010000  1.0  -0.0803
  C  C221  1  0.725900  0.669300  0.077400  1.0  -0.1728
  C  C222  1  0.893300  0.232000  0.992900  1.0  -0.1531
  C  C223  1  0.733800  0.693700  0.019700  1.0  0.1386
  C  C224  1  0.842700  0.208400  0.024200  1.0  0.1377
  C  C225  1  0.349200  0.902100  0.686200  1.0  0.1536
  C  C226  1  0.258400  0.933100  0.632400  1.0  0.1276
  C  C227  1  0.356600  0.965400  0.707700  1.0  -0.1788
  C  C228  1  0.262100  0.994900  0.651800  1.0  -0.1896
  C  C229  1  0.411900  0.979700  0.748000  1.0  0.7002
  C  C230  1  0.312900  0.012000  0.691300  1.0  -0.0438
  C  C231  1  0.561000  0.126900  0.916200  1.0  0.6891
  C  C232  1  0.386400  0.079600  0.921000  1.0  0.6965
  C  C233  1  0.607800  0.178000  0.937300  1.0  -0.1922
  C  C234  1  0.322800  0.104600  0.941000  1.0  -0.2198
  C  C235  1  0.632900  0.175000  0.994400  1.0  0.1665
  C  C236  1  0.626800  0.227500  0.899800  1.0  -0.0699
  C  C237  1  0.295300  0.157100  0.911100  1.0  0.1518
  C  C238  1  0.289700  0.077100  0.990000  1.0  -0.0802
  C  C239  1  0.669300  0.274100  0.922600  1.0  -0.1713
  C  C240  1  0.232000  0.106700  0.007100  1.0  -0.1555
  C  C241  1  0.693700  0.266200  0.980300  1.0  0.1361
  C  C242  1  0.208400  0.157300  0.975800  1.0  0.1407
  C  C243  1  0.650800  0.097900  0.686200  1.0  0.1532
  C  C244  1  0.741600  0.066900  0.632400  1.0  0.1269
  C  C245  1  0.643400  0.034600  0.707700  1.0  -0.1793
  C  C246  1  0.737900  0.005100  0.651800  1.0  -0.1905
  C  C247  1  0.588100  0.020300  0.748000  1.0  0.7005
  C  C248  1  0.687100  0.988000  0.691300  1.0  -0.0445
  C  C249  1  0.439000  0.873100  0.916200  1.0  0.6889
  C  C250  1  0.613600  0.920400  0.921000  1.0  0.6986
  C  C251  1  0.392200  0.822000  0.937300  1.0  -0.1918
  C  C252  1  0.677200  0.895400  0.941000  1.0  -0.2217
  C  C253  1  0.367100  0.825000  0.994400  1.0  0.1659
  C  C254  1  0.373200  0.772500  0.899800  1.0  -0.0699
  C  C255  1  0.704700  0.842900  0.911100  1.0  0.152
  C  C256  1  0.710300  0.922900  0.990000  1.0  -0.0802
  C  C257  1  0.330700  0.725900  0.922600  1.0  -0.1721
  C  C258  1  0.768000  0.893300  0.007100  1.0  -0.154
  C  C259  1  0.306300  0.733800  0.980300  1.0  0.137
  C  C260  1  0.791600  0.842700  0.975800  1.0  0.1403
  N  N261  1  0.613400  0.198600  0.149700  1.0  -0.3726
  N  N262  1  0.815300  0.239900  0.071300  1.0  -0.3782
  N  N263  1  0.676300  0.218700  0.016600  1.0  -0.3744
  N  N264  1  0.386600  0.801400  0.149700  1.0  -0.3724
  N  N265  1  0.184700  0.760100  0.071300  1.0  -0.3829
  N  N266  1  0.323700  0.781300  0.016600  1.0  -0.3753
  N  N267  1  0.198600  0.386600  0.850300  1.0  -0.3739
  N  N268  1  0.239900  0.184700  0.928700  1.0  -0.3778
  N  N269  1  0.218700  0.323700  0.983400  1.0  -0.3798
  N  N270  1  0.801400  0.613400  0.850300  1.0  -0.3729
  N  N271  1  0.760100  0.815300  0.928700  1.0  -0.3778
  N  N272  1  0.781300  0.676300  0.983400  1.0  -0.3783
  N  N273  1  0.886600  0.698600  0.350300  1.0  -0.3716
  N  N274  1  0.684700  0.739900  0.428700  1.0  -0.3825
  N  N275  1  0.823700  0.718700  0.483400  1.0  -0.378
  N  N276  1  0.113400  0.301400  0.350300  1.0  -0.372
  N  N277  1  0.315300  0.260100  0.428700  1.0  -0.3805
  N  N278  1  0.176300  0.281300  0.483400  1.0  -0.3777
  N  N279  1  0.301400  0.886600  0.649700  1.0  -0.3748
  N  N280  1  0.260100  0.684700  0.571300  1.0  -0.3774
  N  N281  1  0.281300  0.823700  0.516600  1.0  -0.3758
  N  N282  1  0.698600  0.113400  0.649700  1.0  -0.3728
  N  N283  1  0.739900  0.315300  0.571300  1.0  -0.3765
  N  N284  1  0.718700  0.176300  0.516600  1.0  -0.3762
  O  O285  1  0.463200  0.087400  0.270300  1.0  -0.6294
  O  O286  1  0.563200  0.048100  0.257300  1.0  -0.6233
  O  O287  1  0.370400  0.954500  0.361700  1.0  -0.6132
  O  O288  1  0.395800  0.089600  0.374200  1.0  -0.6178
  O  O289  1  0.536300  0.912100  0.453000  1.0  -0.617
  O  O290  1  0.413700  0.958800  0.454000  1.0  -0.6255
  O  O291  1  0.536800  0.912600  0.270300  1.0  -0.6298
  O  O292  1  0.436800  0.951900  0.257300  1.0  -0.623
  O  O293  1  0.629600  0.045500  0.361700  1.0  -0.6131
  O  O294  1  0.604200  0.910400  0.374200  1.0  -0.6168
  O  O295  1  0.463700  0.087900  0.453000  1.0  -0.6179
  O  O296  1  0.586300  0.041200  0.454000  1.0  -0.6241
  O  O297  1  0.087400  0.536800  0.729700  1.0  -0.6292
  O  O298  1  0.048100  0.436800  0.742700  1.0  -0.6225
  O  O299  1  0.954500  0.629600  0.638300  1.0  -0.612
  O  O300  1  0.089600  0.604200  0.625800  1.0  -0.6179
  O  O301  1  0.912100  0.463700  0.547000  1.0  -0.6229
  O  O302  1  0.958800  0.586300  0.546000  1.0  -0.6241
  O  O303  1  0.912600  0.463200  0.729700  1.0  -0.6292
  O  O304  1  0.951900  0.563200  0.742700  1.0  -0.6221
  O  O305  1  0.045500  0.370400  0.638300  1.0  -0.6111
  O  O306  1  0.910400  0.395800  0.625800  1.0  -0.619
  O  O307  1  0.087900  0.536300  0.547000  1.0  -0.6207
  O  O308  1  0.041200  0.413700  0.546000  1.0  -0.6233
  O  O309  1  0.036800  0.587400  0.229700  1.0  -0.6298
  O  O310  1  0.936800  0.548100  0.242700  1.0  -0.6238
  O  O311  1  0.129600  0.454500  0.138300  1.0  -0.6147
  O  O312  1  0.104200  0.589600  0.125800  1.0  -0.6171
  O  O313  1  0.963700  0.412100  0.047000  1.0  -0.6175
  O  O314  1  0.086300  0.458800  0.046000  1.0  -0.6233
  O  O315  1  0.963200  0.412600  0.229700  1.0  -0.629
  O  O316  1  0.063200  0.451900  0.242700  1.0  -0.6236
  O  O317  1  0.870400  0.545500  0.138300  1.0  -0.6129
  O  O318  1  0.895800  0.410400  0.125800  1.0  -0.6173
  O  O319  1  0.036300  0.587900  0.047000  1.0  -0.6174
  O  O320  1  0.913700  0.541200  0.046000  1.0  -0.6246
  O  O321  1  0.412600  0.036800  0.770300  1.0  -0.6303
  O  O322  1  0.451900  0.936800  0.757300  1.0  -0.6227
  O  O323  1  0.545500  0.129600  0.861700  1.0  -0.6113
  O  O324  1  0.410400  0.104200  0.874200  1.0  -0.6186
  O  O325  1  0.587900  0.963700  0.953000  1.0  -0.6216
  O  O326  1  0.541200  0.086300  0.954000  1.0  -0.6245
  O  O327  1  0.587400  0.963200  0.770300  1.0  -0.6296
  O  O328  1  0.548100  0.063200  0.757300  1.0  -0.6221
  O  O329  1  0.454500  0.870400  0.861700  1.0  -0.611
  O  O330  1  0.589600  0.895800  0.874200  1.0  -0.6173
  O  O331  1  0.412100  0.036300  0.953000  1.0  -0.622
  O  O332  1  0.458800  0.913700  0.954000  1.0  -0.6248
  O  O333  1  0.500000  0.000000  0.361500  1.0  -1.0246
  O  O334  1  0.000000  0.500000  0.638500  1.0  -1.0239
  O  O335  1  0.000000  0.500000  0.138500  1.0  -1.0239
  O  O336  1  0.500000  0.000000  0.861500  1.0  -1.0246
