# generated using pymatgen
data_Mn3Cr6H48C72N12(Cl3O13)2
_symmetry_space_group_name_H-M   'P 1'
_cell_length_a   22.04500000
_cell_length_b   22.04500000
_cell_length_c   21.76800000
_cell_angle_alpha   90.00000000
_cell_angle_beta   90.00000000
_cell_angle_gamma   120.00000000
_symmetry_Int_Tables_number   1
_chemical_formula_structural   Mn3Cr6H48C72N12(Cl3O13)2
_chemical_formula_sum   'Mn6 Cr12 H96 C144 N24 Cl12 O52'
_cell_volume   9161.55866269
_cell_formula_units_Z   2
loop_
 _symmetry_equiv_pos_site_id
 _symmetry_equiv_pos_as_xyz
  1  'x, y, z'
loop_
 _atom_site_type_symbol
 _atom_site_label
 _atom_site_symmetry_multiplicity
 _atom_site_fract_x
 _atom_site_fract_y
 _atom_site_fract_z
 _atom_site_occupancy
 _atom_site_charge
  Mn  Mn1  1  0.500000  0.000000  0.000000  1.0  0.6636
  Mn  Mn2  1  0.000000  0.500000  0.000000  1.0  0.6636
  Mn  Mn3  1  0.500000  0.500000  0.000000  1.0  0.6636
  Mn  Mn4  1  0.500000  0.000000  0.500000  1.0  0.6636
  Mn  Mn5  1  0.000000  0.500000  0.500000  1.0  0.6636
  Mn  Mn6  1  0.500000  0.500000  0.500000  1.0  0.6636
  Cr  Cr7  1  0.665170  0.246060  0.250000  1.0  1.5252
  Cr  Cr8  1  0.753940  0.419110  0.250000  1.0  1.5275
  Cr  Cr9  1  0.580890  0.334830  0.250000  1.0  1.5226
  Cr  Cr10  1  0.334830  0.753940  0.750000  1.0  1.5283
  Cr  Cr11  1  0.246060  0.580890  0.750000  1.0  1.5256
  Cr  Cr12  1  0.419110  0.665170  0.750000  1.0  1.5254
  Cr  Cr13  1  0.246060  0.665170  0.250000  1.0  1.5226
  Cr  Cr14  1  0.419110  0.753940  0.250000  1.0  1.5277
  Cr  Cr15  1  0.334830  0.580890  0.250000  1.0  1.5248
  Cr  Cr16  1  0.753940  0.334830  0.750000  1.0  1.5254
  Cr  Cr17  1  0.580890  0.246060  0.750000  1.0  1.5257
  Cr  Cr18  1  0.665170  0.419110  0.750000  1.0  1.5283
  H  H19  1  0.555700  0.121900  0.099900  1.0  0.0827
  H  H20  1  0.393900  0.061100  0.989200  1.0  0.0876
  H  H21  1  0.366700  0.139900  0.031900  1.0  0.123
  H  H22  1  0.435800  0.212300  0.113400  1.0  0.1119
  H  H23  1  0.878100  0.433800  0.099900  1.0  0.083
  H  H24  1  0.938900  0.332800  0.989200  1.0  0.0872
  H  H25  1  0.860100  0.226800  0.031900  1.0  0.1221
  H  H26  1  0.787700  0.223500  0.113400  1.0  0.1115
  H  H27  1  0.566200  0.444300  0.099900  1.0  0.0826
  H  H28  1  0.667200  0.606100  0.989200  1.0  0.0885
  H  H29  1  0.773200  0.633300  0.031900  1.0  0.1213
  H  H30  1  0.776500  0.564200  0.113400  1.0  0.1113
  H  H31  1  0.444300  0.878100  0.599900  1.0  0.0828
  H  H32  1  0.606100  0.938900  0.489200  1.0  0.0876
  H  H33  1  0.633300  0.860100  0.531900  1.0  0.1225
  H  H34  1  0.564200  0.787700  0.613400  1.0  0.1121
  H  H35  1  0.121900  0.566200  0.599900  1.0  0.0828
  H  H36  1  0.061100  0.667200  0.489200  1.0  0.0874
  H  H37  1  0.139900  0.773200  0.531900  1.0  0.1218
  H  H38  1  0.212300  0.776500  0.613400  1.0  0.112
  H  H39  1  0.433800  0.555700  0.599900  1.0  0.082
  H  H40  1  0.332800  0.393900  0.489200  1.0  0.0884
  H  H41  1  0.226800  0.366700  0.531900  1.0  0.1215
  H  H42  1  0.223500  0.435800  0.613400  1.0  0.1118
  H  H43  1  0.121900  0.555700  0.400100  1.0  0.0825
  H  H44  1  0.061100  0.393900  0.510800  1.0  0.0879
  H  H45  1  0.139900  0.366700  0.468100  1.0  0.1213
  H  H46  1  0.212300  0.435800  0.386600  1.0  0.1115
  H  H47  1  0.433800  0.878100  0.400100  1.0  0.0823
  H  H48  1  0.332800  0.938900  0.510800  1.0  0.0871
  H  H49  1  0.226800  0.860100  0.468100  1.0  0.1222
  H  H50  1  0.223500  0.787700  0.386600  1.0  0.1122
  H  H51  1  0.444300  0.566200  0.400100  1.0  0.0825
  H  H52  1  0.606100  0.667200  0.510800  1.0  0.0868
  H  H53  1  0.633300  0.773200  0.468100  1.0  0.1216
  H  H54  1  0.564200  0.776500  0.386600  1.0  0.1123
  H  H55  1  0.878100  0.444300  0.900100  1.0  0.0819
  H  H56  1  0.938900  0.606100  0.010800  1.0  0.0873
  H  H57  1  0.860100  0.633300  0.968100  1.0  0.1214
  H  H58  1  0.787700  0.564200  0.886600  1.0  0.1119
  H  H59  1  0.566200  0.121900  0.900100  1.0  0.0826
  H  H60  1  0.667200  0.061100  0.010800  1.0  0.0865
  H  H61  1  0.773200  0.139900  0.968100  1.0  0.1222
  H  H62  1  0.776500  0.212300  0.886600  1.0  0.1121
  H  H63  1  0.555700  0.433800  0.900100  1.0  0.0827
  H  H64  1  0.393900  0.332800  0.010800  1.0  0.0865
  H  H65  1  0.366700  0.226800  0.968100  1.0  0.1215
  H  H66  1  0.435800  0.223500  0.886600  1.0  0.1114
  H  H67  1  0.444300  0.878100  0.900100  1.0  0.0827
  H  H68  1  0.606100  0.938900  0.010800  1.0  0.0872
  H  H69  1  0.633300  0.860100  0.968100  1.0  0.1219
  H  H70  1  0.564200  0.787700  0.886600  1.0  0.1123
  H  H71  1  0.121900  0.566200  0.900100  1.0  0.0826
  H  H72  1  0.061100  0.667200  0.010800  1.0  0.0873
  H  H73  1  0.139900  0.773200  0.968100  1.0  0.1216
  H  H74  1  0.212300  0.776500  0.886600  1.0  0.1122
  H  H75  1  0.433800  0.555700  0.900100  1.0  0.0822
  H  H76  1  0.332800  0.393900  0.010800  1.0  0.0881
  H  H77  1  0.226800  0.366700  0.968100  1.0  0.1212
  H  H78  1  0.223500  0.435800  0.886600  1.0  0.1116
  H  H79  1  0.555700  0.121900  0.400100  1.0  0.0823
  H  H80  1  0.393900  0.061100  0.510800  1.0  0.0878
  H  H81  1  0.366700  0.139900  0.468100  1.0  0.1226
  H  H82  1  0.435800  0.212300  0.386600  1.0  0.1121
  H  H83  1  0.878100  0.433800  0.400100  1.0  0.0829
  H  H84  1  0.938900  0.332800  0.510800  1.0  0.087
  H  H85  1  0.860100  0.226800  0.468100  1.0  0.1216
  H  H86  1  0.787700  0.223500  0.386600  1.0  0.1114
  H  H87  1  0.566200  0.444300  0.400100  1.0  0.082
  H  H88  1  0.667200  0.606100  0.510800  1.0  0.0885
  H  H89  1  0.773200  0.633300  0.468100  1.0  0.1211
  H  H90  1  0.776500  0.564200  0.386600  1.0  0.1117
  H  H91  1  0.878100  0.444300  0.599900  1.0  0.0823
  H  H92  1  0.938900  0.606100  0.489200  1.0  0.0886
  H  H93  1  0.860100  0.633300  0.531900  1.0  0.1218
  H  H94  1  0.787700  0.564200  0.613400  1.0  0.1117
  H  H95  1  0.566200  0.121900  0.599900  1.0  0.0831
  H  H96  1  0.667200  0.061100  0.489200  1.0  0.0876
  H  H97  1  0.773200  0.139900  0.531900  1.0  0.1226
  H  H98  1  0.776500  0.212300  0.613400  1.0  0.1117
  H  H99  1  0.555700  0.433800  0.599900  1.0  0.0826
  H  H100  1  0.393900  0.332800  0.489200  1.0  0.0877
  H  H101  1  0.366700  0.226800  0.531900  1.0  0.1218
  H  H102  1  0.435800  0.223500  0.613400  1.0  0.1114
  H  H103  1  0.121900  0.555700  0.099900  1.0  0.0826
  H  H104  1  0.061100  0.393900  0.989200  1.0  0.0893
  H  H105  1  0.139900  0.366700  0.031900  1.0  0.1215
  H  H106  1  0.212300  0.435800  0.113400  1.0  0.1113
  H  H107  1  0.433800  0.878100  0.099900  1.0  0.0823
  H  H108  1  0.332800  0.938900  0.989200  1.0  0.0883
  H  H109  1  0.226800  0.860100  0.031900  1.0  0.1226
  H  H110  1  0.223500  0.787700  0.113400  1.0  0.1124
  H  H111  1  0.444300  0.566200  0.099900  1.0  0.083
  H  H112  1  0.606100  0.667200  0.989200  1.0  0.0882
  H  H113  1  0.633300  0.773200  0.031900  1.0  0.122
  H  H114  1  0.564200  0.776500  0.113400  1.0  0.1121
  C  C115  1  0.548600  0.217100  0.166200  1.0  0.7264
  C  C116  1  0.503600  0.173600  0.113900  1.0  -0.1612
  C  C117  1  0.517200  0.126000  0.085700  1.0  0.1802
  C  C118  1  0.422900  0.090700  0.021200  1.0  0.1687
  C  C119  1  0.405800  0.137100  0.046700  1.0  -0.1649
  C  C120  1  0.446500  0.179900  0.094500  1.0  -0.0534
  C  C121  1  0.782900  0.331500  0.166200  1.0  0.7269
  C  C122  1  0.826400  0.330000  0.113900  1.0  -0.1614
  C  C123  1  0.874000  0.391200  0.085700  1.0  0.1825
  C  C124  1  0.909300  0.332200  0.021200  1.0  0.1687
  C  C125  1  0.862900  0.268700  0.046700  1.0  -0.1625
  C  C126  1  0.820100  0.266600  0.094500  1.0  -0.0553
  C  C127  1  0.668500  0.451400  0.166200  1.0  0.7268
  C  C128  1  0.670000  0.496400  0.113900  1.0  -0.1608
  C  C129  1  0.608800  0.482800  0.085700  1.0  0.1812
  C  C130  1  0.667800  0.577100  0.021200  1.0  0.1688
  C  C131  1  0.731300  0.594200  0.046700  1.0  -0.1649
  C  C132  1  0.733400  0.553500  0.094500  1.0  -0.0546
  C  C133  1  0.451400  0.782900  0.666200  1.0  0.7268
  C  C134  1  0.496400  0.826400  0.613900  1.0  -0.1611
  C  C135  1  0.482800  0.874000  0.585700  1.0  0.1802
  C  C136  1  0.577100  0.909300  0.521200  1.0  0.1693
  C  C137  1  0.594200  0.862900  0.546700  1.0  -0.1635
  C  C138  1  0.553500  0.820100  0.594500  1.0  -0.0523
  C  C139  1  0.217100  0.668500  0.666200  1.0  0.7258
  C  C140  1  0.173600  0.670000  0.613900  1.0  -0.161
  C  C141  1  0.126000  0.608800  0.585700  1.0  0.1831
  C  C142  1  0.090700  0.667800  0.521200  1.0  0.1689
  C  C143  1  0.137100  0.731300  0.546700  1.0  -0.1646
  C  C144  1  0.179900  0.733400  0.594500  1.0  -0.0544
  C  C145  1  0.331500  0.548600  0.666200  1.0  0.7277
  C  C146  1  0.330000  0.503600  0.613900  1.0  -0.161
  C  C147  1  0.391200  0.517200  0.585700  1.0  0.1823
  C  C148  1  0.332200  0.422900  0.521200  1.0  0.169
  C  C149  1  0.268700  0.405800  0.546700  1.0  -0.1653
  C  C150  1  0.266600  0.446500  0.594500  1.0  -0.0536
  C  C151  1  0.217100  0.548600  0.333800  1.0  0.7269
  C  C152  1  0.173600  0.503600  0.386100  1.0  -0.1615
  C  C153  1  0.126000  0.517200  0.414300  1.0  0.1813
  C  C154  1  0.090700  0.422900  0.478800  1.0  0.1695
  C  C155  1  0.137100  0.405800  0.453300  1.0  -0.1648
  C  C156  1  0.179900  0.446500  0.405500  1.0  -0.0549
  C  C157  1  0.331500  0.782900  0.333800  1.0  0.7255
  C  C158  1  0.330000  0.826400  0.386100  1.0  -0.1618
  C  C159  1  0.391200  0.874000  0.414300  1.0  0.1796
  C  C160  1  0.332200  0.909300  0.478800  1.0  0.1714
  C  C161  1  0.268700  0.862900  0.453300  1.0  -0.1651
  C  C162  1  0.266600  0.820100  0.405500  1.0  -0.0521
  C  C163  1  0.451400  0.668500  0.333800  1.0  0.7264
  C  C164  1  0.496400  0.670000  0.386100  1.0  -0.1621
  C  C165  1  0.482800  0.608800  0.414300  1.0  0.1824
  C  C166  1  0.577100  0.667800  0.478800  1.0  0.1702
  C  C167  1  0.594200  0.731300  0.453300  1.0  -0.1641
  C  C168  1  0.553500  0.733400  0.405500  1.0  -0.0555
  C  C169  1  0.782900  0.451400  0.833800  1.0  0.727
  C  C170  1  0.826400  0.496400  0.886100  1.0  -0.1617
  C  C171  1  0.874000  0.482800  0.914300  1.0  0.1808
  C  C172  1  0.909300  0.577100  0.978800  1.0  0.1713
  C  C173  1  0.862900  0.594200  0.953300  1.0  -0.1665
  C  C174  1  0.820100  0.553500  0.905500  1.0  -0.0541
  C  C175  1  0.668500  0.217100  0.833800  1.0  0.7269
  C  C176  1  0.670000  0.173600  0.886100  1.0  -0.162
  C  C177  1  0.608800  0.126000  0.914300  1.0  0.1801
  C  C178  1  0.667800  0.090700  0.978800  1.0  0.1704
  C  C179  1  0.731300  0.137100  0.953300  1.0  -0.163
  C  C180  1  0.733400  0.179900  0.905500  1.0  -0.0538
  C  C181  1  0.548600  0.331500  0.833800  1.0  0.7254
  C  C182  1  0.503600  0.330000  0.886100  1.0  -0.1614
  C  C183  1  0.517200  0.391200  0.914300  1.0  0.1832
  C  C184  1  0.422900  0.332200  0.978800  1.0  0.1709
  C  C185  1  0.405800  0.268700  0.953300  1.0  -0.1631
  C  C186  1  0.446500  0.266600  0.905500  1.0  -0.0539
  C  C187  1  0.451400  0.782900  0.833800  1.0  0.7266
  C  C188  1  0.496400  0.826400  0.886100  1.0  -0.1623
  C  C189  1  0.482800  0.874000  0.914300  1.0  0.18
  C  C190  1  0.577100  0.909300  0.978800  1.0  0.1699
  C  C191  1  0.594200  0.862900  0.953300  1.0  -0.1631
  C  C192  1  0.553500  0.820100  0.905500  1.0  -0.0527
  C  C193  1  0.217100  0.668500  0.833800  1.0  0.7254
  C  C194  1  0.173600  0.670000  0.886100  1.0  -0.1614
  C  C195  1  0.126000  0.608800  0.914300  1.0  0.1825
  C  C196  1  0.090700  0.667800  0.978800  1.0  0.1699
  C  C197  1  0.137100  0.731300  0.953300  1.0  -0.1648
  C  C198  1  0.179900  0.733400  0.905500  1.0  -0.0545
  C  C199  1  0.331500  0.548600  0.833800  1.0  0.7274
  C  C200  1  0.330000  0.503600  0.886100  1.0  -0.1615
  C  C201  1  0.391200  0.517200  0.914300  1.0  0.1818
  C  C202  1  0.332200  0.422900  0.978800  1.0  0.1698
  C  C203  1  0.268700  0.405800  0.953300  1.0  -0.1653
  C  C204  1  0.266600  0.446500  0.905500  1.0  -0.0534
  C  C205  1  0.548600  0.217100  0.333800  1.0  0.7259
  C  C206  1  0.503600  0.173600  0.386100  1.0  -0.1618
  C  C207  1  0.517200  0.126000  0.414300  1.0  0.1793
  C  C208  1  0.422900  0.090700  0.478800  1.0  0.1695
  C  C209  1  0.405800  0.137100  0.453300  1.0  -0.1652
  C  C210  1  0.446500  0.179900  0.405500  1.0  -0.0535
  C  C211  1  0.782900  0.331500  0.333800  1.0  0.7264
  C  C212  1  0.826400  0.330000  0.386100  1.0  -0.1621
  C  C213  1  0.874000  0.391200  0.414300  1.0  0.183
  C  C214  1  0.909300  0.332200  0.478800  1.0  0.1691
  C  C215  1  0.862900  0.268700  0.453300  1.0  -0.1626
  C  C216  1  0.820100  0.266600  0.405500  1.0  -0.0552
  C  C217  1  0.668500  0.451400  0.333800  1.0  0.7266
  C  C218  1  0.670000  0.496400  0.386100  1.0  -0.1617
  C  C219  1  0.608800  0.482800  0.414300  1.0  0.1805
  C  C220  1  0.667800  0.577100  0.478800  1.0  0.1689
  C  C221  1  0.731300  0.594200  0.453300  1.0  -0.165
  C  C222  1  0.733400  0.553500  0.405500  1.0  -0.0548
  C  C223  1  0.782900  0.451400  0.666200  1.0  0.7273
  C  C224  1  0.826400  0.496400  0.613900  1.0  -0.1606
  C  C225  1  0.874000  0.482800  0.585700  1.0  0.1816
  C  C226  1  0.909300  0.577100  0.521200  1.0  0.169
  C  C227  1  0.862900  0.594200  0.546700  1.0  -0.1662
  C  C228  1  0.820100  0.553500  0.594500  1.0  -0.0543
  C  C229  1  0.668500  0.217100  0.666200  1.0  0.7273
  C  C230  1  0.670000  0.173600  0.613900  1.0  -0.1617
  C  C231  1  0.608800  0.126000  0.585700  1.0  0.1805
  C  C232  1  0.667800  0.090700  0.521200  1.0  0.1675
  C  C233  1  0.731300  0.137100  0.546700  1.0  -0.1634
  C  C234  1  0.733400  0.179900  0.594500  1.0  -0.0532
  C  C235  1  0.548600  0.331500  0.666200  1.0  0.7258
  C  C236  1  0.503600  0.330000  0.613900  1.0  -0.1608
  C  C237  1  0.517200  0.391200  0.585700  1.0  0.183
  C  C238  1  0.422900  0.332200  0.521200  1.0  0.1679
  C  C239  1  0.405800  0.268700  0.546700  1.0  -0.1631
  C  C240  1  0.446500  0.266600  0.594500  1.0  -0.0541
  C  C241  1  0.217100  0.548600  0.166200  1.0  0.7272
  C  C242  1  0.173600  0.503600  0.113900  1.0  -0.1611
  C  C243  1  0.126000  0.517200  0.085700  1.0  0.1816
  C  C244  1  0.090700  0.422900  0.021200  1.0  0.1666
  C  C245  1  0.137100  0.405800  0.046700  1.0  -0.1647
  C  C246  1  0.179900  0.446500  0.094500  1.0  -0.0548
  C  C247  1  0.331500  0.782900  0.166200  1.0  0.7258
  C  C248  1  0.330000  0.826400  0.113900  1.0  -0.1605
  C  C249  1  0.391200  0.874000  0.085700  1.0  0.1802
  C  C250  1  0.332200  0.909300  0.021200  1.0  0.1687
  C  C251  1  0.268700  0.862900  0.046700  1.0  -0.1649
  C  C252  1  0.266600  0.820100  0.094500  1.0  -0.0522
  C  C253  1  0.451400  0.668500  0.166200  1.0  0.7269
  C  C254  1  0.496400  0.670000  0.113900  1.0  -0.1615
  C  C255  1  0.482800  0.608800  0.085700  1.0  0.1829
  C  C256  1  0.577100  0.667800  0.021200  1.0  0.1673
  C  C257  1  0.594200  0.731300  0.046700  1.0  -0.164
  C  C258  1  0.553500  0.733400  0.094500  1.0  -0.0548
  N  N259  1  0.478300  0.084600  0.038700  1.0  -0.3286
  N  N260  1  0.915400  0.393700  0.038700  1.0  -0.3301
  N  N261  1  0.606300  0.521700  0.038700  1.0  -0.3294
  N  N262  1  0.521700  0.915400  0.538700  1.0  -0.3291
  N  N263  1  0.084600  0.606300  0.538700  1.0  -0.3313
  N  N264  1  0.393700  0.478300  0.538700  1.0  -0.3282
  N  N265  1  0.084600  0.478300  0.461300  1.0  -0.3301
  N  N266  1  0.393700  0.915400  0.461300  1.0  -0.3288
  N  N267  1  0.521700  0.606300  0.461300  1.0  -0.3309
  N  N268  1  0.915400  0.521700  0.961300  1.0  -0.3284
  N  N269  1  0.606300  0.084600  0.961300  1.0  -0.3302
  N  N270  1  0.478300  0.393700  0.961300  1.0  -0.3323
  N  N271  1  0.521700  0.915400  0.961300  1.0  -0.3302
  N  N272  1  0.084600  0.606300  0.961300  1.0  -0.3314
  N  N273  1  0.393700  0.478300  0.961300  1.0  -0.3287
  N  N274  1  0.478300  0.084600  0.461300  1.0  -0.3285
  N  N275  1  0.915400  0.393700  0.461300  1.0  -0.3319
  N  N276  1  0.606300  0.521700  0.461300  1.0  -0.33
  N  N277  1  0.915400  0.521700  0.538700  1.0  -0.3282
  N  N278  1  0.606300  0.084600  0.538700  1.0  -0.3299
  N  N279  1  0.478300  0.393700  0.538700  1.0  -0.3305
  N  N280  1  0.084600  0.478300  0.038700  1.0  -0.329
  N  N281  1  0.393700  0.915400  0.038700  1.0  -0.3282
  N  N282  1  0.521700  0.606300  0.038700  1.0  -0.3306
  Cl  Cl283  1  0.559390  0.000000  0.097140  1.0  -0.5847
  Cl  Cl284  1  0.000000  0.559390  0.097140  1.0  -0.5833
  Cl  Cl285  1  0.440610  0.440610  0.097140  1.0  -0.5835
  Cl  Cl286  1  0.440610  0.000000  0.597140  1.0  -0.5854
  Cl  Cl287  1  0.000000  0.440610  0.597140  1.0  -0.5834
  Cl  Cl288  1  0.559390  0.559390  0.597140  1.0  -0.5836
  Cl  Cl289  1  0.000000  0.559390  0.402860  1.0  -0.5852
  Cl  Cl290  1  0.559390  0.000000  0.402860  1.0  -0.5855
  Cl  Cl291  1  0.440610  0.440610  0.402860  1.0  -0.5849
  Cl  Cl292  1  0.000000  0.440610  0.902860  1.0  -0.585
  Cl  Cl293  1  0.440610  0.000000  0.902860  1.0  -0.5861
  Cl  Cl294  1  0.559390  0.559390  0.902860  1.0  -0.5856
  O  O295  1  0.594060  0.203890  0.185120  1.0  -0.6142
  O  O296  1  0.536410  0.263700  0.185800  1.0  -0.6051
  O  O297  1  0.796110  0.390170  0.185120  1.0  -0.6138
  O  O298  1  0.736300  0.272710  0.185800  1.0  -0.6034
  O  O299  1  0.609830  0.405940  0.185120  1.0  -0.6145
  O  O300  1  0.727290  0.463590  0.185800  1.0  -0.6029
  O  O301  1  0.405940  0.796110  0.685120  1.0  -0.6138
  O  O302  1  0.463590  0.736300  0.685800  1.0  -0.6052
  O  O303  1  0.203890  0.609830  0.685120  1.0  -0.6158
  O  O304  1  0.263700  0.727290  0.685800  1.0  -0.6049
  O  O305  1  0.390170  0.594060  0.685120  1.0  -0.6157
  O  O306  1  0.272710  0.536410  0.685800  1.0  -0.6042
  O  O307  1  0.203890  0.594060  0.314880  1.0  -0.6149
  O  O308  1  0.263700  0.536410  0.314200  1.0  -0.6039
  O  O309  1  0.390170  0.796110  0.314880  1.0  -0.614
  O  O310  1  0.272710  0.736300  0.314200  1.0  -0.6059
  O  O311  1  0.405940  0.609830  0.314880  1.0  -0.6145
  O  O312  1  0.463590  0.727290  0.314200  1.0  -0.6031
  O  O313  1  0.796110  0.405940  0.814880  1.0  -0.6148
  O  O314  1  0.736300  0.463590  0.814200  1.0  -0.6036
  O  O315  1  0.609830  0.203890  0.814880  1.0  -0.614
  O  O316  1  0.727290  0.263700  0.814200  1.0  -0.6049
  O  O317  1  0.594060  0.390170  0.814880  1.0  -0.6156
  O  O318  1  0.536410  0.272710  0.814200  1.0  -0.6049
  O  O319  1  0.405940  0.796110  0.814880  1.0  -0.614
  O  O320  1  0.463590  0.736300  0.814200  1.0  -0.6048
  O  O321  1  0.203890  0.609830  0.814880  1.0  -0.6161
  O  O322  1  0.263700  0.727290  0.814200  1.0  -0.6048
  O  O323  1  0.390170  0.594060  0.814880  1.0  -0.6154
  O  O324  1  0.272710  0.536410  0.814200  1.0  -0.6042
  O  O325  1  0.594060  0.203890  0.314880  1.0  -0.6142
  O  O326  1  0.536410  0.263700  0.314200  1.0  -0.6052
  O  O327  1  0.796110  0.390170  0.314880  1.0  -0.6138
  O  O328  1  0.736300  0.272710  0.314200  1.0  -0.6035
  O  O329  1  0.609830  0.405940  0.314880  1.0  -0.6149
  O  O330  1  0.727290  0.463590  0.314200  1.0  -0.603
  O  O331  1  0.796110  0.405940  0.685120  1.0  -0.6149
  O  O332  1  0.736300  0.463590  0.685800  1.0  -0.6035
  O  O333  1  0.609830  0.203890  0.685120  1.0  -0.6139
  O  O334  1  0.727290  0.263700  0.685800  1.0  -0.6055
  O  O335  1  0.594060  0.390170  0.685120  1.0  -0.6154
  O  O336  1  0.536410  0.272710  0.685800  1.0  -0.6047
  O  O337  1  0.203890  0.594060  0.185120  1.0  -0.6146
  O  O338  1  0.263700  0.536410  0.185800  1.0  -0.6038
  O  O339  1  0.390170  0.796110  0.185120  1.0  -0.6138
  O  O340  1  0.272710  0.736300  0.185800  1.0  -0.6056
  O  O341  1  0.405940  0.609830  0.185120  1.0  -0.6144
  O  O342  1  0.463590  0.727290  0.185800  1.0  -0.6032
  O  O343  1  0.666667  0.333333  0.250000  1.0  -1.1345
  O  O344  1  0.333333  0.666667  0.750000  1.0  -1.1345
  O  O345  1  0.333333  0.666667  0.250000  1.0  -1.1345
  O  O346  1  0.666667  0.333333  0.750000  1.0  -1.1345
