# generated using pymatgen
data_Al2H14C21NO8
_symmetry_space_group_name_H-M   'P 1'
_cell_length_a   16.27960000
_cell_length_b   16.75540000
_cell_length_c   33.21170000
_cell_angle_alpha   90.00000000
_cell_angle_beta   90.00000000
_cell_angle_gamma   90.00000000
_symmetry_Int_Tables_number   1
_chemical_formula_structural   Al2H14C21NO8
_chemical_formula_sum   'Al16 H112 C168 N8 O64'
_cell_volume   9059.19558984
_cell_formula_units_Z   8
loop_
 _symmetry_equiv_pos_site_id
 _symmetry_equiv_pos_as_xyz
  1  'x, y, z'
loop_
 _atom_site_type_symbol
 _atom_site_label
 _atom_site_symmetry_multiplicity
 _atom_site_fract_x
 _atom_site_fract_y
 _atom_site_fract_z
 _atom_site_occupancy
 _atom_site_charge
  Al  Al1  1  0.357050  0.616570  0.091370  1.0  1.4894
  Al  Al2  1  0.642950  0.383430  0.091370  1.0  1.48
  Al  Al3  1  0.142950  0.116570  0.408630  1.0  1.4785
  Al  Al4  1  0.857050  0.883430  0.408630  1.0  1.4877
  Al  Al5  1  0.642950  0.383430  0.908630  1.0  1.4797
  Al  Al6  1  0.357050  0.616570  0.908630  1.0  1.488
  Al  Al7  1  0.857050  0.883430  0.591370  1.0  1.4891
  Al  Al8  1  0.142950  0.116570  0.591370  1.0  1.4792
  Al  Al9  1  0.353820  0.708920  0.000000  1.0  1.6344
  Al  Al10  1  0.646180  0.291080  0.000000  1.0  1.633
  Al  Al11  1  0.146180  0.208920  0.500000  1.0  1.6336
  Al  Al12  1  0.853820  0.791080  0.500000  1.0  1.6339
  Al  Al13  1  0.000000  0.000000  0.369770  1.0  1.7887
  Al  Al14  1  0.500000  0.500000  0.130230  1.0  1.7881
  Al  Al15  1  0.000000  0.000000  0.630230  1.0  1.7881
  Al  Al16  1  0.500000  0.500000  0.869770  1.0  1.7887
  H  H17  1  0.438100  0.621700  0.034600  1.0  0.3919
  H  H18  1  0.288400  0.792700  0.154500  1.0  0.0962
  H  H19  1  0.294000  0.928500  0.054900  1.0  0.0941
  H  H20  1  0.294600  0.905500  0.193400  1.0  0.1057
  H  H21  1  0.294800  0.041400  0.094300  1.0  0.1123
  H  H22  1  0.351700  0.115800  0.239300  1.0  0.1172
  H  H23  1  0.154100  0.001100  0.194300  1.0  0.1109
  H  H24  1  0.258100  0.203800  0.174000  1.0  0.1149
  H  H25  1  0.445600  0.063700  0.139400  1.0  0.0939
  H  H26  1  0.290700  0.117100  0.302000  1.0  0.0975
  H  H27  1  0.095000  0.000300  0.258200  1.0  0.1009
  H  H28  1  0.334900  0.314700  0.157900  1.0  0.0946
  H  H29  1  0.521200  0.174100  0.122300  1.0  0.086
  H  H30  1  0.084900  0.993500  0.426200  1.0  0.4682
  H  H31  1  0.561900  0.378300  0.034600  1.0  0.3927
  H  H32  1  0.711600  0.207300  0.154500  1.0  0.0958
  H  H33  1  0.706000  0.071500  0.054900  1.0  0.0938
  H  H34  1  0.705400  0.094500  0.193400  1.0  0.1057
  H  H35  1  0.705200  0.958600  0.094300  1.0  0.1122
  H  H36  1  0.648300  0.884200  0.239300  1.0  0.1176
  H  H37  1  0.845900  0.998900  0.194300  1.0  0.1108
  H  H38  1  0.741900  0.796200  0.174000  1.0  0.1151
  H  H39  1  0.554400  0.936300  0.139400  1.0  0.094
  H  H40  1  0.709300  0.882900  0.302000  1.0  0.0975
  H  H41  1  0.905000  0.999700  0.258200  1.0  0.101
  H  H42  1  0.665100  0.685300  0.157900  1.0  0.0944
  H  H43  1  0.478800  0.825900  0.122300  1.0  0.0857
  H  H44  1  0.915100  0.006500  0.426200  1.0  0.4708
  H  H45  1  0.061900  0.121700  0.465400  1.0  0.3929
  H  H46  1  0.211600  0.292700  0.345500  1.0  0.096
  H  H47  1  0.206000  0.428500  0.445100  1.0  0.0938
  H  H48  1  0.205400  0.405500  0.306600  1.0  0.1062
  H  H49  1  0.205200  0.541400  0.405700  1.0  0.1121
  H  H50  1  0.148300  0.615800  0.260700  1.0  0.1172
  H  H51  1  0.345900  0.501100  0.305700  1.0  0.1104
  H  H52  1  0.241900  0.703800  0.326000  1.0  0.115
  H  H53  1  0.054400  0.563700  0.360600  1.0  0.0935
  H  H54  1  0.209300  0.617100  0.198000  1.0  0.0967
  H  H55  1  0.405000  0.500300  0.241800  1.0  0.1013
  H  H56  1  0.165100  0.814700  0.342100  1.0  0.0949
  H  H57  1  0.978800  0.674100  0.377700  1.0  0.0861
  H  H58  1  0.415100  0.493500  0.073800  1.0  0.4709
  H  H59  1  0.938100  0.878300  0.465400  1.0  0.3925
  H  H60  1  0.788400  0.707300  0.345500  1.0  0.096
  H  H61  1  0.794000  0.571500  0.445100  1.0  0.0938
  H  H62  1  0.794600  0.594500  0.306600  1.0  0.1064
  H  H63  1  0.794800  0.458600  0.405700  1.0  0.1126
  H  H64  1  0.851700  0.384200  0.260700  1.0  0.1176
  H  H65  1  0.654100  0.498900  0.305700  1.0  0.1106
  H  H66  1  0.758100  0.296200  0.326000  1.0  0.115
  H  H67  1  0.945600  0.436300  0.360600  1.0  0.0935
  H  H68  1  0.790700  0.382900  0.198000  1.0  0.0975
  H  H69  1  0.595000  0.499700  0.241800  1.0  0.101
  H  H70  1  0.834900  0.185300  0.342100  1.0  0.0943
  H  H71  1  0.021200  0.325900  0.377700  1.0  0.0856
  H  H72  1  0.584900  0.506500  0.073800  1.0  0.4723
  H  H73  1  0.561900  0.378300  0.965400  1.0  0.393
  H  H74  1  0.711600  0.207300  0.845500  1.0  0.0964
  H  H75  1  0.706000  0.071500  0.945100  1.0  0.0937
  H  H76  1  0.705400  0.094500  0.806600  1.0  0.1067
  H  H77  1  0.705200  0.958600  0.905700  1.0  0.1122
  H  H78  1  0.648300  0.884200  0.760700  1.0  0.1178
  H  H79  1  0.845900  0.998900  0.805700  1.0  0.1103
  H  H80  1  0.741900  0.796200  0.826000  1.0  0.1146
  H  H81  1  0.554400  0.936300  0.860600  1.0  0.0939
  H  H82  1  0.709300  0.882900  0.698000  1.0  0.0968
  H  H83  1  0.905000  0.999700  0.741800  1.0  0.101
  H  H84  1  0.665100  0.685300  0.842100  1.0  0.0947
  H  H85  1  0.478800  0.825900  0.877700  1.0  0.0858
  H  H86  1  0.915100  0.006500  0.573800  1.0  0.4717
  H  H87  1  0.438100  0.621700  0.965400  1.0  0.3928
  H  H88  1  0.288400  0.792700  0.845500  1.0  0.0958
  H  H89  1  0.294000  0.928500  0.945100  1.0  0.0939
  H  H90  1  0.294600  0.905500  0.806600  1.0  0.1059
  H  H91  1  0.294800  0.041400  0.905700  1.0  0.1123
  H  H92  1  0.351700  0.115800  0.760700  1.0  0.1179
  H  H93  1  0.154100  0.001100  0.805700  1.0  0.1108
  H  H94  1  0.258100  0.203800  0.826000  1.0  0.115
  H  H95  1  0.445600  0.063700  0.860600  1.0  0.0937
  H  H96  1  0.290700  0.117100  0.698000  1.0  0.0974
  H  H97  1  0.095000  0.000300  0.741800  1.0  0.1014
  H  H98  1  0.334900  0.314700  0.842100  1.0  0.0949
  H  H99  1  0.521200  0.174100  0.877700  1.0  0.0861
  H  H100  1  0.084900  0.993500  0.573800  1.0  0.4726
  H  H101  1  0.938100  0.878300  0.534600  1.0  0.3919
  H  H102  1  0.788400  0.707300  0.654500  1.0  0.0959
  H  H103  1  0.794000  0.571500  0.554900  1.0  0.0938
  H  H104  1  0.794600  0.594500  0.693400  1.0  0.1056
  H  H105  1  0.794800  0.458600  0.594300  1.0  0.1122
  H  H106  1  0.851700  0.384200  0.739300  1.0  0.117
  H  H107  1  0.654100  0.498900  0.694300  1.0  0.1109
  H  H108  1  0.758100  0.296200  0.674000  1.0  0.1152
  H  H109  1  0.945600  0.436300  0.639400  1.0  0.0938
  H  H110  1  0.790700  0.382900  0.802000  1.0  0.0978
  H  H111  1  0.595000  0.499700  0.758200  1.0  0.1006
  H  H112  1  0.834900  0.185300  0.657900  1.0  0.0943
  H  H113  1  0.021200  0.325900  0.622300  1.0  0.0858
  H  H114  1  0.584900  0.506500  0.926200  1.0  0.4692
  H  H115  1  0.061900  0.121700  0.534600  1.0  0.3924
  H  H116  1  0.211600  0.292700  0.654500  1.0  0.096
  H  H117  1  0.206000  0.428500  0.554900  1.0  0.094
  H  H118  1  0.205400  0.405500  0.693400  1.0  0.1057
  H  H119  1  0.205200  0.541400  0.594300  1.0  0.1122
  H  H120  1  0.148300  0.615800  0.739300  1.0  0.1173
  H  H121  1  0.345900  0.501100  0.694300  1.0  0.1108
  H  H122  1  0.241900  0.703800  0.674000  1.0  0.1149
  H  H123  1  0.054400  0.563700  0.639400  1.0  0.0936
  H  H124  1  0.209300  0.617100  0.802000  1.0  0.0971
  H  H125  1  0.405000  0.500300  0.758200  1.0  0.1009
  H  H126  1  0.165100  0.814700  0.657900  1.0  0.0946
  H  H127  1  0.978800  0.674100  0.622300  1.0  0.0856
  H  H128  1  0.415100  0.493500  0.926200  1.0  0.4693
  C  C129  1  0.297900  0.775730  0.075440  1.0  0.6653
  C  C130  1  0.293200  0.847900  0.100280  1.0  -0.1744
  C  C131  1  0.291300  0.842480  0.142220  1.0  -0.0556
  C  C132  1  0.294000  0.923640  0.082840  1.0  -0.0334
  C  C133  1  0.293900  0.910300  0.165520  1.0  -0.2096
  C  C134  1  0.294800  0.991300  0.106420  1.0  -0.2055
  C  C135  1  0.295500  0.985500  0.148300  1.0  0.1815
  C  C136  1  0.260000  0.056040  0.210520  1.0  0.1435
  C  C137  1  0.344600  0.121700  0.159030  1.0  0.134
  C  C138  1  0.300400  0.092500  0.242980  1.0  -0.2352
  C  C139  1  0.182000  0.023300  0.215960  1.0  -0.1962
  C  C140  1  0.311100  0.197800  0.163890  1.0  -0.2217
  C  C141  1  0.423300  0.114200  0.143070  1.0  -0.1531
  C  C142  1  0.263600  0.093700  0.280400  1.0  -0.0453
  C  C143  1  0.145900  0.024100  0.254240  1.0  -0.0523
  C  C144  1  0.356800  0.264100  0.153710  1.0  -0.0293
  C  C145  1  0.468500  0.180300  0.132580  1.0  -0.051
  C  C146  1  0.186100  0.060100  0.286020  1.0  -0.1399
  C  C147  1  0.435600  0.256690  0.137200  1.0  -0.1608
  C  C148  1  0.144400  0.061480  0.326420  1.0  0.6911
  C  C149  1  0.485720  0.328900  0.127420  1.0  0.7067
  C  C150  1  0.702100  0.224270  0.075440  1.0  0.6668
  C  C151  1  0.706800  0.152100  0.100280  1.0  -0.1745
  C  C152  1  0.708700  0.157520  0.142220  1.0  -0.0581
  C  C153  1  0.706000  0.076360  0.082840  1.0  -0.0325
  C  C154  1  0.706100  0.089700  0.165520  1.0  -0.2079
  C  C155  1  0.705200  0.008700  0.106420  1.0  -0.207
  C  C156  1  0.704500  0.014500  0.148300  1.0  0.1818
  C  C157  1  0.740000  0.943960  0.210520  1.0  0.1437
  C  C158  1  0.655400  0.878300  0.159030  1.0  0.1342
  C  C159  1  0.699600  0.907500  0.242980  1.0  -0.2349
  C  C160  1  0.818000  0.976700  0.215960  1.0  -0.1941
  C  C161  1  0.688900  0.802200  0.163890  1.0  -0.22
  C  C162  1  0.576700  0.885800  0.143070  1.0  -0.1524
  C  C163  1  0.736400  0.906300  0.280400  1.0  -0.0459
  C  C164  1  0.854100  0.975900  0.254240  1.0  -0.0539
  C  C165  1  0.643200  0.735900  0.153710  1.0  -0.0301
  C  C166  1  0.531500  0.819700  0.132580  1.0  -0.0504
  C  C167  1  0.813900  0.939900  0.286020  1.0  -0.1395
  C  C168  1  0.564400  0.743310  0.137200  1.0  -0.1615
  C  C169  1  0.855600  0.938520  0.326420  1.0  0.6912
  C  C170  1  0.514280  0.671100  0.127420  1.0  0.7057
  C  C171  1  0.202100  0.275730  0.424560  1.0  0.6677
  C  C172  1  0.206800  0.347900  0.399720  1.0  -0.1742
  C  C173  1  0.208700  0.342480  0.357780  1.0  -0.0548
  C  C174  1  0.206000  0.423640  0.417160  1.0  -0.0321
  C  C175  1  0.206100  0.410300  0.334480  1.0  -0.2037
  C  C176  1  0.205200  0.491300  0.393580  1.0  -0.2074
  C  C177  1  0.204500  0.485500  0.351700  1.0  0.1821
  C  C178  1  0.240000  0.556040  0.289480  1.0  0.1431
  C  C179  1  0.155400  0.621700  0.340970  1.0  0.1339
  C  C180  1  0.199600  0.592500  0.257020  1.0  -0.2355
  C  C181  1  0.318000  0.523300  0.284040  1.0  -0.193
  C  C182  1  0.188900  0.697800  0.336110  1.0  -0.2209
  C  C183  1  0.076700  0.614200  0.356930  1.0  -0.1521
  C  C184  1  0.236400  0.593700  0.219600  1.0  -0.0453
  C  C185  1  0.354100  0.524100  0.245760  1.0  -0.0532
  C  C186  1  0.143200  0.764100  0.346290  1.0  -0.0307
  C  C187  1  0.031500  0.680300  0.367420  1.0  -0.0506
  C  C188  1  0.313900  0.560100  0.213980  1.0  -0.1407
  C  C189  1  0.064400  0.756690  0.362800  1.0  -0.1618
  C  C190  1  0.355600  0.561480  0.173580  1.0  0.691
  C  C191  1  0.014280  0.828900  0.372580  1.0  0.7058
  C  C192  1  0.797900  0.724270  0.424560  1.0  0.666
  C  C193  1  0.793200  0.652100  0.399720  1.0  -0.1717
  C  C194  1  0.791300  0.657520  0.357780  1.0  -0.0557
  C  C195  1  0.794000  0.576360  0.417160  1.0  -0.0321
  C  C196  1  0.793900  0.589700  0.334480  1.0  -0.2063
  C  C197  1  0.794800  0.508700  0.393580  1.0  -0.2063
  C  C198  1  0.795500  0.514500  0.351700  1.0  0.1816
  C  C199  1  0.760000  0.443960  0.289480  1.0  0.1427
  C  C200  1  0.844600  0.378300  0.340970  1.0  0.134
  C  C201  1  0.800400  0.407500  0.257020  1.0  -0.2335
  C  C202  1  0.682000  0.476700  0.284040  1.0  -0.1951
  C  C203  1  0.811100  0.302200  0.336110  1.0  -0.2226
  C  C204  1  0.923300  0.385800  0.356930  1.0  -0.154
  C  C205  1  0.763600  0.406300  0.219600  1.0  -0.0457
  C  C206  1  0.645900  0.475900  0.245760  1.0  -0.0525
  C  C207  1  0.856800  0.235900  0.346290  1.0  -0.0299
  C  C208  1  0.968500  0.319700  0.367420  1.0  -0.0514
  C  C209  1  0.686100  0.439900  0.213980  1.0  -0.1412
  C  C210  1  0.935600  0.243310  0.362800  1.0  -0.1619
  C  C211  1  0.644400  0.438520  0.173580  1.0  0.6906
  C  C212  1  0.985720  0.171100  0.372580  1.0  0.7066
  C  C213  1  0.702100  0.224270  0.924560  1.0  0.6674
  C  C214  1  0.706800  0.152100  0.899720  1.0  -0.1751
  C  C215  1  0.708700  0.157520  0.857780  1.0  -0.0558
  C  C216  1  0.706000  0.076360  0.917160  1.0  -0.0324
  C  C217  1  0.706100  0.089700  0.834480  1.0  -0.2051
  C  C218  1  0.705200  0.008700  0.893580  1.0  -0.2062
  C  C219  1  0.704500  0.014500  0.851700  1.0  0.182
  C  C220  1  0.740000  0.943960  0.789480  1.0  0.143
  C  C221  1  0.655400  0.878300  0.840970  1.0  0.134
  C  C222  1  0.699600  0.907500  0.757020  1.0  -0.2342
  C  C223  1  0.818000  0.976700  0.784040  1.0  -0.1937
  C  C224  1  0.688900  0.802200  0.836110  1.0  -0.2204
  C  C225  1  0.576700  0.885800  0.856930  1.0  -0.1523
  C  C226  1  0.736400  0.906300  0.719600  1.0  -0.0455
  C  C227  1  0.854100  0.975900  0.745760  1.0  -0.0539
  C  C228  1  0.643200  0.735900  0.846290  1.0  -0.0304
  C  C229  1  0.531500  0.819700  0.867420  1.0  -0.0506
  C  C230  1  0.813900  0.939900  0.713980  1.0  -0.1407
  C  C231  1  0.564400  0.743310  0.862800  1.0  -0.1619
  C  C232  1  0.855600  0.938520  0.673580  1.0  0.6909
  C  C233  1  0.514280  0.671100  0.872580  1.0  0.7058
  C  C234  1  0.297900  0.775730  0.924560  1.0  0.6656
  C  C235  1  0.293200  0.847900  0.899720  1.0  -0.172
  C  C236  1  0.291300  0.842480  0.857780  1.0  -0.0544
  C  C237  1  0.294000  0.923640  0.917160  1.0  -0.0317
  C  C238  1  0.293900  0.910300  0.834480  1.0  -0.2047
  C  C239  1  0.294800  0.991300  0.893580  1.0  -0.2065
  C  C240  1  0.295500  0.985500  0.851700  1.0  0.1816
  C  C241  1  0.260000  0.056040  0.789480  1.0  0.1428
  C  C242  1  0.344600  0.121700  0.840970  1.0  0.1338
  C  C243  1  0.300400  0.092500  0.757020  1.0  -0.2351
  C  C244  1  0.182000  0.023300  0.784040  1.0  -0.195
  C  C245  1  0.311100  0.197800  0.836110  1.0  -0.2215
  C  C246  1  0.423300  0.114200  0.856930  1.0  -0.153
  C  C247  1  0.263600  0.093700  0.719600  1.0  -0.0456
  C  C248  1  0.145900  0.024100  0.745760  1.0  -0.0521
  C  C249  1  0.356800  0.264100  0.846290  1.0  -0.0295
  C  C250  1  0.468500  0.180300  0.867420  1.0  -0.0513
  C  C251  1  0.186100  0.060100  0.713980  1.0  -0.1412
  C  C252  1  0.435600  0.256690  0.862800  1.0  -0.1614
  C  C253  1  0.144400  0.061480  0.673580  1.0  0.6906
  C  C254  1  0.485720  0.328900  0.872580  1.0  0.7066
  C  C255  1  0.797900  0.724270  0.575440  1.0  0.6664
  C  C256  1  0.793200  0.652100  0.600280  1.0  -0.1724
  C  C257  1  0.791300  0.657520  0.642220  1.0  -0.0573
  C  C258  1  0.794000  0.576360  0.582840  1.0  -0.0313
  C  C259  1  0.793900  0.589700  0.665520  1.0  -0.2094
  C  C260  1  0.794800  0.508700  0.606420  1.0  -0.2062
  C  C261  1  0.795500  0.514500  0.648300  1.0  0.1814
  C  C262  1  0.760000  0.443960  0.710520  1.0  0.1435
  C  C263  1  0.844600  0.378300  0.659030  1.0  0.1342
  C  C264  1  0.800400  0.407500  0.742980  1.0  -0.2337
  C  C265  1  0.682000  0.476700  0.715960  1.0  -0.1957
  C  C266  1  0.811100  0.302200  0.663890  1.0  -0.2225
  C  C267  1  0.923300  0.385800  0.643070  1.0  -0.154
  C  C268  1  0.763600  0.406300  0.780400  1.0  -0.0453
  C  C269  1  0.645900  0.475900  0.754240  1.0  -0.0526
  C  C270  1  0.856800  0.235900  0.653710  1.0  -0.0294
  C  C271  1  0.968500  0.319700  0.632580  1.0  -0.0511
  C  C272  1  0.686100  0.439900  0.786020  1.0  -0.1399
  C  C273  1  0.935600  0.243310  0.637200  1.0  -0.1616
  C  C274  1  0.644400  0.438520  0.826420  1.0  0.6909
  C  C275  1  0.985720  0.171100  0.627420  1.0  0.7067
  C  C276  1  0.202100  0.275730  0.575440  1.0  0.6665
  C  C277  1  0.206800  0.347900  0.600280  1.0  -0.1753
  C  C278  1  0.208700  0.342480  0.642220  1.0  -0.0562
  C  C279  1  0.206000  0.423640  0.582840  1.0  -0.0344
  C  C280  1  0.206100  0.410300  0.665520  1.0  -0.2083
  C  C281  1  0.205200  0.491300  0.606420  1.0  -0.2069
  C  C282  1  0.204500  0.485500  0.648300  1.0  0.1819
  C  C283  1  0.240000  0.556040  0.710520  1.0  0.1438
  C  C284  1  0.155400  0.621700  0.659030  1.0  0.1341
  C  C285  1  0.199600  0.592500  0.742980  1.0  -0.2357
  C  C286  1  0.318000  0.523300  0.715960  1.0  -0.1938
  C  C287  1  0.188900  0.697800  0.663890  1.0  -0.2207
  C  C288  1  0.076700  0.614200  0.643070  1.0  -0.1522
  C  C289  1  0.236400  0.593700  0.780400  1.0  -0.0459
  C  C290  1  0.354100  0.524100  0.754240  1.0  -0.0533
  C  C291  1  0.143200  0.764100  0.653710  1.0  -0.0305
  C  C292  1  0.031500  0.680300  0.632580  1.0  -0.0503
  C  C293  1  0.313900  0.560100  0.786020  1.0  -0.1396
  C  C294  1  0.064400  0.756690  0.637200  1.0  -0.1613
  C  C295  1  0.355600  0.561480  0.826420  1.0  0.6912
  C  C296  1  0.014280  0.828900  0.627420  1.0  0.7057
  N  N297  1  0.297700  0.054300  0.171810  1.0  -0.1428
  N  N298  1  0.702300  0.945700  0.171810  1.0  -0.1429
  N  N299  1  0.202300  0.554300  0.328190  1.0  -0.1429
  N  N300  1  0.797700  0.445700  0.328190  1.0  -0.143
  N  N301  1  0.702300  0.945700  0.828190  1.0  -0.143
  N  N302  1  0.297700  0.054300  0.828190  1.0  -0.1428
  N  N303  1  0.797700  0.445700  0.671810  1.0  -0.1429
  N  N304  1  0.202300  0.554300  0.671810  1.0  -0.1429
  O  O305  1  0.393110  0.644120  0.040260  1.0  -0.9339
  O  O306  1  0.289270  0.709000  0.093230  1.0  -0.6268
  O  O307  1  0.317290  0.594620  0.144950  1.0  -0.6268
  O  O308  1  0.441710  0.682950  0.114410  1.0  -0.6345
  O  O309  1  0.422050  0.527220  0.092380  1.0  -1.033
  O  O310  1  0.311770  0.783400  0.038380  1.0  -0.6038
  O  O311  1  0.073630  0.029690  0.327900  1.0  -0.629
  O  O312  1  0.452240  0.395400  0.133230  1.0  -0.6136
  O  O313  1  0.606890  0.355880  0.040260  1.0  -0.9323
  O  O314  1  0.710730  0.291000  0.093230  1.0  -0.624
  O  O315  1  0.682710  0.405380  0.144950  1.0  -0.6272
  O  O316  1  0.558290  0.317050  0.114410  1.0  -0.6333
  O  O317  1  0.577950  0.472780  0.092380  1.0  -1.0307
  O  O318  1  0.688230  0.216600  0.038380  1.0  -0.6033
  O  O319  1  0.926370  0.970310  0.327900  1.0  -0.629
  O  O320  1  0.547760  0.604600  0.133230  1.0  -0.6139
  O  O321  1  0.106890  0.144120  0.459740  1.0  -0.9315
  O  O322  1  0.210730  0.209000  0.406770  1.0  -0.6262
  O  O323  1  0.182710  0.094620  0.355050  1.0  -0.628
  O  O324  1  0.058290  0.182950  0.385590  1.0  -0.6338
  O  O325  1  0.077950  0.027220  0.407620  1.0  -1.0345
  O  O326  1  0.188230  0.283400  0.461620  1.0  -0.6094
  O  O327  1  0.426370  0.529690  0.172100  1.0  -0.6299
  O  O328  1  0.047760  0.895400  0.366770  1.0  -0.6135
  O  O329  1  0.893110  0.855880  0.459740  1.0  -0.9326
  O  O330  1  0.789270  0.791000  0.406770  1.0  -0.6264
  O  O331  1  0.817290  0.905380  0.355050  1.0  -0.6266
  O  O332  1  0.941710  0.817050  0.385590  1.0  -0.6336
  O  O333  1  0.922050  0.972780  0.407620  1.0  -1.0317
  O  O334  1  0.811770  0.716600  0.461620  1.0  -0.6093
  O  O335  1  0.573630  0.470310  0.172100  1.0  -0.6291
  O  O336  1  0.952240  0.104600  0.366770  1.0  -0.6141
  O  O337  1  0.606890  0.355880  0.959740  1.0  -0.9316
  O  O338  1  0.710730  0.291000  0.906770  1.0  -0.6246
  O  O339  1  0.682710  0.405380  0.855050  1.0  -0.6272
  O  O340  1  0.558290  0.317050  0.885590  1.0  -0.6331
  O  O341  1  0.577950  0.472780  0.907620  1.0  -1.0322
  O  O342  1  0.688230  0.216600  0.961620  1.0  -0.6034
  O  O343  1  0.926370  0.970310  0.672100  1.0  -0.6296
  O  O344  1  0.547760  0.604600  0.866770  1.0  -0.6138
  O  O345  1  0.393110  0.644120  0.959740  1.0  -0.9333
  O  O346  1  0.289270  0.709000  0.906770  1.0  -0.627
  O  O347  1  0.317290  0.594620  0.855050  1.0  -0.6266
  O  O348  1  0.441710  0.682950  0.885590  1.0  -0.6342
  O  O349  1  0.422050  0.527220  0.907620  1.0  -1.0346
  O  O350  1  0.311770  0.783400  0.961620  1.0  -0.6043
  O  O351  1  0.073630  0.029690  0.672100  1.0  -0.6291
  O  O352  1  0.452240  0.395400  0.866770  1.0  -0.614
  O  O353  1  0.893110  0.855880  0.540260  1.0  -0.9332
  O  O354  1  0.789270  0.791000  0.593230  1.0  -0.6264
  O  O355  1  0.817290  0.905380  0.644950  1.0  -0.6265
  O  O356  1  0.941710  0.817050  0.614410  1.0  -0.6336
  O  O357  1  0.922050  0.972780  0.592380  1.0  -1.0308
  O  O358  1  0.811770  0.716600  0.538380  1.0  -0.6092
  O  O359  1  0.573630  0.470310  0.827900  1.0  -0.6285
  O  O360  1  0.952240  0.104600  0.633230  1.0  -0.614
  O  O361  1  0.106890  0.144120  0.540260  1.0  -0.9323
  O  O362  1  0.210730  0.209000  0.593230  1.0  -0.626
  O  O363  1  0.182710  0.094620  0.644950  1.0  -0.6281
  O  O364  1  0.058290  0.182950  0.614410  1.0  -0.6342
  O  O365  1  0.077950  0.027220  0.592380  1.0  -1.0322
  O  O366  1  0.188230  0.283400  0.538380  1.0  -0.6086
  O  O367  1  0.426370  0.529690  0.827900  1.0  -0.6293
  O  O368  1  0.047760  0.895400  0.633230  1.0  -0.6134
